MODEL        1
REMARK 921   NORMALIZED FREE ENERGY PREDICTED BY IDOCK:   -5.26 KCAL/MOL
REMARK 922        TOTAL FREE ENERGY PREDICTED BY IDOCK:   -8.42 KCAL/MOL
REMARK 923 INTER-LIGAND FREE ENERGY PREDICTED BY IDOCK:   -7.41 KCAL/MOL
REMARK 924 INTRA-LIGAND FREE ENERGY PREDICTED BY IDOCK:   -1.01 KCAL/MOL
REMARK 927      BINDING AFFINITY PREDICTED BY RF-SCORE:    0.00 PKD
ROOT
HETATM    1  C   UNL     1      -8.839  15.859  66.417  1.00  0.00    -0.368 C  
HETATM    2  C   UNL     1     -10.021  16.753  65.970  1.00  0.00    -0.313 C  
HETATM    3  C   UNL     1     -10.823  15.900  64.973  1.00  0.00    -0.444 C  
ENDROOT
BRANCH   2   4
HETATM    4  N   UNL     1     -10.780  17.297  67.146  1.00  0.00    -0.242 NA 
BRANCH   4   5
HETATM    5  C   UNL     1     -10.500  16.483  68.376  1.00  0.00    -0.307 C  
BRANCH   5   6
HETATM    6  C   UNL     1     -11.702  15.703  68.966  1.00  0.00    -0.395 C  
BRANCH   6   7
HETATM    7  N   UNL     1     -12.082  14.527  68.199  1.00  0.00    -0.573 N  
HETATM    8  C   UNL     1     -11.254  13.429  68.120  1.00  0.00    -0.273 C  
HETATM    9  H   UNL     1     -12.977  14.515  67.711  1.00  0.00     0.000 HD 
HETATM   10  O   UNL     1     -10.137  13.416  68.636  1.00  0.00    -0.225 OA 
BRANCH   8  11
HETATM   11  C   UNL     1     -11.799  12.239  67.318  1.00  0.00    -0.260 C  
BRANCH  11  12
HETATM   12  N   UNL     1     -11.583  12.442  65.898  1.00  0.00    -0.379 N  
HETATM   13  C   UNL     1     -12.632  12.830  64.984  1.00  0.00    -0.468 C  
HETATM   14  C   UNL     1     -12.192  12.187  63.684  1.00  0.00    -0.663 C  
HETATM   15  C   UNL     1     -10.669  12.239  63.758  1.00  0.00    -0.494 C  
HETATM   16  C   UNL     1     -10.417  12.095  65.238  1.00  0.00    -0.276 C  
HETATM   17  O   UNL     1      -9.367  11.753  65.758  1.00  0.00    -0.232 OA 
ENDBRANCH  11  12
ENDBRANCH   8  11
ENDBRANCH   6   7
ENDBRANCH   5   6
ENDBRANCH   4   5
BRANCH   4  18
HETATM   18  C   UNL     1     -10.658  18.764  67.418  1.00  0.00    -0.443 C  
HETATM   19  C   UNL     1     -10.296  19.563  66.142  1.00  0.00    -0.614 C  
HETATM   20  C   UNL     1      -9.589  19.176  68.448  1.00  0.00    -0.437 C  
ENDBRANCH   4  18
ENDBRANCH   2   4
TORSDOF 7
ENDMDL
MODEL        2
REMARK 921   NORMALIZED FREE ENERGY PREDICTED BY IDOCK:   -5.21 KCAL/MOL
REMARK 922        TOTAL FREE ENERGY PREDICTED BY IDOCK:   -8.36 KCAL/MOL
REMARK 923 INTER-LIGAND FREE ENERGY PREDICTED BY IDOCK:   -7.52 KCAL/MOL
REMARK 924 INTRA-LIGAND FREE ENERGY PREDICTED BY IDOCK:   -0.83 KCAL/MOL
REMARK 927      BINDING AFFINITY PREDICTED BY RF-SCORE:    0.00 PKD
ROOT
HETATM    1  C   UNL     1      -6.713  18.988  68.919  1.00  0.00    -0.321 C  
HETATM    2  C   UNL     1      -7.521  19.757  67.846  1.00  0.00    -0.287 C  
HETATM    3  C   UNL     1      -6.480  20.561  67.050  1.00  0.00    -0.292 C  
ENDROOT
BRANCH   2   4
HETATM    4  N   UNL     1      -8.404  18.836  67.053  1.00  0.00    -0.266 NA 
BRANCH   4   5
HETATM    5  C   UNL     1      -8.063  17.403  67.339  1.00  0.00    -0.199 C  
BRANCH   5   6
HETATM    6  C   UNL     1      -8.391  16.387  66.215  1.00  0.00    -0.327 C  
BRANCH   6   7
HETATM    7  N   UNL     1      -9.520  15.519  66.509  1.00  0.00    -0.252 N  
HETATM    8  C   UNL     1     -10.639  15.507  65.707  1.00  0.00    -0.356 C  
HETATM    9  H   UNL     1      -9.482  14.908  67.325  1.00  0.00     0.000 HD 
HETATM   10  O   UNL     1     -10.763  16.269  64.749  1.00  0.00    -0.680 OA 
BRANCH   8  11
HETATM   11  C   UNL     1     -11.735  14.508  66.104  1.00  0.00    -0.350 C  
BRANCH  11  12
HETATM   12  N   UNL     1     -11.573  13.261  65.381  1.00  0.00    -0.312 N  
HETATM   13  C   UNL     1     -10.793  12.152  65.879  1.00  0.00    -0.278 C  
HETATM   14  C   UNL     1     -10.289  11.504  64.604  1.00  0.00    -0.349 C  
HETATM   15  C   UNL     1     -11.421  11.746  63.610  1.00  0.00    -0.524 C  
HETATM   16  C   UNL     1     -11.970  13.074  64.069  1.00  0.00    -0.456 C  
HETATM   17  O   UNL     1     -12.656  13.835  63.406  1.00  0.00    -0.842 OA 
ENDBRANCH  11  12
ENDBRANCH   8  11
ENDBRANCH   6   7
ENDBRANCH   5   6
ENDBRANCH   4   5
BRANCH   4  18
HETATM   18  C   UNL     1      -9.881  19.076  67.126  1.00  0.00    -0.324 C  
HETATM   19  C   UNL     1     -10.408  19.836  65.885  1.00  0.00    -0.582 C  
HETATM   20  C   UNL     1     -10.373  19.908  68.326  1.00  0.00    -0.526 C  
ENDBRANCH   4  18
ENDBRANCH   2   4
TORSDOF 7
ENDMDL
MODEL        3
REMARK 921   NORMALIZED FREE ENERGY PREDICTED BY IDOCK:   -5.15 KCAL/MOL
REMARK 922        TOTAL FREE ENERGY PREDICTED BY IDOCK:   -8.27 KCAL/MOL
REMARK 923 INTER-LIGAND FREE ENERGY PREDICTED BY IDOCK:   -7.47 KCAL/MOL
REMARK 924 INTRA-LIGAND FREE ENERGY PREDICTED BY IDOCK:   -0.80 KCAL/MOL
REMARK 927      BINDING AFFINITY PREDICTED BY RF-SCORE:    0.00 PKD
ROOT
HETATM    1  C   UNL     1     -14.315   8.706  72.165  1.00  0.00    -0.518 C  
HETATM    2  C   UNL     1     -13.387   9.517  71.228  1.00  0.00    -0.314 C  
HETATM    3  C   UNL     1     -13.270  10.907  71.874  1.00  0.00    -0.508 C  
ENDROOT
BRANCH   2   4
HETATM    4  N   UNL     1     -12.098   8.792  70.962  1.00  0.00    -0.265 NA 
BRANCH   4   5
HETATM    5  C   UNL     1     -10.937   9.741  71.028  1.00  0.00    -0.332 C  
BRANCH   5   6
HETATM    6  C   UNL     1     -10.382  10.234  69.668  1.00  0.00    -0.248 C  
BRANCH   6   7
HETATM    7  N   UNL     1     -10.752  11.600  69.335  1.00  0.00    -0.436 N  
HETATM    8  C   UNL     1     -11.545  11.880  68.244  1.00  0.00    -0.327 C  
HETATM    9  H   UNL     1     -10.417  12.366  69.920  1.00  0.00     0.000 HD 
HETATM   10  O   UNL     1     -11.922  11.001  67.470  1.00  0.00    -0.529 OA 
BRANCH   8  11
HETATM   11  C   UNL     1     -11.899  13.359  68.037  1.00  0.00    -0.357 C  
BRANCH  11  12
HETATM   12  N   UNL     1     -11.262  13.871  66.838  1.00  0.00    -0.304 N  
HETATM   13  C   UNL     1      -9.876  14.274  66.787  1.00  0.00    -0.270 C  
HETATM   14  C   UNL     1      -9.888  15.366  65.736  1.00  0.00    -0.399 C  
HETATM   15  C   UNL     1     -10.981  14.918  64.770  1.00  0.00    -0.390 C  
HETATM   16  C   UNL     1     -11.950  14.215  65.687  1.00  0.00    -0.396 C  
HETATM   17  O   UNL     1     -13.122  13.977  65.447  1.00  0.00    -0.763 OA 
ENDBRANCH  11  12
ENDBRANCH   8  11
ENDBRANCH   6   7
ENDBRANCH   5   6
ENDBRANCH   4   5
BRANCH   4  18
HETATM   18  C   UNL     1     -11.839   7.548  71.755  1.00  0.00    -0.294 C  
HETATM   19  C   UNL     1     -10.759   7.767  72.843  1.00  0.00    -0.446 C  
HETATM   20  C   UNL     1     -11.341   6.329  70.957  1.00  0.00    -0.378 C  
ENDBRANCH   4  18
ENDBRANCH   2   4
TORSDOF 7
ENDMDL
MODEL        4
REMARK 921   NORMALIZED FREE ENERGY PREDICTED BY IDOCK:   -5.12 KCAL/MOL
REMARK 922        TOTAL FREE ENERGY PREDICTED BY IDOCK:   -8.22 KCAL/MOL
REMARK 923 INTER-LIGAND FREE ENERGY PREDICTED BY IDOCK:   -7.56 KCAL/MOL
REMARK 924 INTRA-LIGAND FREE ENERGY PREDICTED BY IDOCK:   -0.66 KCAL/MOL
REMARK 927      BINDING AFFINITY PREDICTED BY RF-SCORE:    0.00 PKD
ROOT
HETATM    1  C   UNL     1      -8.113  16.051  67.512  1.00  0.00    -0.167 C  
HETATM    2  C   UNL     1      -8.256  17.443  66.850  1.00  0.00    -0.231 C  
HETATM    3  C   UNL     1      -7.004  17.608  65.973  1.00  0.00    -0.318 C  
ENDROOT
BRANCH   2   4
HETATM    4  N   UNL     1      -9.581  17.594  66.159  1.00  0.00    -0.492 NA 
BRANCH   4   5
HETATM    5  C   UNL     1     -10.264  16.264  66.033  1.00  0.00    -0.358 C  
BRANCH   5   6
HETATM    6  C   UNL     1     -11.209  16.095  64.816  1.00  0.00    -0.304 C  
BRANCH   6   7
HETATM    7  N   UNL     1     -11.215  14.756  64.250  1.00  0.00    -0.619 N  
HETATM    8  C   UNL     1     -12.262  13.890  64.475  1.00  0.00    -0.417 C  
HETATM    9  H   UNL     1     -10.429  14.451  63.675  1.00  0.00     0.000 HD 
HETATM   10  O   UNL     1     -13.203  14.183  65.212  1.00  0.00    -0.760 OA 
BRANCH   8  11
HETATM   11  C   UNL     1     -12.163  12.526  63.778  1.00  0.00    -0.525 C  
BRANCH  11  12
HETATM   12  N   UNL     1     -10.959  11.831  64.192  1.00  0.00    -0.347 N  
HETATM   13  C   UNL     1      -9.909  11.449  63.276  1.00  0.00    -0.404 C  
HETATM   14  C   UNL     1      -9.349  10.195  63.918  1.00  0.00    -0.336 C  
HETATM   15  C   UNL     1      -9.520  10.454  65.412  1.00  0.00    -0.285 C  
HETATM   16  C   UNL     1     -10.778  11.285  65.451  1.00  0.00    -0.227 C  
HETATM   17  O   UNL     1     -11.495  11.458  66.424  1.00  0.00    -0.349 OA 
ENDBRANCH  11  12
ENDBRANCH   8  11
ENDBRANCH   6   7
ENDBRANCH   5   6
ENDBRANCH   4   5
BRANCH   4  18
HETATM   18  C   UNL     1     -10.510  18.643  66.687  1.00  0.00    -0.413 C  
HETATM   19  C   UNL     1     -10.523  19.910  65.796  1.00  0.00    -0.518 C  
HETATM   20  C   UNL     1     -10.204  19.169  68.101  1.00  0.00    -0.489 C  
ENDBRANCH   4  18
ENDBRANCH   2   4
TORSDOF 7
ENDMDL
MODEL        5
REMARK 921   NORMALIZED FREE ENERGY PREDICTED BY IDOCK:   -5.11 KCAL/MOL
REMARK 922        TOTAL FREE ENERGY PREDICTED BY IDOCK:   -8.21 KCAL/MOL
REMARK 923 INTER-LIGAND FREE ENERGY PREDICTED BY IDOCK:   -6.98 KCAL/MOL
REMARK 924 INTRA-LIGAND FREE ENERGY PREDICTED BY IDOCK:   -1.23 KCAL/MOL
REMARK 927      BINDING AFFINITY PREDICTED BY RF-SCORE:    0.00 PKD
ROOT
HETATM    1  C   UNL     1     -11.957  13.515  69.004  1.00  0.00    -0.376 C  
HETATM    2  C   UNL     1     -12.050  14.701  68.014  1.00  0.00    -0.171 C  
HETATM    3  C   UNL     1     -11.428  15.898  68.752  1.00  0.00    -0.393 C  
ENDROOT
BRANCH   2   4
HETATM    4  N   UNL     1     -11.456  14.356  66.679  1.00  0.00    -0.351 NA 
BRANCH   4   5
HETATM    5  C   UNL     1     -10.363  13.339  66.835  1.00  0.00    -0.255 C  
BRANCH   5   6
HETATM    6  C   UNL     1      -8.922  13.898  66.947  1.00  0.00    -0.222 C  
BRANCH   6   7
HETATM    7  N   UNL     1      -8.737  15.195  66.315  1.00  0.00    -0.460 N  
HETATM    8  C   UNL     1      -8.052  16.207  66.950  1.00  0.00    -0.240 C  
HETATM    9  H   UNL     1      -9.123  15.358  65.385  1.00  0.00     0.000 HD 
HETATM   10  O   UNL     1      -7.623  16.085  68.096  1.00  0.00    -0.131 OA 
BRANCH   8  11
HETATM   11  C   UNL     1      -7.889  17.507  66.150  1.00  0.00    -0.246 C  
BRANCH  11  12
HETATM   12  N   UNL     1      -8.844  18.503  66.599  1.00  0.00    -0.287 N  
HETATM   13  C   UNL     1      -8.555  19.472  67.630  1.00  0.00    -0.314 C  
HETATM   14  C   UNL     1      -9.915  19.702  68.258  1.00  0.00    -0.543 C  
HETATM   15  C   UNL     1     -10.880  19.538  67.087  1.00  0.00    -0.555 C  
HETATM   16  C   UNL     1     -10.181  18.504  66.240  1.00  0.00    -0.418 C  
HETATM   17  O   UNL     1     -10.700  17.809  65.381  1.00  0.00    -0.626 OA 
ENDBRANCH  11  12
ENDBRANCH   8  11
ENDBRANCH   6   7
ENDBRANCH   5   6
ENDBRANCH   4   5
BRANCH   4  18
HETATM   18  C   UNL     1     -12.406  13.979  65.585  1.00  0.00    -0.479 C  
HETATM   19  C   UNL     1     -12.239  12.502  65.153  1.00  0.00    -0.509 C  
HETATM   20  C   UNL     1     -12.284  14.781  64.275  1.00  0.00    -0.402 C  
ENDBRANCH   4  18
ENDBRANCH   2   4
TORSDOF 7
ENDMDL
MODEL        6
REMARK 921   NORMALIZED FREE ENERGY PREDICTED BY IDOCK:   -5.11 KCAL/MOL
REMARK 922        TOTAL FREE ENERGY PREDICTED BY IDOCK:   -8.21 KCAL/MOL
REMARK 923 INTER-LIGAND FREE ENERGY PREDICTED BY IDOCK:   -7.73 KCAL/MOL
REMARK 924 INTRA-LIGAND FREE ENERGY PREDICTED BY IDOCK:   -0.48 KCAL/MOL
REMARK 927      BINDING AFFINITY PREDICTED BY RF-SCORE:    0.00 PKD
ROOT
HETATM    1  C   UNL     1     -12.205  12.037  63.382  1.00  0.00    -0.627 C  
HETATM    2  C   UNL     1     -10.992  11.491  64.174  1.00  0.00    -0.366 C  
HETATM    3  C   UNL     1      -9.810  11.537  63.191  1.00  0.00    -0.413 C  
ENDROOT
BRANCH   2   4
HETATM    4  N   UNL     1     -10.808  12.216  65.476  1.00  0.00    -0.274 NA 
BRANCH   4   5
HETATM    5  C   UNL     1     -12.107  12.812  65.936  1.00  0.00    -0.426 C  
BRANCH   5   6
HETATM    6  C   UNL     1     -12.284  14.332  65.693  1.00  0.00    -0.400 C  
BRANCH   6   7
HETATM    7  N   UNL     1     -11.120  15.130  66.044  1.00  0.00    -0.334 N  
HETATM    8  C   UNL     1     -10.779  16.252  65.322  1.00  0.00    -0.332 C  
HETATM    9  H   UNL     1     -10.545  14.853  66.840  1.00  0.00     0.000 HD 
HETATM   10  O   UNL     1     -11.400  16.593  64.316  1.00  0.00    -1.116 OA 
BRANCH   8  11
HETATM   11  C   UNL     1      -9.556  17.028  65.831  1.00  0.00    -0.112 C  
BRANCH  11  12
HETATM   12  N   UNL     1      -9.973  18.199  66.579  1.00  0.00    -0.355 N  
HETATM   13  C   UNL     1     -10.168  19.496  65.977  1.00  0.00    -0.478 C  
HETATM   14  C   UNL     1      -9.822  20.443  67.109  1.00  0.00    -0.601 C  
HETATM   15  C   UNL     1     -10.272  19.685  68.356  1.00  0.00    -0.553 C  
HETATM   16  C   UNL     1     -10.030  18.249  67.961  1.00  0.00    -0.347 C  
HETATM   17  O   UNL     1      -9.924  17.303  68.724  1.00  0.00    -0.293 OA 
ENDBRANCH  11  12
ENDBRANCH   8  11
ENDBRANCH   6   7
ENDBRANCH   5   6
ENDBRANCH   4   5
BRANCH   4  18
HETATM   18  C   UNL     1     -10.121  11.474  66.580  1.00  0.00    -0.213 C  
HETATM   19  C   UNL     1     -10.330   9.944  66.469  1.00  0.00    -0.259 C  
HETATM   20  C   UNL     1     -10.570  11.822  68.011  1.00  0.00    -0.235 C  
ENDBRANCH   4  18
ENDBRANCH   2   4
TORSDOF 7
ENDMDL
MODEL        7
REMARK 921   NORMALIZED FREE ENERGY PREDICTED BY IDOCK:   -5.04 KCAL/MOL
REMARK 922        TOTAL FREE ENERGY PREDICTED BY IDOCK:   -8.11 KCAL/MOL
REMARK 923 INTER-LIGAND FREE ENERGY PREDICTED BY IDOCK:   -7.51 KCAL/MOL
REMARK 924 INTRA-LIGAND FREE ENERGY PREDICTED BY IDOCK:   -0.60 KCAL/MOL
REMARK 927      BINDING AFFINITY PREDICTED BY RF-SCORE:    0.00 PKD
ROOT
HETATM    1  C   UNL     1      -9.849  19.443  68.584  1.00  0.00    -0.522 C  
HETATM    2  C   UNL     1     -10.747  18.835  67.479  1.00  0.00    -0.411 C  
HETATM    3  C   UNL     1     -10.238  19.442  66.161  1.00  0.00    -0.570 C  
ENDROOT
BRANCH   2   4
HETATM    4  N   UNL     1     -10.781  17.336  67.555  1.00  0.00    -0.321 NA 
BRANCH   4   5
HETATM    5  C   UNL     1      -9.841  16.735  66.551  1.00  0.00    -0.290 C  
BRANCH   5   6
HETATM    6  C   UNL     1     -10.499  16.057  65.322  1.00  0.00    -0.358 C  
BRANCH   6   7
HETATM    7  N   UNL     1     -11.077  14.752  65.602  1.00  0.00    -0.332 N  
HETATM    8  C   UNL     1     -12.044  14.209  64.784  1.00  0.00    -0.441 C  
HETATM    9  H   UNL     1     -10.762  14.230  66.419  1.00  0.00     0.000 HD 
HETATM   10  O   UNL     1     -12.506  14.824  63.824  1.00  0.00    -0.782 OA 
BRANCH   8  11
HETATM   11  C   UNL     1     -12.532  12.805  65.168  1.00  0.00    -0.501 C  
BRANCH  11  12
HETATM   12  N   UNL     1     -11.445  12.027  65.733  1.00  0.00    -0.341 N  
HETATM   13  C   UNL     1     -10.462  11.339  64.930  1.00  0.00    -0.314 C  
HETATM   14  C   UNL     1     -10.097  10.152  65.799  1.00  0.00    -0.324 C  
HETATM   15  C   UNL     1     -10.231  10.695  67.219  1.00  0.00    -0.250 C  
HETATM   16  C   UNL     1     -11.352  11.694  67.074  1.00  0.00    -0.305 C  
HETATM   17  O   UNL     1     -12.038  12.141  67.979  1.00  0.00    -0.478 OA 
ENDBRANCH  11  12
ENDBRANCH   8  11
ENDBRANCH   6   7
ENDBRANCH   5   6
ENDBRANCH   4   5
BRANCH   4  18
HETATM   18  C   UNL     1     -10.610  16.718  68.908  1.00  0.00    -0.350 C  
HETATM   19  C   UNL     1      -9.302  15.895  69.010  1.00  0.00    -0.243 C  
HETATM   20  C   UNL     1     -11.716  15.742  69.352  1.00  0.00    -0.379 C  
ENDBRANCH   4  18
ENDBRANCH   2   4
TORSDOF 7
ENDMDL
MODEL        8
REMARK 921   NORMALIZED FREE ENERGY PREDICTED BY IDOCK:   -5.04 KCAL/MOL
REMARK 922        TOTAL FREE ENERGY PREDICTED BY IDOCK:   -8.11 KCAL/MOL
REMARK 923 INTER-LIGAND FREE ENERGY PREDICTED BY IDOCK:   -7.24 KCAL/MOL
REMARK 924 INTRA-LIGAND FREE ENERGY PREDICTED BY IDOCK:   -0.87 KCAL/MOL
REMARK 927      BINDING AFFINITY PREDICTED BY RF-SCORE:    0.00 PKD
ROOT
HETATM    1  C   UNL     1     -10.086  11.308  63.208  1.00  0.00    -0.428 C  
HETATM    2  C   UNL     1     -10.924  12.442  63.847  1.00  0.00    -0.414 C  
HETATM    3  C   UNL     1     -12.368  12.195  63.379  1.00  0.00    -0.648 C  
ENDROOT
BRANCH   2   4
HETATM    4  N   UNL     1     -10.707  12.522  65.331  1.00  0.00    -0.273 NA 
BRANCH   4   5
HETATM    5  C   UNL     1     -12.021  12.596  66.053  1.00  0.00    -0.417 C  
BRANCH   5   6
HETATM    6  C   UNL     1     -12.235  13.839  66.955  1.00  0.00    -0.366 C  
BRANCH   6   7
HETATM    7  N   UNL     1     -11.057  14.681  67.093  1.00  0.00    -0.316 N  
HETATM    8  C   UNL     1     -10.971  15.630  68.088  1.00  0.00    -0.314 C  
HETATM    9  H   UNL     1     -10.280  14.568  66.442  1.00  0.00     0.000 HD 
HETATM   10  O   UNL     1     -11.904  15.852  68.859  1.00  0.00    -0.397 OA 
BRANCH   8  11
HETATM   11  C   UNL     1      -9.654  16.416  68.150  1.00  0.00    -0.227 C  
BRANCH  11  12
HETATM   12  N   UNL     1      -9.809  17.717  67.526  1.00  0.00    -0.290 N  
HETATM   13  C   UNL     1      -9.809  18.956  68.267  1.00  0.00    -0.374 C  
HETATM   14  C   UNL     1     -10.713  19.841  67.432  1.00  0.00    -0.515 C  
HETATM   15  C   UNL     1     -10.456  19.366  66.004  1.00  0.00    -0.596 C  
HETATM   16  C   UNL     1     -10.171  17.898  66.203  1.00  0.00    -0.343 C  
HETATM   17  O   UNL     1     -10.232  17.032  65.344  1.00  0.00    -0.605 OA 
ENDBRANCH  11  12
ENDBRANCH   8  11
ENDBRANCH   6   7
ENDBRANCH   5   6
ENDBRANCH   4   5
BRANCH   4  18
HETATM   18  C   UNL     1      -9.799  11.501  65.944  1.00  0.00    -0.231 C  
HETATM   19  C   UNL     1     -10.558  10.547  66.898  1.00  0.00    -0.303 C  
HETATM   20  C   UNL     1      -8.637  12.052  66.792  1.00  0.00    -0.177 C  
ENDBRANCH   4  18
ENDBRANCH   2   4
TORSDOF 7
ENDMDL
MODEL        9
REMARK 921   NORMALIZED FREE ENERGY PREDICTED BY IDOCK:   -4.93 KCAL/MOL
REMARK 922        TOTAL FREE ENERGY PREDICTED BY IDOCK:   -7.96 KCAL/MOL
REMARK 923 INTER-LIGAND FREE ENERGY PREDICTED BY IDOCK:   -7.15 KCAL/MOL
REMARK 924 INTRA-LIGAND FREE ENERGY PREDICTED BY IDOCK:   -0.81 KCAL/MOL
REMARK 927      BINDING AFFINITY PREDICTED BY RF-SCORE:    0.00 PKD
ROOT
HETATM    1  C   UNL     1      -6.063  17.416  66.349  1.00  0.00    -0.256 C  
HETATM    2  C   UNL     1      -6.992  18.640  66.152  1.00  0.00    -0.254 C  
HETATM    3  C   UNL     1      -6.374  19.438  64.992  1.00  0.00    -0.305 C  
ENDROOT
BRANCH   2   4
HETATM    4  N   UNL     1      -8.426  18.226  65.990  1.00  0.00    -0.511 NA 
BRANCH   4   5
HETATM    5  C   UNL     1      -8.574  16.746  66.193  1.00  0.00    -0.264 C  
BRANCH   5   6
HETATM    6  C   UNL     1      -9.806  16.291  67.015  1.00  0.00    -0.244 C  
BRANCH   6   7
HETATM    7  N   UNL     1     -10.775  15.516  66.255  1.00  0.00    -0.310 N  
HETATM    8  C   UNL     1     -11.746  14.770  66.886  1.00  0.00    -0.302 C  
HETATM    9  H   UNL     1     -10.733  15.524  65.236  1.00  0.00     0.000 HD 
HETATM   10  O   UNL     1     -11.800  14.673  68.111  1.00  0.00    -0.325 OA 
BRANCH   8  11
HETATM   11  C   UNL     1     -12.732  14.040  65.964  1.00  0.00    -0.338 C  
BRANCH  11  12
HETATM   12  N   UNL     1     -12.063  12.966  65.254  1.00  0.00    -0.425 N  
HETATM   13  C   UNL     1     -11.306  11.930  65.915  1.00  0.00    -0.308 C  
HETATM   14  C   UNL     1     -10.251  11.582  64.883  1.00  0.00    -0.324 C  
HETATM   15  C   UNL     1     -10.969  11.797  63.554  1.00  0.00    -0.499 C  
HETATM   16  C   UNL     1     -11.909  12.930  63.879  1.00  0.00    -0.473 C  
HETATM   17  O   UNL     1     -12.450  13.669  63.071  1.00  0.00    -0.719 OA 
ENDBRANCH  11  12
ENDBRANCH   8  11
ENDBRANCH   6   7
ENDBRANCH   5   6
ENDBRANCH   4   5
BRANCH   4  18
HETATM   18  C   UNL     1      -9.450  18.994  66.769  1.00  0.00    -0.329 C  
HETATM   19  C   UNL     1     -10.366  19.839  65.851  1.00  0.00    -0.582 C  
HETATM   20  C   UNL     1      -8.902  19.999  67.799  1.00  0.00    -0.379 C  
ENDBRANCH   4  18
ENDBRANCH   2   4
TORSDOF 7
ENDMDL
MODEL       10
REMARK 921   NORMALIZED FREE ENERGY PREDICTED BY IDOCK:   -4.91 KCAL/MOL
REMARK 922        TOTAL FREE ENERGY PREDICTED BY IDOCK:   -7.93 KCAL/MOL
REMARK 923 INTER-LIGAND FREE ENERGY PREDICTED BY IDOCK:   -7.06 KCAL/MOL
REMARK 924 INTRA-LIGAND FREE ENERGY PREDICTED BY IDOCK:   -0.87 KCAL/MOL
REMARK 927      BINDING AFFINITY PREDICTED BY RF-SCORE:    0.00 PKD
ROOT
HETATM    1  C   UNL     1     -10.441  13.591  64.735  1.00  0.00    -0.430 C  
HETATM    2  C   UNL     1     -11.024  14.425  65.902  1.00  0.00    -0.312 C  
HETATM    3  C   UNL     1     -12.479  13.953  66.054  1.00  0.00    -0.501 C  
ENDROOT
BRANCH   2   4
HETATM    4  N   UNL     1     -10.162  14.339  67.129  1.00  0.00    -0.253 NA 
BRANCH   4   5
HETATM    5  C   UNL     1      -9.204  13.188  67.021  1.00  0.00    -0.233 C  
BRANCH   5   6
HETATM    6  C   UNL     1      -9.598  11.899  67.785  1.00  0.00    -0.190 C  
BRANCH   6   7
HETATM    7  N   UNL     1     -10.274  12.142  69.050  1.00  0.00    -0.425 N  
HETATM    8  C   UNL     1     -11.588  11.773  69.240  1.00  0.00    -0.315 C  
HETATM    9  H   UNL     1      -9.766  12.593  69.811  1.00  0.00     0.000 HD 
HETATM   10  O   UNL     1     -12.264  11.285  68.336  1.00  0.00    -0.604 OA 
BRANCH   8  11
HETATM   11  C   UNL     1     -12.162  12.043  70.637  1.00  0.00    -0.316 C  
BRANCH  11  12
HETATM   12  N   UNL     1     -12.703  13.388  70.713  1.00  0.00    -0.269 N  
HETATM   13  C   UNL     1     -12.260  14.469  69.865  1.00  0.00    -0.328 C  
HETATM   14  C   UNL     1     -12.463  15.686  70.747  1.00  0.00    -0.484 C  
HETATM   15  C   UNL     1     -13.688  15.319  71.581  1.00  0.00    -0.600 C  
HETATM   16  C   UNL     1     -13.541  13.825  71.724  1.00  0.00    -0.368 C  
HETATM   17  O   UNL     1     -14.081  13.128  72.568  1.00  0.00    -0.672 OA 
ENDBRANCH  11  12
ENDBRANCH   8  11
ENDBRANCH   6   7
ENDBRANCH   5   6
ENDBRANCH   4   5
BRANCH   4  18
HETATM   18  C   UNL     1      -9.469  15.593  67.566  1.00  0.00    -0.214 C  
HETATM   19  C   UNL     1      -8.808  15.437  68.957  1.00  0.00    -0.231 C  
HETATM   20  C   UNL     1     -10.356  16.845  67.698  1.00  0.00    -0.317 C  
ENDBRANCH   4  18
ENDBRANCH   2   4
TORSDOF 7
ENDMDL
MODEL       11
REMARK 921   NORMALIZED FREE ENERGY PREDICTED BY IDOCK:   -4.91 KCAL/MOL
REMARK 922        TOTAL FREE ENERGY PREDICTED BY IDOCK:   -7.93 KCAL/MOL
REMARK 923 INTER-LIGAND FREE ENERGY PREDICTED BY IDOCK:   -7.05 KCAL/MOL
REMARK 924 INTRA-LIGAND FREE ENERGY PREDICTED BY IDOCK:   -0.87 KCAL/MOL
REMARK 927      BINDING AFFINITY PREDICTED BY RF-SCORE:    0.00 PKD
ROOT
HETATM    1  C   UNL     1     -12.391  12.177  63.547  1.00  0.00    -0.682 C  
HETATM    2  C   UNL     1     -11.620  13.247  64.359  1.00  0.00    -0.382 C  
HETATM    3  C   UNL     1     -12.683  13.957  65.213  1.00  0.00    -0.485 C  
ENDROOT
BRANCH   2   4
HETATM    4  N   UNL     1     -10.458  12.649  65.098  1.00  0.00    -0.290 NA 
BRANCH   4   5
HETATM    5  C   UNL     1     -10.353  13.234  66.477  1.00  0.00    -0.285 C  
BRANCH   5   6
HETATM    6  C   UNL     1      -8.982  13.852  66.853  1.00  0.00    -0.222 C  
BRANCH   6   7
HETATM    7  N   UNL     1      -8.762  15.184  66.310  1.00  0.00    -0.460 N  
HETATM    8  C   UNL     1      -7.931  16.084  66.941  1.00  0.00    -0.248 C  
HETATM    9  H   UNL     1      -9.231  15.457  65.446  1.00  0.00     0.000 HD 
HETATM   10  O   UNL     1      -7.392  15.829  68.018  1.00  0.00    -0.116 OA 
BRANCH   8  11
HETATM   11  C   UNL     1      -7.750  17.434  66.235  1.00  0.00    -0.305 C  
BRANCH  11  12
HETATM   12  N   UNL     1      -8.712  18.400  66.733  1.00  0.00    -0.270 N  
HETATM   13  C   UNL     1      -8.438  19.299  67.830  1.00  0.00    -0.305 C  
HETATM   14  C   UNL     1      -9.808  19.491  68.450  1.00  0.00    -0.521 C  
HETATM   15  C   UNL     1     -10.754  19.406  67.255  1.00  0.00    -0.603 C  
HETATM   16  C   UNL     1     -10.043  18.428  66.354  1.00  0.00    -0.403 C  
HETATM   17  O   UNL     1     -10.548  17.792  65.443  1.00  0.00    -0.659 OA 
ENDBRANCH  11  12
ENDBRANCH   8  11
ENDBRANCH   6   7
ENDBRANCH   5   6
ENDBRANCH   4   5
BRANCH   4  18
HETATM   18  C   UNL     1     -10.362  11.155  65.126  1.00  0.00    -0.293 C  
HETATM   19  C   UNL     1     -10.489  10.591  66.562  1.00  0.00    -0.276 C  
HETATM   20  C   UNL     1      -9.051  10.551  64.589  1.00  0.00    -0.248 C  
ENDBRANCH   4  18
ENDBRANCH   2   4
TORSDOF 7
ENDMDL
MODEL       12
REMARK 921   NORMALIZED FREE ENERGY PREDICTED BY IDOCK:   -4.89 KCAL/MOL
REMARK 922        TOTAL FREE ENERGY PREDICTED BY IDOCK:   -7.91 KCAL/MOL
REMARK 923 INTER-LIGAND FREE ENERGY PREDICTED BY IDOCK:   -6.95 KCAL/MOL
REMARK 924 INTRA-LIGAND FREE ENERGY PREDICTED BY IDOCK:   -0.95 KCAL/MOL
REMARK 927      BINDING AFFINITY PREDICTED BY RF-SCORE:    0.00 PKD
ROOT
HETATM    1  C   UNL     1     -14.156   8.615  72.048  1.00  0.00    -0.523 C  
HETATM    2  C   UNL     1     -13.230   9.514  71.193  1.00  0.00    -0.264 C  
HETATM    3  C   UNL     1     -13.180  10.864  71.928  1.00  0.00    -0.508 C  
ENDROOT
BRANCH   2   4
HETATM    4  N   UNL     1     -11.910   8.851  70.922  1.00  0.00    -0.270 NA 
BRANCH   4   5
HETATM    5  C   UNL     1     -10.788   9.839  71.047  1.00  0.00    -0.308 C  
BRANCH   5   6
HETATM    6  C   UNL     1     -10.192  10.366  69.717  1.00  0.00    -0.184 C  
BRANCH   6   7
HETATM    7  N   UNL     1     -10.453  11.775  69.465  1.00  0.00    -0.412 N  
HETATM    8  C   UNL     1     -11.581  12.181  68.788  1.00  0.00    -0.327 C  
HETATM    9  H   UNL     1      -9.788  12.474  69.796  1.00  0.00     0.000 HD 
HETATM   10  O   UNL     1     -12.381  11.377  68.312  1.00  0.00    -0.506 OA 
BRANCH   8  11
HETATM   11  C   UNL     1     -11.758  13.698  68.634  1.00  0.00    -0.354 C  
BRANCH  11  12
HETATM   12  N   UNL     1     -11.934  14.323  69.932  1.00  0.00    -0.318 N  
HETATM   13  C   UNL     1     -13.103  14.124  70.756  1.00  0.00    -0.226 C  
HETATM   14  C   UNL     1     -13.207  15.438  71.505  1.00  0.00    -0.572 C  
HETATM   15  C   UNL     1     -11.752  15.866  71.676  1.00  0.00    -0.563 C  
HETATM   16  C   UNL     1     -11.110  15.320  70.425  1.00  0.00    -0.298 C  
HETATM   17  O   UNL     1     -10.046  15.681  69.947  1.00  0.00    -0.283 OA 
ENDBRANCH  11  12
ENDBRANCH   8  11
ENDBRANCH   6   7
ENDBRANCH   5   6
ENDBRANCH   4   5
BRANCH   4  18
HETATM   18  C   UNL     1     -11.616   7.586  71.668  1.00  0.00    -0.268 C  
HETATM   19  C   UNL     1     -10.677   7.829  72.875  1.00  0.00    -0.446 C  
HETATM   20  C   UNL     1     -10.927   6.469  70.862  1.00  0.00    -0.325 C  
ENDBRANCH   4  18
ENDBRANCH   2   4
TORSDOF 7
ENDMDL
MODEL       13
REMARK 921   NORMALIZED FREE ENERGY PREDICTED BY IDOCK:   -4.88 KCAL/MOL
REMARK 922        TOTAL FREE ENERGY PREDICTED BY IDOCK:   -7.89 KCAL/MOL
REMARK 923 INTER-LIGAND FREE ENERGY PREDICTED BY IDOCK:   -7.23 KCAL/MOL
REMARK 924 INTRA-LIGAND FREE ENERGY PREDICTED BY IDOCK:   -0.66 KCAL/MOL
REMARK 927      BINDING AFFINITY PREDICTED BY RF-SCORE:    0.00 PKD
ROOT
HETATM    1  C   UNL     1     -11.094   6.443  68.092  1.00  0.00    -0.358 C  
HETATM    2  C   UNL     1     -11.110   6.296  69.633  1.00  0.00    -0.412 C  
HETATM    3  C   UNL     1     -10.238   5.066  69.934  1.00  0.00    -0.340 C  
ENDROOT
BRANCH   2   4
HETATM    4  N   UNL     1     -10.719   7.576  70.315  1.00  0.00    -0.234 NA 
BRANCH   4   5
HETATM    5  C   UNL     1     -10.412   8.641  69.303  1.00  0.00    -0.217 C  
BRANCH   5   6
HETATM    6  C   UNL     1     -10.240  10.078  69.856  1.00  0.00    -0.260 C  
BRANCH   6   7
HETATM    7  N   UNL     1     -10.116  11.099  68.828  1.00  0.00    -0.200 N  
HETATM    8  C   UNL     1     -11.227  11.616  68.197  1.00  0.00    -0.263 C  
HETATM    9  H   UNL     1      -9.190  11.439  68.568  1.00  0.00     0.000 HD 
HETATM   10  O   UNL     1     -12.361  11.196  68.426  1.00  0.00    -0.556 OA 
BRANCH   8  11
HETATM   11  C   UNL     1     -10.957  12.722  67.168  1.00  0.00    -0.263 C  
BRANCH  11  12
HETATM   12  N   UNL     1     -11.303  12.269  65.833  1.00  0.00    -0.344 N  
HETATM   13  C   UNL     1     -10.518  11.310  65.093  1.00  0.00    -0.291 C  
HETATM   14  C   UNL     1     -10.756  11.728  63.655  1.00  0.00    -0.503 C  
HETATM   15  C   UNL     1     -12.186  12.261  63.671  1.00  0.00    -0.665 C  
HETATM   16  C   UNL     1     -12.292  12.848  65.057  1.00  0.00    -0.485 C  
HETATM   17  O   UNL     1     -13.115  13.669  65.427  1.00  0.00    -0.704 OA 
ENDBRANCH  11  12
ENDBRANCH   8  11
ENDBRANCH   6   7
ENDBRANCH   5   6
ENDBRANCH   4   5
BRANCH   4  18
HETATM   18  C   UNL     1     -11.633   8.083  71.388  1.00  0.00    -0.267 C  
HETATM   19  C   UNL     1     -11.048   7.858  72.804  1.00  0.00    -0.462 C  
HETATM   20  C   UNL     1     -13.033   7.444  71.443  1.00  0.00    -0.403 C  
ENDBRANCH   4  18
ENDBRANCH   2   4
TORSDOF 7
ENDMDL
MODEL       14
REMARK 921   NORMALIZED FREE ENERGY PREDICTED BY IDOCK:   -4.87 KCAL/MOL
REMARK 922        TOTAL FREE ENERGY PREDICTED BY IDOCK:   -7.88 KCAL/MOL
REMARK 923 INTER-LIGAND FREE ENERGY PREDICTED BY IDOCK:   -7.25 KCAL/MOL
REMARK 924 INTRA-LIGAND FREE ENERGY PREDICTED BY IDOCK:   -0.62 KCAL/MOL
REMARK 927      BINDING AFFINITY PREDICTED BY RF-SCORE:    0.00 PKD
ROOT
HETATM    1  C   UNL     1     -12.308  11.989  63.417  1.00  0.00    -0.635 C  
HETATM    2  C   UNL     1     -11.049  11.397  64.097  1.00  0.00    -0.308 C  
HETATM    3  C   UNL     1      -9.897  11.648  63.109  1.00  0.00    -0.407 C  
ENDROOT
BRANCH   2   4
HETATM    4  N   UNL     1     -10.866  11.934  65.488  1.00  0.00    -0.288 NA 
BRANCH   4   5
HETATM    5  C   UNL     1     -12.125  12.597  65.966  1.00  0.00    -0.364 C  
BRANCH   5   6
HETATM    6  C   UNL     1     -11.961  14.011  66.577  1.00  0.00    -0.444 C  
BRANCH   6   7
HETATM    7  N   UNL     1     -11.630  14.012  67.994  1.00  0.00    -0.317 N  
HETATM    8  C   UNL     1     -11.330  15.182  68.656  1.00  0.00    -0.310 C  
HETATM    9  H   UNL     1     -11.619  13.130  68.506  1.00  0.00     0.000 HD 
HETATM   10  O   UNL     1     -11.266  16.263  68.073  1.00  0.00    -0.334 OA 
BRANCH   8  11
HETATM   11  C   UNL     1     -11.047  15.045  70.159  1.00  0.00    -0.242 C  
BRANCH  11  12
HETATM   12  N   UNL     1     -12.260  14.694  70.874  1.00  0.00    -0.300 N  
HETATM   13  C   UNL     1     -13.076  15.658  71.573  1.00  0.00    -0.485 C  
HETATM   14  C   UNL     1     -13.666  14.837  72.702  1.00  0.00    -0.547 C  
HETATM   15  C   UNL     1     -13.816  13.447  72.089  1.00  0.00    -0.605 C  
HETATM   16  C   UNL     1     -12.651  13.391  71.133  1.00  0.00    -0.345 C  
HETATM   17  O   UNL     1     -12.158  12.380  70.660  1.00  0.00    -0.358 OA 
ENDBRANCH  11  12
ENDBRANCH   8  11
ENDBRANCH   6   7
ENDBRANCH   5   6
ENDBRANCH   4   5
BRANCH   4  18
HETATM   18  C   UNL     1     -10.314  10.995  66.515  1.00  0.00    -0.245 C  
HETATM   19  C   UNL     1      -9.894   9.638  65.897  1.00  0.00    -0.358 C  
HETATM   20  C   UNL     1     -11.264  10.616  67.667  1.00  0.00    -0.361 C  
ENDBRANCH   4  18
ENDBRANCH   2   4
TORSDOF 7
ENDMDL
MODEL       15
REMARK 921   NORMALIZED FREE ENERGY PREDICTED BY IDOCK:   -4.85 KCAL/MOL
REMARK 922        TOTAL FREE ENERGY PREDICTED BY IDOCK:   -7.84 KCAL/MOL
REMARK 923 INTER-LIGAND FREE ENERGY PREDICTED BY IDOCK:   -7.05 KCAL/MOL
REMARK 924 INTRA-LIGAND FREE ENERGY PREDICTED BY IDOCK:   -0.79 KCAL/MOL
REMARK 927      BINDING AFFINITY PREDICTED BY RF-SCORE:    0.00 PKD
ROOT
HETATM    1  C   UNL     1     -10.261  19.596  67.421  1.00  0.00    -0.561 C  
HETATM    2  C   UNL     1      -9.361  18.904  68.473  1.00  0.00    -0.366 C  
HETATM    3  C   UNL     1     -10.205  17.746  69.033  1.00  0.00    -0.290 C  
ENDROOT
BRANCH   2   4
HETATM    4  N   UNL     1      -8.021  18.539  67.902  1.00  0.00    -0.250 NA 
BRANCH   4   5
HETATM    5  C   UNL     1      -8.139  18.232  66.437  1.00  0.00    -0.258 C  
BRANCH   5   6
HETATM    6  C   UNL     1      -7.822  16.774  66.019  1.00  0.00    -0.034 C  
BRANCH   6   7
HETATM    7  N   UNL     1      -8.757  15.790  66.541  1.00  0.00    -0.293 N  
HETATM    8  C   UNL     1      -9.961  15.547  65.917  1.00  0.00    -0.349 C  
HETATM    9  H   UNL     1      -8.517  15.269  67.385  1.00  0.00     0.000 HD 
HETATM   10  O   UNL     1     -10.327  16.192  64.935  1.00  0.00    -0.563 OA 
BRANCH   8  11
HETATM   11  C   UNL     1     -10.830  14.449  66.545  1.00  0.00    -0.310 C  
BRANCH  11  12
HETATM   12  N   UNL     1     -11.203  13.463  65.548  1.00  0.00    -0.287 N  
HETATM   13  C   UNL     1     -10.278  12.496  65.005  1.00  0.00    -0.279 C  
HETATM   14  C   UNL     1     -10.811  12.279  63.603  1.00  0.00    -0.522 C  
HETATM   15  C   UNL     1     -12.320  12.447  63.766  1.00  0.00    -0.625 C  
HETATM   16  C   UNL     1     -12.409  13.472  64.869  1.00  0.00    -0.407 C  
HETATM   17  O   UNL     1     -13.378  14.168  65.126  1.00  0.00    -0.684 OA 
ENDBRANCH  11  12
ENDBRANCH   8  11
ENDBRANCH   6   7
ENDBRANCH   5   6
ENDBRANCH   4   5
BRANCH   4  18
HETATM   18  C   UNL     1      -6.884  19.473  68.179  1.00  0.00    -0.271 C  
HETATM   19  C   UNL     1      -6.835  19.905  69.665  1.00  0.00    -0.290 C  
HETATM   20  C   UNL     1      -6.889  20.798  67.393  1.00  0.00    -0.411 C  
ENDBRANCH   4  18
ENDBRANCH   2   4
TORSDOF 7
ENDMDL
MODEL       16
REMARK 921   NORMALIZED FREE ENERGY PREDICTED BY IDOCK:   -4.85 KCAL/MOL
REMARK 922        TOTAL FREE ENERGY PREDICTED BY IDOCK:   -7.84 KCAL/MOL
REMARK 923 INTER-LIGAND FREE ENERGY PREDICTED BY IDOCK:   -7.21 KCAL/MOL
REMARK 924 INTRA-LIGAND FREE ENERGY PREDICTED BY IDOCK:   -0.63 KCAL/MOL
REMARK 927      BINDING AFFINITY PREDICTED BY RF-SCORE:    0.00 PKD
ROOT
HETATM    1  C   UNL     1      -6.356  17.695  66.286  1.00  0.00    -0.279 C  
HETATM    2  C   UNL     1      -7.619  16.804  66.195  1.00  0.00    -0.133 C  
HETATM    3  C   UNL     1      -7.470  15.770  67.323  1.00  0.00    -0.252 C  
ENDROOT
BRANCH   2   4
HETATM    4  N   UNL     1      -8.877  17.624  66.201  1.00  0.00    -0.490 NA 
BRANCH   4   5
HETATM    5  C   UNL     1     -10.080  16.742  66.367  1.00  0.00    -0.317 C  
BRANCH   5   6
HETATM    6  C   UNL     1     -10.590  16.036  65.085  1.00  0.00    -0.370 C  
BRANCH   6   7
HETATM    7  N   UNL     1     -11.094  14.690  65.309  1.00  0.00    -0.340 N  
HETATM    8  C   UNL     1     -12.120  14.176  64.546  1.00  0.00    -0.468 C  
HETATM    9  H   UNL     1     -10.680  14.116  66.043  1.00  0.00     0.000 HD 
HETATM   10  O   UNL     1     -12.696  14.847  63.692  1.00  0.00    -0.689 OA 
BRANCH   8  11
HETATM   11  C   UNL     1     -12.520  12.726  64.855  1.00  0.00    -0.497 C  
BRANCH  11  12
HETATM   12  N   UNL     1     -11.380  11.980  65.353  1.00  0.00    -0.335 N  
HETATM   13  C   UNL     1     -10.363  11.419  64.495  1.00  0.00    -0.313 C  
HETATM   14  C   UNL     1      -9.914  10.196  65.270  1.00  0.00    -0.381 C  
HETATM   15  C   UNL     1     -10.067  10.623  66.727  1.00  0.00    -0.272 C  
HETATM   16  C   UNL     1     -11.250  11.555  66.664  1.00  0.00    -0.271 C  
HETATM   17  O   UNL     1     -11.953  11.888  67.605  1.00  0.00    -0.575 OA 
ENDBRANCH  11  12
ENDBRANCH   8  11
ENDBRANCH   6   7
ENDBRANCH   5   6
ENDBRANCH   4   5
BRANCH   4  18
HETATM   18  C   UNL     1      -8.922  18.797  67.130  1.00  0.00    -0.281 C  
HETATM   19  C   UNL     1      -9.688  18.475  68.436  1.00  0.00    -0.395 C  
HETATM   20  C   UNL     1      -9.605  20.066  66.585  1.00  0.00    -0.548 C  
ENDBRANCH   4  18
ENDBRANCH   2   4
TORSDOF 7
ENDMDL
MODEL       17
REMARK 921   NORMALIZED FREE ENERGY PREDICTED BY IDOCK:   -4.84 KCAL/MOL
REMARK 922        TOTAL FREE ENERGY PREDICTED BY IDOCK:   -7.82 KCAL/MOL
REMARK 923 INTER-LIGAND FREE ENERGY PREDICTED BY IDOCK:   -7.25 KCAL/MOL
REMARK 924 INTRA-LIGAND FREE ENERGY PREDICTED BY IDOCK:   -0.57 KCAL/MOL
REMARK 927      BINDING AFFINITY PREDICTED BY RF-SCORE:    0.00 PKD
ROOT
HETATM    1  C   UNL     1     -13.127  10.457  71.838  1.00  0.00    -0.563 C  
HETATM    2  C   UNL     1     -12.887   8.933  71.967  1.00  0.00    -0.397 C  
HETATM    3  C   UNL     1     -14.253   8.281  71.699  1.00  0.00    -0.530 C  
ENDROOT
BRANCH   2   4
HETATM    4  N   UNL     1     -11.747   8.477  71.102  1.00  0.00    -0.279 NA 
BRANCH   4   5
HETATM    5  C   UNL     1     -11.015   9.656  70.530  1.00  0.00    -0.313 C  
BRANCH   5   6
HETATM    6  C   UNL     1     -10.778   9.633  68.998  1.00  0.00    -0.211 C  
BRANCH   6   7
HETATM    7  N   UNL     1     -11.338  10.776  68.294  1.00  0.00    -0.302 N  
HETATM    8  C   UNL     1     -10.536  11.802  67.847  1.00  0.00    -0.196 C  
HETATM    9  H   UNL     1     -12.344  10.817  68.127  1.00  0.00     0.000 HD 
HETATM   10  O   UNL     1      -9.328  11.833  68.078  1.00  0.00    -0.171 OA 
BRANCH   8  11
HETATM   11  C   UNL     1     -11.250  12.922  67.077  1.00  0.00    -0.288 C  
BRANCH  11  12
HETATM   12  N   UNL     1     -11.505  12.513  65.708  1.00  0.00    -0.346 N  
HETATM   13  C   UNL     1     -10.677  11.569  64.995  1.00  0.00    -0.290 C  
HETATM   14  C   UNL     1     -10.808  12.032  63.558  1.00  0.00    -0.509 C  
HETATM   15  C   UNL     1     -12.232  12.579  63.490  1.00  0.00    -0.652 C  
HETATM   16  C   UNL     1     -12.432  13.124  64.881  1.00  0.00    -0.433 C  
HETATM   17  O   UNL     1     -13.272  13.943  65.218  1.00  0.00    -0.774 OA 
ENDBRANCH  11  12
ENDBRANCH   8  11
ENDBRANCH   6   7
ENDBRANCH   5   6
ENDBRANCH   4   5
BRANCH   4  18
HETATM   18  C   UNL     1     -10.802   7.475  71.691  1.00  0.00    -0.219 C  
HETATM   19  C   UNL     1     -11.120   6.033  71.227  1.00  0.00    -0.337 C  
HETATM   20  C   UNL     1     -10.778   7.389  73.229  1.00  0.00    -0.441 C  
ENDBRANCH   4  18
ENDBRANCH   2   4
TORSDOF 7
ENDMDL
MODEL       18
REMARK 921   NORMALIZED FREE ENERGY PREDICTED BY IDOCK:   -4.83 KCAL/MOL
REMARK 922        TOTAL FREE ENERGY PREDICTED BY IDOCK:   -7.81 KCAL/MOL
REMARK 923 INTER-LIGAND FREE ENERGY PREDICTED BY IDOCK:   -7.20 KCAL/MOL
REMARK 924 INTRA-LIGAND FREE ENERGY PREDICTED BY IDOCK:   -0.61 KCAL/MOL
REMARK 927      BINDING AFFINITY PREDICTED BY RF-SCORE:    0.00 PKD
ROOT
HETATM    1  C   UNL     1     -11.311   7.032  71.413  1.00  0.00    -0.298 C  
HETATM    2  C   UNL     1     -11.133   8.356  72.196  1.00  0.00    -0.345 C  
HETATM    3  C   UNL     1      -9.681   8.338  72.703  1.00  0.00    -0.357 C  
ENDROOT
BRANCH   2   4
HETATM    4  N   UNL     1     -11.539   9.545  71.374  1.00  0.00    -0.369 NA 
BRANCH   4   5
HETATM    5  C   UNL     1     -11.047   9.402  69.963  1.00  0.00    -0.221 C  
BRANCH   5   6
HETATM    6  C   UNL     1     -10.029  10.470  69.484  1.00  0.00    -0.158 C  
BRANCH   6   7
HETATM    7  N   UNL     1     -10.618  11.771  69.212  1.00  0.00    -0.430 N  
HETATM    8  C   UNL     1     -11.353  11.998  68.068  1.00  0.00    -0.296 C  
HETATM    9  H   UNL     1     -10.485  12.531  69.879  1.00  0.00     0.000 HD 
HETATM   10  O   UNL     1     -11.489  11.136  67.201  1.00  0.00    -0.461 OA 
BRANCH   8  11
HETATM   11  C   UNL     1     -11.957  13.402  67.930  1.00  0.00    -0.323 C  
BRANCH  11  12
HETATM   12  N   UNL     1     -11.432  14.067  66.752  1.00  0.00    -0.347 N  
HETATM   13  C   UNL     1     -10.178  14.782  66.738  1.00  0.00    -0.266 C  
HETATM   14  C   UNL     1     -10.422  15.859  65.700  1.00  0.00    -0.411 C  
HETATM   15  C   UNL     1     -11.361  15.185  64.703  1.00  0.00    -0.362 C  
HETATM   16  C   UNL     1     -12.158  14.260  65.589  1.00  0.00    -0.393 C  
HETATM   17  O   UNL     1     -13.238  13.760  65.319  1.00  0.00    -0.755 OA 
ENDBRANCH  11  12
ENDBRANCH   8  11
ENDBRANCH   6   7
ENDBRANCH   5   6
ENDBRANCH   4   5
BRANCH   4  18
HETATM   18  C   UNL     1     -12.981   9.944  71.416  1.00  0.00    -0.407 C  
HETATM   19  C   UNL     1     -13.162  11.433  71.799  1.00  0.00    -0.472 C  
HETATM   20  C   UNL     1     -13.866   9.178  72.417  1.00  0.00    -0.524 C  
ENDBRANCH   4  18
ENDBRANCH   2   4
TORSDOF 7
ENDMDL
MODEL       19
REMARK 921   NORMALIZED FREE ENERGY PREDICTED BY IDOCK:   -4.81 KCAL/MOL
REMARK 922        TOTAL FREE ENERGY PREDICTED BY IDOCK:   -7.78 KCAL/MOL
REMARK 923 INTER-LIGAND FREE ENERGY PREDICTED BY IDOCK:   -6.92 KCAL/MOL
REMARK 924 INTRA-LIGAND FREE ENERGY PREDICTED BY IDOCK:   -0.86 KCAL/MOL
REMARK 927      BINDING AFFINITY PREDICTED BY RF-SCORE:    0.00 PKD
ROOT
HETATM    1  C   UNL     1     -14.120  15.281  71.595  1.00  0.00    -0.640 C  
HETATM    2  C   UNL     1     -12.651  15.756  71.709  1.00  0.00    -0.462 C  
HETATM    3  C   UNL     1     -12.283  15.590  73.193  1.00  0.00    -0.580 C  
ENDROOT
BRANCH   2   4
HETATM    4  N   UNL     1     -11.765  15.058  70.718  1.00  0.00    -0.299 NA 
BRANCH   4   5
HETATM    5  C   UNL     1     -12.509  13.946  70.037  1.00  0.00    -0.266 C  
BRANCH   5   6
HETATM    6  C   UNL     1     -11.906  12.527  70.192  1.00  0.00    -0.258 C  
BRANCH   6   7
HETATM    7  N   UNL     1     -10.784  12.258  69.307  1.00  0.00    -0.442 N  
HETATM    8  C   UNL     1     -10.977  11.722  68.052  1.00  0.00    -0.225 C  
HETATM    9  H   UNL     1      -9.836  12.469  69.620  1.00  0.00     0.000 HD 
HETATM   10  O   UNL     1     -12.091  11.390  67.650  1.00  0.00    -0.630 OA 
BRANCH   8  11
HETATM   11  C   UNL     1      -9.711  11.535  67.204  1.00  0.00    -0.183 C  
BRANCH  11  12
HETATM   12  N   UNL     1      -9.962  11.916  65.826  1.00  0.00    -0.231 N  
HETATM   13  C   UNL     1     -10.324  13.256  65.427  1.00  0.00    -0.306 C  
HETATM   14  C   UNL     1     -11.184  13.015  64.203  1.00  0.00    -0.439 C  
HETATM   15  C   UNL     1     -10.571  11.766  63.577  1.00  0.00    -0.499 C  
HETATM   16  C   UNL     1     -10.081  11.010  64.786  1.00  0.00    -0.308 C  
HETATM   17  O   UNL     1      -9.820   9.819  64.832  1.00  0.00    -0.284 OA 
ENDBRANCH  11  12
ENDBRANCH   8  11
ENDBRANCH   6   7
ENDBRANCH   5   6
ENDBRANCH   4   5
BRANCH   4  18
HETATM   18  C   UNL     1     -11.035  15.916  69.732  1.00  0.00    -0.328 C  
HETATM   19  C   UNL     1     -11.575  15.737  68.292  1.00  0.00    -0.302 C  
HETATM   20  C   UNL     1      -9.520  15.666  69.609  1.00  0.00    -0.243 C  
ENDBRANCH   4  18
ENDBRANCH   2   4
TORSDOF 7
ENDMDL
MODEL       20
REMARK 921   NORMALIZED FREE ENERGY PREDICTED BY IDOCK:   -4.80 KCAL/MOL
REMARK 922        TOTAL FREE ENERGY PREDICTED BY IDOCK:   -7.77 KCAL/MOL
REMARK 923 INTER-LIGAND FREE ENERGY PREDICTED BY IDOCK:   -7.15 KCAL/MOL
REMARK 924 INTRA-LIGAND FREE ENERGY PREDICTED BY IDOCK:   -0.62 KCAL/MOL
REMARK 927      BINDING AFFINITY PREDICTED BY RF-SCORE:    0.00 PKD
ROOT
HETATM    1  C   UNL     1     -13.255   8.936  72.268  1.00  0.00    -0.498 C  
HETATM    2  C   UNL     1     -11.725   8.833  72.056  1.00  0.00    -0.372 C  
HETATM    3  C   UNL     1     -11.268   7.666  72.947  1.00  0.00    -0.426 C  
ENDROOT
BRANCH   2   4
HETATM    4  N   UNL     1     -11.372   8.740  70.600  1.00  0.00    -0.263 NA 
BRANCH   4   5
HETATM    5  C   UNL     1     -10.820  10.046  70.107  1.00  0.00    -0.311 C  
BRANCH   5   6
HETATM    6  C   UNL     1     -11.816  10.970  69.361  1.00  0.00    -0.335 C  
BRANCH   6   7
HETATM    7  N   UNL     1     -11.258  11.620  68.186  1.00  0.00    -0.240 N  
HETATM    8  C   UNL     1     -11.481  12.956  67.936  1.00  0.00    -0.318 C  
HETATM    9  H   UNL     1     -10.691  11.077  67.535  1.00  0.00     0.000 HD 
HETATM   10  O   UNL     1     -12.210  13.641  68.653  1.00  0.00    -0.339 OA 
BRANCH   8  11
HETATM   11  C   UNL     1     -10.793  13.526  66.688  1.00  0.00    -0.283 C  
BRANCH  11  12
HETATM   12  N   UNL     1     -11.180  12.776  65.507  1.00  0.00    -0.287 N  
HETATM   13  C   UNL     1     -10.306  11.837  64.844  1.00  0.00    -0.289 C  
HETATM   14  C   UNL     1     -10.760  11.927  63.400  1.00  0.00    -0.476 C  
HETATM   15  C   UNL     1     -12.255  12.208  63.514  1.00  0.00    -0.670 C  
HETATM   16  C   UNL     1     -12.332  13.023  64.781  1.00  0.00    -0.436 C  
HETATM   17  O   UNL     1     -13.253  13.752  65.112  1.00  0.00    -0.757 OA 
ENDBRANCH  11  12
ENDBRANCH   8  11
ENDBRANCH   6   7
ENDBRANCH   5   6
ENDBRANCH   4   5
BRANCH   4  18
HETATM   18  C   UNL     1     -10.517   7.586  70.177  1.00  0.00    -0.222 C  
HETATM   19  C   UNL     1      -9.483   7.993  69.099  1.00  0.00    -0.155 C  
HETATM   20  C   UNL     1     -11.258   6.383  69.565  1.00  0.00    -0.477 C  
ENDBRANCH   4  18
ENDBRANCH   2   4
TORSDOF 7
ENDMDL
MODEL       21
REMARK 921   NORMALIZED FREE ENERGY PREDICTED BY IDOCK:   -4.80 KCAL/MOL
REMARK 922        TOTAL FREE ENERGY PREDICTED BY IDOCK:   -7.77 KCAL/MOL
REMARK 923 INTER-LIGAND FREE ENERGY PREDICTED BY IDOCK:   -7.07 KCAL/MOL
REMARK 924 INTRA-LIGAND FREE ENERGY PREDICTED BY IDOCK:   -0.70 KCAL/MOL
REMARK 927      BINDING AFFINITY PREDICTED BY RF-SCORE:    0.00 PKD
ROOT
HETATM    1  C   UNL     1      -9.843  11.645  63.135  1.00  0.00    -0.407 C  
HETATM    2  C   UNL     1     -10.839  12.652  63.761  1.00  0.00    -0.426 C  
HETATM    3  C   UNL     1     -12.232  12.184  63.308  1.00  0.00    -0.533 C  
ENDROOT
BRANCH   2   4
HETATM    4  N   UNL     1     -10.629  12.791  65.242  1.00  0.00    -0.284 NA 
BRANCH   4   5
HETATM    5  C   UNL     1     -11.910  13.177  65.922  1.00  0.00    -0.406 C  
BRANCH   5   6
HETATM    6  C   UNL     1     -11.861  14.461  66.789  1.00  0.00    -0.410 C  
BRANCH   6   7
HETATM    7  N   UNL     1     -12.450  14.308  68.110  1.00  0.00    -0.500 N  
HETATM    8  C   UNL     1     -11.668  14.297  69.244  1.00  0.00    -0.321 C  
HETATM    9  H   UNL     1     -13.461  14.207  68.199  1.00  0.00     0.000 HD 
HETATM   10  O   UNL     1     -10.440  14.350  69.188  1.00  0.00    -0.238 OA 
BRANCH   8  11
HETATM   11  C   UNL     1     -12.422  14.178  70.575  1.00  0.00    -0.361 C  
BRANCH  11  12
HETATM   12  N   UNL     1     -12.456  12.796  71.018  1.00  0.00    -0.347 N  
HETATM   13  C   UNL     1     -11.790  11.723  70.318  1.00  0.00    -0.295 C  
HETATM   14  C   UNL     1     -12.675  10.530  70.622  1.00  0.00    -0.441 C  
HETATM   15  C   UNL     1     -13.198  10.824  72.025  1.00  0.00    -0.466 C  
HETATM   16  C   UNL     1     -13.282  12.330  72.026  1.00  0.00    -0.403 C  
HETATM   17  O   UNL     1     -13.945  13.012  72.790  1.00  0.00    -0.591 OA 
ENDBRANCH  11  12
ENDBRANCH   8  11
ENDBRANCH   6   7
ENDBRANCH   5   6
ENDBRANCH   4   5
BRANCH   4  18
HETATM   18  C   UNL     1      -9.954  11.654  65.944  1.00  0.00    -0.231 C  
HETATM   19  C   UNL     1     -10.957  10.784  66.741  1.00  0.00    -0.214 C  
HETATM   20  C   UNL     1      -8.876  12.040  66.975  1.00  0.00    -0.197 C  
ENDBRANCH   4  18
ENDBRANCH   2   4
TORSDOF 7
ENDMDL
MODEL       22
REMARK 921   NORMALIZED FREE ENERGY PREDICTED BY IDOCK:   -4.78 KCAL/MOL
REMARK 922        TOTAL FREE ENERGY PREDICTED BY IDOCK:   -7.75 KCAL/MOL
REMARK 923 INTER-LIGAND FREE ENERGY PREDICTED BY IDOCK:   -7.05 KCAL/MOL
REMARK 924 INTRA-LIGAND FREE ENERGY PREDICTED BY IDOCK:   -0.70 KCAL/MOL
REMARK 927      BINDING AFFINITY PREDICTED BY RF-SCORE:    0.00 PKD
ROOT
HETATM    1  C   UNL     1     -10.410  19.978  68.136  1.00  0.00    -0.503 C  
HETATM    2  C   UNL     1     -10.449  18.461  67.827  1.00  0.00    -0.409 C  
HETATM    3  C   UNL     1     -10.048  18.337  66.348  1.00  0.00    -0.406 C  
ENDROOT
BRANCH   2   4
HETATM    4  N   UNL     1      -9.630  17.675  68.810  1.00  0.00    -0.298 NA 
BRANCH   4   5
HETATM    5  C   UNL     1     -10.387  16.466  69.278  1.00  0.00    -0.292 C  
BRANCH   5   6
HETATM    6  C   UNL     1     -11.706  16.155  68.527  1.00  0.00    -0.170 C  
BRANCH   6   7
HETATM    7  N   UNL     1     -11.916  14.741  68.254  1.00  0.00    -0.529 N  
HETATM    8  C   UNL     1     -11.198  14.090  67.275  1.00  0.00    -0.312 C  
HETATM    9  H   UNL     1     -12.606  14.223  68.797  1.00  0.00     0.000 HD 
HETATM   10  O   UNL     1     -10.401  14.681  66.548  1.00  0.00    -0.272 OA 
BRANCH   8  11
HETATM   11  C   UNL     1     -11.484  12.589  67.124  1.00  0.00    -0.351 C  
BRANCH  11  12
HETATM   12  N   UNL     1     -11.412  12.195  65.730  1.00  0.00    -0.361 N  
HETATM   13  C   UNL     1     -10.267  11.532  65.151  1.00  0.00    -0.274 C  
HETATM   14  C   UNL     1     -10.296  12.015  63.715  1.00  0.00    -0.457 C  
HETATM   15  C   UNL     1     -11.786  12.179  63.425  1.00  0.00    -0.533 C  
HETATM   16  C   UNL     1     -12.330  12.586  64.771  1.00  0.00    -0.474 C  
HETATM   17  O   UNL     1     -13.397  13.143  64.975  1.00  0.00    -0.634 OA 
ENDBRANCH  11  12
ENDBRANCH   8  11
ENDBRANCH   6   7
ENDBRANCH   5   6
ENDBRANCH   4   5
BRANCH   4  18
HETATM   18  C   UNL     1      -8.230  17.327  68.409  1.00  0.00    -0.260 C  
HETATM   19  C   UNL     1      -7.759  15.994  69.039  1.00  0.00    -0.216 C  
HETATM   20  C   UNL     1      -7.142  18.345  68.800  1.00  0.00    -0.299 C  
ENDBRANCH   4  18
ENDBRANCH   2   4
TORSDOF 7
ENDMDL
MODEL       23
REMARK 921   NORMALIZED FREE ENERGY PREDICTED BY IDOCK:   -4.78 KCAL/MOL
REMARK 922        TOTAL FREE ENERGY PREDICTED BY IDOCK:   -7.75 KCAL/MOL
REMARK 923 INTER-LIGAND FREE ENERGY PREDICTED BY IDOCK:   -6.69 KCAL/MOL
REMARK 924 INTRA-LIGAND FREE ENERGY PREDICTED BY IDOCK:   -1.06 KCAL/MOL
REMARK 927      BINDING AFFINITY PREDICTED BY RF-SCORE:    0.00 PKD
ROOT
HETATM    1  C   UNL     1     -11.282  16.183  68.647  1.00  0.00    -0.369 C  
HETATM    2  C   UNL     1     -10.792  14.758  68.292  1.00  0.00    -0.249 C  
HETATM    3  C   UNL     1     -12.018  13.847  68.478  1.00  0.00    -0.394 C  
ENDROOT
BRANCH   2   4
HETATM    4  N   UNL     1     -10.128  14.720  66.946  1.00  0.00    -0.243 NA 
BRANCH   4   5
HETATM    5  C   UNL     1     -10.321  16.023  66.226  1.00  0.00    -0.321 C  
BRANCH   5   6
HETATM    6  C   UNL     1     -11.067  15.949  64.869  1.00  0.00    -0.389 C  
BRANCH   6   7
HETATM    7  N   UNL     1     -11.046  14.633  64.251  1.00  0.00    -0.605 N  
HETATM    8  C   UNL     1     -12.105  13.762  64.389  1.00  0.00    -0.436 C  
HETATM    9  H   UNL     1     -10.232  14.348  63.706  1.00  0.00     0.000 HD 
HETATM   10  O   UNL     1     -13.081  14.030  65.089  1.00  0.00    -0.776 OA 
BRANCH   8  11
HETATM   11  C   UNL     1     -11.973  12.426  63.645  1.00  0.00    -0.539 C  
BRANCH  11  12
HETATM   12  N   UNL     1     -10.741  11.756  64.019  1.00  0.00    -0.341 N  
HETATM   13  C   UNL     1      -9.687  11.453  63.080  1.00  0.00    -0.393 C  
HETATM   14  C   UNL     1      -9.078  10.193  63.661  1.00  0.00    -0.289 C  
HETATM   15  C   UNL     1      -9.245  10.379  65.167  1.00  0.00    -0.250 C  
HETATM   16  C   UNL     1     -10.531  11.162  65.252  1.00  0.00    -0.263 C  
HETATM   17  O   UNL     1     -11.245  11.267  66.236  1.00  0.00    -0.232 OA 
ENDBRANCH  11  12
ENDBRANCH   8  11
ENDBRANCH   6   7
ENDBRANCH   5   6
ENDBRANCH   4   5
BRANCH   4  18
HETATM   18  C   UNL     1      -8.700  14.272  66.901  1.00  0.00    -0.179 C  
HETATM   19  C   UNL     1      -8.457  13.016  67.773  1.00  0.00    -0.188 C  
HETATM   20  C   UNL     1      -7.656  15.291  67.394  1.00  0.00    -0.229 C  
ENDBRANCH   4  18
ENDBRANCH   2   4
TORSDOF 7
ENDMDL
MODEL       24
REMARK 921   NORMALIZED FREE ENERGY PREDICTED BY IDOCK:   -4.78 KCAL/MOL
REMARK 922        TOTAL FREE ENERGY PREDICTED BY IDOCK:   -7.75 KCAL/MOL
REMARK 923 INTER-LIGAND FREE ENERGY PREDICTED BY IDOCK:   -7.05 KCAL/MOL
REMARK 924 INTRA-LIGAND FREE ENERGY PREDICTED BY IDOCK:   -0.69 KCAL/MOL
REMARK 927      BINDING AFFINITY PREDICTED BY RF-SCORE:    0.00 PKD
ROOT
HETATM    1  C   UNL     1     -10.029   9.853  65.830  1.00  0.00    -0.347 C  
HETATM    2  C   UNL     1      -9.867  11.166  65.025  1.00  0.00    -0.266 C  
HETATM    3  C   UNL     1      -9.512  10.725  63.595  1.00  0.00    -0.325 C  
ENDROOT
BRANCH   2   4
HETATM    4  N   UNL     1     -11.067  12.057  65.171  1.00  0.00    -0.311 NA 
BRANCH   4   5
HETATM    5  C   UNL     1     -10.864  13.034  66.293  1.00  0.00    -0.278 C  
BRANCH   5   6
HETATM    6  C   UNL     1      -9.393  13.387  66.632  1.00  0.00    -0.241 C  
BRANCH   6   7
HETATM    7  N   UNL     1      -8.951  14.666  66.099  1.00  0.00    -0.491 N  
HETATM    8  C   UNL     1      -8.733  15.746  66.925  1.00  0.00    -0.244 C  
HETATM    9  H   UNL     1      -8.800  14.765  65.095  1.00  0.00     0.000 HD 
HETATM   10  O   UNL     1      -8.961  15.700  68.133  1.00  0.00    -0.176 OA 
BRANCH   8  11
HETATM   11  C   UNL     1      -8.222  17.020  66.237  1.00  0.00    -0.287 C  
BRANCH  11  12
HETATM   12  N   UNL     1      -8.961  18.179  66.701  1.00  0.00    -0.276 N  
HETATM   13  C   UNL     1      -8.542  18.991  67.819  1.00  0.00    -0.298 C  
HETATM   14  C   UNL     1      -9.860  19.490  68.378  1.00  0.00    -0.521 C  
HETATM   15  C   UNL     1     -10.743  19.622  67.141  1.00  0.00    -0.587 C  
HETATM   16  C   UNL     1     -10.231  18.509  66.262  1.00  0.00    -0.418 C  
HETATM   17  O   UNL     1     -10.825  18.005  65.322  1.00  0.00    -0.627 OA 
ENDBRANCH  11  12
ENDBRANCH   8  11
ENDBRANCH   6   7
ENDBRANCH   5   6
ENDBRANCH   4   5
BRANCH   4  18
HETATM   18  C   UNL     1     -11.568  12.735  63.934  1.00  0.00    -0.452 C  
HETATM   19  C   UNL     1     -12.091  14.163  64.225  1.00  0.00    -0.471 C  
HETATM   20  C   UNL     1     -12.733  12.039  63.205  1.00  0.00    -0.437 C  
ENDBRANCH   4  18
ENDBRANCH   2   4
TORSDOF 7
ENDMDL
MODEL       25
REMARK 921   NORMALIZED FREE ENERGY PREDICTED BY IDOCK:   -4.78 KCAL/MOL
REMARK 922        TOTAL FREE ENERGY PREDICTED BY IDOCK:   -7.74 KCAL/MOL
REMARK 923 INTER-LIGAND FREE ENERGY PREDICTED BY IDOCK:   -7.01 KCAL/MOL
REMARK 924 INTRA-LIGAND FREE ENERGY PREDICTED BY IDOCK:   -0.73 KCAL/MOL
REMARK 927      BINDING AFFINITY PREDICTED BY RF-SCORE:    0.00 PKD
ROOT
HETATM    1  C   UNL     1     -10.961  16.621  67.393  1.00  0.00    -0.103 C  
HETATM    2  C   UNL     1     -10.417  15.468  66.514  1.00  0.00    -0.300 C  
HETATM    3  C   UNL     1      -8.958  15.845  66.205  1.00  0.00    -0.376 C  
ENDROOT
BRANCH   2   4
HETATM    4  N   UNL     1     -10.640  14.129  67.156  1.00  0.00    -0.277 NA 
BRANCH   4   5
HETATM    5  C   UNL     1     -10.774  14.274  68.644  1.00  0.00    -0.249 C  
BRANCH   5   6
HETATM    6  C   UNL     1     -11.916  13.463  69.307  1.00  0.00    -0.317 C  
BRANCH   6   7
HETATM    7  N   UNL     1     -11.456  12.379  70.161  1.00  0.00    -0.520 N  
HETATM    8  C   UNL     1     -11.701  11.062  69.837  1.00  0.00    -0.346 C  
HETATM    9  H   UNL     1     -10.943  12.596  71.015  1.00  0.00     0.000 HD 
HETATM   10  O   UNL     1     -12.370  10.747  68.853  1.00  0.00    -0.433 OA 
BRANCH   8  11
HETATM   11  C   UNL     1     -11.118  10.018  70.799  1.00  0.00    -0.334 C  
BRANCH  11  12
HETATM   12  N   UNL     1     -12.183   9.298  71.472  1.00  0.00    -0.339 N  
HETATM   13  C   UNL     1     -12.332   7.863  71.410  1.00  0.00    -0.312 C  
HETATM   14  C   UNL     1     -13.832   7.681  71.535  1.00  0.00    -0.466 C  
HETATM   15  C   UNL     1     -14.256   8.833  72.442  1.00  0.00    -0.464 C  
HETATM   16  C   UNL     1     -13.270   9.912  72.069  1.00  0.00    -0.456 C  
HETATM   17  O   UNL     1     -13.402  11.108  72.275  1.00  0.00    -0.394 OA 
ENDBRANCH  11  12
ENDBRANCH   8  11
ENDBRANCH   6   7
ENDBRANCH   5   6
ENDBRANCH   4   5
BRANCH   4  18
HETATM   18  C   UNL     1     -11.727  13.272  66.586  1.00  0.00    -0.377 C  
HETATM   19  C   UNL     1     -11.164  12.032  65.849  1.00  0.00    -0.385 C  
HETATM   20  C   UNL     1     -12.651  13.947  65.555  1.00  0.00    -0.560 C  
ENDBRANCH   4  18
ENDBRANCH   2   4
TORSDOF 7
ENDMDL
MODEL       26
REMARK 921   NORMALIZED FREE ENERGY PREDICTED BY IDOCK:   -4.77 KCAL/MOL
REMARK 922        TOTAL FREE ENERGY PREDICTED BY IDOCK:   -7.73 KCAL/MOL
REMARK 923 INTER-LIGAND FREE ENERGY PREDICTED BY IDOCK:   -7.02 KCAL/MOL
REMARK 924 INTRA-LIGAND FREE ENERGY PREDICTED BY IDOCK:   -0.71 KCAL/MOL
REMARK 927      BINDING AFFINITY PREDICTED BY RF-SCORE:    0.00 PKD
ROOT
HETATM    1  C   UNL     1     -12.126  15.693  72.494  1.00  0.00    -0.563 C  
HETATM    2  C   UNL     1     -12.940  14.479  71.984  1.00  0.00    -0.341 C  
HETATM    3  C   UNL     1     -14.393  14.972  71.891  1.00  0.00    -0.677 C  
ENDROOT
BRANCH   2   4
HETATM    4  N   UNL     1     -12.348  13.903  70.730  1.00  0.00    -0.359 NA 
BRANCH   4   5
HETATM    5  C   UNL     1     -11.207  14.751  70.247  1.00  0.00    -0.195 C  
BRANCH   5   6
HETATM    6  C   UNL     1     -11.478  15.600  68.979  1.00  0.00    -0.363 C  
BRANCH   6   7
HETATM    7  N   UNL     1     -12.320  14.941  67.992  1.00  0.00    -0.512 N  
HETATM    8  C   UNL     1     -11.815  14.548  66.772  1.00  0.00    -0.371 C  
HETATM    9  H   UNL     1     -13.302  14.767  68.207  1.00  0.00     0.000 HD 
HETATM   10  O   UNL     1     -10.657  14.791  66.437  1.00  0.00    -0.288 OA 
BRANCH   8  11
HETATM   11  C   UNL     1     -12.800  13.821  65.845  1.00  0.00    -0.315 C  
BRANCH  11  12
HETATM   12  N   UNL     1     -12.139  12.723  65.165  1.00  0.00    -0.424 N  
HETATM   13  C   UNL     1     -11.572  11.589  65.855  1.00  0.00     0.109 C  
HETATM   14  C   UNL     1     -10.423  11.191  64.950  1.00  0.00    -0.372 C  
HETATM   15  C   UNL     1     -10.934  11.537  63.554  1.00  0.00    -0.453 C  
HETATM   16  C   UNL     1     -11.806  12.738  63.821  1.00  0.00    -0.499 C  
HETATM   17  O   UNL     1     -12.166  13.562  62.996  1.00  0.00    -0.557 OA 
ENDBRANCH  11  12
ENDBRANCH   8  11
ENDBRANCH   6   7
ENDBRANCH   5   6
ENDBRANCH   4   5
BRANCH   4  18
HETATM   18  C   UNL     1     -11.982  12.451  70.752  1.00  0.00     0.010 C  
HETATM   19  C   UNL     1     -11.958  11.835  69.332  1.00  0.00    -0.361 C  
HETATM   20  C   UNL     1     -12.919  11.529  71.556  1.00  0.00    -0.485 C  
ENDBRANCH   4  18
ENDBRANCH   2   4
TORSDOF 7
ENDMDL
MODEL       27
REMARK 921   NORMALIZED FREE ENERGY PREDICTED BY IDOCK:   -4.76 KCAL/MOL
REMARK 922        TOTAL FREE ENERGY PREDICTED BY IDOCK:   -7.72 KCAL/MOL
REMARK 923 INTER-LIGAND FREE ENERGY PREDICTED BY IDOCK:   -6.86 KCAL/MOL
REMARK 924 INTRA-LIGAND FREE ENERGY PREDICTED BY IDOCK:   -0.86 KCAL/MOL
REMARK 927      BINDING AFFINITY PREDICTED BY RF-SCORE:    0.00 PKD
ROOT
HETATM    1  C   UNL     1     -10.276  10.593  66.123  1.00  0.00    -0.308 C  
HETATM    2  C   UNL     1      -9.948  11.686  67.170  1.00  0.00    -0.199 C  
HETATM    3  C   UNL     1      -8.532  12.174  66.819  1.00  0.00    -0.138 C  
ENDROOT
BRANCH   2   4
HETATM    4  N   UNL     1     -11.021  12.734  67.231  1.00  0.00    -0.255 NA 
BRANCH   4   5
HETATM    5  C   UNL     1     -11.749  12.820  65.921  1.00  0.00    -0.414 C  
BRANCH   5   6
HETATM    6  C   UNL     1     -11.541  14.123  65.110  1.00  0.00    -0.344 C  
BRANCH   6   7
HETATM    7  N   UNL     1     -10.510  14.998  65.645  1.00  0.00    -0.324 N  
HETATM    8  C   UNL     1     -10.487  16.342  65.345  1.00  0.00    -0.311 C  
HETATM    9  H   UNL     1      -9.790  14.609  66.254  1.00  0.00     0.000 HD 
HETATM   10  O   UNL     1     -11.292  16.850  64.565  1.00  0.00    -1.006 OA 
BRANCH   8  11
HETATM   11  C   UNL     1      -9.373  17.158  66.016  1.00  0.00    -0.124 C  
BRANCH  11  12
HETATM   12  N   UNL     1      -9.920  18.350  66.637  1.00  0.00    -0.347 N  
HETATM   13  C   UNL     1      -9.824  19.665  66.049  1.00  0.00    -0.381 C  
HETATM   14  C   UNL     1      -9.786  20.569  67.265  1.00  0.00    -0.600 C  
HETATM   15  C   UNL     1     -10.657  19.836  68.281  1.00  0.00    -0.318 C  
HETATM   16  C   UNL     1     -10.406  18.390  67.932  1.00  0.00    -0.401 C  
HETATM   17  O   UNL     1     -10.613  17.430  68.657  1.00  0.00    -0.357 OA 
ENDBRANCH  11  12
ENDBRANCH   8  11
ENDBRANCH   6   7
ENDBRANCH   5   6
ENDBRANCH   4   5
BRANCH   4  18
HETATM   18  C   UNL     1     -11.972  12.671  68.386  1.00  0.00    -0.221 C  
HETATM   19  C   UNL     1     -12.023  14.004  69.171  1.00  0.00    -0.400 C  
HETATM   20  C   UNL     1     -11.667  11.605  69.456  1.00  0.00    -0.410 C  
ENDBRANCH   4  18
ENDBRANCH   2   4
TORSDOF 7
ENDMDL
MODEL       28
REMARK 921   NORMALIZED FREE ENERGY PREDICTED BY IDOCK:   -4.75 KCAL/MOL
REMARK 922        TOTAL FREE ENERGY PREDICTED BY IDOCK:   -7.70 KCAL/MOL
REMARK 923 INTER-LIGAND FREE ENERGY PREDICTED BY IDOCK:   -7.01 KCAL/MOL
REMARK 924 INTRA-LIGAND FREE ENERGY PREDICTED BY IDOCK:   -0.69 KCAL/MOL
REMARK 927      BINDING AFFINITY PREDICTED BY RF-SCORE:    0.00 PKD
ROOT
HETATM    1  C   UNL     1     -10.093  11.482  63.449  1.00  0.00    -0.454 C  
HETATM    2  C   UNL     1     -10.638  12.838  63.962  1.00  0.00    -0.416 C  
HETATM    3  C   UNL     1     -12.081  12.922  63.438  1.00  0.00    -0.610 C  
ENDROOT
BRANCH   2   4
HETATM    4  N   UNL     1     -10.456  12.981  65.446  1.00  0.00    -0.290 NA 
BRANCH   4   5
HETATM    5  C   UNL     1     -10.010  14.373  65.790  1.00  0.00    -0.329 C  
BRANCH   5   6
HETATM    6  C   UNL     1      -8.844  14.484  66.805  1.00  0.00    -0.220 C  
BRANCH   6   7
HETATM    7  N   UNL     1      -8.395  15.847  67.046  1.00  0.00    -0.201 N  
HETATM    8  C   UNL     1      -8.385  16.380  68.316  1.00  0.00    -0.189 C  
HETATM    9  H   UNL     1      -8.082  16.417  66.261  1.00  0.00     0.000 HD 
HETATM   10  O   UNL     1      -8.812  15.758  69.288  1.00  0.00    -0.240 OA 
BRANCH   8  11
HETATM   11  C   UNL     1      -7.841  17.811  68.435  1.00  0.00    -0.284 C  
BRANCH  11  12
HETATM   12  N   UNL     1      -8.746  18.752  67.802  1.00  0.00    -0.283 N  
HETATM   13  C   UNL     1      -9.948  19.243  68.434  1.00  0.00    -0.419 C  
HETATM   14  C   UNL     1     -10.864  19.492  67.252  1.00  0.00    -0.557 C  
HETATM   15  C   UNL     1      -9.906  19.915  66.142  1.00  0.00    -0.562 C  
HETATM   16  C   UNL     1      -8.667  19.120  66.470  1.00  0.00    -0.337 C  
HETATM   17  O   UNL     1      -7.752  18.866  65.703  1.00  0.00    -0.478 OA 
ENDBRANCH  11  12
ENDBRANCH   8  11
ENDBRANCH   6   7
ENDBRANCH   5   6
ENDBRANCH   4   5
BRANCH   4  18
HETATM   18  C   UNL     1     -11.587  12.534  66.319  1.00  0.00    -0.394 C  
HETATM   19  C   UNL     1     -12.258  13.720  67.054  1.00  0.00    -0.381 C  
HETATM   20  C   UNL     1     -11.225  11.541  67.439  1.00  0.00    -0.367 C  
ENDBRANCH   4  18
ENDBRANCH   2   4
TORSDOF 7
ENDMDL
MODEL       29
REMARK 921   NORMALIZED FREE ENERGY PREDICTED BY IDOCK:   -4.74 KCAL/MOL
REMARK 922        TOTAL FREE ENERGY PREDICTED BY IDOCK:   -7.69 KCAL/MOL
REMARK 923 INTER-LIGAND FREE ENERGY PREDICTED BY IDOCK:   -6.87 KCAL/MOL
REMARK 924 INTRA-LIGAND FREE ENERGY PREDICTED BY IDOCK:   -0.83 KCAL/MOL
REMARK 927      BINDING AFFINITY PREDICTED BY RF-SCORE:    0.00 PKD
ROOT
HETATM    1  C   UNL     1     -10.137  11.001  63.265  1.00  0.00    -0.400 C  
HETATM    2  C   UNL     1     -10.888  12.311  63.606  1.00  0.00    -0.469 C  
HETATM    3  C   UNL     1     -12.382  11.972  63.470  1.00  0.00    -0.661 C  
ENDROOT
BRANCH   2   4
HETATM    4  N   UNL     1     -10.448  12.874  64.927  1.00  0.00    -0.317 NA 
BRANCH   4   5
HETATM    5  C   UNL     1     -11.040  14.237  65.142  1.00  0.00    -0.352 C  
BRANCH   5   6
HETATM    6  C   UNL     1     -10.046  15.425  65.104  1.00  0.00    -0.264 C  
BRANCH   6   7
HETATM    7  N   UNL     1     -10.166  16.337  66.231  1.00  0.00    -0.312 N  
HETATM    8  C   UNL     1     -10.627  17.624  66.062  1.00  0.00    -0.220 C  
HETATM    9  H   UNL     1      -9.904  16.017  67.164  1.00  0.00     0.000 HD 
HETATM   10  O   UNL     1     -10.895  18.080  64.951  1.00  0.00    -0.715 OA 
BRANCH   8  11
HETATM   11  C   UNL     1     -10.751  18.463  67.342  1.00  0.00    -0.361 C  
BRANCH  11  12
HETATM   12  N   UNL     1      -9.487  19.106  67.652  1.00  0.00    -0.299 N  
HETATM   13  C   UNL     1      -9.113  20.404  67.142  1.00  0.00    -0.362 C  
HETATM   14  C   UNL     1      -7.603  20.300  67.050  1.00  0.00    -0.351 C  
HETATM   15  C   UNL     1      -7.238  19.384  68.215  1.00  0.00    -0.331 C  
HETATM   16  C   UNL     1      -8.436  18.472  68.291  1.00  0.00    -0.318 C  
HETATM   17  O   UNL     1      -8.474  17.380  68.836  1.00  0.00    -0.249 OA 
ENDBRANCH  11  12
ENDBRANCH   8  11
ENDBRANCH   6   7
ENDBRANCH   5   6
ENDBRANCH   4   5
BRANCH   4  18
HETATM   18  C   UNL     1     -10.621  12.002  66.132  1.00  0.00    -0.263 C  
HETATM   19  C   UNL     1     -11.639  12.594  67.137  1.00  0.00    -0.434 C  
HETATM   20  C   UNL     1      -9.354  11.749  66.971  1.00  0.00    -0.187 C  
ENDBRANCH   4  18
ENDBRANCH   2   4
TORSDOF 7
ENDMDL
MODEL       30
REMARK 921   NORMALIZED FREE ENERGY PREDICTED BY IDOCK:   -4.74 KCAL/MOL
REMARK 922        TOTAL FREE ENERGY PREDICTED BY IDOCK:   -7.69 KCAL/MOL
REMARK 923 INTER-LIGAND FREE ENERGY PREDICTED BY IDOCK:   -7.19 KCAL/MOL
REMARK 924 INTRA-LIGAND FREE ENERGY PREDICTED BY IDOCK:   -0.50 KCAL/MOL
REMARK 927      BINDING AFFINITY PREDICTED BY RF-SCORE:    0.00 PKD
ROOT
HETATM    1  C   UNL     1      -9.621  10.634  65.745  1.00  0.00    -0.258 C  
HETATM    2  C   UNL     1     -11.035  10.975  66.277  1.00  0.00    -0.117 C  
HETATM    3  C   UNL     1     -11.088  10.386  67.697  1.00  0.00    -0.361 C  
ENDROOT
BRANCH   2   4
HETATM    4  N   UNL     1     -11.337  12.440  66.149  1.00  0.00    -0.333 NA 
BRANCH   4   5
HETATM    5  C   UNL     1     -10.066  13.238  66.099  1.00  0.00    -0.293 C  
BRANCH   5   6
HETATM    6  C   UNL     1      -9.809  14.186  67.298  1.00  0.00    -0.238 C  
BRANCH   6   7
HETATM    7  N   UNL     1     -10.282  13.672  68.574  1.00  0.00    -0.240 N  
HETATM    8  C   UNL     1     -11.519  14.021  69.069  1.00  0.00    -0.296 C  
HETATM    9  H   UNL     1      -9.687  13.042  69.112  1.00  0.00     0.000 HD 
HETATM   10  O   UNL     1     -12.249  14.827  68.493  1.00  0.00    -0.215 OA 
BRANCH   8  11
HETATM   11  C   UNL     1     -11.913  13.369  70.402  1.00  0.00    -0.285 C  
BRANCH  11  12
HETATM   12  N   UNL     1     -12.345  14.377  71.353  1.00  0.00    -0.346 N  
HETATM   13  C   UNL     1     -11.644  15.622  71.561  1.00  0.00    -0.435 C  
HETATM   14  C   UNL     1     -11.929  15.922  73.020  1.00  0.00    -0.596 C  
HETATM   15  C   UNL     1     -13.330  15.353  73.232  1.00  0.00    -0.559 C  
HETATM   16  C   UNL     1     -13.341  14.173  72.292  1.00  0.00    -0.461 C  
HETATM   17  O   UNL     1     -14.104  13.222  72.342  1.00  0.00    -0.618 OA 
ENDBRANCH  11  12
ENDBRANCH   8  11
ENDBRANCH   6   7
ENDBRANCH   5   6
ENDBRANCH   4   5
BRANCH   4  18
HETATM   18  C   UNL     1     -12.286  12.849  65.065  1.00  0.00    -0.464 C  
HETATM   19  C   UNL     1     -12.113  11.992  63.787  1.00  0.00    -0.599 C  
HETATM   20  C   UNL     1     -12.165  14.304  64.573  1.00  0.00    -0.476 C  
ENDBRANCH   4  18
ENDBRANCH   2   4
TORSDOF 7
ENDMDL
MODEL       31
REMARK 921   NORMALIZED FREE ENERGY PREDICTED BY IDOCK:   -4.72 KCAL/MOL
REMARK 922        TOTAL FREE ENERGY PREDICTED BY IDOCK:   -7.66 KCAL/MOL
REMARK 923 INTER-LIGAND FREE ENERGY PREDICTED BY IDOCK:   -6.90 KCAL/MOL
REMARK 924 INTRA-LIGAND FREE ENERGY PREDICTED BY IDOCK:   -0.76 KCAL/MOL
REMARK 927      BINDING AFFINITY PREDICTED BY RF-SCORE:    0.00 PKD
ROOT
HETATM    1  C   UNL     1     -12.783  11.898  63.286  1.00  0.00    -0.407 C  
HETATM    2  C   UNL     1     -11.897  13.018  63.885  1.00  0.00    -0.477 C  
HETATM    3  C   UNL     1     -12.724  13.624  65.031  1.00  0.00    -0.384 C  
ENDROOT
BRANCH   2   4
HETATM    4  N   UNL     1     -10.530  12.511  64.242  1.00  0.00    -0.354 NA 
BRANCH   4   5
HETATM    5  C   UNL     1     -10.310  12.587  65.725  1.00  0.00    -0.265 C  
BRANCH   5   6
HETATM    6  C   UNL     1      -9.294  13.652  66.211  1.00  0.00    -0.133 C  
BRANCH   6   7
HETATM    7  N   UNL     1      -9.526  14.983  65.671  1.00  0.00    -0.460 N  
HETATM    8  C   UNL     1     -10.279  15.910  66.357  1.00  0.00    -0.301 C  
HETATM    9  H   UNL     1      -9.123  15.235  64.769  1.00  0.00     0.000 HD 
HETATM   10  O   UNL     1     -10.841  15.638  67.417  1.00  0.00    -0.312 OA 
BRANCH   8  11
HETATM   11  C   UNL     1     -10.403  17.291  65.697  1.00  0.00    -0.171 C  
BRANCH  11  12
HETATM   12  N   UNL     1      -9.863  18.320  66.567  1.00  0.00    -0.343 N  
HETATM   13  C   UNL     1     -10.684  19.149  67.418  1.00  0.00    -0.481 C  
HETATM   14  C   UNL     1      -9.894  20.441  67.482  1.00  0.00    -0.564 C  
HETATM   15  C   UNL     1      -8.443  19.975  67.401  1.00  0.00    -0.391 C  
HETATM   16  C   UNL     1      -8.549  18.751  66.526  1.00  0.00    -0.305 C  
HETATM   17  O   UNL     1      -7.635  18.227  65.910  1.00  0.00    -0.460 OA 
ENDBRANCH  11  12
ENDBRANCH   8  11
ENDBRANCH   6   7
ENDBRANCH   5   6
ENDBRANCH   4   5
BRANCH   4  18
HETATM   18  C   UNL     1     -10.132  11.176  63.695  1.00  0.00    -0.379 C  
HETATM   19  C   UNL     1      -9.723  10.187  64.814  1.00  0.00    -0.389 C  
HETATM   20  C   UNL     1      -8.938  11.171  62.721  1.00  0.00    -0.321 C  
ENDBRANCH   4  18
ENDBRANCH   2   4
TORSDOF 7
ENDMDL
MODEL       32
REMARK 921   NORMALIZED FREE ENERGY PREDICTED BY IDOCK:   -4.70 KCAL/MOL
REMARK 922        TOTAL FREE ENERGY PREDICTED BY IDOCK:   -7.63 KCAL/MOL
REMARK 923 INTER-LIGAND FREE ENERGY PREDICTED BY IDOCK:   -6.94 KCAL/MOL
REMARK 924 INTRA-LIGAND FREE ENERGY PREDICTED BY IDOCK:   -0.70 KCAL/MOL
REMARK 927      BINDING AFFINITY PREDICTED BY RF-SCORE:    0.00 PKD
ROOT
HETATM    1  C   UNL     1     -10.427  19.538  65.974  1.00  0.00    -0.611 C  
HETATM    2  C   UNL     1      -9.415  19.774  67.122  1.00  0.00    -0.355 C  
HETATM    3  C   UNL     1     -10.264  19.883  68.399  1.00  0.00    -0.557 C  
ENDROOT
BRANCH   2   4
HETATM    4  N   UNL     1      -8.331  18.735  67.126  1.00  0.00    -0.266 NA 
BRANCH   4   5
HETATM    5  C   UNL     1      -8.754  17.528  66.340  1.00  0.00    -0.242 C  
BRANCH   5   6
HETATM    6  C   UNL     1      -8.585  16.160  67.047  1.00  0.00    -0.205 C  
BRANCH   6   7
HETATM    7  N   UNL     1      -9.753  15.297  66.959  1.00  0.00    -0.223 N  
HETATM    8  C   UNL     1      -9.657  13.941  67.183  1.00  0.00    -0.247 C  
HETATM    9  H   UNL     1     -10.659  15.703  66.727  1.00  0.00     0.000 HD 
HETATM   10  O   UNL     1      -8.578  13.391  67.402  1.00  0.00    -0.183 OA 
BRANCH   8  11
HETATM   11  C   UNL     1     -10.974  13.157  67.106  1.00  0.00    -0.268 C  
BRANCH  11  12
HETATM   12  N   UNL     1     -11.236  12.736  65.742  1.00  0.00    -0.297 N  
HETATM   13  C   UNL     1     -10.346  11.881  64.992  1.00  0.00    -0.289 C  
HETATM   14  C   UNL     1     -10.572  12.341  63.565  1.00  0.00    -0.488 C  
HETATM   15  C   UNL     1     -12.042  12.749  63.551  1.00  0.00    -0.642 C  
HETATM   16  C   UNL     1     -12.245  13.262  64.954  1.00  0.00    -0.420 C  
HETATM   17  O   UNL     1     -13.148  13.993  65.328  1.00  0.00    -0.782 OA 
ENDBRANCH  11  12
ENDBRANCH   8  11
ENDBRANCH   6   7
ENDBRANCH   5   6
ENDBRANCH   4   5
BRANCH   4  18
HETATM   18  C   UNL     1      -6.953  19.183  66.747  1.00  0.00    -0.201 C  
HETATM   19  C   UNL     1      -6.820  20.726  66.759  1.00  0.00    -0.352 C  
HETATM   20  C   UNL     1      -6.467  18.766  65.346  1.00  0.00    -0.308 C  
ENDBRANCH   4  18
ENDBRANCH   2   4
TORSDOF 7
ENDMDL
MODEL       33
REMARK 921   NORMALIZED FREE ENERGY PREDICTED BY IDOCK:   -4.67 KCAL/MOL
REMARK 922        TOTAL FREE ENERGY PREDICTED BY IDOCK:   -7.60 KCAL/MOL
REMARK 923 INTER-LIGAND FREE ENERGY PREDICTED BY IDOCK:   -6.57 KCAL/MOL
REMARK 924 INTRA-LIGAND FREE ENERGY PREDICTED BY IDOCK:   -1.03 KCAL/MOL
REMARK 927      BINDING AFFINITY PREDICTED BY RF-SCORE:    0.00 PKD
ROOT
HETATM    1  C   UNL     1     -12.003  12.855  66.109  1.00  0.00    -0.491 C  
HETATM    2  C   UNL     1     -11.748  12.691  67.628  1.00  0.00    -0.361 C  
HETATM    3  C   UNL     1     -11.457  11.195  67.832  1.00  0.00    -0.359 C  
ENDROOT
BRANCH   2   4
HETATM    4  N   UNL     1     -10.702  13.649  68.121  1.00  0.00    -0.242 NA 
BRANCH   4   5
HETATM    5  C   UNL     1     -10.102  14.410  66.975  1.00  0.00    -0.256 C  
BRANCH   5   6
HETATM    6  C   UNL     1      -8.575  14.666  67.052  1.00  0.00    -0.224 C  
BRANCH   6   7
HETATM    7  N   UNL     1      -8.214  16.071  67.164  1.00  0.00    -0.177 N  
HETATM    8  C   UNL     1      -7.877  16.627  68.378  1.00  0.00    -0.202 C  
HETATM    9  H   UNL     1      -8.210  16.655  66.328  1.00  0.00     0.000 HD 
HETATM   10  O   UNL     1      -7.928  15.984  69.426  1.00  0.00    -0.236 OA 
BRANCH   8  11
HETATM   11  C   UNL     1      -7.470  18.107  68.345  1.00  0.00    -0.280 C  
BRANCH  11  12
HETATM   12  N   UNL     1      -8.522  18.910  67.752  1.00  0.00    -0.279 N  
HETATM   13  C   UNL     1      -9.729  19.278  68.453  1.00  0.00    -0.403 C  
HETATM   14  C   UNL     1     -10.747  19.373  67.334  1.00  0.00    -0.594 C  
HETATM   15  C   UNL     1      -9.923  19.864  66.146  1.00  0.00    -0.593 C  
HETATM   16  C   UNL     1      -8.578  19.235  66.408  1.00  0.00    -0.343 C  
HETATM   17  O   UNL     1      -7.694  19.061  65.584  1.00  0.00    -0.465 OA 
ENDBRANCH  11  12
ENDBRANCH   8  11
ENDBRANCH   6   7
ENDBRANCH   5   6
ENDBRANCH   4   5
BRANCH   4  18
HETATM   18  C   UNL     1     -11.088  14.560  69.245  1.00  0.00    -0.270 C  
HETATM   19  C   UNL     1     -12.152  13.923  70.172  1.00  0.00    -0.418 C  
HETATM   20  C   UNL     1     -11.692  15.917  68.839  1.00  0.00    -0.376 C  
ENDBRANCH   4  18
ENDBRANCH   2   4
TORSDOF 7
ENDMDL
MODEL       34
REMARK 921   NORMALIZED FREE ENERGY PREDICTED BY IDOCK:   -4.66 KCAL/MOL
REMARK 922        TOTAL FREE ENERGY PREDICTED BY IDOCK:   -7.57 KCAL/MOL
REMARK 923 INTER-LIGAND FREE ENERGY PREDICTED BY IDOCK:   -6.81 KCAL/MOL
REMARK 924 INTRA-LIGAND FREE ENERGY PREDICTED BY IDOCK:   -0.76 KCAL/MOL
REMARK 927      BINDING AFFINITY PREDICTED BY RF-SCORE:    0.00 PKD
ROOT
HETATM    1  C   UNL     1     -12.363  14.680  64.313  1.00  0.00    -0.375 C  
HETATM    2  C   UNL     1     -11.932  13.257  64.746  1.00  0.00    -0.388 C  
HETATM    3  C   UNL     1     -12.339  12.337  63.583  1.00  0.00    -0.664 C  
ENDROOT
BRANCH   2   4
HETATM    4  N   UNL     1     -10.489  13.217  65.158  1.00  0.00    -0.313 NA 
BRANCH   4   5
HETATM    5  C   UNL     1      -9.961  14.606  65.368  1.00  0.00    -0.330 C  
BRANCH   5   6
HETATM    6  C   UNL     1      -9.635  14.998  66.831  1.00  0.00    -0.239 C  
BRANCH   6   7
HETATM    7  N   UNL     1     -10.801  15.349  67.626  1.00  0.00    -0.297 N  
HETATM    8  C   UNL     1     -10.755  15.343  69.003  1.00  0.00    -0.242 C  
HETATM    9  H   UNL     1     -11.670  15.604  67.156  1.00  0.00     0.000 HD 
HETATM   10  O   UNL     1      -9.754  14.981  69.620  1.00  0.00    -0.161 OA 
BRANCH   8  11
HETATM   11  C   UNL     1     -12.042  15.781  69.717  1.00  0.00    -0.281 C  
BRANCH  11  12
HETATM   12  N   UNL     1     -12.272  14.965  70.895  1.00  0.00    -0.301 N  
HETATM   13  C   UNL     1     -12.720  13.594  70.834  1.00  0.00    -0.310 C  
HETATM   14  C   UNL     1     -13.516  13.449  72.116  1.00  0.00    -0.646 C  
HETATM   15  C   UNL     1     -12.787  14.368  73.093  1.00  0.00    -0.492 C  
HETATM   16  C   UNL     1     -12.285  15.463  72.186  1.00  0.00    -0.385 C  
HETATM   17  O   UNL     1     -11.935  16.580  72.534  1.00  0.00    -0.521 OA 
ENDBRANCH  11  12
ENDBRANCH   8  11
ENDBRANCH   6   7
ENDBRANCH   5   6
ENDBRANCH   4   5
BRANCH   4  18
HETATM   18  C   UNL     1     -10.129  12.313  66.297  1.00  0.00    -0.234 C  
HETATM   19  C   UNL     1      -9.485  10.993  65.810  1.00  0.00    -0.242 C  
HETATM   20  C   UNL     1     -11.294  11.865  67.199  1.00  0.00    -0.393 C  
ENDBRANCH   4  18
ENDBRANCH   2   4
TORSDOF 7
ENDMDL
MODEL       35
REMARK 921   NORMALIZED FREE ENERGY PREDICTED BY IDOCK:   -4.65 KCAL/MOL
REMARK 922        TOTAL FREE ENERGY PREDICTED BY IDOCK:   -7.56 KCAL/MOL
REMARK 923 INTER-LIGAND FREE ENERGY PREDICTED BY IDOCK:   -6.78 KCAL/MOL
REMARK 924 INTRA-LIGAND FREE ENERGY PREDICTED BY IDOCK:   -0.78 KCAL/MOL
REMARK 927      BINDING AFFINITY PREDICTED BY RF-SCORE:    0.00 PKD
ROOT
HETATM    1  C   UNL     1     -10.695  14.761  64.774  1.00  0.00    -0.380 C  
HETATM    2  C   UNL     1     -11.740  14.318  65.827  1.00  0.00    -0.359 C  
HETATM    3  C   UNL     1     -12.340  13.011  65.281  1.00  0.00    -0.537 C  
ENDROOT
BRANCH   2   4
HETATM    4  N   UNL     1     -11.147  14.256  67.205  1.00  0.00    -0.297 NA 
BRANCH   4   5
HETATM    5  C   UNL     1      -9.774  13.650  67.161  1.00  0.00    -0.245 C  
BRANCH   5   6
HETATM    6  C   UNL     1      -9.617  12.267  67.843  1.00  0.00    -0.203 C  
BRANCH   6   7
HETATM    7  N   UNL     1     -10.331  12.142  69.104  1.00  0.00    -0.422 N  
HETATM    8  C   UNL     1     -11.485  11.396  69.201  1.00  0.00    -0.299 C  
HETATM    9  H   UNL     1      -9.970  12.616  69.933  1.00  0.00     0.000 HD 
HETATM   10  O   UNL     1     -11.997  10.858  68.221  1.00  0.00    -0.561 OA 
BRANCH   8  11
HETATM   11  C   UNL     1     -12.108  11.309  70.601  1.00  0.00    -0.383 C  
BRANCH  11  12
HETATM   12  N   UNL     1     -11.728  10.068  71.250  1.00  0.00    -0.376 N  
HETATM   13  C   UNL     1     -10.427   9.461  71.099  1.00  0.00    -0.322 C  
HETATM   14  C   UNL     1     -10.732   7.983  71.245  1.00  0.00    -0.265 C  
HETATM   15  C   UNL     1     -11.895   7.956  72.233  1.00  0.00    -0.404 C  
HETATM   16  C   UNL     1     -12.619   9.239  71.910  1.00  0.00    -0.390 C  
HETATM   17  O   UNL     1     -13.776   9.503  72.196  1.00  0.00    -0.417 OA 
ENDBRANCH  11  12
ENDBRANCH   8  11
ENDBRANCH   6   7
ENDBRANCH   5   6
ENDBRANCH   4   5
BRANCH   4  18
HETATM   18  C   UNL     1     -11.167  15.516  68.014  1.00  0.00    -0.332 C  
HETATM   19  C   UNL     1      -9.741  16.057  68.283  1.00  0.00    -0.214 C  
HETATM   20  C   UNL     1     -11.811  15.415  69.409  1.00  0.00    -0.372 C  
ENDBRANCH   4  18
ENDBRANCH   2   4
TORSDOF 7
ENDMDL
MODEL       36
REMARK 921   NORMALIZED FREE ENERGY PREDICTED BY IDOCK:   -4.64 KCAL/MOL
REMARK 922        TOTAL FREE ENERGY PREDICTED BY IDOCK:   -7.55 KCAL/MOL
REMARK 923 INTER-LIGAND FREE ENERGY PREDICTED BY IDOCK:   -6.73 KCAL/MOL
REMARK 924 INTRA-LIGAND FREE ENERGY PREDICTED BY IDOCK:   -0.82 KCAL/MOL
REMARK 927      BINDING AFFINITY PREDICTED BY RF-SCORE:    0.00 PKD
ROOT
HETATM    1  C   UNL     1     -10.159  11.232  63.466  1.00  0.00    -0.443 C  
HETATM    2  C   UNL     1     -10.942  12.389  64.134  1.00  0.00    -0.367 C  
HETATM    3  C   UNL     1     -12.283  12.460  63.385  1.00  0.00    -0.623 C  
ENDROOT
BRANCH   2   4
HETATM    4  N   UNL     1     -11.016  12.219  65.624  1.00  0.00    -0.289 NA 
BRANCH   4   5
HETATM    5  C   UNL     1     -10.112  11.109  66.074  1.00  0.00    -0.244 C  
BRANCH   5   6
HETATM    6  C   UNL     1     -10.795   9.932  66.816  1.00  0.00    -0.015 C  
BRANCH   6   7
HETATM    7  N   UNL     1     -10.490   9.867  68.237  1.00  0.00    -0.198 N  
HETATM    8  C   UNL     1     -11.351  10.390  69.176  1.00  0.00    -0.226 C  
HETATM    9  H   UNL     1      -9.622   9.427  68.543  1.00  0.00     0.000 HD 
HETATM   10  O   UNL     1     -12.378  10.988  68.858  1.00  0.00    -0.516 OA 
BRANCH   8  11
HETATM   11  C   UNL     1     -10.929  10.211  70.641  1.00  0.00    -0.285 C  
BRANCH  11  12
HETATM   12  N   UNL     1     -11.951   9.491  71.379  1.00  0.00    -0.358 N  
HETATM   13  C   UNL     1     -12.059   8.051  71.382  1.00  0.00    -0.305 C  
HETATM   14  C   UNL     1     -13.548   7.832  71.563  1.00  0.00    -0.391 C  
HETATM   15  C   UNL     1     -13.977   9.009  72.434  1.00  0.00    -0.517 C  
HETATM   16  C   UNL     1     -13.036  10.099  71.985  1.00  0.00    -0.437 C  
HETATM   17  O   UNL     1     -13.197  11.298  72.145  1.00  0.00    -0.481 OA 
ENDBRANCH  11  12
ENDBRANCH   8  11
ENDBRANCH   6   7
ENDBRANCH   5   6
ENDBRANCH   4   5
BRANCH   4  18
HETATM   18  C   UNL     1     -10.838  13.448  66.461  1.00  0.00    -0.282 C  
HETATM   19  C   UNL     1     -12.179  13.956  67.043  1.00  0.00    -0.392 C  
HETATM   20  C   UNL     1     -10.239  14.673  65.744  1.00  0.00    -0.360 C  
ENDBRANCH   4  18
ENDBRANCH   2   4
TORSDOF 7
ENDMDL
MODEL       37
REMARK 921   NORMALIZED FREE ENERGY PREDICTED BY IDOCK:   -4.64 KCAL/MOL
REMARK 922        TOTAL FREE ENERGY PREDICTED BY IDOCK:   -7.54 KCAL/MOL
REMARK 923 INTER-LIGAND FREE ENERGY PREDICTED BY IDOCK:   -7.32 KCAL/MOL
REMARK 924 INTRA-LIGAND FREE ENERGY PREDICTED BY IDOCK:   -0.22 KCAL/MOL
REMARK 927      BINDING AFFINITY PREDICTED BY RF-SCORE:    0.00 PKD
ROOT
HETATM    1  C   UNL     1      -7.044  17.075  68.971  1.00  0.00    -0.233 C  
HETATM    2  C   UNL     1      -7.589  18.507  68.746  1.00  0.00    -0.284 C  
HETATM    3  C   UNL     1      -6.348  19.415  68.715  1.00  0.00    -0.288 C  
ENDROOT
BRANCH   2   4
HETATM    4  N   UNL     1      -8.496  18.573  67.551  1.00  0.00    -0.259 NA 
BRANCH   4   5
HETATM    5  C   UNL     1      -9.237  17.279  67.380  1.00  0.00    -0.231 C  
BRANCH   5   6
HETATM    6  C   UNL     1      -8.959  16.502  66.069  1.00  0.00    -0.241 C  
BRANCH   6   7
HETATM    7  N   UNL     1      -9.944  15.475  65.766  1.00  0.00    -0.335 N  
HETATM    8  C   UNL     1     -10.987  15.720  64.899  1.00  0.00    -0.427 C  
HETATM    9  H   UNL     1      -9.862  14.558  66.204  1.00  0.00     0.000 HD 
HETATM   10  O   UNL     1     -11.169  16.827  64.394  1.00  0.00    -1.112 OA 
BRANCH   8  11
HETATM   11  C   UNL     1     -11.925  14.535  64.631  1.00  0.00    -0.468 C  
BRANCH  11  12
HETATM   12  N   UNL     1     -12.014  13.684  65.803  1.00  0.00    -0.371 N  
HETATM   13  C   UNL     1     -12.271  14.188  67.131  1.00  0.00    -0.313 C  
HETATM   14  C   UNL     1     -11.540  13.192  68.010  1.00  0.00    -0.371 C  
HETATM   15  C   UNL     1     -11.672  11.878  67.244  1.00  0.00    -0.319 C  
HETATM   16  C   UNL     1     -11.668  12.343  65.809  1.00  0.00    -0.414 C  
HETATM   17  O   UNL     1     -11.423  11.655  64.832  1.00  0.00    -0.244 OA 
ENDBRANCH  11  12
ENDBRANCH   8  11
ENDBRANCH   6   7
ENDBRANCH   5   6
ENDBRANCH   4   5
BRANCH   4  18
HETATM   18  C   UNL     1      -9.415  19.751  67.456  1.00  0.00    -0.344 C  
HETATM   19  C   UNL     1     -10.232  19.957  68.755  1.00  0.00    -0.451 C  
HETATM   20  C   UNL     1     -10.475  19.695  66.340  1.00  0.00    -0.618 C  
ENDBRANCH   4  18
ENDBRANCH   2   4
TORSDOF 7
ENDMDL
MODEL       38
REMARK 921   NORMALIZED FREE ENERGY PREDICTED BY IDOCK:   -4.63 KCAL/MOL
REMARK 922        TOTAL FREE ENERGY PREDICTED BY IDOCK:   -7.53 KCAL/MOL
REMARK 923 INTER-LIGAND FREE ENERGY PREDICTED BY IDOCK:   -6.66 KCAL/MOL
REMARK 924 INTRA-LIGAND FREE ENERGY PREDICTED BY IDOCK:   -0.88 KCAL/MOL
REMARK 927      BINDING AFFINITY PREDICTED BY RF-SCORE:    0.00 PKD
ROOT
HETATM    1  C   UNL     1     -12.905   7.068  71.548  1.00  0.00    -0.420 C  
HETATM    2  C   UNL     1     -11.464   7.269  71.019  1.00  0.00    -0.287 C  
HETATM    3  C   UNL     1     -11.382   6.430  69.732  1.00  0.00    -0.494 C  
ENDROOT
BRANCH   2   4
HETATM    4  N   UNL     1     -11.118   8.724  70.892  1.00  0.00    -0.257 NA 
BRANCH   4   5
HETATM    5  C   UNL     1     -12.086   9.566  71.672  1.00  0.00    -0.398 C  
BRANCH   5   6
HETATM    6  C   UNL     1     -12.761  10.724  70.895  1.00  0.00    -0.384 C  
BRANCH   6   7
HETATM    7  N   UNL     1     -11.828  11.696  70.347  1.00  0.00    -0.474 N  
HETATM    8  C   UNL     1     -11.543  11.731  69.000  1.00  0.00    -0.311 C  
HETATM    9  H   UNL     1     -11.376  12.364  70.972  1.00  0.00     0.000 HD 
HETATM   10  O   UNL     1     -12.010  10.909  68.213  1.00  0.00    -0.561 OA 
BRANCH   8  11
HETATM   11  C   UNL     1     -10.579  12.838  68.550  1.00  0.00    -0.252 C  
BRANCH  11  12
HETATM   12  N   UNL     1     -10.920  13.297  67.216  1.00  0.00    -0.264 N  
HETATM   13  C   UNL     1     -12.058  14.140  66.935  1.00  0.00    -0.432 C  
HETATM   14  C   UNL     1     -12.442  13.720  65.530  1.00  0.00    -0.548 C  
HETATM   15  C   UNL     1     -11.105  13.359  64.889  1.00  0.00    -0.348 C  
HETATM   16  C   UNL     1     -10.323  12.821  66.062  1.00  0.00    -0.276 C  
HETATM   17  O   UNL     1      -9.333  12.111  66.000  1.00  0.00    -0.232 OA 
ENDBRANCH  11  12
ENDBRANCH   8  11
ENDBRANCH   6   7
ENDBRANCH   5   6
ENDBRANCH   4   5
BRANCH   4  18
HETATM   18  C   UNL     1      -9.700   9.116  71.170  1.00  0.00    -0.290 C  
HETATM   19  C   UNL     1      -8.876   9.282  69.870  1.00  0.00    -0.196 C  
HETATM   20  C   UNL     1      -8.880   8.129  72.023  1.00  0.00    -0.233 C  
ENDBRANCH   4  18
ENDBRANCH   2   4
TORSDOF 7
ENDMDL
MODEL       39
REMARK 921   NORMALIZED FREE ENERGY PREDICTED BY IDOCK:   -4.61 KCAL/MOL
REMARK 922        TOTAL FREE ENERGY PREDICTED BY IDOCK:   -7.50 KCAL/MOL
REMARK 923 INTER-LIGAND FREE ENERGY PREDICTED BY IDOCK:   -6.59 KCAL/MOL
REMARK 924 INTRA-LIGAND FREE ENERGY PREDICTED BY IDOCK:   -0.91 KCAL/MOL
REMARK 927      BINDING AFFINITY PREDICTED BY RF-SCORE:    0.00 PKD
ROOT
HETATM    1  C   UNL     1     -10.053  10.460  66.306  1.00  0.00    -0.292 C  
HETATM    2  C   UNL     1     -11.166  11.536  66.318  1.00  0.00    -0.222 C  
HETATM    3  C   UNL     1     -11.763  11.489  67.735  1.00  0.00    -0.299 C  
ENDROOT
BRANCH   2   4
HETATM    4  N   UNL     1     -10.654  12.868  65.852  1.00  0.00    -0.266 NA 
BRANCH   4   5
HETATM    5  C   UNL     1      -9.183  12.991  66.121  1.00  0.00     0.005 C  
BRANCH   5   6
HETATM    6  C   UNL     1      -8.759  14.122  67.092  1.00  0.00    -0.224 C  
BRANCH   6   7
HETATM    7  N   UNL     1      -9.720  15.209  67.193  1.00  0.00    -0.225 N  
HETATM    8  C   UNL     1      -9.836  15.955  68.345  1.00  0.00    -0.214 C  
HETATM    9  H   UNL     1     -10.318  15.424  66.395  1.00  0.00     0.000 HD 
HETATM   10  O   UNL     1      -9.185  15.696  69.357  1.00  0.00    -0.258 OA 
BRANCH   8  11
HETATM   11  C   UNL     1     -10.854  17.102  68.298  1.00  0.00    -0.314 C  
BRANCH  11  12
HETATM   12  N   UNL     1     -10.282  18.262  67.639  1.00  0.00    -0.362 N  
HETATM   13  C   UNL     1      -9.778  19.411  68.353  1.00  0.00    -0.408 C  
HETATM   14  C   UNL     1     -10.030  20.544  67.378  1.00  0.00    -0.525 C  
HETATM   15  C   UNL     1      -9.856  19.883  66.013  1.00  0.00    -0.515 C  
HETATM   16  C   UNL     1     -10.342  18.479  66.274  1.00  0.00    -0.427 C  
HETATM   17  O   UNL     1     -10.704  17.676  65.429  1.00  0.00    -0.618 OA 
ENDBRANCH  11  12
ENDBRANCH   8  11
ENDBRANCH   6   7
ENDBRANCH   5   6
ENDBRANCH   4   5
BRANCH   4  18
HETATM   18  C   UNL     1     -10.994  13.278  64.452  1.00  0.00    -0.393 C  
HETATM   19  C   UNL     1     -12.014  14.442  64.418  1.00  0.00    -0.471 C  
HETATM   20  C   UNL     1     -11.622  12.189  63.562  1.00  0.00    -0.562 C  
ENDBRANCH   4  18
ENDBRANCH   2   4
TORSDOF 7
ENDMDL
MODEL       40
REMARK 921   NORMALIZED FREE ENERGY PREDICTED BY IDOCK:   -4.59 KCAL/MOL
REMARK 922        TOTAL FREE ENERGY PREDICTED BY IDOCK:   -7.48 KCAL/MOL
REMARK 923 INTER-LIGAND FREE ENERGY PREDICTED BY IDOCK:   -6.80 KCAL/MOL
REMARK 924 INTRA-LIGAND FREE ENERGY PREDICTED BY IDOCK:   -0.69 KCAL/MOL
REMARK 927      BINDING AFFINITY PREDICTED BY RF-SCORE:    0.00 PKD
ROOT
HETATM    1  C   UNL     1     -11.450  10.845  67.780  1.00  0.00    -0.323 C  
HETATM    2  C   UNL     1     -10.876  11.816  66.720  1.00  0.00    -0.270 C  
HETATM    3  C   UNL     1      -9.878  10.981  65.900  1.00  0.00    -0.278 C  
ENDROOT
BRANCH   2   4
HETATM    4  N   UNL     1     -11.967  12.501  65.948  1.00  0.00    -0.544 NA 
BRANCH   4   5
HETATM    5  C   UNL     1     -12.331  13.806  66.596  1.00  0.00    -0.357 C  
BRANCH   5   6
HETATM    6  C   UNL     1     -11.320  14.358  67.633  1.00  0.00    -0.329 C  
BRANCH   6   7
HETATM    7  N   UNL     1     -10.615  15.553  67.197  1.00  0.00    -0.296 N  
HETATM    8  C   UNL     1      -9.344  15.479  66.670  1.00  0.00    -0.266 C  
HETATM    9  H   UNL     1     -11.069  16.462  67.284  1.00  0.00     0.000 HD 
HETATM   10  O   UNL     1      -8.727  14.417  66.603  1.00  0.00    -0.203 OA 
BRANCH   8  11
HETATM   11  C   UNL     1      -8.736  16.810  66.205  1.00  0.00    -0.307 C  
BRANCH  11  12
HETATM   12  N   UNL     1      -9.356  17.922  66.901  1.00  0.00    -0.267 N  
HETATM   13  C   UNL     1     -10.315  18.808  66.284  1.00  0.00    -0.448 C  
HETATM   14  C   UNL     1     -10.074  20.115  67.013  1.00  0.00    -0.599 C  
HETATM   15  C   UNL     1      -9.671  19.671  68.416  1.00  0.00    -0.497 C  
HETATM   16  C   UNL     1      -8.953  18.373  68.146  1.00  0.00    -0.309 C  
HETATM   17  O   UNL     1      -8.172  17.814  68.900  1.00  0.00    -0.248 OA 
ENDBRANCH  11  12
ENDBRANCH   8  11
ENDBRANCH   6   7
ENDBRANCH   5   6
ENDBRANCH   4   5
BRANCH   4  18
HETATM   18  C   UNL     1     -11.766  12.656  64.473  1.00  0.00    -0.359 C  
HETATM   19  C   UNL     1     -12.106  14.086  63.987  1.00  0.00    -0.413 C  
HETATM   20  C   UNL     1     -12.609  11.733  63.574  1.00  0.00    -0.485 C  
ENDBRANCH   4  18
ENDBRANCH   2   4
TORSDOF 7
ENDMDL
MODEL       41
REMARK 921   NORMALIZED FREE ENERGY PREDICTED BY IDOCK:   -4.58 KCAL/MOL
REMARK 922        TOTAL FREE ENERGY PREDICTED BY IDOCK:   -7.46 KCAL/MOL
REMARK 923 INTER-LIGAND FREE ENERGY PREDICTED BY IDOCK:   -6.74 KCAL/MOL
REMARK 924 INTRA-LIGAND FREE ENERGY PREDICTED BY IDOCK:   -0.73 KCAL/MOL
REMARK 927      BINDING AFFINITY PREDICTED BY RF-SCORE:    0.00 PKD
ROOT
HETATM    1  C   UNL     1     -13.829   9.289  72.423  1.00  0.00    -0.484 C  
HETATM    2  C   UNL     1     -13.164   7.977  71.938  1.00  0.00    -0.301 C  
HETATM    3  C   UNL     1     -14.308   7.132  71.353  1.00  0.00    -0.417 C  
ENDROOT
BRANCH   2   4
HETATM    4  N   UNL     1     -12.000   8.248  71.029  1.00  0.00    -0.278 NA 
BRANCH   4   5
HETATM    5  C   UNL     1     -11.324   9.534  71.408  1.00  0.00    -0.392 C  
BRANCH   5   6
HETATM    6  C   UNL     1     -11.168  10.581  70.277  1.00  0.00    -0.313 C  
BRANCH   6   7
HETATM    7  N   UNL     1     -12.092  11.701  70.373  1.00  0.00    -0.374 N  
HETATM    8  C   UNL     1     -11.823  12.904  69.757  1.00  0.00    -0.310 C  
HETATM    9  H   UNL     1     -12.955  11.594  70.906  1.00  0.00     0.000 HD 
HETATM   10  O   UNL     1     -10.768  13.106  69.157  1.00  0.00    -0.161 OA 
BRANCH   8  11
HETATM   11  C   UNL     1     -12.905  13.983  69.899  1.00  0.00     0.159 C  
BRANCH  11  12
HETATM   12  N   UNL     1     -12.819  14.620  71.200  1.00  0.00    -0.323 N  
HETATM   13  C   UNL     1     -12.030  15.803  71.453  1.00  0.00    -0.441 C  
HETATM   14  C   UNL     1     -11.630  15.629  72.904  1.00  0.00    -0.408 C  
HETATM   15  C   UNL     1     -12.823  14.902  73.518  1.00  0.00    -0.594 C  
HETATM   16  C   UNL     1     -13.311  14.060  72.366  1.00  0.00    -0.518 C  
HETATM   17  O   UNL     1     -14.025  13.074  72.448  1.00  0.00    -0.552 OA 
ENDBRANCH  11  12
ENDBRANCH   8  11
ENDBRANCH   6   7
ENDBRANCH   5   6
ENDBRANCH   4   5
BRANCH   4  18
HETATM   18  C   UNL     1     -11.010   7.141  70.838  1.00  0.00    -0.251 C  
HETATM   19  C   UNL     1     -11.315   6.300  69.575  1.00  0.00    -0.475 C  
HETATM   20  C   UNL     1     -10.922   6.108  71.978  1.00  0.00    -0.305 C  
ENDBRANCH   4  18
ENDBRANCH   2   4
TORSDOF 7
ENDMDL
MODEL       42
REMARK 921   NORMALIZED FREE ENERGY PREDICTED BY IDOCK:   -4.58 KCAL/MOL
REMARK 922        TOTAL FREE ENERGY PREDICTED BY IDOCK:   -7.46 KCAL/MOL
REMARK 923 INTER-LIGAND FREE ENERGY PREDICTED BY IDOCK:   -6.49 KCAL/MOL
REMARK 924 INTRA-LIGAND FREE ENERGY PREDICTED BY IDOCK:   -0.97 KCAL/MOL
REMARK 927      BINDING AFFINITY PREDICTED BY RF-SCORE:    0.00 PKD
ROOT
HETATM    1  C   UNL     1      -7.381  16.013  67.047  1.00  0.00    -0.258 C  
HETATM    2  C   UNL     1      -8.262  16.664  68.141  1.00  0.00    -0.192 C  
HETATM    3  C   UNL     1      -7.280  17.378  69.084  1.00  0.00    -0.175 C  
ENDROOT
BRANCH   2   4
HETATM    4  N   UNL     1      -9.351  17.508  67.545  1.00  0.00    -0.244 NA 
BRANCH   4   5
HETATM    5  C   UNL     1     -10.696  17.060  68.040  1.00  0.00    -0.365 C  
BRANCH   5   6
HETATM    6  C   UNL     1     -10.714  15.757  68.879  1.00  0.00    -0.248 C  
BRANCH   6   7
HETATM    7  N   UNL     1     -11.527  14.694  68.308  1.00  0.00    -0.299 N  
HETATM    8  C   UNL     1     -10.950  13.560  67.780  1.00  0.00    -0.266 C  
HETATM    9  H   UNL     1     -12.542  14.791  68.297  1.00  0.00     0.000 HD 
HETATM   10  O   UNL     1      -9.730  13.422  67.709  1.00  0.00    -0.204 OA 
BRANCH   8  11
HETATM   11  C   UNL     1     -11.926  12.497  67.255  1.00  0.00    -0.216 C  
BRANCH  11  12
HETATM   12  N   UNL     1     -11.901  12.458  65.805  1.00  0.00    -0.421 N  
HETATM   13  C   UNL     1     -11.004  11.616  65.049  1.00  0.00    -0.273 C  
HETATM   14  C   UNL     1     -10.785  12.419  63.782  1.00  0.00    -0.492 C  
HETATM   15  C   UNL     1     -12.118  13.134  63.580  1.00  0.00    -0.583 C  
HETATM   16  C   UNL     1     -12.580  13.355  64.999  1.00  0.00    -0.403 C  
HETATM   17  O   UNL     1     -13.416  14.166  65.364  1.00  0.00    -0.648 OA 
ENDBRANCH  11  12
ENDBRANCH   8  11
ENDBRANCH   6   7
ENDBRANCH   5   6
ENDBRANCH   4   5
BRANCH   4  18
HETATM   18  C   UNL     1      -9.195  18.994  67.646  1.00  0.00    -0.294 C  
HETATM   19  C   UNL     1     -10.557  19.713  67.803  1.00  0.00    -0.530 C  
HETATM   20  C   UNL     1      -8.530  19.688  66.442  1.00  0.00    -0.382 C  
ENDBRANCH   4  18
ENDBRANCH   2   4
TORSDOF 7
ENDMDL
MODEL       43
REMARK 921   NORMALIZED FREE ENERGY PREDICTED BY IDOCK:   -4.57 KCAL/MOL
REMARK 922        TOTAL FREE ENERGY PREDICTED BY IDOCK:   -7.46 KCAL/MOL
REMARK 923 INTER-LIGAND FREE ENERGY PREDICTED BY IDOCK:   -6.83 KCAL/MOL
REMARK 924 INTRA-LIGAND FREE ENERGY PREDICTED BY IDOCK:   -0.63 KCAL/MOL
REMARK 927      BINDING AFFINITY PREDICTED BY RF-SCORE:    0.00 PKD
ROOT
HETATM    1  C   UNL     1      -9.215   7.838  70.458  1.00  0.00    -0.162 C  
HETATM    2  C   UNL     1     -10.352   7.936  71.504  1.00  0.00    -0.201 C  
HETATM    3  C   UNL     1      -9.646   8.047  72.865  1.00  0.00    -0.348 C  
ENDROOT
BRANCH   2   4
HETATM    4  N   UNL     1     -11.325   9.029  71.165  1.00  0.00    -0.283 NA 
BRANCH   4   5
HETATM    5  C   UNL     1     -10.949   9.684  69.867  1.00  0.00    -0.252 C  
BRANCH   5   6
HETATM    6  C   UNL     1     -11.397  11.158  69.693  1.00  0.00    -0.294 C  
BRANCH   6   7
HETATM    7  N   UNL     1     -10.943  11.774  68.456  1.00  0.00    -0.212 N  
HETATM    8  C   UNL     1     -11.411  13.008  68.060  1.00  0.00    -0.309 C  
HETATM    9  H   UNL     1     -10.266  11.284  67.871  1.00  0.00     0.000 HD 
HETATM   10  O   UNL     1     -12.275  13.612  68.694  1.00  0.00    -0.339 OA 
BRANCH   8  11
HETATM   11  C   UNL     1     -10.813  13.563  66.760  1.00  0.00    -0.282 C  
BRANCH  11  12
HETATM   12  N   UNL     1     -11.250  12.774  65.623  1.00  0.00    -0.292 N  
HETATM   13  C   UNL     1     -10.429  11.765  64.996  1.00  0.00    -0.285 C  
HETATM   14  C   UNL     1     -10.898  11.805  63.555  1.00  0.00    -0.496 C  
HETATM   15  C   UNL     1     -12.378  12.160  63.673  1.00  0.00    -0.673 C  
HETATM   16  C   UNL     1     -12.400  13.038  64.899  1.00  0.00    -0.459 C  
HETATM   17  O   UNL     1     -13.282  13.824  65.204  1.00  0.00    -0.757 OA 
ENDBRANCH  11  12
ENDBRANCH   8  11
ENDBRANCH   6   7
ENDBRANCH   5   6
ENDBRANCH   4   5
BRANCH   4  18
HETATM   18  C   UNL     1     -12.781   8.684  71.206  1.00  0.00    -0.215 C  
HETATM   19  C   UNL     1     -13.533   9.465  72.311  1.00  0.00    -0.539 C  
HETATM   20  C   UNL     1     -13.119   7.206  71.479  1.00  0.00    -0.427 C  
ENDBRANCH   4  18
ENDBRANCH   2   4
TORSDOF 7
ENDMDL
MODEL       44
REMARK 921   NORMALIZED FREE ENERGY PREDICTED BY IDOCK:   -4.55 KCAL/MOL
REMARK 922        TOTAL FREE ENERGY PREDICTED BY IDOCK:   -7.42 KCAL/MOL
REMARK 923 INTER-LIGAND FREE ENERGY PREDICTED BY IDOCK:   -6.66 KCAL/MOL
REMARK 924 INTRA-LIGAND FREE ENERGY PREDICTED BY IDOCK:   -0.76 KCAL/MOL
REMARK 927      BINDING AFFINITY PREDICTED BY RF-SCORE:    0.00 PKD
ROOT
HETATM    1  C   UNL     1      -9.506  20.703  67.382  1.00  0.00    -0.516 C  
HETATM    2  C   UNL     1      -9.872  19.402  68.137  1.00  0.00    -0.393 C  
HETATM    3  C   UNL     1     -10.765  18.607  67.169  1.00  0.00    -0.433 C  
ENDROOT
BRANCH   2   4
HETATM    4  N   UNL     1      -8.651  18.697  68.651  1.00  0.00    -0.327 NA 
BRANCH   4   5
HETATM    5  C   UNL     1      -8.627  17.271  68.181  1.00  0.00    -0.242 C  
BRANCH   5   6
HETATM    6  C   UNL     1      -8.932  16.195  69.254  1.00  0.00    -0.200 C  
BRANCH   6   7
HETATM    7  N   UNL     1     -10.313  15.737  69.261  1.00  0.00    -0.227 N  
HETATM    8  C   UNL     1     -10.643  14.457  68.874  1.00  0.00    -0.247 C  
HETATM    9  H   UNL     1     -11.051  16.377  69.557  1.00  0.00     0.000 HD 
HETATM   10  O   UNL     1      -9.801  13.668  68.448  1.00  0.00    -0.225 OA 
BRANCH   8  11
HETATM   11  C   UNL     1     -12.130  14.091  68.976  1.00  0.00    -0.323 C  
BRANCH  11  12
HETATM   12  N   UNL     1     -12.464  13.695  70.332  1.00  0.00    -0.318 N  
HETATM   13  C   UNL     1     -12.294  12.351  70.830  1.00  0.00    -0.286 C  
HETATM   14  C   UNL     1     -13.399  12.238  71.861  1.00  0.00    -0.431 C  
HETATM   15  C   UNL     1     -13.512  13.654  72.418  1.00  0.00    -0.685 C  
HETATM   16  C   UNL     1     -13.160  14.498  71.219  1.00  0.00    -0.350 C  
HETATM   17  O   UNL     1     -13.426  15.680  71.069  1.00  0.00    -0.575 OA 
ENDBRANCH  11  12
ENDBRANCH   8  11
ENDBRANCH   6   7
ENDBRANCH   5   6
ENDBRANCH   4   5
BRANCH   4  18
HETATM   18  C   UNL     1      -7.331  19.370  68.433  1.00  0.00    -0.312 C  
HETATM   19  C   UNL     1      -6.370  18.504  67.583  1.00  0.00    -0.199 C  
HETATM   20  C   UNL     1      -6.526  19.709  69.701  1.00  0.00    -0.371 C  
ENDBRANCH   4  18
ENDBRANCH   2   4
TORSDOF 7
ENDMDL
MODEL       45
REMARK 921   NORMALIZED FREE ENERGY PREDICTED BY IDOCK:   -4.53 KCAL/MOL
REMARK 922        TOTAL FREE ENERGY PREDICTED BY IDOCK:   -7.39 KCAL/MOL
REMARK 923 INTER-LIGAND FREE ENERGY PREDICTED BY IDOCK:   -6.73 KCAL/MOL
REMARK 924 INTRA-LIGAND FREE ENERGY PREDICTED BY IDOCK:   -0.66 KCAL/MOL
REMARK 927      BINDING AFFINITY PREDICTED BY RF-SCORE:    0.00 PKD
ROOT
HETATM    1  C   UNL     1      -9.499  12.693  66.818  1.00  0.00    -0.237 C  
HETATM    2  C   UNL     1     -10.910  12.428  66.237  1.00  0.00    -0.266 C  
HETATM    3  C   UNL     1     -11.878  12.619  67.416  1.00  0.00    -0.393 C  
ENDROOT
BRANCH   2   4
HETATM    4  N   UNL     1     -11.172  13.261  65.015  1.00  0.00    -0.298 NA 
BRANCH   4   5
HETATM    5  C   UNL     1     -10.213  14.414  64.948  1.00  0.00    -0.324 C  
BRANCH   5   6
HETATM    6  C   UNL     1     -10.834  15.826  65.098  1.00  0.00    -0.428 C  
BRANCH   6   7
HETATM    7  N   UNL     1     -10.518  16.485  66.356  1.00  0.00    -0.297 N  
HETATM    8  C   UNL     1     -10.503  17.858  66.458  1.00  0.00    -0.313 C  
HETATM    9  H   UNL     1     -10.302  15.919  67.177  1.00  0.00     0.000 HD 
HETATM   10  O   UNL     1     -10.692  18.587  65.485  1.00  0.00    -0.586 OA 
BRANCH   8  11
HETATM   11  C   UNL     1     -10.201  18.420  67.854  1.00  0.00    -0.381 C  
BRANCH  11  12
HETATM   12  N   UNL     1      -8.896  19.054  67.875  1.00  0.00    -0.294 N  
HETATM   13  C   UNL     1      -8.647  20.374  67.344  1.00  0.00    -0.319 C  
HETATM   14  C   UNL     1      -7.205  20.279  66.885  1.00  0.00    -0.316 C  
HETATM   15  C   UNL     1      -6.575  19.316  67.888  1.00  0.00    -0.254 C  
HETATM   16  C   UNL     1      -7.726  18.397  68.215  1.00  0.00    -0.293 C  
HETATM   17  O   UNL     1      -7.638  17.284  68.707  1.00  0.00    -0.247 OA 
ENDBRANCH  11  12
ENDBRANCH   8  11
ENDBRANCH   6   7
ENDBRANCH   5   6
ENDBRANCH   4   5
BRANCH   4  18
HETATM   18  C   UNL     1     -11.259  12.541  63.705  1.00  0.00    -0.483 C  
HETATM   19  C   UNL     1     -12.665  11.940  63.464  1.00  0.00    -0.530 C  
HETATM   20  C   UNL     1     -10.295  11.355  63.518  1.00  0.00    -0.476 C  
ENDBRANCH   4  18
ENDBRANCH   2   4
TORSDOF 7
ENDMDL
MODEL       46
REMARK 921   NORMALIZED FREE ENERGY PREDICTED BY IDOCK:   -4.53 KCAL/MOL
REMARK 922        TOTAL FREE ENERGY PREDICTED BY IDOCK:   -7.39 KCAL/MOL
REMARK 923 INTER-LIGAND FREE ENERGY PREDICTED BY IDOCK:   -6.73 KCAL/MOL
REMARK 924 INTRA-LIGAND FREE ENERGY PREDICTED BY IDOCK:   -0.65 KCAL/MOL
REMARK 927      BINDING AFFINITY PREDICTED BY RF-SCORE:    0.00 PKD
ROOT
HETATM    1  C   UNL     1     -11.932  12.247  63.939  1.00  0.00    -0.582 C  
HETATM    2  C   UNL     1     -11.357  12.267  65.377  1.00  0.00    -0.343 C  
HETATM    3  C   UNL     1     -10.038  11.480  65.299  1.00  0.00    -0.314 C  
ENDROOT
BRANCH   2   4
HETATM    4  N   UNL     1     -11.271  13.664  65.920  1.00  0.00    -0.303 NA 
BRANCH   4   5
HETATM    5  C   UNL     1     -10.718  13.655  67.315  1.00  0.00    -0.279 C  
BRANCH   5   6
HETATM    6  C   UNL     1     -11.758  13.554  68.460  1.00  0.00    -0.357 C  
BRANCH   6   7
HETATM    7  N   UNL     1     -11.401  12.607  69.505  1.00  0.00    -0.448 N  
HETATM    8  C   UNL     1     -11.604  11.254  69.342  1.00  0.00    -0.321 C  
HETATM    9  H   UNL     1     -10.993  12.951  70.374  1.00  0.00     0.000 HD 
HETATM   10  O   UNL     1     -12.151  10.793  68.341  1.00  0.00    -0.501 OA 
BRANCH   8  11
HETATM   11  C   UNL     1     -11.138  10.364  70.503  1.00  0.00    -0.265 C  
BRANCH  11  12
HETATM   12  N   UNL     1     -12.189   9.441  70.889  1.00  0.00    -0.264 N  
HETATM   13  C   UNL     1     -13.487   9.869  71.355  1.00  0.00    -0.302 C  
HETATM   14  C   UNL     1     -13.883   8.753  72.302  1.00  0.00    -0.505 C  
HETATM   15  C   UNL     1     -13.247   7.514  71.677  1.00  0.00    -0.404 C  
HETATM   16  C   UNL     1     -11.999   8.079  71.046  1.00  0.00    -0.245 C  
HETATM   17  O   UNL     1     -11.009   7.445  70.718  1.00  0.00    -0.244 OA 
ENDBRANCH  11  12
ENDBRANCH   8  11
ENDBRANCH   6   7
ENDBRANCH   5   6
ENDBRANCH   4   5
BRANCH   4  18
HETATM   18  C   UNL     1     -10.590  14.688  65.065  1.00  0.00    -0.439 C  
HETATM   19  C   UNL     1      -9.456  15.419  65.825  1.00  0.00    -0.325 C  
HETATM   20  C   UNL     1     -11.484  15.820  64.523  1.00  0.00    -0.292 C  
ENDBRANCH   4  18
ENDBRANCH   2   4
TORSDOF 7
ENDMDL
MODEL       47
REMARK 921   NORMALIZED FREE ENERGY PREDICTED BY IDOCK:   -4.52 KCAL/MOL
REMARK 922        TOTAL FREE ENERGY PREDICTED BY IDOCK:   -7.38 KCAL/MOL
REMARK 923 INTER-LIGAND FREE ENERGY PREDICTED BY IDOCK:   -6.45 KCAL/MOL
REMARK 924 INTRA-LIGAND FREE ENERGY PREDICTED BY IDOCK:   -0.93 KCAL/MOL
REMARK 927      BINDING AFFINITY PREDICTED BY RF-SCORE:    0.00 PKD
ROOT
HETATM    1  C   UNL     1     -10.642   9.385  67.879  1.00  0.00    -0.293 C  
HETATM    2  C   UNL     1     -10.162   9.401  69.351  1.00  0.00    -0.207 C  
HETATM    3  C   UNL     1      -8.647   9.659  69.283  1.00  0.00    -0.153 C  
ENDROOT
BRANCH   2   4
HETATM    4  N   UNL     1     -10.966  10.355  70.187  1.00  0.00    -0.300 NA 
BRANCH   4   5
HETATM    5  C   UNL     1     -11.935  11.117  69.330  1.00  0.00    -0.349 C  
BRANCH   5   6
HETATM    6  C   UNL     1     -11.785  12.659  69.338  1.00  0.00    -0.325 C  
BRANCH   6   7
HETATM    7  N   UNL     1     -11.498  13.235  68.034  1.00  0.00    -0.289 N  
HETATM    8  C   UNL     1     -10.203  13.456  67.620  1.00  0.00    -0.228 C  
HETATM    9  H   UNL     1     -12.270  13.480  67.414  1.00  0.00     0.000 HD 
HETATM   10  O   UNL     1      -9.239  13.238  68.353  1.00  0.00    -0.196 OA 
BRANCH   8  11
HETATM   11  C   UNL     1     -10.041  14.022  66.203  1.00  0.00    -0.309 C  
BRANCH  11  12
HETATM   12  N   UNL     1     -10.767  13.209  65.245  1.00  0.00    -0.295 N  
HETATM   13  C   UNL     1     -10.407  11.848  64.926  1.00  0.00    -0.286 C  
HETATM   14  C   UNL     1     -10.851  11.717  63.483  1.00  0.00    -0.496 C  
HETATM   15  C   UNL     1     -12.081  12.618  63.407  1.00  0.00    -0.614 C  
HETATM   16  C   UNL     1     -11.742  13.705  64.397  1.00  0.00    -0.411 C  
HETATM   17  O   UNL     1     -12.252  14.813  64.449  1.00  0.00    -0.491 OA 
ENDBRANCH  11  12
ENDBRANCH   8  11
ENDBRANCH   6   7
ENDBRANCH   5   6
ENDBRANCH   4   5
BRANCH   4  18
HETATM   18  C   UNL     1     -11.629   9.800  71.409  1.00  0.00    -0.378 C  
HETATM   19  C   UNL     1     -11.135   8.371  71.741  1.00  0.00    -0.358 C  
HETATM   20  C   UNL     1     -13.163   9.673  71.348  1.00  0.00    -0.469 C  
ENDBRANCH   4  18
ENDBRANCH   2   4
TORSDOF 7
ENDMDL
MODEL       48
REMARK 921   NORMALIZED FREE ENERGY PREDICTED BY IDOCK:   -4.52 KCAL/MOL
REMARK 922        TOTAL FREE ENERGY PREDICTED BY IDOCK:   -7.38 KCAL/MOL
REMARK 923 INTER-LIGAND FREE ENERGY PREDICTED BY IDOCK:   -6.45 KCAL/MOL
REMARK 924 INTRA-LIGAND FREE ENERGY PREDICTED BY IDOCK:   -0.93 KCAL/MOL
REMARK 927      BINDING AFFINITY PREDICTED BY RF-SCORE:    0.00 PKD
ROOT
HETATM    1  C   UNL     1     -11.253  10.762  67.468  1.00  0.00    -0.346 C  
HETATM    2  C   UNL     1     -10.789  12.095  66.832  1.00  0.00    -0.250 C  
HETATM    3  C   UNL     1      -9.521  11.747  66.036  1.00  0.00    -0.245 C  
ENDROOT
BRANCH   2   4
HETATM    4  N   UNL     1     -11.898  12.760  66.068  1.00  0.00    -0.420 NA 
BRANCH   4   5
HETATM    5  C   UNL     1     -12.387  13.976  66.800  1.00  0.00    -0.332 C  
BRANCH   5   6
HETATM    6  C   UNL     1     -11.444  14.539  67.894  1.00  0.00    -0.325 C  
BRANCH   6   7
HETATM    7  N   UNL     1     -11.091  15.938  67.710  1.00  0.00    -0.315 N  
HETATM    8  C   UNL     1     -10.115  16.316  66.814  1.00  0.00    -0.278 C  
HETATM    9  H   UNL     1     -11.574  16.652  68.255  1.00  0.00     0.000 HD 
HETATM   10  O   UNL     1      -9.458  15.492  66.180  1.00  0.00    -0.288 OA 
BRANCH   8  11
HETATM   11  C   UNL     1      -9.877  17.827  66.685  1.00  0.00    -0.322 C  
BRANCH  11  12
HETATM   12  N   UNL     1      -8.643  18.205  67.348  1.00  0.00    -0.242 N  
HETATM   13  C   UNL     1      -8.533  18.387  68.776  1.00  0.00    -0.228 C  
HETATM   14  C   UNL     1      -7.452  19.442  68.894  1.00  0.00    -0.399 C  
HETATM   15  C   UNL     1      -6.537  19.147  67.709  1.00  0.00    -0.232 C  
HETATM   16  C   UNL     1      -7.506  18.625  66.678  1.00  0.00    -0.234 C  
HETATM   17  O   UNL     1      -7.313  18.566  65.475  1.00  0.00    -0.524 OA 
ENDBRANCH  11  12
ENDBRANCH   8  11
ENDBRANCH   6   7
ENDBRANCH   5   6
ENDBRANCH   4   5
BRANCH   4  18
HETATM   18  C   UNL     1     -11.649  13.052  64.621  1.00  0.00    -0.346 C  
HETATM   19  C   UNL     1     -12.052  14.498  64.242  1.00  0.00    -0.448 C  
HETATM   20  C   UNL     1     -12.403  12.164  63.612  1.00  0.00    -0.673 C  
ENDBRANCH   4  18
ENDBRANCH   2   4
TORSDOF 7
ENDMDL
MODEL       49
REMARK 921   NORMALIZED FREE ENERGY PREDICTED BY IDOCK:   -4.52 KCAL/MOL
REMARK 922        TOTAL FREE ENERGY PREDICTED BY IDOCK:   -7.37 KCAL/MOL
REMARK 923 INTER-LIGAND FREE ENERGY PREDICTED BY IDOCK:   -6.43 KCAL/MOL
REMARK 924 INTRA-LIGAND FREE ENERGY PREDICTED BY IDOCK:   -0.95 KCAL/MOL
REMARK 927      BINDING AFFINITY PREDICTED BY RF-SCORE:    0.00 PKD
ROOT
HETATM    1  C   UNL     1      -9.032  11.875  66.552  1.00  0.00    -0.199 C  
HETATM    2  C   UNL     1     -10.336  11.346  65.908  1.00  0.00    -0.250 C  
HETATM    3  C   UNL     1     -10.286   9.819  66.081  1.00  0.00    -0.278 C  
ENDROOT
BRANCH   2   4
HETATM    4  N   UNL     1     -11.548  12.042  66.459  1.00  0.00    -0.507 NA 
BRANCH   4   5
HETATM    5  C   UNL     1     -11.222  12.720  67.758  1.00  0.00    -0.275 C  
BRANCH   5   6
HETATM    6  C   UNL     1     -11.975  12.197  69.007  1.00  0.00    -0.247 C  
BRANCH   6   7
HETATM    7  N   UNL     1     -11.215  11.245  69.803  1.00  0.00    -0.403 N  
HETATM    8  C   UNL     1     -11.846  10.360  70.650  1.00  0.00    -0.350 C  
HETATM    9  H   UNL     1     -10.198  11.232  69.733  1.00  0.00     0.000 HD 
HETATM   10  O   UNL     1     -13.064  10.376  70.821  1.00  0.00    -0.385 OA 
BRANCH   8  11
HETATM   11  C   UNL     1     -10.929   9.378  71.393  1.00  0.00    -0.373 C  
BRANCH  11  12
HETATM   12  N   UNL     1     -10.763   8.158  70.626  1.00  0.00    -0.220 N  
HETATM   13  C   UNL     1      -9.779   8.005  69.581  1.00  0.00    -0.169 C  
HETATM   14  C   UNL     1     -10.446   7.023  68.639  1.00  0.00    -0.224 C  
HETATM   15  C   UNL     1     -11.264   6.135  69.572  1.00  0.00    -0.482 C  
HETATM   16  C   UNL     1     -11.648   7.094  70.670  1.00  0.00    -0.314 C  
HETATM   17  O   UNL     1     -12.563   6.947  71.465  1.00  0.00    -0.365 OA 
ENDBRANCH  11  12
ENDBRANCH   8  11
ENDBRANCH   6   7
ENDBRANCH   5   6
ENDBRANCH   4   5
BRANCH   4  18
HETATM   18  C   UNL     1     -12.290  12.955  65.533  1.00  0.00    -0.461 C  
HETATM   19  C   UNL     1     -12.222  12.473  64.063  1.00  0.00    -0.566 C  
HETATM   20  C   UNL     1     -11.800  14.414  65.484  1.00  0.00    -0.357 C  
ENDBRANCH   4  18
ENDBRANCH   2   4
TORSDOF 7
ENDMDL
MODEL       50
REMARK 921   NORMALIZED FREE ENERGY PREDICTED BY IDOCK:   -4.50 KCAL/MOL
REMARK 922        TOTAL FREE ENERGY PREDICTED BY IDOCK:   -7.35 KCAL/MOL
REMARK 923 INTER-LIGAND FREE ENERGY PREDICTED BY IDOCK:   -6.83 KCAL/MOL
REMARK 924 INTRA-LIGAND FREE ENERGY PREDICTED BY IDOCK:   -0.52 KCAL/MOL
REMARK 927      BINDING AFFINITY PREDICTED BY RF-SCORE:    0.00 PKD
ROOT
HETATM    1  C   UNL     1     -11.618  15.372  71.637  1.00  0.00    -0.492 C  
HETATM    2  C   UNL     1     -12.728  14.308  71.458  1.00  0.00    -0.350 C  
HETATM    3  C   UNL     1     -14.040  15.102  71.345  1.00  0.00    -0.598 C  
ENDROOT
BRANCH   2   4
HETATM    4  N   UNL     1     -12.417  13.367  70.330  1.00  0.00    -0.288 NA 
BRANCH   4   5
HETATM    5  C   UNL     1     -11.359  13.947  69.437  1.00  0.00    -0.258 C  
BRANCH   5   6
HETATM    6  C   UNL     1     -11.811  14.331  68.005  1.00  0.00    -0.344 C  
BRANCH   6   7
HETATM    7  N   UNL     1     -11.148  15.510  67.470  1.00  0.00    -0.322 N  
HETATM    8  C   UNL     1     -10.123  15.400  66.556  1.00  0.00    -0.271 C  
HETATM    9  H   UNL     1     -11.448  16.436  67.776  1.00  0.00     0.000 HD 
HETATM   10  O   UNL     1      -9.680  14.308  66.202  1.00  0.00    -0.297 OA 
BRANCH   8  11
HETATM   11  C   UNL     1      -9.546  16.724  66.037  1.00  0.00    -0.234 C  
BRANCH  11  12
HETATM   12  N   UNL     1      -9.715  17.774  67.024  1.00  0.00    -0.279 N  
HETATM   13  C   UNL     1     -10.599  18.901  66.840  1.00  0.00    -0.421 C  
HETATM   14  C   UNL     1      -9.908  19.995  67.629  1.00  0.00    -0.548 C  
HETATM   15  C   UNL     1      -9.247  19.241  68.780  1.00  0.00    -0.421 C  
HETATM   16  C   UNL     1      -8.912  17.916  68.142  1.00  0.00    -0.268 C  
HETATM   17  O   UNL     1      -8.092  17.109  68.551  1.00  0.00    -0.241 OA 
ENDBRANCH  11  12
ENDBRANCH   8  11
ENDBRANCH   6   7
ENDBRANCH   5   6
ENDBRANCH   4   5
BRANCH   4  18
HETATM   18  C   UNL     1     -12.115  11.945  70.691  1.00  0.00    -0.294 C  
HETATM   19  C   UNL     1     -12.115  11.018  69.451  1.00  0.00    -0.389 C  
HETATM   20  C   UNL     1     -13.091  11.274  71.674  1.00  0.00    -0.513 C  
ENDBRANCH   4  18
ENDBRANCH   2   4
TORSDOF 7
ENDMDL
MODEL       51
REMARK 921   NORMALIZED FREE ENERGY PREDICTED BY IDOCK:   -4.50 KCAL/MOL
REMARK 922        TOTAL FREE ENERGY PREDICTED BY IDOCK:   -7.35 KCAL/MOL
REMARK 923 INTER-LIGAND FREE ENERGY PREDICTED BY IDOCK:   -6.48 KCAL/MOL
REMARK 924 INTRA-LIGAND FREE ENERGY PREDICTED BY IDOCK:   -0.87 KCAL/MOL
REMARK 927      BINDING AFFINITY PREDICTED BY RF-SCORE:    0.00 PKD
ROOT
HETATM    1  C   UNL     1     -12.943  10.442  70.872  1.00  0.00    -0.475 C  
HETATM    2  C   UNL     1     -11.890   9.505  71.513  1.00  0.00    -0.405 C  
HETATM    3  C   UNL     1     -12.687   8.570  72.438  1.00  0.00    -0.394 C  
ENDROOT
BRANCH   2   4
HETATM    4  N   UNL     1     -11.031   8.845  70.474  1.00  0.00    -0.235 NA 
BRANCH   4   5
HETATM    5  C   UNL     1      -9.761   9.619  70.271  1.00  0.00    -0.259 C  
BRANCH   5   6
HETATM    6  C   UNL     1      -9.587  10.294  68.887  1.00  0.00    -0.190 C  
BRANCH   6   7
HETATM    7  N   UNL     1     -10.125  11.644  68.813  1.00  0.00    -0.327 N  
HETATM    8  C   UNL     1     -11.257  11.922  68.080  1.00  0.00    -0.257 C  
HETATM    9  H   UNL     1      -9.654  12.398  69.313  1.00  0.00     0.000 HD 
HETATM   10  O   UNL     1     -11.825  11.063  67.407  1.00  0.00    -0.523 OA 
BRANCH   8  11
HETATM   11  C   UNL     1     -11.743  13.378  68.127  1.00  0.00    -0.362 C  
BRANCH  11  12
HETATM   12  N   UNL     1     -11.621  13.996  66.821  1.00  0.00    -0.366 N  
HETATM   13  C   UNL     1     -12.669  13.966  65.828  1.00  0.00    -0.461 C  
HETATM   14  C   UNL     1     -11.893  13.991  64.526  1.00  0.00    -0.452 C  
HETATM   15  C   UNL     1     -10.665  14.833  64.861  1.00  0.00    -0.438 C  
HETATM   16  C   UNL     1     -10.435  14.499  66.314  1.00  0.00    -0.301 C  
HETATM   17  O   UNL     1      -9.396  14.661  66.932  1.00  0.00    -0.220 OA 
ENDBRANCH  11  12
ENDBRANCH   8  11
ENDBRANCH   6   7
ENDBRANCH   5   6
ENDBRANCH   4   5
BRANCH   4  18
HETATM   18  C   UNL     1     -10.763   7.381  70.639  1.00  0.00    -0.229 C  
HETATM   19  C   UNL     1      -9.253   7.081  70.801  1.00  0.00    -0.157 C  
HETATM   20  C   UNL     1     -11.215   6.475  69.478  1.00  0.00    -0.434 C  
ENDBRANCH   4  18
ENDBRANCH   2   4
TORSDOF 7
ENDMDL
MODEL       52
REMARK 921   NORMALIZED FREE ENERGY PREDICTED BY IDOCK:   -4.50 KCAL/MOL
REMARK 922        TOTAL FREE ENERGY PREDICTED BY IDOCK:   -7.35 KCAL/MOL
REMARK 923 INTER-LIGAND FREE ENERGY PREDICTED BY IDOCK:   -6.76 KCAL/MOL
REMARK 924 INTRA-LIGAND FREE ENERGY PREDICTED BY IDOCK:   -0.59 KCAL/MOL
REMARK 927      BINDING AFFINITY PREDICTED BY RF-SCORE:    0.00 PKD
ROOT
HETATM    1  C   UNL     1      -8.888   6.989  69.261  1.00  0.00    -0.139 C  
HETATM    2  C   UNL     1     -10.348   7.440  69.508  1.00  0.00    -0.217 C  
HETATM    3  C   UNL     1     -11.198   6.166  69.368  1.00  0.00    -0.466 C  
ENDROOT
BRANCH   2   4
HETATM    4  N   UNL     1     -10.484   8.195  70.799  1.00  0.00    -0.200 NA 
BRANCH   4   5
HETATM    5  C   UNL     1     -10.853   9.627  70.536  1.00  0.00    -0.309 C  
BRANCH   5   6
HETATM    6  C   UNL     1     -10.049  10.344  69.422  1.00  0.00    -0.229 C  
BRANCH   6   7
HETATM    7  N   UNL     1     -10.493  11.703  69.151  1.00  0.00    -0.405 N  
HETATM    8  C   UNL     1     -11.479  11.960  68.224  1.00  0.00    -0.311 C  
HETATM    9  H   UNL     1     -10.065  12.479  69.656  1.00  0.00     0.000 HD 
HETATM   10  O   UNL     1     -11.981  11.068  67.542  1.00  0.00    -0.529 OA 
BRANCH   8  11
HETATM   11  C   UNL     1     -11.884  13.433  68.072  1.00  0.00    -0.357 C  
BRANCH  11  12
HETATM   12  N   UNL     1     -11.268  14.010  66.892  1.00  0.00    -0.304 N  
HETATM   13  C   UNL     1      -9.947  14.595  66.893  1.00  0.00    -0.253 C  
HETATM   14  C   UNL     1     -10.058  15.663  65.823  1.00  0.00    -0.394 C  
HETATM   15  C   UNL     1     -11.037  15.060  64.819  1.00  0.00    -0.388 C  
HETATM   16  C   UNL     1     -11.943  14.245  65.707  1.00  0.00    -0.393 C  
HETATM   17  O   UNL     1     -13.062  13.848  65.422  1.00  0.00    -0.752 OA 
ENDBRANCH  11  12
ENDBRANCH   8  11
ENDBRANCH   6   7
ENDBRANCH   5   6
ENDBRANCH   4   5
BRANCH   4  18
HETATM   18  C   UNL     1     -11.353   7.588  71.857  1.00  0.00    -0.260 C  
HETATM   19  C   UNL     1     -12.632   8.424  72.109  1.00  0.00    -0.412 C  
HETATM   20  C   UNL     1     -10.714   7.432  73.250  1.00  0.00    -0.441 C  
ENDBRANCH   4  18
ENDBRANCH   2   4
TORSDOF 7
ENDMDL
MODEL       53
REMARK 921   NORMALIZED FREE ENERGY PREDICTED BY IDOCK:   -4.49 KCAL/MOL
REMARK 922        TOTAL FREE ENERGY PREDICTED BY IDOCK:   -7.33 KCAL/MOL
REMARK 923 INTER-LIGAND FREE ENERGY PREDICTED BY IDOCK:   -6.85 KCAL/MOL
REMARK 924 INTRA-LIGAND FREE ENERGY PREDICTED BY IDOCK:   -0.48 KCAL/MOL
REMARK 927      BINDING AFFINITY PREDICTED BY RF-SCORE:    0.00 PKD
ROOT
HETATM    1  C   UNL     1      -9.512  15.240  69.128  1.00  0.00    -0.236 C  
HETATM    2  C   UNL     1     -10.538  15.730  68.076  1.00  0.00    -0.279 C  
HETATM    3  C   UNL     1     -11.845  15.952  68.855  1.00  0.00    -0.314 C  
ENDROOT
BRANCH   2   4
HETATM    4  N   UNL     1     -10.016  16.903  67.297  1.00  0.00    -0.270 NA 
BRANCH   4   5
HETATM    5  C   UNL     1      -9.939  16.572  65.835  1.00  0.00    -0.317 C  
BRANCH   5   6
HETATM    6  C   UNL     1     -11.263  16.119  65.169  1.00  0.00    -0.147 C  
BRANCH   6   7
HETATM    7  N   UNL     1     -11.200  14.800  64.558  1.00  0.00    -0.617 N  
HETATM    8  C   UNL     1     -12.255  13.919  64.650  1.00  0.00    -0.419 C  
HETATM    9  H   UNL     1     -10.358  14.522  64.054  1.00  0.00     0.000 HD 
HETATM   10  O   UNL     1     -13.266  14.180  65.301  1.00  0.00    -0.760 OA 
BRANCH   8  11
HETATM   11  C   UNL     1     -12.074  12.582  63.919  1.00  0.00    -0.498 C  
BRANCH  11  12
HETATM   12  N   UNL     1     -11.194  11.707  64.672  1.00  0.00    -0.287 N  
HETATM   13  C   UNL     1     -11.264  11.556  66.107  1.00  0.00    -0.202 C  
HETATM   14  C   UNL     1      -9.826  11.250  66.477  1.00  0.00    -0.239 C  
HETATM   15  C   UNL     1      -9.307  10.469  65.272  1.00  0.00    -0.258 C  
HETATM   16  C   UNL     1     -10.080  11.088  64.134  1.00  0.00    -0.344 C  
HETATM   17  O   UNL     1      -9.782  11.034  62.951  1.00  0.00    -0.319 OA 
ENDBRANCH  11  12
ENDBRANCH   8  11
ENDBRANCH   6   7
ENDBRANCH   5   6
ENDBRANCH   4   5
BRANCH   4  18
HETATM   18  C   UNL     1     -10.678  18.225  67.529  1.00  0.00    -0.355 C  
HETATM   19  C   UNL     1     -10.626  19.130  66.273  1.00  0.00    -0.521 C  
HETATM   20  C   UNL     1     -10.083  19.093  68.654  1.00  0.00    -0.471 C  
ENDBRANCH   4  18
ENDBRANCH   2   4
TORSDOF 7
ENDMDL
MODEL       54
REMARK 921   NORMALIZED FREE ENERGY PREDICTED BY IDOCK:   -4.46 KCAL/MOL
REMARK 922        TOTAL FREE ENERGY PREDICTED BY IDOCK:   -7.30 KCAL/MOL
REMARK 923 INTER-LIGAND FREE ENERGY PREDICTED BY IDOCK:   -6.19 KCAL/MOL
REMARK 924 INTRA-LIGAND FREE ENERGY PREDICTED BY IDOCK:   -1.10 KCAL/MOL
REMARK 927      BINDING AFFINITY PREDICTED BY RF-SCORE:    0.00 PKD
ROOT
HETATM    1  C   UNL     1     -10.723  15.299  65.150  1.00  0.00    -0.455 C  
HETATM    2  C   UNL     1     -11.305  14.148  66.008  1.00  0.00    -0.330 C  
HETATM    3  C   UNL     1     -12.742  13.947  65.499  1.00  0.00    -0.536 C  
ENDROOT
BRANCH   2   4
HETATM    4  N   UNL     1     -10.413  12.940  65.991  1.00  0.00    -0.272 NA 
BRANCH   4   5
HETATM    5  C   UNL     1     -10.206  12.418  67.383  1.00  0.00    -0.208 C  
BRANCH   5   6
HETATM    6  C   UNL     1      -8.854  12.777  68.051  1.00  0.00    -0.195 C  
BRANCH   6   7
HETATM    7  N   UNL     1      -8.833  14.087  68.683  1.00  0.00    -0.314 N  
HETATM    8  C   UNL     1      -8.312  15.184  68.034  1.00  0.00    -0.147 C  
HETATM    9  H   UNL     1      -9.210  14.194  69.625  1.00  0.00     0.000 HD 
HETATM   10  O   UNL     1      -7.787  15.097  66.925  1.00  0.00    -0.201 OA 
BRANCH   8  11
HETATM   11  C   UNL     1      -8.397  16.514  68.797  1.00  0.00    -0.248 C  
BRANCH  11  12
HETATM   12  N   UNL     1      -9.083  17.514  68.000  1.00  0.00    -0.262 N  
HETATM   13  C   UNL     1      -8.407  18.616  67.357  1.00  0.00    -0.260 C  
HETATM   14  C   UNL     1      -9.468  19.699  67.357  1.00  0.00    -0.433 C  
HETATM   15  C   UNL     1     -10.772  18.920  67.210  1.00  0.00    -0.523 C  
HETATM   16  C   UNL     1     -10.460  17.636  67.938  1.00  0.00    -0.392 C  
HETATM   17  O   UNL     1     -11.277  16.841  68.374  1.00  0.00    -0.332 OA 
ENDBRANCH  11  12
ENDBRANCH   8  11
ENDBRANCH   6   7
ENDBRANCH   5   6
ENDBRANCH   4   5
BRANCH   4  18
HETATM   18  C   UNL     1     -10.772  11.840  65.040  1.00  0.00    -0.292 C  
HETATM   19  C   UNL     1     -10.211  10.471  65.495  1.00  0.00    -0.325 C  
HETATM   20  C   UNL     1     -10.264  12.004  63.595  1.00  0.00    -0.470 C  
ENDBRANCH   4  18
ENDBRANCH   2   4
TORSDOF 7
ENDMDL
MODEL       55
REMARK 921   NORMALIZED FREE ENERGY PREDICTED BY IDOCK:   -4.45 KCAL/MOL
REMARK 922        TOTAL FREE ENERGY PREDICTED BY IDOCK:   -7.27 KCAL/MOL
REMARK 923 INTER-LIGAND FREE ENERGY PREDICTED BY IDOCK:   -6.67 KCAL/MOL
REMARK 924 INTRA-LIGAND FREE ENERGY PREDICTED BY IDOCK:   -0.60 KCAL/MOL
REMARK 927      BINDING AFFINITY PREDICTED BY RF-SCORE:    0.00 PKD
ROOT
HETATM    1  C   UNL     1     -11.471   8.210  72.543  1.00  0.00    -0.470 C  
HETATM    2  C   UNL     1     -12.022   7.386  71.353  1.00  0.00    -0.310 C  
HETATM    3  C   UNL     1     -13.552   7.449  71.488  1.00  0.00    -0.454 C  
ENDROOT
BRANCH   2   4
HETATM    4  N   UNL     1     -11.446   7.847  70.046  1.00  0.00    -0.040 NA 
BRANCH   4   5
HETATM    5  C   UNL     1     -10.767   9.176  70.208  1.00  0.00    -0.231 C  
BRANCH   5   6
HETATM    6  C   UNL     1     -11.406  10.366  69.448  1.00  0.00    -0.250 C  
BRANCH   6   7
HETATM    7  N   UNL     1     -11.051  10.430  68.039  1.00  0.00    -0.336 N  
HETATM    8  C   UNL     1     -11.397  11.516  67.265  1.00  0.00    -0.290 C  
HETATM    9  H   UNL     1     -10.536   9.658  67.616  1.00  0.00     0.000 HD 
HETATM   10  O   UNL     1     -12.072  12.444  67.708  1.00  0.00    -0.447 OA 
BRANCH   8  11
HETATM   11  C   UNL     1     -10.917  11.477  65.807  1.00  0.00    -0.246 C  
BRANCH  11  12
HETATM   12  N   UNL     1     -11.134  12.760  65.166  1.00  0.00    -0.285 N  
HETATM   13  C   UNL     1     -10.223  13.874  65.293  1.00  0.00    -0.344 C  
HETATM   14  C   UNL     1     -11.146  15.071  65.176  1.00  0.00    -0.408 C  
HETATM   15  C   UNL     1     -12.233  14.590  64.218  1.00  0.00    -0.441 C  
HETATM   16  C   UNL     1     -12.316  13.119  64.542  1.00  0.00    -0.385 C  
HETATM   17  O   UNL     1     -13.250  12.378  64.282  1.00  0.00    -0.769 OA 
ENDBRANCH  11  12
ENDBRANCH   8  11
ENDBRANCH   6   7
ENDBRANCH   5   6
ENDBRANCH   4   5
BRANCH   4  18
HETATM   18  C   UNL     1     -10.584   6.876  69.299  1.00  0.00    -0.226 C  
HETATM   19  C   UNL     1     -11.133   6.583  67.881  1.00  0.00    -0.352 C  
HETATM   20  C   UNL     1     -10.415   5.487  69.942  1.00  0.00    -0.386 C  
ENDBRANCH   4  18
ENDBRANCH   2   4
TORSDOF 7
ENDMDL
MODEL       56
REMARK 921   NORMALIZED FREE ENERGY PREDICTED BY IDOCK:   -4.41 KCAL/MOL
REMARK 922        TOTAL FREE ENERGY PREDICTED BY IDOCK:   -7.22 KCAL/MOL
REMARK 923 INTER-LIGAND FREE ENERGY PREDICTED BY IDOCK:   -6.53 KCAL/MOL
REMARK 924 INTRA-LIGAND FREE ENERGY PREDICTED BY IDOCK:   -0.70 KCAL/MOL
REMARK 927      BINDING AFFINITY PREDICTED BY RF-SCORE:    0.00 PKD
ROOT
HETATM    1  C   UNL     1     -13.810   9.148  72.455  1.00  0.00    -0.524 C  
HETATM    2  C   UNL     1     -12.969   9.506  71.206  1.00  0.00    -0.328 C  
HETATM    3  C   UNL     1     -12.733  11.023  71.294  1.00  0.00    -0.537 C  
ENDROOT
BRANCH   2   4
HETATM    4  N   UNL     1     -11.744   8.645  71.097  1.00  0.00    -0.283 NA 
BRANCH   4   5
HETATM    5  C   UNL     1     -10.600   9.425  70.518  1.00  0.00    -0.271 C  
BRANCH   5   6
HETATM    6  C   UNL     1     -10.147   9.014  69.094  1.00  0.00    -0.195 C  
BRANCH   6   7
HETATM    7  N   UNL     1      -9.849  10.137  68.218  1.00  0.00    -0.143 N  
HETATM    8  C   UNL     1      -9.831   9.990  66.849  1.00  0.00    -0.197 C  
HETATM    9  H   UNL     1      -9.649  11.051  68.626  1.00  0.00     0.000 HD 
HETATM   10  O   UNL     1     -10.001   8.897  66.309  1.00  0.00    -0.282 OA 
BRANCH   8  11
HETATM   11  C   UNL     1      -9.551  11.266  66.043  1.00  0.00    -0.218 C  
BRANCH  11  12
HETATM   12  N   UNL     1     -10.722  11.650  65.277  1.00  0.00    -0.286 N  
HETATM   13  C   UNL     1     -10.846  11.431  63.855  1.00  0.00    -0.393 C  
HETATM   14  C   UNL     1     -11.729  12.583  63.419  1.00  0.00    -0.567 C  
HETATM   15  C   UNL     1     -12.642  12.807  64.622  1.00  0.00    -0.491 C  
HETATM   16  C   UNL     1     -11.744  12.438  65.776  1.00  0.00    -0.414 C  
HETATM   17  O   UNL     1     -11.904  12.762  66.942  1.00  0.00    -0.376 OA 
ENDBRANCH  11  12
ENDBRANCH   8  11
ENDBRANCH   6   7
ENDBRANCH   5   6
ENDBRANCH   4   5
BRANCH   4  18
HETATM   18  C   UNL     1     -11.330   7.889  72.323  1.00  0.00    -0.337 C  
HETATM   19  C   UNL     1      -9.864   8.186  72.721  1.00  0.00    -0.353 C  
HETATM   20  C   UNL     1     -11.401   6.354  72.227  1.00  0.00    -0.330 C  
ENDBRANCH   4  18
ENDBRANCH   2   4
TORSDOF 7
ENDMDL
MODEL       57
REMARK 921   NORMALIZED FREE ENERGY PREDICTED BY IDOCK:   -4.38 KCAL/MOL
REMARK 922        TOTAL FREE ENERGY PREDICTED BY IDOCK:   -7.18 KCAL/MOL
REMARK 923 INTER-LIGAND FREE ENERGY PREDICTED BY IDOCK:   -6.70 KCAL/MOL
REMARK 924 INTRA-LIGAND FREE ENERGY PREDICTED BY IDOCK:   -0.48 KCAL/MOL
REMARK 927      BINDING AFFINITY PREDICTED BY RF-SCORE:    0.00 PKD
ROOT
HETATM    1  C   UNL     1      -8.850   8.460  71.474  1.00  0.00    -0.239 C  
HETATM    2  C   UNL     1     -10.281   8.031  71.881  1.00  0.00    -0.214 C  
HETATM    3  C   UNL     1     -10.174   7.597  73.352  1.00  0.00    -0.375 C  
ENDROOT
BRANCH   2   4
HETATM    4  N   UNL     1     -11.289   9.100  71.570  1.00  0.00    -0.342 NA 
BRANCH   4   5
HETATM    5  C   UNL     1     -10.799   9.979  70.456  1.00  0.00    -0.314 C  
BRANCH   5   6
HETATM    6  C   UNL     1     -11.583  11.297  70.233  1.00  0.00    -0.275 C  
BRANCH   6   7
HETATM    7  N   UNL     1     -10.974  12.193  69.263  1.00  0.00    -0.416 N  
HETATM    8  C   UNL     1     -11.343  12.168  67.936  1.00  0.00    -0.300 C  
HETATM    9  H   UNL     1     -10.259  12.853  69.571  1.00  0.00     0.000 HD 
HETATM   10  O   UNL     1     -12.152  11.349  67.501  1.00  0.00    -0.592 OA 
BRANCH   8  11
HETATM   11  C   UNL     1     -10.656  13.200  67.032  1.00  0.00    -0.258 C  
BRANCH  11  12
HETATM   12  N   UNL     1     -10.850  12.860  65.634  1.00  0.00    -0.270 N  
HETATM   13  C   UNL     1     -11.947  13.361  64.841  1.00  0.00    -0.378 C  
HETATM   14  C   UNL     1     -12.180  12.238  63.850  1.00  0.00    -0.608 C  
HETATM   15  C   UNL     1     -10.783  11.663  63.630  1.00  0.00    -0.500 C  
HETATM   16  C   UNL     1     -10.135  11.875  64.976  1.00  0.00    -0.264 C  
HETATM   17  O   UNL     1      -9.147  11.295  65.396  1.00  0.00    -0.205 OA 
ENDBRANCH  11  12
ENDBRANCH   8  11
ENDBRANCH   6   7
ENDBRANCH   5   6
ENDBRANCH   4   5
BRANCH   4  18
HETATM   18  C   UNL     1     -12.702   8.660  71.344  1.00  0.00    -0.276 C  
HETATM   19  C   UNL     1     -13.645   9.124  72.481  1.00  0.00    -0.497 C  
HETATM   20  C   UNL     1     -12.931   7.140  71.248  1.00  0.00    -0.378 C  
ENDBRANCH   4  18
ENDBRANCH   2   4
TORSDOF 7
ENDMDL
MODEL       58
REMARK 921   NORMALIZED FREE ENERGY PREDICTED BY IDOCK:   -4.38 KCAL/MOL
REMARK 922        TOTAL FREE ENERGY PREDICTED BY IDOCK:   -7.18 KCAL/MOL
REMARK 923 INTER-LIGAND FREE ENERGY PREDICTED BY IDOCK:   -6.51 KCAL/MOL
REMARK 924 INTRA-LIGAND FREE ENERGY PREDICTED BY IDOCK:   -0.68 KCAL/MOL
REMARK 927      BINDING AFFINITY PREDICTED BY RF-SCORE:    0.00 PKD
ROOT
HETATM    1  C   UNL     1     -10.841   6.056  72.140  1.00  0.00    -0.297 C  
HETATM    2  C   UNL     1     -11.053   7.398  72.882  1.00  0.00    -0.349 C  
HETATM    3  C   UNL     1      -9.704   7.712  73.551  1.00  0.00    -0.358 C  
ENDROOT
BRANCH   2   4
HETATM    4  N   UNL     1     -11.608   8.454  71.970  1.00  0.00    -0.325 NA 
BRANCH   4   5
HETATM    5  C   UNL     1     -11.486   8.028  70.535  1.00  0.00    -0.187 C  
BRANCH   5   6
HETATM    6  C   UNL     1     -10.673   8.970  69.611  1.00  0.00    -0.219 C  
BRANCH   6   7
HETATM    7  N   UNL     1     -11.450  10.063  69.046  1.00  0.00    -0.475 N  
HETATM    8  C   UNL     1     -10.839  11.203  68.574  1.00  0.00    -0.203 C  
HETATM    9  H   UNL     1     -12.466   9.983  68.999  1.00  0.00     0.000 HD 
HETATM   10  O   UNL     1      -9.624  11.378  68.665  1.00  0.00    -0.195 OA 
BRANCH   8  11
HETATM   11  C   UNL     1     -11.772  12.256  67.959  1.00  0.00    -0.356 C  
BRANCH  11  12
HETATM   12  N   UNL     1     -11.723  13.488  68.725  1.00  0.00    -0.316 N  
HETATM   13  C   UNL     1     -12.066  13.565  70.125  1.00  0.00    -0.354 C  
HETATM   14  C   UNL     1     -12.605  14.976  70.256  1.00  0.00    -0.363 C  
HETATM   15  C   UNL     1     -11.786  15.765  69.238  1.00  0.00    -0.384 C  
HETATM   16  C   UNL     1     -11.541  14.738  68.161  1.00  0.00    -0.332 C  
HETATM   17  O   UNL     1     -11.223  14.971  67.006  1.00  0.00    -0.331 OA 
ENDBRANCH  11  12
ENDBRANCH   8  11
ENDBRANCH   6   7
ENDBRANCH   5   6
ENDBRANCH   4   5
BRANCH   4  18
HETATM   18  C   UNL     1     -12.980   8.968  72.276  1.00  0.00    -0.424 C  
HETATM   19  C   UNL     1     -14.084   8.121  71.597  1.00  0.00    -0.504 C  
HETATM   20  C   UNL     1     -13.276  10.413  71.834  1.00  0.00    -0.535 C  
ENDBRANCH   4  18
ENDBRANCH   2   4
TORSDOF 7
ENDMDL
MODEL       59
REMARK 921   NORMALIZED FREE ENERGY PREDICTED BY IDOCK:   -4.38 KCAL/MOL
REMARK 922        TOTAL FREE ENERGY PREDICTED BY IDOCK:   -7.18 KCAL/MOL
REMARK 923 INTER-LIGAND FREE ENERGY PREDICTED BY IDOCK:   -6.36 KCAL/MOL
REMARK 924 INTRA-LIGAND FREE ENERGY PREDICTED BY IDOCK:   -0.82 KCAL/MOL
REMARK 927      BINDING AFFINITY PREDICTED BY RF-SCORE:    0.00 PKD
ROOT
HETATM    1  C   UNL     1     -12.707  11.484  71.324  1.00  0.00    -0.469 C  
HETATM    2  C   UNL     1     -12.354   9.982  71.453  1.00  0.00    -0.415 C  
HETATM    3  C   UNL     1     -13.700   9.261  71.638  1.00  0.00    -0.421 C  
ENDROOT
BRANCH   2   4
HETATM    4  N   UNL     1     -11.496   9.514  70.312  1.00  0.00    -0.237 NA 
BRANCH   4   5
HETATM    5  C   UNL     1     -10.953  10.686  69.547  1.00  0.00    -0.272 C  
BRANCH   5   6
HETATM    6  C   UNL     1     -11.329  10.752  68.044  1.00  0.00    -0.307 C  
BRANCH   6   7
HETATM    7  N   UNL     1     -11.905  12.022  67.631  1.00  0.00    -0.292 N  
HETATM    8  C   UNL     1     -11.604  12.578  66.408  1.00  0.00    -0.391 C  
HETATM    9  H   UNL     1     -12.543  12.510  68.259  1.00  0.00     0.000 HD 
HETATM   10  O   UNL     1     -10.791  12.063  65.640  1.00  0.00    -0.265 OA 
BRANCH   8  11
HETATM   11  C   UNL     1     -12.318  13.896  66.079  1.00  0.00    -0.475 C  
BRANCH  11  12
HETATM   12  N   UNL     1     -11.433  15.024  66.306  1.00  0.00    -0.272 N  
HETATM   13  C   UNL     1     -10.641  15.633  65.264  1.00  0.00    -0.426 C  
HETATM   14  C   UNL     1      -9.428  16.135  66.022  1.00  0.00    -0.374 C  
HETATM   15  C   UNL     1      -9.992  16.507  67.390  1.00  0.00    -0.267 C  
HETATM   16  C   UNL     1     -11.102  15.501  67.563  1.00  0.00    -0.305 C  
HETATM   17  O   UNL     1     -11.624  15.182  68.619  1.00  0.00    -0.309 OA 
ENDBRANCH  11  12
ENDBRANCH   8  11
ENDBRANCH   6   7
ENDBRANCH   5   6
ENDBRANCH   4   5
BRANCH   4  18
HETATM   18  C   UNL     1     -10.424   8.518  70.628  1.00  0.00    -0.201 C  
HETATM   19  C   UNL     1     -10.842   7.075  70.254  1.00  0.00    -0.283 C  
HETATM   20  C   UNL     1     -10.000   8.426  72.106  1.00  0.00    -0.376 C  
ENDBRANCH   4  18
ENDBRANCH   2   4
TORSDOF 7
ENDMDL
MODEL       60
REMARK 921   NORMALIZED FREE ENERGY PREDICTED BY IDOCK:   -4.38 KCAL/MOL
REMARK 922        TOTAL FREE ENERGY PREDICTED BY IDOCK:   -7.18 KCAL/MOL
REMARK 923 INTER-LIGAND FREE ENERGY PREDICTED BY IDOCK:   -6.59 KCAL/MOL
REMARK 924 INTRA-LIGAND FREE ENERGY PREDICTED BY IDOCK:   -0.59 KCAL/MOL
REMARK 927      BINDING AFFINITY PREDICTED BY RF-SCORE:    0.00 PKD
ROOT
HETATM    1  C   UNL     1     -10.397   8.819  72.024  1.00  0.00    -0.411 C  
HETATM    2  C   UNL     1     -11.285   8.898  70.759  1.00  0.00    -0.272 C  
HETATM    3  C   UNL     1     -12.075  10.210  70.897  1.00  0.00    -0.453 C  
ENDROOT
BRANCH   2   4
HETATM    4  N   UNL     1     -10.477   8.733  69.504  1.00  0.00    -0.218 NA 
BRANCH   4   5
HETATM    5  C   UNL     1      -9.119   9.352  69.666  1.00  0.00    -0.181 C  
BRANCH   5   6
HETATM    6  C   UNL     1      -8.795  10.541  68.725  1.00  0.00    -0.158 C  
BRANCH   6   7
HETATM    7  N   UNL     1      -9.967  11.258  68.248  1.00  0.00    -0.188 N  
HETATM    8  C   UNL     1      -9.846  12.448  67.566  1.00  0.00    -0.194 C  
HETATM    9  H   UNL     1     -10.895  10.873  68.423  1.00  0.00     0.000 HD 
HETATM   10  O   UNL     1      -8.756  12.989  67.385  1.00  0.00    -0.184 OA 
BRANCH   8  11
HETATM   11  C   UNL     1     -11.160  13.074  67.077  1.00  0.00    -0.281 C  
BRANCH  11  12
HETATM   12  N   UNL     1     -11.467  12.626  65.731  1.00  0.00    -0.339 N  
HETATM   13  C   UNL     1     -10.664  11.663  65.015  1.00  0.00    -0.296 C  
HETATM   14  C   UNL     1     -10.852  12.085  63.571  1.00  0.00    -0.509 C  
HETATM   15  C   UNL     1     -12.279  12.628  63.542  1.00  0.00    -0.638 C  
HETATM   16  C   UNL     1     -12.426  13.213  64.924  1.00  0.00    -0.433 C  
HETATM   17  O   UNL     1     -13.255  14.039  65.270  1.00  0.00    -0.782 OA 
ENDBRANCH  11  12
ENDBRANCH   8  11
ENDBRANCH   6   7
ENDBRANCH   5   6
ENDBRANCH   4   5
BRANCH   4  18
HETATM   18  C   UNL     1     -10.388   7.355  68.925  1.00  0.00    -0.206 C  
HETATM   19  C   UNL     1     -10.643   7.348  67.398  1.00  0.00    -0.371 C  
HETATM   20  C   UNL     1     -11.381   6.320  69.486  1.00  0.00    -0.475 C  
ENDBRANCH   4  18
ENDBRANCH   2   4
TORSDOF 7
ENDMDL
MODEL       61
REMARK 921   NORMALIZED FREE ENERGY PREDICTED BY IDOCK:   -4.35 KCAL/MOL
REMARK 922        TOTAL FREE ENERGY PREDICTED BY IDOCK:   -7.13 KCAL/MOL
REMARK 923 INTER-LIGAND FREE ENERGY PREDICTED BY IDOCK:   -6.50 KCAL/MOL
REMARK 924 INTRA-LIGAND FREE ENERGY PREDICTED BY IDOCK:   -0.63 KCAL/MOL
REMARK 927      BINDING AFFINITY PREDICTED BY RF-SCORE:    0.00 PKD
ROOT
HETATM    1  C   UNL     1      -9.807  20.393  67.107  1.00  0.00    -0.601 C  
HETATM    2  C   UNL     1      -8.991  19.092  66.914  1.00  0.00    -0.301 C  
HETATM    3  C   UNL     1      -7.837  19.471  65.971  1.00  0.00    -0.318 C  
ENDROOT
BRANCH   2   4
HETATM    4  N   UNL     1      -8.605  18.478  68.229  1.00  0.00    -0.310 NA 
BRANCH   4   5
HETATM    5  C   UNL     1      -9.137  17.078  68.334  1.00  0.00    -0.256 C  
BRANCH   5   6
HETATM    6  C   UNL     1     -10.571  16.851  67.793  1.00  0.00    -0.340 C  
BRANCH   6   7
HETATM    7  N   UNL     1     -10.845  15.480  67.391  1.00  0.00    -0.309 N  
HETATM    8  C   UNL     1     -11.618  14.649  68.171  1.00  0.00    -0.335 C  
HETATM    9  H   UNL     1     -10.457  15.128  66.516  1.00  0.00     0.000 HD 
HETATM   10  O   UNL     1     -12.056  15.002  69.265  1.00  0.00    -0.298 OA 
BRANCH   8  11
HETATM   11  C   UNL     1     -11.867  13.244  67.605  1.00  0.00    -0.357 C  
BRANCH  11  12
HETATM   12  N   UNL     1     -11.510  13.192  66.199  1.00  0.00    -0.317 N  
HETATM   13  C   UNL     1     -12.477  13.291  65.132  1.00  0.00    -0.470 C  
HETATM   14  C   UNL     1     -11.845  12.458  64.034  1.00  0.00    -0.521 C  
HETATM   15  C   UNL     1     -10.348  12.675  64.241  1.00  0.00    -0.399 C  
HETATM   16  C   UNL     1     -10.253  12.843  65.736  1.00  0.00    -0.288 C  
HETATM   17  O   UNL     1      -9.244  12.713  66.411  1.00  0.00    -0.226 OA 
ENDBRANCH  11  12
ENDBRANCH   8  11
ENDBRANCH   6   7
ENDBRANCH   5   6
ENDBRANCH   4   5
BRANCH   4  18
HETATM   18  C   UNL     1      -7.161  18.550  68.619  1.00  0.00    -0.287 C  
HETATM   19  C   UNL     1      -6.673  17.240  69.284  1.00  0.00    -0.230 C  
HETATM   20  C   UNL     1      -6.785  19.656  69.622  1.00  0.00    -0.341 C  
ENDBRANCH   4  18
ENDBRANCH   2   4
TORSDOF 7
ENDMDL
MODEL       62
REMARK 921   NORMALIZED FREE ENERGY PREDICTED BY IDOCK:   -4.34 KCAL/MOL
REMARK 922        TOTAL FREE ENERGY PREDICTED BY IDOCK:   -7.12 KCAL/MOL
REMARK 923 INTER-LIGAND FREE ENERGY PREDICTED BY IDOCK:   -6.16 KCAL/MOL
REMARK 924 INTRA-LIGAND FREE ENERGY PREDICTED BY IDOCK:   -0.96 KCAL/MOL
REMARK 927      BINDING AFFINITY PREDICTED BY RF-SCORE:    0.00 PKD
ROOT
HETATM    1  C   UNL     1     -12.527  13.205  65.311  1.00  0.00    -0.550 C  
HETATM    2  C   UNL     1     -10.987  13.339  65.395  1.00  0.00    -0.284 C  
HETATM    3  C   UNL     1     -10.685  14.802  65.028  1.00  0.00    -0.452 C  
ENDROOT
BRANCH   2   4
HETATM    4  N   UNL     1     -10.459  12.858  66.716  1.00  0.00    -0.252 NA 
BRANCH   4   5
HETATM    5  C   UNL     1     -11.553  12.836  67.744  1.00  0.00    -0.353 C  
BRANCH   5   6
HETATM    6  C   UNL     1     -11.241  13.544  69.087  1.00  0.00    -0.260 C  
BRANCH   6   7
HETATM    7  N   UNL     1     -10.234  14.589  68.988  1.00  0.00    -0.299 N  
HETATM    8  C   UNL     1     -10.587  15.901  68.759  1.00  0.00    -0.245 C  
HETATM    9  H   UNL     1      -9.249  14.346  69.089  1.00  0.00     0.000 HD 
HETATM   10  O   UNL     1     -11.754  16.238  68.565  1.00  0.00    -0.302 OA 
BRANCH   8  11
HETATM   11  C   UNL     1      -9.429  16.908  68.725  1.00  0.00    -0.264 C  
BRANCH  11  12
HETATM   12  N   UNL     1      -9.772  18.050  67.899  1.00  0.00    -0.287 N  
HETATM   13  C   UNL     1      -9.696  18.037  66.457  1.00  0.00    -0.338 C  
HETATM   14  C   UNL     1      -9.377  19.482  66.130  1.00  0.00    -0.382 C  
HETATM   15  C   UNL     1     -10.096  20.263  67.226  1.00  0.00    -0.545 C  
HETATM   16  C   UNL     1     -10.010  19.318  68.399  1.00  0.00    -0.419 C  
HETATM   17  O   UNL     1     -10.145  19.619  69.574  1.00  0.00    -0.326 OA 
ENDBRANCH  11  12
ENDBRANCH   8  11
ENDBRANCH   6   7
ENDBRANCH   5   6
ENDBRANCH   4   5
BRANCH   4  18
HETATM   18  C   UNL     1      -9.679  11.580  66.715  1.00  0.00    -0.199 C  
HETATM   19  C   UNL     1      -8.286  11.749  67.370  1.00  0.00    -0.159 C  
HETATM   20  C   UNL     1      -9.383  10.969  65.333  1.00  0.00    -0.244 C  
ENDBRANCH   4  18
ENDBRANCH   2   4
TORSDOF 7
ENDMDL
MODEL       63
REMARK 921   NORMALIZED FREE ENERGY PREDICTED BY IDOCK:   -4.32 KCAL/MOL
REMARK 922        TOTAL FREE ENERGY PREDICTED BY IDOCK:   -7.10 KCAL/MOL
REMARK 923 INTER-LIGAND FREE ENERGY PREDICTED BY IDOCK:   -6.31 KCAL/MOL
REMARK 924 INTRA-LIGAND FREE ENERGY PREDICTED BY IDOCK:   -0.79 KCAL/MOL
REMARK 927      BINDING AFFINITY PREDICTED BY RF-SCORE:    0.00 PKD
ROOT
HETATM    1  C   UNL     1     -11.354  16.512  68.976  1.00  0.00    -0.181 C  
HETATM    2  C   UNL     1      -9.881  16.967  69.119  1.00  0.00    -0.206 C  
HETATM    3  C   UNL     1      -9.111  15.717  69.577  1.00  0.00    -0.240 C  
ENDROOT
BRANCH   2   4
HETATM    4  N   UNL     1      -9.385  17.638  67.871  1.00  0.00    -0.262 NA 
BRANCH   4   5
HETATM    5  C   UNL     1     -10.383  17.489  66.760  1.00  0.00    -0.314 C  
BRANCH   5   6
HETATM    6  C   UNL     1     -10.080  16.387  65.714  1.00  0.00    -0.327 C  
BRANCH   6   7
HETATM    7  N   UNL     1     -10.791  15.139  65.943  1.00  0.00    -0.330 N  
HETATM    8  C   UNL     1     -10.159  14.048  66.497  1.00  0.00    -0.285 C  
HETATM    9  H   UNL     1     -11.777  15.071  65.688  1.00  0.00     0.000 HD 
HETATM   10  O   UNL     1      -8.958  14.056  66.763  1.00  0.00    -0.240 OA 
BRANCH   8  11
HETATM   11  C   UNL     1     -11.040  12.812  66.728  1.00  0.00    -0.277 C  
BRANCH  11  12
HETATM   12  N   UNL     1     -11.336  12.157  65.467  1.00  0.00    -0.339 N  
HETATM   13  C   UNL     1     -10.452  11.201  64.844  1.00  0.00    -0.308 C  
HETATM   14  C   UNL     1     -10.734  11.402  63.368  1.00  0.00    -0.405 C  
HETATM   15  C   UNL     1     -12.214  11.775  63.337  1.00  0.00    -0.461 C  
HETATM   16  C   UNL     1     -12.383  12.520  64.638  1.00  0.00    -0.474 C  
HETATM   17  O   UNL     1     -13.290  13.289  64.913  1.00  0.00    -0.540 OA 
ENDBRANCH  11  12
ENDBRANCH   8  11
ENDBRANCH   6   7
ENDBRANCH   5   6
ENDBRANCH   4   5
BRANCH   4  18
HETATM   18  C   UNL     1      -8.910  19.052  68.000  1.00  0.00    -0.309 C  
HETATM   19  C   UNL     1      -7.692  19.174  68.947  1.00  0.00    -0.358 C  
HETATM   20  C   UNL     1      -9.933  20.061  68.555  1.00  0.00    -0.454 C  
ENDBRANCH   4  18
ENDBRANCH   2   4
TORSDOF 7
ENDMDL
MODEL       64
REMARK 921   NORMALIZED FREE ENERGY PREDICTED BY IDOCK:   -4.32 KCAL/MOL
REMARK 922        TOTAL FREE ENERGY PREDICTED BY IDOCK:   -7.09 KCAL/MOL
REMARK 923 INTER-LIGAND FREE ENERGY PREDICTED BY IDOCK:   -6.29 KCAL/MOL
REMARK 924 INTRA-LIGAND FREE ENERGY PREDICTED BY IDOCK:   -0.81 KCAL/MOL
REMARK 927      BINDING AFFINITY PREDICTED BY RF-SCORE:    0.00 PKD
ROOT
HETATM    1  C   UNL     1     -10.527   8.925  68.906  1.00  0.00    -0.225 C  
HETATM    2  C   UNL     1     -10.283   8.808  70.431  1.00  0.00    -0.197 C  
HETATM    3  C   UNL     1      -8.831   9.266  70.647  1.00  0.00    -0.287 C  
ENDROOT
BRANCH   2   4
HETATM    4  N   UNL     1     -11.337   9.533  71.218  1.00  0.00    -0.348 NA 
BRANCH   4   5
HETATM    5  C   UNL     1     -12.165  10.401  70.316  1.00  0.00    -0.269 C  
BRANCH   5   6
HETATM    6  C   UNL     1     -11.940  11.929  70.445  1.00  0.00    -0.311 C  
BRANCH   6   7
HETATM    7  N   UNL     1     -11.257  12.527  69.308  1.00  0.00    -0.388 N  
HETATM    8  C   UNL     1     -11.445  13.851  68.979  1.00  0.00    -0.299 C  
HETATM    9  H   UNL     1     -10.628  11.955  68.745  1.00  0.00     0.000 HD 
HETATM   10  O   UNL     1     -12.241  14.567  69.585  1.00  0.00    -0.316 OA 
BRANCH   8  11
HETATM   11  C   UNL     1     -10.626  14.365  67.786  1.00  0.00    -0.246 C  
BRANCH  11  12
HETATM   12  N   UNL     1     -11.035  13.698  66.564  1.00  0.00    -0.293 N  
HETATM   13  C   UNL     1     -12.205  14.077  65.807  1.00  0.00    -0.453 C  
HETATM   14  C   UNL     1     -12.637  12.763  65.187  1.00  0.00    -0.513 C  
HETATM   15  C   UNL     1     -11.319  12.028  64.957  1.00  0.00    -0.365 C  
HETATM   16  C   UNL     1     -10.476  12.518  66.107  1.00  0.00    -0.249 C  
HETATM   17  O   UNL     1      -9.471  11.977  66.542  1.00  0.00    -0.216 OA 
ENDBRANCH  11  12
ENDBRANCH   8  11
ENDBRANCH   6   7
ENDBRANCH   5   6
ENDBRANCH   4   5
BRANCH   4  18
HETATM   18  C   UNL     1     -12.194   8.710  72.129  1.00  0.00    -0.386 C  
HETATM   19  C   UNL     1     -12.249   7.226  71.693  1.00  0.00    -0.377 C  
HETATM   20  C   UNL     1     -13.670   9.136  72.237  1.00  0.00    -0.548 C  
ENDBRANCH   4  18
ENDBRANCH   2   4
TORSDOF 7
ENDMDL
MODEL       65
REMARK 921   NORMALIZED FREE ENERGY PREDICTED BY IDOCK:   -4.31 KCAL/MOL
REMARK 922        TOTAL FREE ENERGY PREDICTED BY IDOCK:   -7.09 KCAL/MOL
REMARK 923 INTER-LIGAND FREE ENERGY PREDICTED BY IDOCK:   -6.55 KCAL/MOL
REMARK 924 INTRA-LIGAND FREE ENERGY PREDICTED BY IDOCK:   -0.54 KCAL/MOL
REMARK 927      BINDING AFFINITY PREDICTED BY RF-SCORE:    0.00 PKD
ROOT
HETATM    1  C   UNL     1     -13.998  13.861  72.177  1.00  0.00    -0.639 C  
HETATM    2  C   UNL     1     -12.823  14.819  71.864  1.00  0.00    -0.324 C  
HETATM    3  C   UNL     1     -12.235  15.205  73.232  1.00  0.00    -0.540 C  
ENDROOT
BRANCH   2   4
HETATM    4  N   UNL     1     -11.869  14.220  70.871  1.00  0.00    -0.293 NA 
BRANCH   4   5
HETATM    5  C   UNL     1     -12.508  13.065  70.157  1.00  0.00    -0.096 C  
BRANCH   5   6
HETATM    6  C   UNL     1     -11.540  12.016  69.554  1.00  0.00    -0.321 C  
BRANCH   6   7
HETATM    7  N   UNL     1     -11.670  11.845  68.115  1.00  0.00    -0.329 N  
HETATM    8  C   UNL     1     -10.567  11.614  67.322  1.00  0.00    -0.228 C  
HETATM    9  H   UNL     1     -12.593  11.898  67.686  1.00  0.00     0.000 HD 
HETATM   10  O   UNL     1      -9.425  11.605  67.779  1.00  0.00    -0.170 OA 
BRANCH   8  11
HETATM   11  C   UNL     1     -10.852  11.405  65.828  1.00  0.00    -0.230 C  
BRANCH  11  12
HETATM   12  N   UNL     1     -11.066  12.680  65.168  1.00  0.00    -0.287 N  
HETATM   13  C   UNL     1     -10.086  13.740  65.156  1.00  0.00    -0.289 C  
HETATM   14  C   UNL     1     -10.948  14.986  65.096  1.00  0.00    -0.417 C  
HETATM   15  C   UNL     1     -12.158  14.542  64.278  1.00  0.00    -0.448 C  
HETATM   16  C   UNL     1     -12.287  13.089  64.662  1.00  0.00    -0.422 C  
HETATM   17  O   UNL     1     -13.284  12.398  64.530  1.00  0.00    -0.834 OA 
ENDBRANCH  11  12
ENDBRANCH   8  11
ENDBRANCH   6   7
ENDBRANCH   5   6
ENDBRANCH   4   5
BRANCH   4  18
HETATM   18  C   UNL     1     -11.201  15.158  69.914  1.00  0.00    -0.283 C  
HETATM   19  C   UNL     1     -11.087  16.591  70.488  1.00  0.00    -0.104 C  
HETATM   20  C   UNL     1     -11.896  15.342  68.552  1.00  0.00    -0.293 C  
ENDBRANCH   4  18
ENDBRANCH   2   4
TORSDOF 7
ENDMDL
MODEL       66
REMARK 921   NORMALIZED FREE ENERGY PREDICTED BY IDOCK:   -4.30 KCAL/MOL
REMARK 922        TOTAL FREE ENERGY PREDICTED BY IDOCK:   -7.07 KCAL/MOL
REMARK 923 INTER-LIGAND FREE ENERGY PREDICTED BY IDOCK:   -6.28 KCAL/MOL
REMARK 924 INTRA-LIGAND FREE ENERGY PREDICTED BY IDOCK:   -0.78 KCAL/MOL
REMARK 927      BINDING AFFINITY PREDICTED BY RF-SCORE:    0.00 PKD
ROOT
HETATM    1  C   UNL     1     -12.530  12.756  65.028  1.00  0.00    -0.572 C  
HETATM    2  C   UNL     1     -11.656  12.464  66.273  1.00  0.00    -0.393 C  
HETATM    3  C   UNL     1     -10.542  11.527  65.779  1.00  0.00    -0.315 C  
ENDROOT
BRANCH   2   4
HETATM    4  N   UNL     1     -11.214  13.730  66.948  1.00  0.00    -0.305 NA 
BRANCH   4   5
HETATM    5  C   UNL     1     -11.000  13.498  68.416  1.00  0.00    -0.266 C  
BRANCH   5   6
HETATM    6  C   UNL     1     -11.885  12.407  69.069  1.00  0.00    -0.300 C  
BRANCH   6   7
HETATM    7  N   UNL     1     -11.137  11.395  69.800  1.00  0.00    -0.455 N  
HETATM    8  C   UNL     1     -11.777  10.472  70.598  1.00  0.00    -0.357 C  
HETATM    9  H   UNL     1     -10.121  11.369  69.722  1.00  0.00     0.000 HD 
HETATM   10  O   UNL     1     -12.994  10.499  70.779  1.00  0.00    -0.370 OA 
BRANCH   8  11
HETATM   11  C   UNL     1     -10.873   9.432  71.273  1.00  0.00    -0.361 C  
BRANCH  11  12
HETATM   12  N   UNL     1     -10.733   8.258  70.432  1.00  0.00    -0.229 N  
HETATM   13  C   UNL     1      -9.738   8.141  69.392  1.00  0.00    -0.170 C  
HETATM   14  C   UNL     1     -10.420   7.242  68.380  1.00  0.00    -0.228 C  
HETATM   15  C   UNL     1     -11.279   6.323  69.244  1.00  0.00    -0.458 C  
HETATM   16  C   UNL     1     -11.651   7.222  70.396  1.00  0.00    -0.219 C  
HETATM   17  O   UNL     1     -12.582   7.054  71.167  1.00  0.00    -0.377 OA 
ENDBRANCH  11  12
ENDBRANCH   8  11
ENDBRANCH   6   7
ENDBRANCH   5   6
ENDBRANCH   4   5
BRANCH   4  18
HETATM   18  C   UNL     1     -10.063  14.466  66.334  1.00  0.00    -0.286 C  
HETATM   19  C   UNL     1      -9.090  15.019  67.403  1.00  0.00    -0.194 C  
HETATM   20  C   UNL     1     -10.425  15.689  65.470  1.00  0.00    -0.426 C  
ENDBRANCH   4  18
ENDBRANCH   2   4
TORSDOF 7
ENDMDL
MODEL       67
REMARK 921   NORMALIZED FREE ENERGY PREDICTED BY IDOCK:   -4.29 KCAL/MOL
REMARK 922        TOTAL FREE ENERGY PREDICTED BY IDOCK:   -7.06 KCAL/MOL
REMARK 923 INTER-LIGAND FREE ENERGY PREDICTED BY IDOCK:   -6.31 KCAL/MOL
REMARK 924 INTRA-LIGAND FREE ENERGY PREDICTED BY IDOCK:   -0.75 KCAL/MOL
REMARK 927      BINDING AFFINITY PREDICTED BY RF-SCORE:    0.00 PKD
ROOT
HETATM    1  C   UNL     1     -11.450  15.408  71.681  1.00  0.00    -0.492 C  
HETATM    2  C   UNL     1     -12.438  14.650  70.761  1.00  0.00    -0.340 C  
HETATM    3  C   UNL     1     -13.835  15.150  71.164  1.00  0.00    -0.495 C  
ENDROOT
BRANCH   2   4
HETATM    4  N   UNL     1     -12.068  14.794  69.313  1.00  0.00    -0.289 NA 
BRANCH   4   5
HETATM    5  C   UNL     1     -11.182  15.989  69.111  1.00  0.00    -0.342 C  
BRANCH   5   6
HETATM    6  C   UNL     1     -11.239  16.651  67.711  1.00  0.00    -0.064 C  
BRANCH   6   7
HETATM    7  N   UNL     1     -10.632  17.971  67.653  1.00  0.00    -0.413 N  
HETATM    8  C   UNL     1     -10.411  18.603  66.449  1.00  0.00    -0.432 C  
HETATM    9  H   UNL     1     -10.364  18.438  68.520  1.00  0.00     0.000 HD 
HETATM   10  O   UNL     1     -10.655  18.059  65.373  1.00  0.00    -0.648 OA 
BRANCH   8  11
HETATM   11  C   UNL     1      -9.808  20.012  66.535  1.00  0.00    -0.459 C  
BRANCH  11  12
HETATM   12  N   UNL     1      -8.363  19.940  66.649  1.00  0.00    -0.316 N  
HETATM   13  C   UNL     1      -7.474  20.005  65.513  1.00  0.00    -0.187 C  
HETATM   14  C   UNL     1      -6.298  19.162  65.965  1.00  0.00    -0.221 C  
HETATM   15  C   UNL     1      -6.243  19.406  67.471  1.00  0.00    -0.208 C  
HETATM   16  C   UNL     1      -7.698  19.603  67.816  1.00  0.00    -0.284 C  
HETATM   17  O   UNL     1      -8.193  19.501  68.926  1.00  0.00    -0.359 OA 
ENDBRANCH  11  12
ENDBRANCH   8  11
ENDBRANCH   6   7
ENDBRANCH   5   6
ENDBRANCH   4   5
BRANCH   4  18
HETATM   18  C   UNL     1     -11.522  13.581  68.625  1.00  0.00    -0.308 C  
HETATM   19  C   UNL     1     -12.007  12.269  69.287  1.00  0.00    -0.308 C  
HETATM   20  C   UNL     1      -9.988  13.454  68.593  1.00  0.00    -0.139 C  
ENDBRANCH   4  18
ENDBRANCH   2   4
TORSDOF 7
ENDMDL
MODEL       68
REMARK 921   NORMALIZED FREE ENERGY PREDICTED BY IDOCK:   -4.28 KCAL/MOL
REMARK 922        TOTAL FREE ENERGY PREDICTED BY IDOCK:   -7.05 KCAL/MOL
REMARK 923 INTER-LIGAND FREE ENERGY PREDICTED BY IDOCK:   -6.39 KCAL/MOL
REMARK 924 INTRA-LIGAND FREE ENERGY PREDICTED BY IDOCK:   -0.65 KCAL/MOL
REMARK 927      BINDING AFFINITY PREDICTED BY RF-SCORE:    0.00 PKD
ROOT
HETATM    1  C   UNL     1      -9.471  15.249  68.577  1.00  0.00    -0.200 C  
HETATM    2  C   UNL     1     -10.494  14.087  68.583  1.00  0.00    -0.247 C  
HETATM    3  C   UNL     1     -11.846  14.736  68.922  1.00  0.00    -0.331 C  
ENDROOT
BRANCH   2   4
HETATM    4  N   UNL     1     -10.435  13.291  67.311  1.00  0.00    -0.246 NA 
BRANCH   4   5
HETATM    5  C   UNL     1     -10.796  11.857  67.570  1.00  0.00    -0.238 C  
BRANCH   5   6
HETATM    6  C   UNL     1      -9.815  11.058  68.466  1.00  0.00    -0.192 C  
BRANCH   6   7
HETATM    7  N   UNL     1     -10.365  10.679  69.758  1.00  0.00    -0.425 N  
HETATM    8  C   UNL     1     -10.295   9.380  70.211  1.00  0.00    -0.245 C  
HETATM    9  H   UNL     1     -10.810  11.389  70.340  1.00  0.00     0.000 HD 
HETATM   10  O   UNL     1      -9.827   8.474  69.522  1.00  0.00    -0.181 OA 
BRANCH   8  11
HETATM   11  C   UNL     1     -10.870   9.129  71.612  1.00  0.00    -0.372 C  
BRANCH  11  12
HETATM   12  N   UNL     1     -12.264   8.735  71.525  1.00  0.00    -0.313 N  
HETATM   13  C   UNL     1     -13.356   9.591  71.927  1.00  0.00    -0.437 C  
HETATM   14  C   UNL     1     -14.403   8.597  72.388  1.00  0.00    -0.429 C  
HETATM   15  C   UNL     1     -14.174   7.392  71.479  1.00  0.00    -0.571 C  
HETATM   16  C   UNL     1     -12.685   7.446  71.246  1.00  0.00    -0.331 C  
HETATM   17  O   UNL     1     -11.984   6.524  70.862  1.00  0.00    -0.369 OA 
ENDBRANCH  11  12
ENDBRANCH   8  11
ENDBRANCH   6   7
ENDBRANCH   5   6
ENDBRANCH   4   5
BRANCH   4  18
HETATM   18  C   UNL     1     -11.172  13.838  66.128  1.00  0.00    -0.300 C  
HETATM   19  C   UNL     1     -12.109  12.785  65.488  1.00  0.00    -0.517 C  
HETATM   20  C   UNL     1     -10.300  14.339  64.961  1.00  0.00    -0.448 C  
ENDBRANCH   4  18
ENDBRANCH   2   4
TORSDOF 7
ENDMDL
MODEL       69
REMARK 921   NORMALIZED FREE ENERGY PREDICTED BY IDOCK:   -4.27 KCAL/MOL
REMARK 922        TOTAL FREE ENERGY PREDICTED BY IDOCK:   -7.03 KCAL/MOL
REMARK 923 INTER-LIGAND FREE ENERGY PREDICTED BY IDOCK:   -6.42 KCAL/MOL
REMARK 924 INTRA-LIGAND FREE ENERGY PREDICTED BY IDOCK:   -0.61 KCAL/MOL
REMARK 927      BINDING AFFINITY PREDICTED BY RF-SCORE:    0.00 PKD
ROOT
HETATM    1  C   UNL     1     -10.576  14.271  64.851  1.00  0.00    -0.452 C  
HETATM    2  C   UNL     1     -11.209  13.085  65.619  1.00  0.00    -0.283 C  
HETATM    3  C   UNL     1     -12.414  12.647  64.770  1.00  0.00    -0.555 C  
ENDROOT
BRANCH   2   4
HETATM    4  N   UNL     1     -10.194  12.025  65.936  1.00  0.00    -0.226 NA 
BRANCH   4   5
HETATM    5  C   UNL     1     -10.302  11.604  67.373  1.00  0.00    -0.205 C  
BRANCH   5   6
HETATM    6  C   UNL     1      -9.874  12.658  68.426  1.00  0.00    -0.200 C  
BRANCH   6   7
HETATM    7  N   UNL     1     -10.964  13.488  68.913  1.00  0.00    -0.256 N  
HETATM    8  C   UNL     1     -11.884  13.002  69.816  1.00  0.00    -0.311 C  
HETATM    9  H   UNL     1     -11.050  14.449  68.580  1.00  0.00     0.000 HD 
HETATM   10  O   UNL     1     -11.865  11.833  70.200  1.00  0.00    -0.329 OA 
BRANCH   8  11
HETATM   11  C   UNL     1     -12.953  13.999  70.283  1.00  0.00     0.024 C  
BRANCH  11  12
HETATM   12  N   UNL     1     -12.553  14.626  71.529  1.00  0.00    -0.324 N  
HETATM   13  C   UNL     1     -13.064  14.226  72.818  1.00  0.00    -0.497 C  
HETATM   14  C   UNL     1     -13.021  15.520  73.607  1.00  0.00    -0.640 C  
HETATM   15  C   UNL     1     -11.804  16.243  73.038  1.00  0.00    -0.503 C  
HETATM   16  C   UNL     1     -11.806  15.790  71.599  1.00  0.00    -0.464 C  
HETATM   17  O   UNL     1     -11.237  16.341  70.671  1.00  0.00    -0.371 OA 
ENDBRANCH  11  12
ENDBRANCH   8  11
ENDBRANCH   6   7
ENDBRANCH   5   6
ENDBRANCH   4   5
BRANCH   4  18
HETATM   18  C   UNL     1     -10.132  10.842  65.020  1.00  0.00    -0.300 C  
HETATM   19  C   UNL     1      -9.795   9.536  65.778  1.00  0.00    -0.363 C  
HETATM   20  C   UNL     1      -9.086  10.914  63.891  1.00  0.00    -0.164 C  
ENDBRANCH   4  18
ENDBRANCH   2   4
TORSDOF 7
ENDMDL
MODEL       70
REMARK 921   NORMALIZED FREE ENERGY PREDICTED BY IDOCK:   -4.26 KCAL/MOL
REMARK 922        TOTAL FREE ENERGY PREDICTED BY IDOCK:   -7.02 KCAL/MOL
REMARK 923 INTER-LIGAND FREE ENERGY PREDICTED BY IDOCK:   -6.25 KCAL/MOL
REMARK 924 INTRA-LIGAND FREE ENERGY PREDICTED BY IDOCK:   -0.77 KCAL/MOL
REMARK 927      BINDING AFFINITY PREDICTED BY RF-SCORE:    0.00 PKD
ROOT
HETATM    1  C   UNL     1     -13.381   7.093  71.370  1.00  0.00    -0.380 C  
HETATM    2  C   UNL     1     -11.837   6.994  71.326  1.00  0.00    -0.330 C  
HETATM    3  C   UNL     1     -11.504   6.437  69.931  1.00  0.00    -0.483 C  
ENDROOT
BRANCH   2   4
HETATM    4  N   UNL     1     -11.187   8.295  71.699  1.00  0.00    -0.256 NA 
BRANCH   4   5
HETATM    5  C   UNL     1     -12.226   9.334  72.006  1.00  0.00    -0.348 C  
BRANCH   5   6
HETATM    6  C   UNL     1     -12.236  10.582  71.087  1.00  0.00    -0.391 C  
BRANCH   6   7
HETATM    7  N   UNL     1     -11.072  10.691  70.221  1.00  0.00    -0.425 N  
HETATM    8  C   UNL     1     -11.188  11.132  68.921  1.00  0.00    -0.256 C  
HETATM    9  H   UNL     1     -10.153  10.436  70.583  1.00  0.00     0.000 HD 
HETATM   10  O   UNL     1     -12.279  11.390  68.416  1.00  0.00    -0.571 OA 
BRANCH   8  11
HETATM   11  C   UNL     1      -9.875  11.245  68.135  1.00  0.00    -0.183 C  
BRANCH  11  12
HETATM   12  N   UNL     1     -10.117  11.076  66.714  1.00  0.00    -0.213 N  
HETATM   13  C   UNL     1     -10.071   9.794  66.050  1.00  0.00    -0.251 C  
HETATM   14  C   UNL     1      -9.614  10.163  64.653  1.00  0.00    -0.379 C  
HETATM   15  C   UNL     1     -10.228  11.542  64.429  1.00  0.00    -0.350 C  
HETATM   16  C   UNL     1     -10.215  12.126  65.819  1.00  0.00    -0.254 C  
HETATM   17  O   UNL     1     -10.296  13.311  66.101  1.00  0.00    -0.278 OA 
ENDBRANCH  11  12
ENDBRANCH   8  11
ENDBRANCH   6   7
ENDBRANCH   5   6
ENDBRANCH   4   5
BRANCH   4  18
HETATM   18  C   UNL     1     -10.125   8.250  72.753  1.00  0.00    -0.263 C  
HETATM   19  C   UNL     1      -8.704   8.164  72.144  1.00  0.00    -0.234 C  
HETATM   20  C   UNL     1     -10.196   7.066  73.736  1.00  0.00    -0.401 C  
ENDBRANCH   4  18
ENDBRANCH   2   4
TORSDOF 7
ENDMDL
MODEL       71
REMARK 921   NORMALIZED FREE ENERGY PREDICTED BY IDOCK:   -4.26 KCAL/MOL
REMARK 922        TOTAL FREE ENERGY PREDICTED BY IDOCK:   -7.01 KCAL/MOL
REMARK 923 INTER-LIGAND FREE ENERGY PREDICTED BY IDOCK:   -6.40 KCAL/MOL
REMARK 924 INTRA-LIGAND FREE ENERGY PREDICTED BY IDOCK:   -0.61 KCAL/MOL
REMARK 927      BINDING AFFINITY PREDICTED BY RF-SCORE:    0.00 PKD
ROOT
HETATM    1  C   UNL     1     -14.027  15.343  71.349  1.00  0.00    -0.565 C  
HETATM    2  C   UNL     1     -12.649  14.957  70.758  1.00  0.00    -0.354 C  
HETATM    3  C   UNL     1     -11.629  15.264  71.867  1.00  0.00    -0.515 C  
ENDROOT
BRANCH   2   4
HETATM    4  N   UNL     1     -12.650  13.555  70.220  1.00  0.00    -0.210 NA 
BRANCH   4   5
HETATM    5  C   UNL     1     -11.720  13.440  69.047  1.00  0.00    -0.323 C  
BRANCH   5   6
HETATM    6  C   UNL     1     -11.471  14.742  68.244  1.00  0.00    -0.317 C  
BRANCH   6   7
HETATM    7  N   UNL     1     -10.090  15.196  68.263  1.00  0.00    -0.220 N  
HETATM    8  C   UNL     1      -9.768  16.487  68.622  1.00  0.00    -0.247 C  
HETATM    9  H   UNL     1      -9.346  14.548  68.005  1.00  0.00     0.000 HD 
HETATM   10  O   UNL     1     -10.630  17.326  68.879  1.00  0.00    -0.328 OA 
BRANCH   8  11
HETATM   11  C   UNL     1      -8.270  16.819  68.646  1.00  0.00    -0.252 C  
BRANCH  11  12
HETATM   12  N   UNL     1      -8.011  18.052  67.926  1.00  0.00    -0.236 N  
HETATM   13  C   UNL     1      -7.982  19.349  68.559  1.00  0.00    -0.360 C  
HETATM   14  C   UNL     1      -8.453  20.269  67.450  1.00  0.00    -0.405 C  
HETATM   15  C   UNL     1      -7.915  19.606  66.185  1.00  0.00    -0.352 C  
HETATM   16  C   UNL     1      -7.967  18.142  66.545  1.00  0.00    -0.262 C  
HETATM   17  O   UNL     1      -7.954  17.209  65.760  1.00  0.00    -0.476 OA 
ENDBRANCH  11  12
ENDBRANCH   8  11
ENDBRANCH   6   7
ENDBRANCH   5   6
ENDBRANCH   4   5
BRANCH   4  18
HETATM   18  C   UNL     1     -12.436  12.446  71.203  1.00  0.00    -0.222 C  
HETATM   19  C   UNL     1     -12.163  11.093  70.503  1.00  0.00    -0.475 C  
HETATM   20  C   UNL     1     -13.607  12.156  72.161  1.00  0.00    -0.285 C  
ENDBRANCH   4  18
ENDBRANCH   2   4
TORSDOF 7
ENDMDL
MODEL       72
REMARK 921   NORMALIZED FREE ENERGY PREDICTED BY IDOCK:   -4.25 KCAL/MOL
REMARK 922        TOTAL FREE ENERGY PREDICTED BY IDOCK:   -7.00 KCAL/MOL
REMARK 923 INTER-LIGAND FREE ENERGY PREDICTED BY IDOCK:   -6.23 KCAL/MOL
REMARK 924 INTRA-LIGAND FREE ENERGY PREDICTED BY IDOCK:   -0.77 KCAL/MOL
REMARK 927      BINDING AFFINITY PREDICTED BY RF-SCORE:    0.00 PKD
ROOT
HETATM    1  C   UNL     1     -10.705  14.771  64.712  1.00  0.00    -0.380 C  
HETATM    2  C   UNL     1     -11.146  13.678  65.716  1.00  0.00    -0.287 C  
HETATM    3  C   UNL     1     -12.562  13.270  65.277  1.00  0.00    -0.528 C  
ENDROOT
BRANCH   2   4
HETATM    4  N   UNL     1     -10.133  12.575  65.816  1.00  0.00    -0.260 NA 
BRANCH   4   5
HETATM    5  C   UNL     1      -9.562  12.508  67.203  1.00  0.00    -0.208 C  
BRANCH   5   6
HETATM    6  C   UNL     1     -10.308  13.326  68.288  1.00  0.00    -0.249 C  
BRANCH   6   7
HETATM    7  N   UNL     1     -10.696  12.550  69.455  1.00  0.00    -0.437 N  
HETATM    8  C   UNL     1     -11.613  11.526  69.359  1.00  0.00    -0.321 C  
HETATM    9  H   UNL     1     -10.282  12.767  70.361  1.00  0.00     0.000 HD 
HETATM   10  O   UNL     1     -12.190  11.265  68.304  1.00  0.00    -0.611 OA 
BRANCH   8  11
HETATM   11  C   UNL     1     -11.895  10.758  70.658  1.00  0.00    -0.360 C  
BRANCH  11  12
HETATM   12  N   UNL     1     -11.347   9.416  70.583  1.00  0.00    -0.276 N  
HETATM   13  C   UNL     1     -10.126   9.097  69.882  1.00  0.00    -0.202 C  
HETATM   14  C   UNL     1     -10.370   7.672  69.425  1.00  0.00    -0.214 C  
HETATM   15  C   UNL     1     -11.232   7.084  70.539  1.00  0.00    -0.335 C  
HETATM   16  C   UNL     1     -12.027   8.283  70.994  1.00  0.00    -0.241 C  
HETATM   17  O   UNL     1     -13.070   8.255  71.626  1.00  0.00    -0.329 OA 
ENDBRANCH  11  12
ENDBRANCH   8  11
ENDBRANCH   6   7
ENDBRANCH   5   6
ENDBRANCH   4   5
BRANCH   4  18
HETATM   18  C   UNL     1     -10.545  11.222  65.325  1.00  0.00    -0.261 C  
HETATM   19  C   UNL     1      -9.908  10.082  66.157  1.00  0.00    -0.309 C  
HETATM   20  C   UNL     1     -10.176  10.890  63.867  1.00  0.00    -0.418 C  
ENDBRANCH   4  18
ENDBRANCH   2   4
TORSDOF 7
ENDMDL
MODEL       73
REMARK 921   NORMALIZED FREE ENERGY PREDICTED BY IDOCK:   -4.25 KCAL/MOL
REMARK 922        TOTAL FREE ENERGY PREDICTED BY IDOCK:   -6.99 KCAL/MOL
REMARK 923 INTER-LIGAND FREE ENERGY PREDICTED BY IDOCK:   -6.12 KCAL/MOL
REMARK 924 INTRA-LIGAND FREE ENERGY PREDICTED BY IDOCK:   -0.87 KCAL/MOL
REMARK 927      BINDING AFFINITY PREDICTED BY RF-SCORE:    0.00 PKD
ROOT
HETATM    1  C   UNL     1     -10.099  20.341  67.598  1.00  0.00    -0.515 C  
HETATM    2  C   UNL     1      -9.963  18.806  67.758  1.00  0.00    -0.350 C  
HETATM    3  C   UNL     1     -10.156  18.231  66.345  1.00  0.00    -0.406 C  
ENDROOT
BRANCH   2   4
HETATM    4  N   UNL     1      -8.691  18.433  68.464  1.00  0.00    -0.319 NA 
BRANCH   4   5
HETATM    5  C   UNL     1      -8.328  17.006  68.175  1.00  0.00    -0.222 C  
BRANCH   5   6
HETATM    6  C   UNL     1      -9.062  15.931  69.017  1.00  0.00    -0.240 C  
BRANCH   6   7
HETATM    7  N   UNL     1      -9.822  14.975  68.228  1.00  0.00    -0.215 N  
HETATM    8  C   UNL     1     -11.190  15.076  68.106  1.00  0.00    -0.308 C  
HETATM    9  H   UNL     1      -9.332  14.215  67.755  1.00  0.00     0.000 HD 
HETATM   10  O   UNL     1     -11.836  15.935  68.706  1.00  0.00    -0.393 OA 
BRANCH   8  11
HETATM   11  C   UNL     1     -11.860  14.030  67.204  1.00  0.00    -0.411 C  
BRANCH  11  12
HETATM   12  N   UNL     1     -11.805  12.718  67.821  1.00  0.00    -0.351 N  
HETATM   13  C   UNL     1     -12.034  12.494  69.229  1.00  0.00    -0.250 C  
HETATM   14  C   UNL     1     -11.166  11.285  69.517  1.00  0.00    -0.337 C  
HETATM   15  C   UNL     1     -11.216  10.493  68.213  1.00  0.00    -0.354 C  
HETATM   16  C   UNL     1     -11.335  11.585  67.180  1.00  0.00    -0.284 C  
HETATM   17  O   UNL     1     -11.080  11.480  65.991  1.00  0.00    -0.291 OA 
ENDBRANCH  11  12
ENDBRANCH   8  11
ENDBRANCH   6   7
ENDBRANCH   5   6
ENDBRANCH   4   5
BRANCH   4  18
HETATM   18  C   UNL     1      -7.518  19.347  68.286  1.00  0.00    -0.306 C  
HETATM   19  C   UNL     1      -6.450  18.745  67.341  1.00  0.00    -0.193 C  
HETATM   20  C   UNL     1      -6.741  19.708  69.566  1.00  0.00    -0.379 C  
ENDBRANCH   4  18
ENDBRANCH   2   4
TORSDOF 7
ENDMDL
MODEL       74
REMARK 921   NORMALIZED FREE ENERGY PREDICTED BY IDOCK:   -4.25 KCAL/MOL
REMARK 922        TOTAL FREE ENERGY PREDICTED BY IDOCK:   -6.99 KCAL/MOL
REMARK 923 INTER-LIGAND FREE ENERGY PREDICTED BY IDOCK:   -6.50 KCAL/MOL
REMARK 924 INTRA-LIGAND FREE ENERGY PREDICTED BY IDOCK:   -0.50 KCAL/MOL
REMARK 927      BINDING AFFINITY PREDICTED BY RF-SCORE:    0.00 PKD
ROOT
HETATM    1  C   UNL     1      -9.393  15.997  66.070  1.00  0.00    -0.380 C  
HETATM    2  C   UNL     1     -10.681  15.218  65.709  1.00  0.00    -0.348 C  
HETATM    3  C   UNL     1     -11.307  15.987  64.534  1.00  0.00    -0.303 C  
ENDROOT
BRANCH   2   4
HETATM    4  N   UNL     1     -10.401  13.760  65.482  1.00  0.00    -0.308 NA 
BRANCH   4   5
HETATM    5  C   UNL     1     -10.559  12.988  66.759  1.00  0.00    -0.262 C  
BRANCH   5   6
HETATM    6  C   UNL     1      -9.305  12.222  67.252  1.00  0.00    -0.185 C  
BRANCH   6   7
HETATM    7  N   UNL     1      -9.441  11.655  68.584  1.00  0.00    -0.327 N  
HETATM    8  C   UNL     1     -10.003  10.412  68.777  1.00  0.00    -0.188 C  
HETATM    9  H   UNL     1      -9.115  12.187  69.391  1.00  0.00     0.000 HD 
HETATM   10  O   UNL     1     -10.471   9.757  67.846  1.00  0.00    -0.208 OA 
BRANCH   8  11
HETATM   11  C   UNL     1     -10.041   9.913  70.228  1.00  0.00    -0.237 C  
BRANCH  11  12
HETATM   12  N   UNL     1     -11.402   9.916  70.731  1.00  0.00    -0.326 N  
HETATM   13  C   UNL     1     -12.336  10.989  70.485  1.00  0.00    -0.373 C  
HETATM   14  C   UNL     1     -13.209  10.958  71.724  1.00  0.00    -0.513 C  
HETATM   15  C   UNL     1     -13.246   9.478  72.095  1.00  0.00    -0.539 C  
HETATM   16  C   UNL     1     -11.884   9.004  71.654  1.00  0.00    -0.360 C  
HETATM   17  O   UNL     1     -11.319   7.990  72.031  1.00  0.00    -0.265 OA 
ENDBRANCH  11  12
ENDBRANCH   8  11
ENDBRANCH   6   7
ENDBRANCH   5   6
ENDBRANCH   4   5
BRANCH   4  18
HETATM   18  C   UNL     1     -11.117  13.097  64.345  1.00  0.00    -0.381 C  
HETATM   19  C   UNL     1     -12.549  12.658  64.737  1.00  0.00    -0.530 C  
HETATM   20  C   UNL     1     -10.461  11.821  63.785  1.00  0.00    -0.466 C  
ENDBRANCH   4  18
ENDBRANCH   2   4
TORSDOF 7
ENDMDL
MODEL       75
REMARK 921   NORMALIZED FREE ENERGY PREDICTED BY IDOCK:   -4.24 KCAL/MOL
REMARK 922        TOTAL FREE ENERGY PREDICTED BY IDOCK:   -6.98 KCAL/MOL
REMARK 923 INTER-LIGAND FREE ENERGY PREDICTED BY IDOCK:   -5.63 KCAL/MOL
REMARK 924 INTRA-LIGAND FREE ENERGY PREDICTED BY IDOCK:   -1.36 KCAL/MOL
REMARK 927      BINDING AFFINITY PREDICTED BY RF-SCORE:    0.00 PKD
ROOT
HETATM    1  C   UNL     1     -10.663  18.905  67.210  1.00  0.00    -0.523 C  
HETATM    2  C   UNL     1      -9.593  19.551  68.125  1.00  0.00    -0.368 C  
HETATM    3  C   UNL     1     -10.230  19.598  69.525  1.00  0.00    -0.002 C  
ENDROOT
BRANCH   2   4
HETATM    4  N   UNL     1      -8.272  18.847  68.015  1.00  0.00    -0.285 NA 
BRANCH   4   5
HETATM    5  C   UNL     1      -7.759  18.906  66.605  1.00  0.00    -0.248 C  
BRANCH   5   6
HETATM    6  C   UNL     1      -7.233  17.573  66.015  1.00  0.00    -0.263 C  
BRANCH   6   7
HETATM    7  N   UNL     1      -7.735  16.386  66.689  1.00  0.00    -0.262 N  
HETATM    8  C   UNL     1      -8.900  15.773  66.282  1.00  0.00    -0.343 C  
HETATM    9  H   UNL     1      -7.215  16.000  67.477  1.00  0.00     0.000 HD 
HETATM   10  O   UNL     1      -9.598  16.233  65.380  1.00  0.00    -0.448 OA 
BRANCH   8  11
HETATM   11  C   UNL     1      -9.288  14.501  67.049  1.00  0.00    -0.238 C  
BRANCH  11  12
HETATM   12  N   UNL     1     -10.145  14.828  68.173  1.00  0.00    -0.218 N  
HETATM   13  C   UNL     1     -11.587  14.820  68.099  1.00  0.00    -0.332 C  
HETATM   14  C   UNL     1     -11.976  15.886  69.104  1.00  0.00    -0.268 C  
HETATM   15  C   UNL     1     -10.889  15.784  70.170  1.00  0.00    -0.360 C  
HETATM   16  C   UNL     1      -9.685  15.372  69.360  1.00  0.00    -0.273 C  
HETATM   17  O   UNL     1      -8.518  15.482  69.700  1.00  0.00    -0.244 OA 
ENDBRANCH  11  12
ENDBRANCH   8  11
ENDBRANCH   6   7
ENDBRANCH   5   6
ENDBRANCH   4   5
BRANCH   4  18
HETATM   18  C   UNL     1      -7.212  19.227  69.002  1.00  0.00    -0.353 C  
HETATM   19  C   UNL     1      -6.296  20.354  68.467  1.00  0.00    -0.349 C  
HETATM   20  C   UNL     1      -6.241  18.105  69.418  1.00  0.00    -0.251 C  
ENDBRANCH   4  18
ENDBRANCH   2   4
TORSDOF 7
ENDMDL
MODEL       76
REMARK 921   NORMALIZED FREE ENERGY PREDICTED BY IDOCK:   -4.23 KCAL/MOL
REMARK 922        TOTAL FREE ENERGY PREDICTED BY IDOCK:   -6.97 KCAL/MOL
REMARK 923 INTER-LIGAND FREE ENERGY PREDICTED BY IDOCK:   -6.45 KCAL/MOL
REMARK 924 INTRA-LIGAND FREE ENERGY PREDICTED BY IDOCK:   -0.52 KCAL/MOL
REMARK 927      BINDING AFFINITY PREDICTED BY RF-SCORE:    0.00 PKD
ROOT
HETATM    1  C   UNL     1     -13.349   9.653  72.017  1.00  0.00    -0.547 C  
HETATM    2  C   UNL     1     -12.307   8.539  71.755  1.00  0.00    -0.338 C  
HETATM    3  C   UNL     1     -13.129   7.273  71.459  1.00  0.00    -0.434 C  
ENDROOT
BRANCH   2   4
HETATM    4  N   UNL     1     -11.309   8.947  70.710  1.00  0.00    -0.273 NA 
BRANCH   4   5
HETATM    5  C   UNL     1     -11.403  10.421  70.440  1.00  0.00    -0.337 C  
BRANCH   5   6
HETATM    6  C   UNL     1     -11.702  10.829  68.975  1.00  0.00    -0.286 C  
BRANCH   6   7
HETATM    7  N   UNL     1     -11.742  12.266  68.754  1.00  0.00    -0.324 N  
HETATM    8  C   UNL     1     -11.817  12.791  67.483  1.00  0.00    -0.343 C  
HETATM    9  H   UNL     1     -11.714  12.896  69.556  1.00  0.00     0.000 HD 
HETATM   10  O   UNL     1     -11.789  12.078  66.481  1.00  0.00    -0.585 OA 
BRANCH   8  11
HETATM   11  C   UNL     1     -11.902  14.321  67.397  1.00  0.00    -0.409 C  
BRANCH  11  12
HETATM   12  N   UNL     1     -10.584  14.892  67.195  1.00  0.00    -0.279 N  
HETATM   13  C   UNL     1      -9.635  15.093  68.265  1.00  0.00    -0.211 C  
HETATM   14  C   UNL     1      -8.859  16.307  67.796  1.00  0.00    -0.188 C  
HETATM   15  C   UNL     1      -8.850  16.159  66.277  1.00  0.00    -0.371 C  
HETATM   16  C   UNL     1     -10.174  15.486  66.014  1.00  0.00    -0.330 C  
HETATM   17  O   UNL     1     -10.765  15.456  64.946  1.00  0.00    -0.420 OA 
ENDBRANCH  11  12
ENDBRANCH   8  11
ENDBRANCH   6   7
ENDBRANCH   5   6
ENDBRANCH   4   5
BRANCH   4  18
HETATM   18  C   UNL     1      -9.891   8.514  70.914  1.00  0.00    -0.189 C  
HETATM   19  C   UNL     1      -9.605   8.131  72.386  1.00  0.00    -0.335 C  
HETATM   20  C   UNL     1      -8.809   9.555  70.569  1.00  0.00    -0.253 C  
ENDBRANCH   4  18
ENDBRANCH   2   4
TORSDOF 7
ENDMDL
MODEL       77
REMARK 921   NORMALIZED FREE ENERGY PREDICTED BY IDOCK:   -4.22 KCAL/MOL
REMARK 922        TOTAL FREE ENERGY PREDICTED BY IDOCK:   -6.96 KCAL/MOL
REMARK 923 INTER-LIGAND FREE ENERGY PREDICTED BY IDOCK:   -6.41 KCAL/MOL
REMARK 924 INTRA-LIGAND FREE ENERGY PREDICTED BY IDOCK:   -0.55 KCAL/MOL
REMARK 927      BINDING AFFINITY PREDICTED BY RF-SCORE:    0.00 PKD
ROOT
HETATM    1  C   UNL     1     -11.302   6.687  70.118  1.00  0.00    -0.440 C  
HETATM    2  C   UNL     1     -11.871   7.154  71.481  1.00  0.00    -0.313 C  
HETATM    3  C   UNL     1     -11.098   6.352  72.541  1.00  0.00    -0.298 C  
ENDROOT
BRANCH   2   4
HETATM    4  N   UNL     1     -11.833   8.649  71.614  1.00  0.00    -0.302 NA 
BRANCH   4   5
HETATM    5  C   UNL     1     -11.527   9.289  70.291  1.00  0.00    -0.162 C  
BRANCH   5   6
HETATM    6  C   UNL     1     -10.146   9.983  70.173  1.00  0.00    -0.211 C  
BRANCH   6   7
HETATM    7  N   UNL     1     -10.191  11.289  69.533  1.00  0.00    -0.435 N  
HETATM    8  C   UNL     1      -9.433  11.563  68.416  1.00  0.00    -0.195 C  
HETATM    9  H   UNL     1     -10.794  12.015  69.920  1.00  0.00     0.000 HD 
HETATM   10  O   UNL     1      -8.641  10.745  67.949  1.00  0.00    -0.122 OA 
BRANCH   8  11
HETATM   11  C   UNL     1      -9.612  12.964  67.815  1.00  0.00    -0.212 C  
BRANCH  11  12
HETATM   12  N   UNL     1     -10.840  13.032  67.043  1.00  0.00    -0.258 N  
HETATM   13  C   UNL     1     -11.288  11.972  66.171  1.00  0.00    -0.351 C  
HETATM   14  C   UNL     1     -12.047  12.726  65.098  1.00  0.00    -0.498 C  
HETATM   15  C   UNL     1     -12.645  13.912  65.851  1.00  0.00    -0.498 C  
HETATM   16  C   UNL     1     -11.598  14.181  66.903  1.00  0.00    -0.391 C  
HETATM   17  O   UNL     1     -11.461  15.219  67.530  1.00  0.00    -0.333 OA 
ENDBRANCH  11  12
ENDBRANCH   8  11
ENDBRANCH   6   7
ENDBRANCH   5   6
ENDBRANCH   4   5
BRANCH   4  18
HETATM   18  C   UNL     1     -13.001   9.304  72.285  1.00  0.00    -0.412 C  
HETATM   19  C   UNL     1     -14.321   8.534  72.038  1.00  0.00    -0.537 C  
HETATM   20  C   UNL     1     -13.309  10.749  71.848  1.00  0.00    -0.445 C  
ENDBRANCH   4  18
ENDBRANCH   2   4
TORSDOF 7
ENDMDL
MODEL       78
REMARK 921   NORMALIZED FREE ENERGY PREDICTED BY IDOCK:   -4.21 KCAL/MOL
REMARK 922        TOTAL FREE ENERGY PREDICTED BY IDOCK:   -6.94 KCAL/MOL
REMARK 923 INTER-LIGAND FREE ENERGY PREDICTED BY IDOCK:   -6.20 KCAL/MOL
REMARK 924 INTRA-LIGAND FREE ENERGY PREDICTED BY IDOCK:   -0.74 KCAL/MOL
REMARK 927      BINDING AFFINITY PREDICTED BY RF-SCORE:    0.00 PKD
ROOT
HETATM    1  C   UNL     1     -10.628  11.289  63.496  1.00  0.00    -0.436 C  
HETATM    2  C   UNL     1     -10.007  10.387  64.590  1.00  0.00    -0.338 C  
HETATM    3  C   UNL     1      -8.880   9.612  63.888  1.00  0.00    -0.255 C  
ENDROOT
BRANCH   2   4
HETATM    4  N   UNL     1      -9.617  11.179  65.805  1.00  0.00    -0.212 NA 
BRANCH   4   5
HETATM    5  C   UNL     1     -10.418  12.446  65.889  1.00  0.00    -0.256 C  
BRANCH   5   6
HETATM    6  C   UNL     1      -9.611  13.750  66.108  1.00  0.00    -0.216 C  
BRANCH   6   7
HETATM    7  N   UNL     1     -10.421  14.889  66.511  1.00  0.00    -0.289 N  
HETATM    8  C   UNL     1     -10.277  15.464  67.754  1.00  0.00    -0.241 C  
HETATM    9  H   UNL     1     -11.108  15.270  65.860  1.00  0.00     0.000 HD 
HETATM   10  O   UNL     1      -9.509  15.005  68.599  1.00  0.00    -0.198 OA 
BRANCH   8  11
HETATM   11  C   UNL     1     -11.159  16.689  68.030  1.00  0.00    -0.255 C  
BRANCH  11  12
HETATM   12  N   UNL     1     -10.469  17.908  67.653  1.00  0.00    -0.386 N  
HETATM   13  C   UNL     1      -9.950  18.855  68.612  1.00  0.00    -0.412 C  
HETATM   14  C   UNL     1     -10.057  20.172  67.868  1.00  0.00    -0.533 C  
HETATM   15  C   UNL     1      -9.821  19.778  66.412  1.00  0.00    -0.556 C  
HETATM   16  C   UNL     1     -10.411  18.391  66.357  1.00  0.00    -0.383 C  
HETATM   17  O   UNL     1     -10.756  17.797  65.348  1.00  0.00    -0.626 OA 
ENDBRANCH  11  12
ENDBRANCH   8  11
ENDBRANCH   6   7
ENDBRANCH   5   6
ENDBRANCH   4   5
BRANCH   4  18
HETATM   18  C   UNL     1      -9.595  10.454  67.115  1.00  0.00    -0.164 C  
HETATM   19  C   UNL     1      -8.178   9.947  67.476  1.00  0.00    -0.114 C  
HETATM   20  C   UNL     1     -10.488   9.202  67.210  1.00  0.00    -0.335 C  
ENDBRANCH   4  18
ENDBRANCH   2   4
TORSDOF 7
ENDMDL
MODEL       79
REMARK 921   NORMALIZED FREE ENERGY PREDICTED BY IDOCK:   -4.21 KCAL/MOL
REMARK 922        TOTAL FREE ENERGY PREDICTED BY IDOCK:   -6.94 KCAL/MOL
REMARK 923 INTER-LIGAND FREE ENERGY PREDICTED BY IDOCK:   -5.93 KCAL/MOL
REMARK 924 INTRA-LIGAND FREE ENERGY PREDICTED BY IDOCK:   -1.02 KCAL/MOL
REMARK 927      BINDING AFFINITY PREDICTED BY RF-SCORE:    0.00 PKD
ROOT
HETATM    1  C   UNL     1      -8.065  12.186  67.987  1.00  0.00    -0.155 C  
HETATM    2  C   UNL     1      -9.010  12.443  66.788  1.00  0.00    -0.205 C  
HETATM    3  C   UNL     1      -9.206  11.071  66.122  1.00  0.00    -0.209 C  
ENDROOT
BRANCH   2   4
HETATM    4  N   UNL     1     -10.257  13.165  67.211  1.00  0.00    -0.241 NA 
BRANCH   4   5
HETATM    5  C   UNL     1     -11.321  13.040  66.159  1.00  0.00    -0.314 C  
BRANCH   5   6
HETATM    6  C   UNL     1     -11.690  14.342  65.404  1.00  0.00    -0.362 C  
BRANCH   6   7
HETATM    7  N   UNL     1     -11.090  15.543  65.964  1.00  0.00    -0.245 N  
HETATM    8  C   UNL     1     -11.006  16.707  65.231  1.00  0.00    -0.120 C  
HETATM    9  H   UNL     1     -10.724  15.523  66.916  1.00  0.00     0.000 HD 
HETATM   10  O   UNL     1     -11.373  16.767  64.059  1.00  0.00    -1.153 OA 
BRANCH   8  11
HETATM   11  C   UNL     1     -10.394  17.912  65.959  1.00  0.00    -0.318 C  
BRANCH  11  12
HETATM   12  N   UNL     1      -9.294  17.488  66.806  1.00  0.00    -0.257 N  
HETATM   13  C   UNL     1      -8.031  17.016  66.288  1.00  0.00    -0.308 C  
HETATM   14  C   UNL     1      -7.582  16.037  67.354  1.00  0.00    -0.200 C  
HETATM   15  C   UNL     1      -8.131  16.639  68.645  1.00  0.00    -0.237 C  
HETATM   16  C   UNL     1      -9.402  17.300  68.173  1.00  0.00    -0.274 C  
HETATM   17  O   UNL     1     -10.346  17.626  68.875  1.00  0.00    -0.363 OA 
ENDBRANCH  11  12
ENDBRANCH   8  11
ENDBRANCH   6   7
ENDBRANCH   5   6
ENDBRANCH   4   5
BRANCH   4  18
HETATM   18  C   UNL     1     -10.794  12.859  68.575  1.00  0.00    -0.257 C  
HETATM   19  C   UNL     1     -11.908  11.785  68.534  1.00  0.00    -0.365 C  
HETATM   20  C   UNL     1     -11.424  14.041  69.335  1.00  0.00    -0.343 C  
ENDBRANCH   4  18
ENDBRANCH   2   4
TORSDOF 7
ENDMDL
MODEL       80
REMARK 921   NORMALIZED FREE ENERGY PREDICTED BY IDOCK:   -4.19 KCAL/MOL
REMARK 922        TOTAL FREE ENERGY PREDICTED BY IDOCK:   -6.91 KCAL/MOL
REMARK 923 INTER-LIGAND FREE ENERGY PREDICTED BY IDOCK:   -6.16 KCAL/MOL
REMARK 924 INTRA-LIGAND FREE ENERGY PREDICTED BY IDOCK:   -0.75 KCAL/MOL
REMARK 927      BINDING AFFINITY PREDICTED BY RF-SCORE:    0.00 PKD
ROOT
HETATM    1  C   UNL     1      -9.960  10.241  64.875  1.00  0.00    -0.393 C  
HETATM    2  C   UNL     1     -10.486  11.684  65.067  1.00  0.00    -0.285 C  
HETATM    3  C   UNL     1     -11.286  11.999  63.793  1.00  0.00    -0.526 C  
ENDROOT
BRANCH   2   4
HETATM    4  N   UNL     1     -11.215  11.840  66.371  1.00  0.00    -0.327 NA 
BRANCH   4   5
HETATM    5  C   UNL     1     -11.045  10.613  67.219  1.00  0.00    -0.243 C  
BRANCH   5   6
HETATM    6  C   UNL     1     -11.058  10.838  68.753  1.00  0.00    -0.259 C  
BRANCH   6   7
HETATM    7  N   UNL     1     -11.593   9.720  69.513  1.00  0.00    -0.453 N  
HETATM    8  C   UNL     1     -12.194   9.911  70.738  1.00  0.00    -0.291 C  
HETATM    9  H   UNL     1     -11.523   8.776  69.132  1.00  0.00     0.000 HD 
HETATM   10  O   UNL     1     -12.247  11.019  71.271  1.00  0.00    -0.330 OA 
BRANCH   8  11
HETATM   11  C   UNL     1     -12.759   8.652  71.409  1.00  0.00    -0.276 C  
BRANCH  11  12
HETATM   12  N   UNL     1     -11.688   7.733  71.749  1.00  0.00    -0.273 N  
HETATM   13  C   UNL     1     -10.869   7.873  72.930  1.00  0.00    -0.386 C  
HETATM   14  C   UNL     1      -9.546   7.279  72.487  1.00  0.00    -0.186 C  
HETATM   15  C   UNL     1      -9.959   6.182  71.508  1.00  0.00    -0.211 C  
HETATM   16  C   UNL     1     -11.208   6.759  70.891  1.00  0.00    -0.292 C  
HETATM   17  O   UNL     1     -11.712   6.414  69.834  1.00  0.00    -0.426 OA 
ENDBRANCH  11  12
ENDBRANCH   8  11
ENDBRANCH   6   7
ENDBRANCH   5   6
ENDBRANCH   4   5
BRANCH   4  18
HETATM   18  C   UNL     1     -10.956  13.090  67.153  1.00  0.00    -0.269 C  
HETATM   19  C   UNL     1     -12.139  14.085  67.066  1.00  0.00    -0.455 C  
HETATM   20  C   UNL     1      -9.727  13.915  66.724  1.00  0.00    -0.282 C  
ENDBRANCH   4  18
ENDBRANCH   2   4
TORSDOF 7
ENDMDL
MODEL       81
REMARK 921   NORMALIZED FREE ENERGY PREDICTED BY IDOCK:   -4.17 KCAL/MOL
REMARK 922        TOTAL FREE ENERGY PREDICTED BY IDOCK:   -6.89 KCAL/MOL
REMARK 923 INTER-LIGAND FREE ENERGY PREDICTED BY IDOCK:   -6.15 KCAL/MOL
REMARK 924 INTRA-LIGAND FREE ENERGY PREDICTED BY IDOCK:   -0.74 KCAL/MOL
REMARK 927      BINDING AFFINITY PREDICTED BY RF-SCORE:    0.00 PKD
ROOT
HETATM    1  C   UNL     1     -10.507   7.152  67.946  1.00  0.00    -0.268 C  
HETATM    2  C   UNL     1     -10.746   7.640  69.396  1.00  0.00    -0.184 C  
HETATM    3  C   UNL     1     -11.404   6.455  70.122  1.00  0.00    -0.485 C  
ENDROOT
BRANCH   2   4
HETATM    4  N   UNL     1      -9.490   8.187  70.010  1.00  0.00    -0.167 NA 
BRANCH   4   5
HETATM    5  C   UNL     1      -9.642   9.650  70.309  1.00  0.00    -0.254 C  
BRANCH   5   6
HETATM    6  C   UNL     1     -11.081  10.219  70.214  1.00  0.00    -0.319 C  
BRANCH   6   7
HETATM    7  N   UNL     1     -11.143  11.612  69.800  1.00  0.00    -0.478 N  
HETATM    8  C   UNL     1     -11.641  11.969  68.566  1.00  0.00    -0.309 C  
HETATM    9  H   UNL     1     -10.811  12.338  70.435  1.00  0.00     0.000 HD 
HETATM   10  O   UNL     1     -11.994  11.130  67.738  1.00  0.00    -0.630 OA 
BRANCH   8  11
HETATM   11  C   UNL     1     -11.694  13.476  68.278  1.00  0.00    -0.359 C  
BRANCH  11  12
HETATM   12  N   UNL     1     -11.417  13.735  66.877  1.00  0.00    -0.331 N  
HETATM   13  C   UNL     1     -12.450  13.902  65.883  1.00  0.00    -0.481 C  
HETATM   14  C   UNL     1     -11.786  13.380  64.624  1.00  0.00    -0.406 C  
HETATM   15  C   UNL     1     -10.318  13.752  64.817  1.00  0.00    -0.422 C  
HETATM   16  C   UNL     1     -10.156  13.649  66.313  1.00  0.00    -0.299 C  
HETATM   17  O   UNL     1      -9.101  13.531  66.914  1.00  0.00    -0.238 OA 
ENDBRANCH  11  12
ENDBRANCH   8  11
ENDBRANCH   6   7
ENDBRANCH   5   6
ENDBRANCH   4   5
BRANCH   4  18
HETATM   18  C   UNL     1      -8.922   7.443  71.179  1.00  0.00    -0.143 C  
HETATM   19  C   UNL     1      -8.873   8.316  72.456  1.00  0.00    -0.297 C  
HETATM   20  C   UNL     1      -7.483   6.919  71.014  1.00  0.00    -0.083 C  
ENDBRANCH   4  18
ENDBRANCH   2   4
TORSDOF 7
ENDMDL
MODEL       82
REMARK 921   NORMALIZED FREE ENERGY PREDICTED BY IDOCK:   -4.17 KCAL/MOL
REMARK 922        TOTAL FREE ENERGY PREDICTED BY IDOCK:   -6.88 KCAL/MOL
REMARK 923 INTER-LIGAND FREE ENERGY PREDICTED BY IDOCK:   -6.34 KCAL/MOL
REMARK 924 INTRA-LIGAND FREE ENERGY PREDICTED BY IDOCK:   -0.54 KCAL/MOL
REMARK 927      BINDING AFFINITY PREDICTED BY RF-SCORE:    0.00 PKD
ROOT
HETATM    1  C   UNL     1     -11.173   9.116  71.681  1.00  0.00    -0.447 C  
HETATM    2  C   UNL     1     -10.426   9.700  70.457  1.00  0.00    -0.303 C  
HETATM    3  C   UNL     1      -8.942   9.374  70.691  1.00  0.00    -0.285 C  
ENDROOT
BRANCH   2   4
HETATM    4  N   UNL     1     -11.020   9.218  69.165  1.00  0.00    -0.125 NA 
BRANCH   4   5
HETATM    5  C   UNL     1     -11.193  10.360  68.206  1.00  0.00    -0.267 C  
BRANCH   5   6
HETATM    6  C   UNL     1     -10.992  11.780  68.794  1.00  0.00    -0.234 C  
BRANCH   6   7
HETATM    7  N   UNL     1     -11.500  12.850  67.950  1.00  0.00    -0.296 N  
HETATM    8  C   UNL     1     -10.701  13.454  67.004  1.00  0.00    -0.268 C  
HETATM    9  H   UNL     1     -12.466  13.159  68.060  1.00  0.00     0.000 HD 
HETATM   10  O   UNL     1      -9.513  13.165  66.873  1.00  0.00    -0.229 OA 
BRANCH   8  11
HETATM   11  C   UNL     1     -11.379  14.535  66.149  1.00  0.00    -0.348 C  
BRANCH  11  12
HETATM   12  N   UNL     1     -10.773  15.830  66.395  1.00  0.00    -0.303 N  
HETATM   13  C   UNL     1     -10.287  16.246  67.690  1.00  0.00    -0.284 C  
HETATM   14  C   UNL     1     -10.493  17.747  67.654  1.00  0.00    -0.393 C  
HETATM   15  C   UNL     1     -10.271  18.101  66.186  1.00  0.00    -0.372 C  
HETATM   16  C   UNL     1     -10.777  16.869  65.480  1.00  0.00    -0.163 C  
HETATM   17  O   UNL     1     -11.112  16.798  64.308  1.00  0.00    -1.106 OA 
ENDBRANCH  11  12
ENDBRANCH   8  11
ENDBRANCH   6   7
ENDBRANCH   5   6
ENDBRANCH   4   5
BRANCH   4  18
HETATM   18  C   UNL     1     -10.365   8.043  68.508  1.00  0.00    -0.199 C  
HETATM   19  C   UNL     1     -10.471   8.105  66.965  1.00  0.00    -0.396 C  
HETATM   20  C   UNL     1     -10.929   6.658  68.878  1.00  0.00    -0.325 C  
ENDBRANCH   4  18
ENDBRANCH   2   4
TORSDOF 7
ENDMDL
MODEL       83
REMARK 921   NORMALIZED FREE ENERGY PREDICTED BY IDOCK:   -4.14 KCAL/MOL
REMARK 922        TOTAL FREE ENERGY PREDICTED BY IDOCK:   -6.85 KCAL/MOL
REMARK 923 INTER-LIGAND FREE ENERGY PREDICTED BY IDOCK:   -6.12 KCAL/MOL
REMARK 924 INTRA-LIGAND FREE ENERGY PREDICTED BY IDOCK:   -0.73 KCAL/MOL
REMARK 927      BINDING AFFINITY PREDICTED BY RF-SCORE:    0.00 PKD
ROOT
HETATM    1  C   UNL     1     -12.109  14.466  66.740  1.00  0.00    -0.393 C  
HETATM    2  C   UNL     1     -11.549  14.167  65.328  1.00  0.00    -0.341 C  
HETATM    3  C   UNL     1     -10.892  15.478  64.865  1.00  0.00    -0.447 C  
ENDROOT
BRANCH   2   4
HETATM    4  N   UNL     1     -10.677  12.945  65.325  1.00  0.00    -0.289 NA 
BRANCH   4   5
HETATM    5  C   UNL     1     -10.440  12.463  66.727  1.00  0.00    -0.221 C  
BRANCH   5   6
HETATM    6  C   UNL     1     -11.116  11.122  67.110  1.00  0.00    -0.287 C  
BRANCH   6   7
HETATM    7  N   UNL     1     -10.429  10.391  68.164  1.00  0.00    -0.175 N  
HETATM    8  C   UNL     1     -10.791  10.536  69.485  1.00  0.00    -0.256 C  
HETATM    9  H   UNL     1      -9.666   9.759  67.920  1.00  0.00     0.000 HD 
HETATM   10  O   UNL     1     -11.659  11.331  69.840  1.00  0.00    -0.289 OA 
BRANCH   8  11
HETATM   11  C   UNL     1     -10.017   9.669  70.488  1.00  0.00    -0.254 C  
BRANCH  11  12
HETATM   12  N   UNL     1     -10.811   8.521  70.886  1.00  0.00    -0.225 N  
HETATM   13  C   UNL     1     -11.287   8.316  72.233  1.00  0.00    -0.378 C  
HETATM   14  C   UNL     1     -11.330   6.804  72.343  1.00  0.00    -0.306 C  
HETATM   15  C   UNL     1     -11.684   6.356  70.928  1.00  0.00    -0.366 C  
HETATM   16  C   UNL     1     -11.022   7.415  70.082  1.00  0.00    -0.255 C  
HETATM   17  O   UNL     1     -10.743   7.317  68.898  1.00  0.00    -0.205 OA 
ENDBRANCH  11  12
ENDBRANCH   8  11
ENDBRANCH   6   7
ENDBRANCH   5   6
ENDBRANCH   4   5
BRANCH   4  18
HETATM   18  C   UNL     1     -11.077  11.823  64.418  1.00  0.00    -0.334 C  
HETATM   19  C   UNL     1      -9.987  11.512  63.363  1.00  0.00    -0.445 C  
HETATM   20  C   UNL     1     -12.359  12.044  63.594  1.00  0.00    -0.648 C  
ENDBRANCH   4  18
ENDBRANCH   2   4
TORSDOF 7
ENDMDL
MODEL       84
REMARK 921   NORMALIZED FREE ENERGY PREDICTED BY IDOCK:   -4.09 KCAL/MOL
REMARK 922        TOTAL FREE ENERGY PREDICTED BY IDOCK:   -6.77 KCAL/MOL
REMARK 923 INTER-LIGAND FREE ENERGY PREDICTED BY IDOCK:   -6.08 KCAL/MOL
REMARK 924 INTRA-LIGAND FREE ENERGY PREDICTED BY IDOCK:   -0.69 KCAL/MOL
REMARK 927      BINDING AFFINITY PREDICTED BY RF-SCORE:    0.00 PKD
ROOT
HETATM    1  C   UNL     1     -10.056  19.800  66.364  1.00  0.00    -0.600 C  
HETATM    2  C   UNL     1      -9.143  19.846  67.614  1.00  0.00    -0.340 C  
HETATM    3  C   UNL     1     -10.057  19.491  68.799  1.00  0.00    -0.519 C  
ENDROOT
BRANCH   2   4
HETATM    4  N   UNL     1      -7.918  18.997  67.436  1.00  0.00    -0.249 NA 
BRANCH   4   5
HETATM    5  C   UNL     1      -8.039  18.148  66.204  1.00  0.00    -0.163 C  
BRANCH   5   6
HETATM    6  C   UNL     1      -7.992  16.615  66.426  1.00  0.00    -0.325 C  
BRANCH   6   7
HETATM    7  N   UNL     1      -9.203  15.919  66.020  1.00  0.00    -0.341 N  
HETATM    8  C   UNL     1     -10.278  15.800  66.874  1.00  0.00    -0.280 C  
HETATM    9  H   UNL     1      -9.258  15.511  65.087  1.00  0.00     0.000 HD 
HETATM   10  O   UNL     1     -10.240  16.216  68.031  1.00  0.00    -0.241 OA 
BRANCH   8  11
HETATM   11  C   UNL     1     -11.509  15.084  66.302  1.00  0.00    -0.214 C  
BRANCH  11  12
HETATM   12  N   UNL     1     -11.699  13.801  66.952  1.00  0.00    -0.372 N  
HETATM   13  C   UNL     1     -12.073  13.663  68.340  1.00  0.00    -0.277 C  
HETATM   14  C   UNL     1     -11.419  12.353  68.731  1.00  0.00    -0.350 C  
HETATM   15  C   UNL     1     -11.477  11.529  67.447  1.00  0.00    -0.349 C  
HETATM   16  C   UNL     1     -11.349  12.589  66.382  1.00  0.00    -0.329 C  
HETATM   17  O   UNL     1     -11.016  12.405  65.222  1.00  0.00    -0.283 OA 
ENDBRANCH  11  12
ENDBRANCH   8  11
ENDBRANCH   6   7
ENDBRANCH   5   6
ENDBRANCH   4   5
BRANCH   4  18
HETATM   18  C   UNL     1      -6.592  19.691  67.498  1.00  0.00    -0.209 C  
HETATM   19  C   UNL     1      -6.347  20.355  68.875  1.00  0.00    -0.332 C  
HETATM   20  C   UNL     1      -6.373  20.825  66.479  1.00  0.00    -0.313 C  
ENDBRANCH   4  18
ENDBRANCH   2   4
TORSDOF 7
ENDMDL
MODEL       85
REMARK 921   NORMALIZED FREE ENERGY PREDICTED BY IDOCK:   -4.09 KCAL/MOL
REMARK 922        TOTAL FREE ENERGY PREDICTED BY IDOCK:   -6.77 KCAL/MOL
REMARK 923 INTER-LIGAND FREE ENERGY PREDICTED BY IDOCK:   -5.84 KCAL/MOL
REMARK 924 INTRA-LIGAND FREE ENERGY PREDICTED BY IDOCK:   -0.93 KCAL/MOL
REMARK 927      BINDING AFFINITY PREDICTED BY RF-SCORE:    0.00 PKD
ROOT
HETATM    1  C   UNL     1     -12.558  13.888  64.883  1.00  0.00    -0.380 C  
HETATM    2  C   UNL     1     -12.077  12.420  64.992  1.00  0.00    -0.407 C  
HETATM    3  C   UNL     1     -11.093  12.226  63.826  1.00  0.00    -0.507 C  
ENDROOT
BRANCH   2   4
HETATM    4  N   UNL     1     -11.557  12.108  66.365  1.00  0.00    -0.477 NA 
BRANCH   4   5
HETATM    5  C   UNL     1     -10.393  11.164  66.286  1.00  0.00    -0.249 C  
BRANCH   5   6
HETATM    6  C   UNL     1     -10.611   9.759  66.903  1.00  0.00    -0.173 C  
BRANCH   6   7
HETATM    7  N   UNL     1     -11.188   9.779  68.238  1.00  0.00    -0.517 N  
HETATM    8  C   UNL     1     -10.412  10.035  69.347  1.00  0.00    -0.232 C  
HETATM    9  H   UNL     1     -12.186   9.601  68.355  1.00  0.00     0.000 HD 
HETATM   10  O   UNL     1      -9.194  10.193  69.268  1.00  0.00    -0.185 OA 
BRANCH   8  11
HETATM   11  C   UNL     1     -11.157  10.075  70.689  1.00  0.00    -0.335 C  
BRANCH  11  12
HETATM   12  N   UNL     1     -10.892   8.870  71.453  1.00  0.00    -0.280 N  
HETATM   13  C   UNL     1      -9.635   8.612  72.115  1.00  0.00    -0.307 C  
HETATM   14  C   UNL     1      -9.541   7.099  72.069  1.00  0.00    -0.158 C  
HETATM   15  C   UNL     1     -10.996   6.650  72.170  1.00  0.00    -0.277 C  
HETATM   16  C   UNL     1     -11.725   7.765  71.462  1.00  0.00    -0.280 C  
HETATM   17  O   UNL     1     -12.852   7.705  70.998  1.00  0.00    -0.220 OA 
ENDBRANCH  11  12
ENDBRANCH   8  11
ENDBRANCH   6   7
ENDBRANCH   5   6
ENDBRANCH   4   5
BRANCH   4  18
HETATM   18  C   UNL     1     -11.263  13.269  67.264  1.00  0.00    -0.292 C  
HETATM   19  C   UNL     1      -9.767  13.338  67.656  1.00  0.00    -0.219 C  
HETATM   20  C   UNL     1     -12.015  13.292  68.608  1.00  0.00    -0.345 C  
ENDBRANCH   4  18
ENDBRANCH   2   4
TORSDOF 7
ENDMDL
MODEL       86
REMARK 921   NORMALIZED FREE ENERGY PREDICTED BY IDOCK:   -4.08 KCAL/MOL
REMARK 922        TOTAL FREE ENERGY PREDICTED BY IDOCK:   -6.76 KCAL/MOL
REMARK 923 INTER-LIGAND FREE ENERGY PREDICTED BY IDOCK:   -5.99 KCAL/MOL
REMARK 924 INTRA-LIGAND FREE ENERGY PREDICTED BY IDOCK:   -0.77 KCAL/MOL
REMARK 927      BINDING AFFINITY PREDICTED BY RF-SCORE:    0.00 PKD
ROOT
HETATM    1  C   UNL     1     -12.501   6.954  71.800  1.00  0.00    -0.397 C  
HETATM    2  C   UNL     1     -11.172   7.216  71.050  1.00  0.00    -0.269 C  
HETATM    3  C   UNL     1     -11.294   6.446  69.724  1.00  0.00    -0.494 C  
ENDROOT
BRANCH   2   4
HETATM    4  N   UNL     1     -10.874   8.684  70.946  1.00  0.00    -0.229 NA 
BRANCH   4   5
HETATM    5  C   UNL     1     -12.034   9.494  71.450  1.00  0.00    -0.386 C  
BRANCH   5   6
HETATM    6  C   UNL     1     -12.480  10.676  70.553  1.00  0.00    -0.358 C  
BRANCH   6   7
HETATM    7  N   UNL     1     -11.381  11.466  70.019  1.00  0.00    -0.474 N  
HETATM    8  C   UNL     1     -11.154  11.549  68.663  1.00  0.00    -0.238 C  
HETATM    9  H   UNL     1     -10.766  11.966  70.661  1.00  0.00     0.000 HD 
HETATM   10  O   UNL     1     -11.825  10.914  67.850  1.00  0.00    -0.590 OA 
BRANCH   8  11
HETATM   11  C   UNL     1      -9.991  12.454  68.234  1.00  0.00    -0.224 C  
BRANCH  11  12
HETATM   12  N   UNL     1     -10.484  13.758  67.831  1.00  0.00    -0.242 N  
HETATM   13  C   UNL     1     -10.708  14.130  66.454  1.00  0.00    -0.288 C  
HETATM   14  C   UNL     1     -10.445  15.623  66.468  1.00  0.00    -0.303 C  
HETATM   15  C   UNL     1     -10.914  16.054  67.855  1.00  0.00    -0.327 C  
HETATM   16  C   UNL     1     -10.599  14.838  68.690  1.00  0.00    -0.255 C  
HETATM   17  O   UNL     1     -10.485  14.810  69.905  1.00  0.00    -0.142 OA 
ENDBRANCH  11  12
ENDBRANCH   8  11
ENDBRANCH   6   7
ENDBRANCH   5   6
ENDBRANCH   4   5
BRANCH   4  18
HETATM   18  C   UNL     1      -9.578   9.160  71.524  1.00  0.00    -0.208 C  
HETATM   19  C   UNL     1      -8.459   9.239  70.456  1.00  0.00    -0.251 C  
HETATM   20  C   UNL     1      -8.979   8.294  72.647  1.00  0.00    -0.316 C  
ENDBRANCH   4  18
ENDBRANCH   2   4
TORSDOF 7
ENDMDL
MODEL       87
REMARK 921   NORMALIZED FREE ENERGY PREDICTED BY IDOCK:   -4.08 KCAL/MOL
REMARK 922        TOTAL FREE ENERGY PREDICTED BY IDOCK:   -6.76 KCAL/MOL
REMARK 923 INTER-LIGAND FREE ENERGY PREDICTED BY IDOCK:   -5.86 KCAL/MOL
REMARK 924 INTRA-LIGAND FREE ENERGY PREDICTED BY IDOCK:   -0.90 KCAL/MOL
REMARK 927      BINDING AFFINITY PREDICTED BY RF-SCORE:    0.00 PKD
ROOT
HETATM    1  C   UNL     1     -11.192  14.468  64.829  1.00  0.00    -0.395 C  
HETATM    2  C   UNL     1     -11.410  13.028  65.356  1.00  0.00    -0.297 C  
HETATM    3  C   UNL     1     -12.609  12.482  64.564  1.00  0.00    -0.503 C  
ENDROOT
BRANCH   2   4
HETATM    4  N   UNL     1     -10.145  12.220  65.297  1.00  0.00    -0.276 NA 
BRANCH   4   5
HETATM    5  C   UNL     1      -9.609  11.980  66.679  1.00  0.00    -0.216 C  
BRANCH   5   6
HETATM    6  C   UNL     1     -10.514  12.438  67.851  1.00  0.00    -0.215 C  
BRANCH   6   7
HETATM    7  N   UNL     1     -10.004  13.589  68.580  1.00  0.00    -0.366 N  
HETATM    8  C   UNL     1     -10.785  14.704  68.790  1.00  0.00    -0.249 C  
HETATM    9  H   UNL     1      -9.051  13.569  68.944  1.00  0.00     0.000 HD 
HETATM   10  O   UNL     1     -11.916  14.806  68.318  1.00  0.00    -0.298 OA 
BRANCH   8  11
HETATM   11  C   UNL     1     -10.139  15.825  69.617  1.00  0.00    -0.289 C  
BRANCH  11  12
HETATM   12  N   UNL     1      -9.283  16.645  68.780  1.00  0.00    -0.247 N  
HETATM   13  C   UNL     1      -7.841  16.587  68.826  1.00  0.00    -0.235 C  
HETATM   14  C   UNL     1      -7.441  18.002  68.455  1.00  0.00    -0.283 C  
HETATM   15  C   UNL     1      -8.535  18.437  67.483  1.00  0.00    -0.260 C  
HETATM   16  C   UNL     1      -9.740  17.698  68.007  1.00  0.00    -0.301 C  
HETATM   17  O   UNL     1     -10.907  17.970  67.774  1.00  0.00    -0.383 OA 
ENDBRANCH  11  12
ENDBRANCH   8  11
ENDBRANCH   6   7
ENDBRANCH   5   6
ENDBRANCH   4   5
BRANCH   4  18
HETATM   18  C   UNL     1     -10.179  10.957  64.493  1.00  0.00    -0.356 C  
HETATM   19  C   UNL     1      -9.705   9.733  65.313  1.00  0.00    -0.371 C  
HETATM   20  C   UNL     1      -9.302  10.937  63.228  1.00  0.00    -0.324 C  
ENDBRANCH   4  18
ENDBRANCH   2   4
TORSDOF 7
ENDMDL
MODEL       88
REMARK 921   NORMALIZED FREE ENERGY PREDICTED BY IDOCK:   -4.08 KCAL/MOL
REMARK 922        TOTAL FREE ENERGY PREDICTED BY IDOCK:   -6.75 KCAL/MOL
REMARK 923 INTER-LIGAND FREE ENERGY PREDICTED BY IDOCK:   -6.14 KCAL/MOL
REMARK 924 INTRA-LIGAND FREE ENERGY PREDICTED BY IDOCK:   -0.62 KCAL/MOL
REMARK 927      BINDING AFFINITY PREDICTED BY RF-SCORE:    0.00 PKD
ROOT
HETATM    1  C   UNL     1     -12.318   7.168  71.162  1.00  0.00    -0.404 C  
HETATM    2  C   UNL     1     -11.070   7.928  71.676  1.00  0.00    -0.244 C  
HETATM    3  C   UNL     1     -10.952   7.557  73.164  1.00  0.00    -0.420 C  
ENDROOT
BRANCH   2   4
HETATM    4  N   UNL     1      -9.866   7.657  70.821  1.00  0.00    -0.178 NA 
BRANCH   4   5
HETATM    5  C   UNL     1      -9.411   8.914  70.139  1.00  0.00    -0.180 C  
BRANCH   5   6
HETATM    6  C   UNL     1     -10.423  10.088  70.127  1.00  0.00    -0.284 C  
BRANCH   6   7
HETATM    7  N   UNL     1     -10.177  11.074  69.086  1.00  0.00    -0.326 N  
HETATM    8  C   UNL     1     -11.202  11.554  68.300  1.00  0.00    -0.261 C  
HETATM    9  H   UNL     1      -9.228  11.416  68.934  1.00  0.00     0.000 HD 
HETATM   10  O   UNL     1     -12.352  11.128  68.398  1.00  0.00    -0.556 OA 
BRANCH   8  11
HETATM   11  C   UNL     1     -10.811  12.626  67.274  1.00  0.00    -0.248 C  
BRANCH  11  12
HETATM   12  N   UNL     1     -11.206  12.218  65.938  1.00  0.00    -0.325 N  
HETATM   13  C   UNL     1     -10.424  11.322  65.120  1.00  0.00    -0.291 C  
HETATM   14  C   UNL     1     -10.745  11.792  63.715  1.00  0.00    -0.480 C  
HETATM   15  C   UNL     1     -12.191  12.269  63.822  1.00  0.00    -0.642 C  
HETATM   16  C   UNL     1     -12.251  12.792  65.235  1.00  0.00    -0.483 C  
HETATM   17  O   UNL     1     -13.083  13.566  65.680  1.00  0.00    -0.483 OA 
ENDBRANCH  11  12
ENDBRANCH   8  11
ENDBRANCH   6   7
ENDBRANCH   5   6
ENDBRANCH   4   5
BRANCH   4  18
HETATM   18  C   UNL     1      -8.722   6.934  71.463  1.00  0.00    -0.122 C  
HETATM   19  C   UNL     1      -7.360   7.338  70.846  1.00  0.00    -0.074 C  
HETATM   20  C   UNL     1      -8.751   5.397  71.362  1.00  0.00    -0.136 C  
ENDBRANCH   4  18
ENDBRANCH   2   4
TORSDOF 7
ENDMDL
MODEL       89
REMARK 921   NORMALIZED FREE ENERGY PREDICTED BY IDOCK:   -4.07 KCAL/MOL
REMARK 922        TOTAL FREE ENERGY PREDICTED BY IDOCK:   -6.75 KCAL/MOL
REMARK 923 INTER-LIGAND FREE ENERGY PREDICTED BY IDOCK:   -6.10 KCAL/MOL
REMARK 924 INTRA-LIGAND FREE ENERGY PREDICTED BY IDOCK:   -0.65 KCAL/MOL
REMARK 927      BINDING AFFINITY PREDICTED BY RF-SCORE:    0.00 PKD
ROOT
HETATM    1  C   UNL     1     -12.891   8.788  72.062  1.00  0.00    -0.442 C  
HETATM    2  C   UNL     1     -11.348   8.672  72.012  1.00  0.00    -0.362 C  
HETATM    3  C   UNL     1     -10.973   7.727  73.166  1.00  0.00    -0.372 C  
ENDROOT
BRANCH   2   4
HETATM    4  N   UNL     1     -10.866   8.282  70.644  1.00  0.00    -0.231 NA 
BRANCH   4   5
HETATM    5  C   UNL     1      -9.732   9.167  70.213  1.00  0.00    -0.211 C  
BRANCH   5   6
HETATM    6  C   UNL     1     -10.000  10.065  68.979  1.00  0.00    -0.196 C  
BRANCH   6   7
HETATM    7  N   UNL     1     -10.461  11.405  69.309  1.00  0.00    -0.406 N  
HETATM    8  C   UNL     1     -11.523  11.978  68.644  1.00  0.00    -0.297 C  
HETATM    9  H   UNL     1      -9.989  11.930  70.045  1.00  0.00     0.000 HD 
HETATM   10  O   UNL     1     -12.085  11.415  67.705  1.00  0.00    -0.637 OA 
BRANCH   8  11
HETATM   11  C   UNL     1     -11.935  13.376  69.125  1.00  0.00    -0.317 C  
BRANCH  11  12
HETATM   12  N   UNL     1     -11.123  14.394  68.484  1.00  0.00    -0.243 N  
HETATM   13  C   UNL     1     -10.110  15.153  69.178  1.00  0.00    -0.245 C  
HETATM   14  C   UNL     1     -10.121  16.475  68.436  1.00  0.00    -0.255 C  
HETATM   15  C   UNL     1     -10.466  16.076  67.003  1.00  0.00    -0.307 C  
HETATM   16  C   UNL     1     -11.365  14.883  67.212  1.00  0.00    -0.349 C  
HETATM   17  O   UNL     1     -12.148  14.424  66.397  1.00  0.00    -0.414 OA 
ENDBRANCH  11  12
ENDBRANCH   8  11
ENDBRANCH   6   7
ENDBRANCH   5   6
ENDBRANCH   4   5
BRANCH   4  18
HETATM   18  C   UNL     1     -10.552   6.835  70.418  1.00  0.00    -0.227 C  
HETATM   19  C   UNL     1      -9.050   6.605  70.123  1.00  0.00    -0.155 C  
HETATM   20  C   UNL     1     -11.283   6.160  69.243  1.00  0.00    -0.438 C  
ENDBRANCH   4  18
ENDBRANCH   2   4
TORSDOF 7
ENDMDL
MODEL       90
REMARK 921   NORMALIZED FREE ENERGY PREDICTED BY IDOCK:   -4.06 KCAL/MOL
REMARK 922        TOTAL FREE ENERGY PREDICTED BY IDOCK:   -6.73 KCAL/MOL
REMARK 923 INTER-LIGAND FREE ENERGY PREDICTED BY IDOCK:   -6.02 KCAL/MOL
REMARK 924 INTRA-LIGAND FREE ENERGY PREDICTED BY IDOCK:   -0.71 KCAL/MOL
REMARK 927      BINDING AFFINITY PREDICTED BY RF-SCORE:    0.00 PKD
ROOT
HETATM    1  C   UNL     1      -9.024   8.731  71.343  1.00  0.00    -0.307 C  
HETATM    2  C   UNL     1     -10.432   8.428  70.776  1.00  0.00    -0.197 C  
HETATM    3  C   UNL     1     -11.409   9.204  71.676  1.00  0.00    -0.446 C  
ENDROOT
BRANCH   2   4
HETATM    4  N   UNL     1     -10.510   8.714  69.303  1.00  0.00    -0.222 NA 
BRANCH   4   5
HETATM    5  C   UNL     1      -9.458   9.707  68.903  1.00  0.00    -0.157 C  
BRANCH   5   6
HETATM    6  C   UNL     1      -9.952  11.151  68.631  1.00  0.00    -0.205 C  
BRANCH   6   7
HETATM    7  N   UNL     1      -9.874  11.552  67.235  1.00  0.00    -0.189 N  
HETATM    8  C   UNL     1     -10.944  12.145  66.602  1.00  0.00    -0.282 C  
HETATM    9  H   UNL     1      -9.011  11.392  66.716  1.00  0.00     0.000 HD 
HETATM   10  O   UNL     1     -12.027  12.303  67.164  1.00  0.00    -0.564 OA 
BRANCH   8  11
HETATM   11  C   UNL     1     -10.709  12.563  65.144  1.00  0.00    -0.292 C  
BRANCH  11  12
HETATM   12  N   UNL     1     -10.660  14.009  65.032  1.00  0.00    -0.386 N  
HETATM   13  C   UNL     1      -9.734  14.831  65.774  1.00  0.00    -0.313 C  
HETATM   14  C   UNL     1     -10.506  16.124  65.950  1.00  0.00    -0.366 C  
HETATM   15  C   UNL     1     -11.342  16.214  64.677  1.00  0.00    -0.287 C  
HETATM   16  C   UNL     1     -11.613  14.763  64.369  1.00  0.00    -0.295 C  
HETATM   17  O   UNL     1     -12.501  14.335  63.649  1.00  0.00    -0.816 OA 
ENDBRANCH  11  12
ENDBRANCH   8  11
ENDBRANCH   6   7
ENDBRANCH   5   6
ENDBRANCH   4   5
BRANCH   4  18
HETATM   18  C   UNL     1     -10.534   7.535  68.380  1.00  0.00    -0.175 C  
HETATM   19  C   UNL     1     -10.727   6.202  69.144  1.00  0.00    -0.381 C  
HETATM   20  C   UNL     1      -9.267   7.314  67.532  1.00  0.00    -0.138 C  
ENDBRANCH   4  18
ENDBRANCH   2   4
TORSDOF 7
ENDMDL
MODEL       91
REMARK 921   NORMALIZED FREE ENERGY PREDICTED BY IDOCK:   -4.06 KCAL/MOL
REMARK 922        TOTAL FREE ENERGY PREDICTED BY IDOCK:   -6.73 KCAL/MOL
REMARK 923 INTER-LIGAND FREE ENERGY PREDICTED BY IDOCK:   -6.02 KCAL/MOL
REMARK 924 INTRA-LIGAND FREE ENERGY PREDICTED BY IDOCK:   -0.71 KCAL/MOL
REMARK 927      BINDING AFFINITY PREDICTED BY RF-SCORE:    0.00 PKD
ROOT
HETATM    1  C   UNL     1     -12.256  14.425  71.309  1.00  0.00    -0.429 C  
HETATM    2  C   UNL     1     -12.027  14.727  69.808  1.00  0.00    -0.321 C  
HETATM    3  C   UNL     1     -10.764  15.603  69.757  1.00  0.00    -0.309 C  
ENDROOT
BRANCH   2   4
HETATM    4  N   UNL     1     -12.003  13.470  68.987  1.00  0.00    -0.341 NA 
BRANCH   4   5
HETATM    5  C   UNL     1     -11.388  13.730  67.643  1.00  0.00    -0.304 C  
BRANCH   5   6
HETATM    6  C   UNL     1     -12.379  13.944  66.470  1.00  0.00    -0.404 C  
BRANCH   6   7
HETATM    7  N   UNL     1     -12.310  12.920  65.440  1.00  0.00    -0.480 N  
HETATM    8  C   UNL     1     -11.389  12.996  64.418  1.00  0.00    -0.357 C  
HETATM    9  H   UNL     1     -12.955  12.130  65.474  1.00  0.00     0.000 HD 
HETATM   10  O   UNL     1     -10.632  13.958  64.294  1.00  0.00    -0.328 OA 
BRANCH   8  11
HETATM   11  C   UNL     1     -11.392  11.824  63.427  1.00  0.00    -0.344 C  
BRANCH  11  12
HETATM   12  N   UNL     1     -10.184  11.034  63.570  1.00  0.00    -0.359 N  
HETATM   13  C   UNL     1      -9.275  10.771  62.479  1.00  0.00    -0.303 C  
HETATM   14  C   UNL     1      -8.707   9.413  62.843  1.00  0.00    -0.228 C  
HETATM   15  C   UNL     1      -8.680   9.436  64.369  1.00  0.00    -0.227 C  
HETATM   16  C   UNL     1      -9.879  10.289  64.696  1.00  0.00    -0.327 C  
HETATM   17  O   UNL     1     -10.462  10.328  65.768  1.00  0.00    -0.196 OA 
ENDBRANCH  11  12
ENDBRANCH   8  11
ENDBRANCH   6   7
ENDBRANCH   5   6
ENDBRANCH   4   5
BRANCH   4  18
HETATM   18  C   UNL     1     -11.425  12.247  69.629  1.00  0.00    -0.215 C  
HETATM   19  C   UNL     1     -10.272  11.641  68.793  1.00  0.00    -0.190 C  
HETATM   20  C   UNL     1     -12.399  11.075  69.851  1.00  0.00    -0.356 C  
ENDBRANCH   4  18
ENDBRANCH   2   4
TORSDOF 7
ENDMDL
MODEL       92
REMARK 921   NORMALIZED FREE ENERGY PREDICTED BY IDOCK:   -4.05 KCAL/MOL
REMARK 922        TOTAL FREE ENERGY PREDICTED BY IDOCK:   -6.71 KCAL/MOL
REMARK 923 INTER-LIGAND FREE ENERGY PREDICTED BY IDOCK:   -5.82 KCAL/MOL
REMARK 924 INTRA-LIGAND FREE ENERGY PREDICTED BY IDOCK:   -0.89 KCAL/MOL
REMARK 927      BINDING AFFINITY PREDICTED BY RF-SCORE:    0.00 PKD
ROOT
HETATM    1  C   UNL     1     -10.491  13.446  64.490  1.00  0.00    -0.431 C  
HETATM    2  C   UNL     1     -11.375  14.241  65.481  1.00  0.00    -0.325 C  
HETATM    3  C   UNL     1     -12.657  13.407  65.642  1.00  0.00    -0.496 C  
ENDROOT
BRANCH   2   4
HETATM    4  N   UNL     1     -10.632  14.575  66.742  1.00  0.00    -0.273 NA 
BRANCH   4   5
HETATM    5  C   UNL     1      -9.204  14.123  66.647  1.00  0.00    -0.252 C  
BRANCH   5   6
HETATM    6  C   UNL     1      -8.692  13.231  67.807  1.00  0.00    -0.194 C  
BRANCH   6   7
HETATM    7  N   UNL     1      -9.455  12.007  67.996  1.00  0.00    -0.193 N  
HETATM    8  C   UNL     1      -8.922  10.930  68.669  1.00  0.00    -0.162 C  
HETATM    9  H   UNL     1     -10.402  11.944  67.622  1.00  0.00     0.000 HD 
HETATM   10  O   UNL     1      -7.763  10.929  69.083  1.00  0.00    -0.132 OA 
BRANCH   8  11
HETATM   11  C   UNL     1      -9.852   9.721  68.839  1.00  0.00    -0.173 C  
BRANCH  11  12
HETATM   12  N   UNL     1     -10.855   9.990  69.852  1.00  0.00    -0.265 N  
HETATM   13  C   UNL     1     -10.791   9.456  71.193  1.00  0.00    -0.357 C  
HETATM   14  C   UNL     1     -12.254   9.325  71.567  1.00  0.00    -0.439 C  
HETATM   15  C   UNL     1     -12.914  10.490  70.834  1.00  0.00    -0.455 C  
HETATM   16  C   UNL     1     -12.066  10.608  69.593  1.00  0.00    -0.240 C  
HETATM   17  O   UNL     1     -12.385  11.165  68.555  1.00  0.00    -0.561 OA 
ENDBRANCH  11  12
ENDBRANCH   8  11
ENDBRANCH   6   7
ENDBRANCH   5   6
ENDBRANCH   4   5
BRANCH   4  18
HETATM   18  C   UNL     1     -10.732  15.983  67.241  1.00  0.00    -0.295 C  
HETATM   19  C   UNL     1      -9.523  16.843  66.799  1.00  0.00    -0.269 C  
HETATM   20  C   UNL     1     -10.791  16.157  68.770  1.00  0.00    -0.310 C  
ENDBRANCH   4  18
ENDBRANCH   2   4
TORSDOF 7
ENDMDL
MODEL       93
REMARK 921   NORMALIZED FREE ENERGY PREDICTED BY IDOCK:   -4.05 KCAL/MOL
REMARK 922        TOTAL FREE ENERGY PREDICTED BY IDOCK:   -6.71 KCAL/MOL
REMARK 923 INTER-LIGAND FREE ENERGY PREDICTED BY IDOCK:   -5.92 KCAL/MOL
REMARK 924 INTRA-LIGAND FREE ENERGY PREDICTED BY IDOCK:   -0.79 KCAL/MOL
REMARK 927      BINDING AFFINITY PREDICTED BY RF-SCORE:    0.00 PKD
ROOT
HETATM    1  C   UNL     1     -13.323  13.497  71.504  1.00  0.00    -0.363 C  
HETATM    2  C   UNL     1     -12.419  14.111  70.407  1.00  0.00    -0.357 C  
HETATM    3  C   UNL     1     -11.667  15.262  71.095  1.00  0.00    -0.409 C  
ENDROOT
BRANCH   2   4
HETATM    4  N   UNL     1     -11.574  13.066  69.737  1.00  0.00    -0.254 NA 
BRANCH   4   5
HETATM    5  C   UNL     1     -12.146  11.697  69.968  1.00  0.00    -0.319 C  
BRANCH   5   6
HETATM    6  C   UNL     1     -11.141  10.519  69.907  1.00  0.00    -0.307 C  
BRANCH   6   7
HETATM    7  N   UNL     1     -11.753   9.208  70.053  1.00  0.00    -0.451 N  
HETATM    8  C   UNL     1     -11.917   8.631  71.294  1.00  0.00    -0.293 C  
HETATM    9  H   UNL     1     -12.067   8.706  69.222  1.00  0.00     0.000 HD 
HETATM   10  O   UNL     1     -11.499   9.164  72.320  1.00  0.00    -0.281 OA 
BRANCH   8  11
HETATM   11  C   UNL     1     -12.621   7.267  71.308  1.00  0.00    -0.366 C  
BRANCH  11  12
HETATM   12  N   UNL     1     -11.646   6.193  71.321  1.00  0.00    -0.263 N  
HETATM   13  C   UNL     1     -11.184   5.556  72.532  1.00  0.00    -0.274 C  
HETATM   14  C   UNL     1      -9.768   5.150  72.173  1.00  0.00    -0.205 C  
HETATM   15  C   UNL     1      -9.856   4.836  70.681  1.00  0.00    -0.292 C  
HETATM   16  C   UNL     1     -10.913   5.804  70.213  1.00  0.00    -0.276 C  
HETATM   17  O   UNL     1     -11.099   6.164  69.061  1.00  0.00    -0.353 OA 
ENDBRANCH  11  12
ENDBRANCH   8  11
ENDBRANCH   6   7
ENDBRANCH   5   6
ENDBRANCH   4   5
BRANCH   4  18
HETATM   18  C   UNL     1     -11.235  13.284  68.295  1.00  0.00    -0.277 C  
HETATM   19  C   UNL     1      -9.794  13.820  68.111  1.00  0.00    -0.239 C  
HETATM   20  C   UNL     1     -12.121  14.290  67.536  1.00  0.00    -0.347 C  
ENDBRANCH   4  18
ENDBRANCH   2   4
TORSDOF 7
ENDMDL
MODEL       94
REMARK 921   NORMALIZED FREE ENERGY PREDICTED BY IDOCK:   -4.04 KCAL/MOL
REMARK 922        TOTAL FREE ENERGY PREDICTED BY IDOCK:   -6.71 KCAL/MOL
REMARK 923 INTER-LIGAND FREE ENERGY PREDICTED BY IDOCK:   -5.97 KCAL/MOL
REMARK 924 INTRA-LIGAND FREE ENERGY PREDICTED BY IDOCK:   -0.74 KCAL/MOL
REMARK 927      BINDING AFFINITY PREDICTED BY RF-SCORE:    0.00 PKD
ROOT
HETATM    1  C   UNL     1      -7.944  16.172  67.409  1.00  0.00    -0.185 C  
HETATM    2  C   UNL     1      -7.793  17.593  66.814  1.00  0.00    -0.234 C  
HETATM    3  C   UNL     1      -6.491  17.557  65.996  1.00  0.00    -0.227 C  
ENDROOT
BRANCH   2   4
HETATM    4  N   UNL     1      -9.031  18.021  66.081  1.00  0.00    -0.500 NA 
BRANCH   4   5
HETATM    5  C   UNL     1     -10.165  17.079  66.366  1.00  0.00    -0.326 C  
BRANCH   5   6
HETATM    6  C   UNL     1     -10.722  16.295  65.150  1.00  0.00    -0.331 C  
BRANCH   6   7
HETATM    7  N   UNL     1     -10.528  14.856  65.232  1.00  0.00    -0.374 N  
HETATM    8  C   UNL     1     -11.551  13.981  64.938  1.00  0.00    -0.367 C  
HETATM    9  H   UNL     1      -9.619  14.488  65.513  1.00  0.00     0.000 HD 
HETATM   10  O   UNL     1     -12.683  14.372  64.657  1.00  0.00    -0.655 OA 
BRANCH   8  11
HETATM   11  C   UNL     1     -11.196  12.489  65.018  1.00  0.00    -0.306 C  
BRANCH  11  12
HETATM   12  N   UNL     1     -10.893  12.112  66.386  1.00  0.00    -0.260 N  
HETATM   13  C   UNL     1     -11.906  11.795  67.364  1.00  0.00    -0.135 C  
HETATM   14  C   UNL     1     -11.258  12.228  68.664  1.00  0.00    -0.305 C  
HETATM   15  C   UNL     1      -9.775  11.955  68.430  1.00  0.00    -0.201 C  
HETATM   16  C   UNL     1      -9.633  12.210  66.950  1.00  0.00    -0.206 C  
HETATM   17  O   UNL     1      -8.591  12.442  66.358  1.00  0.00    -0.075 OA 
ENDBRANCH  11  12
ENDBRANCH   8  11
ENDBRANCH   6   7
ENDBRANCH   5   6
ENDBRANCH   4   5
BRANCH   4  18
HETATM   18  C   UNL     1      -9.453  19.451  66.230  1.00  0.00    -0.368 C  
HETATM   19  C   UNL     1      -8.486  20.251  67.136  1.00  0.00    -0.407 C  
HETATM   20  C   UNL     1     -10.845  19.685  66.848  1.00  0.00    -0.505 C  
ENDBRANCH   4  18
ENDBRANCH   2   4
TORSDOF 7
ENDMDL
MODEL       95
REMARK 921   NORMALIZED FREE ENERGY PREDICTED BY IDOCK:   -4.03 KCAL/MOL
REMARK 922        TOTAL FREE ENERGY PREDICTED BY IDOCK:   -6.69 KCAL/MOL
REMARK 923 INTER-LIGAND FREE ENERGY PREDICTED BY IDOCK:   -6.06 KCAL/MOL
REMARK 924 INTRA-LIGAND FREE ENERGY PREDICTED BY IDOCK:   -0.64 KCAL/MOL
REMARK 927      BINDING AFFINITY PREDICTED BY RF-SCORE:    0.00 PKD
ROOT
HETATM    1  C   UNL     1     -10.429   9.287  66.954  1.00  0.00    -0.284 C  
HETATM    2  C   UNL     1      -9.478  10.038  67.918  1.00  0.00    -0.144 C  
HETATM    3  C   UNL     1      -8.231  10.371  67.083  1.00  0.00    -0.122 C  
ENDROOT
BRANCH   2   4
HETATM    4  N   UNL     1     -10.165  11.194  68.585  1.00  0.00    -0.198 NA 
BRANCH   4   5
HETATM    5  C   UNL     1     -10.558  12.229  67.572  1.00  0.00    -0.218 C  
BRANCH   5   6
HETATM    6  C   UNL     1      -9.704  13.522  67.550  1.00  0.00    -0.228 C  
BRANCH   6   7
HETATM    7  N   UNL     1     -10.482  14.750  67.605  1.00  0.00    -0.252 N  
HETATM    8  C   UNL     1     -10.159  15.761  68.483  1.00  0.00    -0.215 C  
HETATM    9  H   UNL     1     -11.281  14.864  66.982  1.00  0.00     0.000 HD 
HETATM   10  O   UNL     1      -9.246  15.648  69.300  1.00  0.00    -0.237 OA 
BRANCH   8  11
HETATM   11  C   UNL     1     -11.033  17.020  68.402  1.00  0.00    -0.263 C  
BRANCH  11  12
HETATM   12  N   UNL     1     -10.310  18.099  67.756  1.00  0.00    -0.382 N  
HETATM   13  C   UNL     1      -9.847  19.274  68.456  1.00  0.00    -0.424 C  
HETATM   14  C   UNL     1      -9.896  20.341  67.380  1.00  0.00    -0.586 C  
HETATM   15  C   UNL     1      -9.569  19.573  66.103  1.00  0.00    -0.431 C  
HETATM   16  C   UNL     1     -10.165  18.216  66.385  1.00  0.00    -0.399 C  
HETATM   17  O   UNL     1     -10.448  17.369  65.553  1.00  0.00    -0.624 OA 
ENDBRANCH  11  12
ENDBRANCH   8  11
ENDBRANCH   6   7
ENDBRANCH   5   6
ENDBRANCH   4   5
BRANCH   4  18
HETATM   18  C   UNL     1     -11.296  10.874  69.512  1.00  0.00    -0.283 C  
HETATM   19  C   UNL     1     -11.912  12.147  70.141  1.00  0.00    -0.394 C  
HETATM   20  C   UNL     1     -10.952   9.977  70.716  1.00  0.00    -0.375 C  
ENDBRANCH   4  18
ENDBRANCH   2   4
TORSDOF 7
ENDMDL
MODEL       96
REMARK 921   NORMALIZED FREE ENERGY PREDICTED BY IDOCK:   -4.03 KCAL/MOL
REMARK 922        TOTAL FREE ENERGY PREDICTED BY IDOCK:   -6.69 KCAL/MOL
REMARK 923 INTER-LIGAND FREE ENERGY PREDICTED BY IDOCK:   -5.77 KCAL/MOL
REMARK 924 INTRA-LIGAND FREE ENERGY PREDICTED BY IDOCK:   -0.92 KCAL/MOL
REMARK 927      BINDING AFFINITY PREDICTED BY RF-SCORE:    0.00 PKD
ROOT
HETATM    1  C   UNL     1      -8.784  14.848  68.309  1.00  0.00    -0.166 C  
HETATM    2  C   UNL     1      -9.274  13.977  67.127  1.00  0.00    -0.235 C  
HETATM    3  C   UNL     1      -8.383  12.724  67.147  1.00  0.00    -0.164 C  
ENDROOT
BRANCH   2   4
HETATM    4  N   UNL     1     -10.756  13.744  67.187  1.00  0.00    -0.280 NA 
BRANCH   4   5
HETATM    5  C   UNL     1     -11.308  14.199  68.507  1.00  0.00    -0.283 C  
BRANCH   5   6
HETATM    6  C   UNL     1     -11.846  13.086  69.442  1.00  0.00    -0.322 C  
BRANCH   6   7
HETATM    7  N   UNL     1     -10.947  11.952  69.593  1.00  0.00    -0.467 N  
HETATM    8  C   UNL     1     -11.088  10.821  68.818  1.00  0.00    -0.259 C  
HETATM    9  H   UNL     1     -10.199  11.994  70.285  1.00  0.00     0.000 HD 
HETATM   10  O   UNL     1     -12.011  10.693  68.015  1.00  0.00    -0.457 OA 
BRANCH   8  11
HETATM   11  C   UNL     1     -10.043   9.721  69.047  1.00  0.00    -0.187 C  
BRANCH  11  12
HETATM   12  N   UNL     1     -10.269   9.062  70.320  1.00  0.00    -0.190 N  
HETATM   13  C   UNL     1     -11.567   8.605  70.757  1.00  0.00    -0.242 C  
HETATM   14  C   UNL     1     -11.475   8.737  72.264  1.00  0.00    -0.376 C  
HETATM   15  C   UNL     1     -10.006   8.446  72.557  1.00  0.00    -0.356 C  
HETATM   16  C   UNL     1      -9.321   8.985  71.326  1.00  0.00    -0.254 C  
HETATM   17  O   UNL     1      -8.141   9.280  71.232  1.00  0.00    -0.320 OA 
ENDBRANCH  11  12
ENDBRANCH   8  11
ENDBRANCH   6   7
ENDBRANCH   5   6
ENDBRANCH   4   5
BRANCH   4  18
HETATM   18  C   UNL     1     -11.575  14.256  66.043  1.00  0.00    -0.360 C  
HETATM   19  C   UNL     1     -11.922  13.137  65.030  1.00  0.00    -0.423 C  
HETATM   20  C   UNL     1     -10.927  15.362  65.188  1.00  0.00    -0.430 C  
ENDBRANCH   4  18
ENDBRANCH   2   4
TORSDOF 7
ENDMDL
MODEL       97
REMARK 921   NORMALIZED FREE ENERGY PREDICTED BY IDOCK:   -4.02 KCAL/MOL
REMARK 922        TOTAL FREE ENERGY PREDICTED BY IDOCK:   -6.68 KCAL/MOL
REMARK 923 INTER-LIGAND FREE ENERGY PREDICTED BY IDOCK:   -6.00 KCAL/MOL
REMARK 924 INTRA-LIGAND FREE ENERGY PREDICTED BY IDOCK:   -0.68 KCAL/MOL
REMARK 927      BINDING AFFINITY PREDICTED BY RF-SCORE:    0.00 PKD
ROOT
HETATM    1  C   UNL     1      -8.976   7.561  69.643  1.00  0.00    -0.141 C  
HETATM    2  C   UNL     1     -10.495   7.846  69.554  1.00  0.00    -0.226 C  
HETATM    3  C   UNL     1     -11.164   6.465  69.454  1.00  0.00    -0.459 C  
ENDROOT
BRANCH   2   4
HETATM    4  N   UNL     1     -10.958   8.733  70.674  1.00  0.00    -0.231 NA 
BRANCH   4   5
HETATM    5  C   UNL     1     -11.595   9.979  70.130  1.00  0.00    -0.252 C  
BRANCH   5   6
HETATM    6  C   UNL     1     -10.744  10.797  69.125  1.00  0.00    -0.227 C  
BRANCH   6   7
HETATM    7  N   UNL     1     -10.971  12.233  69.186  1.00  0.00    -0.394 N  
HETATM    8  C   UNL     1     -11.657  12.890  68.188  1.00  0.00    -0.336 C  
HETATM    9  H   UNL     1     -10.615  12.763  69.981  1.00  0.00     0.000 HD 
HETATM   10  O   UNL     1     -12.051  12.310  67.177  1.00  0.00    -0.560 OA 
BRANCH   8  11
HETATM   11  C   UNL     1     -11.867  14.395  68.402  1.00  0.00    -0.319 C  
BRANCH  11  12
HETATM   12  N   UNL     1     -10.791  15.150  67.787  1.00  0.00    -0.283 N  
HETATM   13  C   UNL     1     -10.699  15.385  66.366  1.00  0.00    -0.311 C  
HETATM   14  C   UNL     1      -9.202  15.468  66.141  1.00  0.00    -0.379 C  
HETATM   15  C   UNL     1      -8.682  16.088  67.435  1.00  0.00    -0.195 C  
HETATM   16  C   UNL     1      -9.648  15.547  68.459  1.00  0.00    -0.203 C  
HETATM   17  O   UNL     1      -9.460  15.489  69.664  1.00  0.00    -0.273 OA 
ENDBRANCH  11  12
ENDBRANCH   8  11
ENDBRANCH   6   7
ENDBRANCH   5   6
ENDBRANCH   4   5
BRANCH   4  18
HETATM   18  C   UNL     1     -11.801   8.104  71.739  1.00  0.00    -0.300 C  
HETATM   19  C   UNL     1     -12.860   9.086  72.298  1.00  0.00    -0.474 C  
HETATM   20  C   UNL     1     -11.051   7.596  72.985  1.00  0.00    -0.437 C  
ENDBRANCH   4  18
ENDBRANCH   2   4
TORSDOF 7
ENDMDL
MODEL       98
REMARK 921   NORMALIZED FREE ENERGY PREDICTED BY IDOCK:   -4.01 KCAL/MOL
REMARK 922        TOTAL FREE ENERGY PREDICTED BY IDOCK:   -6.66 KCAL/MOL
REMARK 923 INTER-LIGAND FREE ENERGY PREDICTED BY IDOCK:   -5.59 KCAL/MOL
REMARK 924 INTRA-LIGAND FREE ENERGY PREDICTED BY IDOCK:   -1.08 KCAL/MOL
REMARK 927      BINDING AFFINITY PREDICTED BY RF-SCORE:    0.00 PKD
ROOT
HETATM    1  C   UNL     1     -10.718   6.519  73.424  1.00  0.00    -0.295 C  
HETATM    2  C   UNL     1     -10.745   7.964  72.869  1.00  0.00    -0.375 C  
HETATM    3  C   UNL     1      -9.276   8.319  72.583  1.00  0.00    -0.345 C  
ENDROOT
BRANCH   2   4
HETATM    4  N   UNL     1     -11.701   8.098  71.719  1.00  0.00    -0.279 NA 
BRANCH   4   5
HETATM    5  C   UNL     1     -12.087   6.745  71.195  1.00  0.00    -0.370 C  
BRANCH   5   6
HETATM    6  C   UNL     1     -11.406   6.306  69.874  1.00  0.00    -0.434 C  
BRANCH   6   7
HETATM    7  N   UNL     1     -10.539   7.317  69.288  1.00  0.00    -0.222 N  
HETATM    8  C   UNL     1     -10.447   7.475  67.923  1.00  0.00    -0.204 C  
HETATM    9  H   UNL     1      -9.988   7.919  69.900  1.00  0.00     0.000 HD 
HETATM   10  O   UNL     1     -11.039   6.733  67.140  1.00  0.00    -0.384 OA 
BRANCH   8  11
HETATM   11  C   UNL     1      -9.533   8.610  67.441  1.00  0.00    -0.150 C  
BRANCH  11  12
HETATM   12  N   UNL     1     -10.155   9.899  67.680  1.00  0.00    -0.185 N  
HETATM   13  C   UNL     1     -10.859  10.640  66.660  1.00  0.00    -0.131 C  
HETATM   14  C   UNL     1     -10.630  12.079  67.079  1.00  0.00    -0.258 C  
HETATM   15  C   UNL     1     -10.580  12.002  68.602  1.00  0.00    -0.253 C  
HETATM   16  C   UNL     1      -9.971  10.641  68.833  1.00  0.00    -0.204 C  
HETATM   17  O   UNL     1      -9.432  10.260  69.860  1.00  0.00    -0.169 OA 
ENDBRANCH  11  12
ENDBRANCH   8  11
ENDBRANCH   6   7
ENDBRANCH   5   6
ENDBRANCH   4   5
BRANCH   4  18
HETATM   18  C   UNL     1     -12.900   8.971  71.926  1.00  0.00    -0.387 C  
HETATM   19  C   UNL     1     -14.220   8.163  71.892  1.00  0.00    -0.530 C  
HETATM   20  C   UNL     1     -13.107  10.093  70.891  1.00  0.00    -0.412 C  
ENDBRANCH   4  18
ENDBRANCH   2   4
TORSDOF 7
ENDMDL
MODEL       99
REMARK 921   NORMALIZED FREE ENERGY PREDICTED BY IDOCK:   -3.99 KCAL/MOL
REMARK 922        TOTAL FREE ENERGY PREDICTED BY IDOCK:   -6.63 KCAL/MOL
REMARK 923 INTER-LIGAND FREE ENERGY PREDICTED BY IDOCK:   -5.86 KCAL/MOL
REMARK 924 INTRA-LIGAND FREE ENERGY PREDICTED BY IDOCK:   -0.77 KCAL/MOL
REMARK 927      BINDING AFFINITY PREDICTED BY RF-SCORE:    0.00 PKD
ROOT
HETATM    1  C   UNL     1      -7.111   7.953  69.548  1.00  0.00    -0.059 C  
HETATM    2  C   UNL     1      -8.261   7.727  70.560  1.00  0.00    -0.120 C  
HETATM    3  C   UNL     1      -7.574   7.300  71.868  1.00  0.00    -0.085 C  
ENDROOT
BRANCH   2   4
HETATM    4  N   UNL     1      -9.170   8.918  70.641  1.00  0.00    -0.194 NA 
BRANCH   4   5
HETATM    5  C   UNL     1      -8.701  10.003  69.715  1.00  0.00    -0.179 C  
BRANCH   5   6
HETATM    6  C   UNL     1      -9.745  10.530  68.698  1.00  0.00    -0.173 C  
BRANCH   6   7
HETATM    7  N   UNL     1     -10.239  11.867  68.992  1.00  0.00    -0.417 N  
HETATM    8  C   UNL     1     -11.543  12.220  68.726  1.00  0.00    -0.330 C  
HETATM    9  H   UNL     1      -9.607  12.555  69.401  1.00  0.00     0.000 HD 
HETATM   10  O   UNL     1     -12.328  11.450  68.174  1.00  0.00    -0.502 OA 
BRANCH   8  11
HETATM   11  C   UNL     1     -11.945  13.646  69.130  1.00  0.00    -0.351 C  
BRANCH  11  12
HETATM   12  N   UNL     1     -12.259  13.703  70.545  1.00  0.00    -0.358 N  
HETATM   13  C   UNL     1     -12.876  12.614  71.265  1.00  0.00    -0.250 C  
HETATM   14  C   UNL     1     -13.666  13.333  72.340  1.00  0.00    -0.678 C  
HETATM   15  C   UNL     1     -12.815  14.563  72.644  1.00  0.00    -0.498 C  
HETATM   16  C   UNL     1     -12.192  14.859  71.303  1.00  0.00    -0.325 C  
HETATM   17  O   UNL     1     -11.701  15.922  70.958  1.00  0.00    -0.369 OA 
ENDBRANCH  11  12
ENDBRANCH   8  11
ENDBRANCH   6   7
ENDBRANCH   5   6
ENDBRANCH   4   5
BRANCH   4  18
HETATM   18  C   UNL     1     -10.639   8.667  70.494  1.00  0.00    -0.217 C  
HETATM   19  C   UNL     1     -11.440   9.170  71.720  1.00  0.00    -0.452 C  
HETATM   20  C   UNL     1     -11.062   7.194  70.336  1.00  0.00    -0.309 C  
ENDBRANCH   4  18
ENDBRANCH   2   4
TORSDOF 7
ENDMDL
MODEL      100
REMARK 921   NORMALIZED FREE ENERGY PREDICTED BY IDOCK:   -3.99 KCAL/MOL
REMARK 922        TOTAL FREE ENERGY PREDICTED BY IDOCK:   -6.63 KCAL/MOL
REMARK 923 INTER-LIGAND FREE ENERGY PREDICTED BY IDOCK:   -5.95 KCAL/MOL
REMARK 924 INTRA-LIGAND FREE ENERGY PREDICTED BY IDOCK:   -0.68 KCAL/MOL
REMARK 927      BINDING AFFINITY PREDICTED BY RF-SCORE:    0.00 PKD
ROOT
HETATM    1  C   UNL     1     -11.908   9.139  71.767  1.00  0.00    -0.453 C  
HETATM    2  C   UNL     1     -12.110   7.636  71.453  1.00  0.00    -0.316 C  
HETATM    3  C   UNL     1     -13.633   7.432  71.402  1.00  0.00    -0.410 C  
ENDROOT
BRANCH   2   4
HETATM    4  N   UNL     1     -11.337   7.215  70.237  1.00  0.00    -0.282 NA 
BRANCH   4   5
HETATM    5  C   UNL     1     -10.364   8.285  69.834  1.00  0.00    -0.218 C  
BRANCH   5   6
HETATM    6  C   UNL     1     -10.477   8.795  68.375  1.00  0.00    -0.176 C  
BRANCH   6   7
HETATM    7  N   UNL     1     -11.321   9.970  68.220  1.00  0.00    -0.531 N  
HETATM    8  C   UNL     1     -10.792  11.241  68.278  1.00  0.00    -0.205 C  
HETATM    9  H   UNL     1     -12.322   9.851  68.065  1.00  0.00     0.000 HD 
HETATM   10  O   UNL     1      -9.604  11.442  68.526  1.00  0.00    -0.185 OA 
BRANCH   8  11
HETATM   11  C   UNL     1     -11.785  12.389  68.050  1.00  0.00    -0.356 C  
BRANCH  11  12
HETATM   12  N   UNL     1     -11.827  13.262  69.208  1.00  0.00    -0.322 N  
HETATM   13  C   UNL     1     -12.124  12.795  70.542  1.00  0.00    -0.285 C  
HETATM   14  C   UNL     1     -12.791  14.001  71.173  1.00  0.00    -0.427 C  
HETATM   15  C   UNL     1     -12.092  15.184  70.508  1.00  0.00    -0.390 C  
HETATM   16  C   UNL     1     -11.789  14.643  69.133  1.00  0.00    -0.312 C  
HETATM   17  O   UNL     1     -11.538  15.307  68.140  1.00  0.00    -0.337 OA 
ENDBRANCH  11  12
ENDBRANCH   8  11
ENDBRANCH   6   7
ENDBRANCH   5   6
ENDBRANCH   4   5
BRANCH   4  18
HETATM   18  C   UNL     1     -10.688   5.866  70.274  1.00  0.00    -0.313 C  
HETATM   19  C   UNL     1     -10.605   5.300  71.712  1.00  0.00    -0.268 C  
HETATM   20  C   UNL     1      -9.242   5.797  69.747  1.00  0.00    -0.161 C  
ENDBRANCH   4  18
ENDBRANCH   2   4
TORSDOF 7
ENDMDL
MODEL      101
REMARK 921   NORMALIZED FREE ENERGY PREDICTED BY IDOCK:   -3.98 KCAL/MOL
REMARK 922        TOTAL FREE ENERGY PREDICTED BY IDOCK:   -6.62 KCAL/MOL
REMARK 923 INTER-LIGAND FREE ENERGY PREDICTED BY IDOCK:   -5.96 KCAL/MOL
REMARK 924 INTRA-LIGAND FREE ENERGY PREDICTED BY IDOCK:   -0.66 KCAL/MOL
REMARK 927      BINDING AFFINITY PREDICTED BY RF-SCORE:    0.00 PKD
ROOT
HETATM    1  C   UNL     1      -8.601   9.935  67.421  1.00  0.00    -0.125 C  
HETATM    2  C   UNL     1      -8.962   8.717  66.536  1.00  0.00    -0.154 C  
HETATM    3  C   UNL     1     -10.343   8.252  67.026  1.00  0.00    -0.393 C  
ENDROOT
BRANCH   2   4
HETATM    4  N   UNL     1      -8.845   9.040  65.074  1.00  0.00    -0.192 NA 
BRANCH   4   5
HETATM    5  C   UNL     1      -9.035  10.511  64.843  1.00  0.00    -0.199 C  
BRANCH   5   6
HETATM    6  C   UNL     1     -10.429  10.945  64.325  1.00  0.00    -0.335 C  
BRANCH   6   7
HETATM    7  N   UNL     1     -11.030  12.036  65.076  1.00  0.00    -0.298 N  
HETATM    8  C   UNL     1     -11.832  12.971  64.460  1.00  0.00    -0.377 C  
HETATM    9  H   UNL     1     -10.853  12.111  66.078  1.00  0.00     0.000 HD 
HETATM   10  O   UNL     1     -12.025  12.965  63.245  1.00  0.00    -0.555 OA 
BRANCH   8  11
HETATM   11  C   UNL     1     -12.440  14.040  65.379  1.00  0.00    -0.498 C  
BRANCH  11  12
HETATM   12  N   UNL     1     -11.436  15.019  65.752  1.00  0.00    -0.289 N  
HETATM   13  C   UNL     1     -10.727  14.989  67.009  1.00  0.00    -0.304 C  
HETATM   14  C   UNL     1     -10.451  16.457  67.269  1.00  0.00    -0.303 C  
HETATM   15  C   UNL     1     -10.266  17.037  65.870  1.00  0.00    -0.311 C  
HETATM   16  C   UNL     1     -11.199  16.185  65.045  1.00  0.00    -0.220 C  
HETATM   17  O   UNL     1     -11.646  16.468  63.945  1.00  0.00    -1.175 OA 
ENDBRANCH  11  12
ENDBRANCH   8  11
ENDBRANCH   6   7
ENDBRANCH   5   6
ENDBRANCH   4   5
BRANCH   4  18
HETATM   18  C   UNL     1      -7.638   8.522  64.355  1.00  0.00    -0.117 C  
HETATM   19  C   UNL     1      -7.981   7.327  63.431  1.00  0.00    -0.069 C  
HETATM   20  C   UNL     1      -6.490   8.006  65.243  1.00  0.00    -0.048 C  
ENDBRANCH   4  18
ENDBRANCH   2   4
TORSDOF 7
ENDMDL
MODEL      102
REMARK 921   NORMALIZED FREE ENERGY PREDICTED BY IDOCK:   -3.97 KCAL/MOL
REMARK 922        TOTAL FREE ENERGY PREDICTED BY IDOCK:   -6.61 KCAL/MOL
REMARK 923 INTER-LIGAND FREE ENERGY PREDICTED BY IDOCK:   -5.39 KCAL/MOL
REMARK 924 INTRA-LIGAND FREE ENERGY PREDICTED BY IDOCK:   -1.22 KCAL/MOL
REMARK 927      BINDING AFFINITY PREDICTED BY RF-SCORE:    0.00 PKD
ROOT
HETATM    1  C   UNL     1      -9.359   9.336  70.590  1.00  0.00    -0.329 C  
HETATM    2  C   UNL     1     -10.715   8.965  71.238  1.00  0.00    -0.287 C  
HETATM    3  C   UNL     1     -11.681  10.090  70.834  1.00  0.00    -0.462 C  
ENDROOT
BRANCH   2   4
HETATM    4  N   UNL     1     -11.133   7.566  70.887  1.00  0.00    -0.258 NA 
BRANCH   4   5
HETATM    5  C   UNL     1     -10.244   7.005  69.815  1.00  0.00    -0.201 C  
BRANCH   5   6
HETATM    6  C   UNL     1     -10.898   6.803  68.424  1.00  0.00    -0.223 C  
BRANCH   6   7
HETATM    7  N   UNL     1     -10.910   7.999  67.595  1.00  0.00    -0.506 N  
HETATM    8  C   UNL     1      -9.852   8.303  66.766  1.00  0.00    -0.263 C  
HETATM    9  H   UNL     1     -11.716   8.623  67.627  1.00  0.00     0.000 HD 
HETATM   10  O   UNL     1      -8.830   7.620  66.737  1.00  0.00    -0.126 OA 
BRANCH   8  11
HETATM   11  C   UNL     1     -10.017   9.567  65.911  1.00  0.00    -0.272 C  
BRANCH  11  12
HETATM   12  N   UNL     1      -9.738  10.754  66.699  1.00  0.00    -0.185 N  
HETATM   13  C   UNL     1      -8.403  11.245  66.947  1.00  0.00    -0.155 C  
HETATM   14  C   UNL     1      -8.540  11.901  68.307  1.00  0.00    -0.162 C  
HETATM   15  C   UNL     1      -9.969  12.437  68.301  1.00  0.00    -0.224 C  
HETATM   16  C   UNL     1     -10.689  11.417  67.455  1.00  0.00    -0.232 C  
HETATM   17  O   UNL     1     -11.894  11.226  67.430  1.00  0.00    -0.590 OA 
ENDBRANCH  11  12
ENDBRANCH   8  11
ENDBRANCH   6   7
ENDBRANCH   5   6
ENDBRANCH   4   5
BRANCH   4  18
HETATM   18  C   UNL     1     -11.307   6.601  72.018  1.00  0.00    -0.280 C  
HETATM   19  C   UNL     1     -10.829   7.193  73.366  1.00  0.00    -0.360 C  
HETATM   20  C   UNL     1     -10.550   5.266  71.892  1.00  0.00    -0.274 C  
ENDBRANCH   4  18
ENDBRANCH   2   4
TORSDOF 7
ENDMDL
MODEL      103
REMARK 921   NORMALIZED FREE ENERGY PREDICTED BY IDOCK:   -3.97 KCAL/MOL
REMARK 922        TOTAL FREE ENERGY PREDICTED BY IDOCK:   -6.60 KCAL/MOL
REMARK 923 INTER-LIGAND FREE ENERGY PREDICTED BY IDOCK:   -5.80 KCAL/MOL
REMARK 924 INTRA-LIGAND FREE ENERGY PREDICTED BY IDOCK:   -0.80 KCAL/MOL
REMARK 927      BINDING AFFINITY PREDICTED BY RF-SCORE:    0.00 PKD
ROOT
HETATM    1  C   UNL     1      -6.855  11.375  67.847  1.00  0.00    -0.072 C  
HETATM    2  C   UNL     1      -8.131  12.186  68.179  1.00  0.00    -0.161 C  
HETATM    3  C   UNL     1      -7.981  13.512  67.415  1.00  0.00    -0.165 C  
ENDROOT
BRANCH   2   4
HETATM    4  N   UNL     1      -9.377  11.394  67.907  1.00  0.00    -0.159 NA 
BRANCH   4   5
HETATM    5  C   UNL     1      -9.031  10.014  67.428  1.00  0.00    -0.131 C  
BRANCH   5   6
HETATM    6  C   UNL     1      -9.865   9.476  66.237  1.00  0.00    -0.266 C  
BRANCH   6   7
HETATM    7  N   UNL     1     -10.339  10.509  65.329  1.00  0.00    -0.267 N  
HETATM    8  C   UNL     1      -9.595  10.895  64.236  1.00  0.00    -0.272 C  
HETATM    9  H   UNL     1     -11.238  10.956  65.506  1.00  0.00     0.000 HD 
HETATM   10  O   UNL     1      -8.476  10.434  64.014  1.00  0.00    -0.170 OA 
BRANCH   8  11
HETATM   11  C   UNL     1     -10.235  11.960  63.335  1.00  0.00    -0.449 C  
BRANCH  11  12
HETATM   12  N   UNL     1     -10.957  12.933  64.132  1.00  0.00    -0.385 N  
HETATM   13  C   UNL     1     -10.305  13.928  64.951  1.00  0.00    -0.406 C  
HETATM   14  C   UNL     1     -11.296  14.127  66.081  1.00  0.00    -0.337 C  
HETATM   15  C   UNL     1     -12.649  13.913  65.409  1.00  0.00    -0.538 C  
HETATM   16  C   UNL     1     -12.323  12.886  64.353  1.00  0.00    -0.398 C  
HETATM   17  O   UNL     1     -13.123  12.161  63.785  1.00  0.00    -0.774 OA 
ENDBRANCH  11  12
ENDBRANCH   8  11
ENDBRANCH   6   7
ENDBRANCH   5   6
ENDBRANCH   4   5
BRANCH   4  18
HETATM   18  C   UNL     1     -10.413  11.358  68.987  1.00  0.00    -0.168 C  
HETATM   19  C   UNL     1     -10.294  10.088  69.864  1.00  0.00    -0.315 C  
HETATM   20  C   UNL     1     -11.880  11.368  68.519  1.00  0.00    -0.364 C  
ENDBRANCH   4  18
ENDBRANCH   2   4
TORSDOF 7
ENDMDL
MODEL      104
REMARK 921   NORMALIZED FREE ENERGY PREDICTED BY IDOCK:   -3.97 KCAL/MOL
REMARK 922        TOTAL FREE ENERGY PREDICTED BY IDOCK:   -6.60 KCAL/MOL
REMARK 923 INTER-LIGAND FREE ENERGY PREDICTED BY IDOCK:   -6.06 KCAL/MOL
REMARK 924 INTRA-LIGAND FREE ENERGY PREDICTED BY IDOCK:   -0.54 KCAL/MOL
REMARK 927      BINDING AFFINITY PREDICTED BY RF-SCORE:    0.00 PKD
ROOT
HETATM    1  C   UNL     1     -11.367  11.404  68.638  1.00  0.00    -0.327 C  
HETATM    2  C   UNL     1     -11.755  12.558  67.681  1.00  0.00    -0.361 C  
HETATM    3  C   UNL     1     -11.912  13.796  68.579  1.00  0.00    -0.402 C  
ENDROOT
BRANCH   2   4
HETATM    4  N   UNL     1     -10.788  12.678  66.538  1.00  0.00    -0.253 NA 
BRANCH   4   5
HETATM    5  C   UNL     1      -9.625  13.546  66.921  1.00  0.00    -0.258 C  
BRANCH   5   6
HETATM    6  C   UNL     1      -9.467  14.866  66.123  1.00  0.00    -0.295 C  
BRANCH   6   7
HETATM    7  N   UNL     1      -9.152  16.023  66.946  1.00  0.00    -0.215 N  
HETATM    8  C   UNL     1      -7.851  16.440  67.123  1.00  0.00    -0.189 C  
HETATM    9  H   UNL     1      -9.908  16.536  67.400  1.00  0.00     0.000 HD 
HETATM   10  O   UNL     1      -6.898  15.821  66.651  1.00  0.00    -0.162 OA 
BRANCH   8  11
HETATM   11  C   UNL     1      -7.665  17.704  67.975  1.00  0.00    -0.232 C  
BRANCH  11  12
HETATM   12  N   UNL     1      -8.577  18.746  67.543  1.00  0.00    -0.272 N  
HETATM   13  C   UNL     1      -9.788  19.084  68.252  1.00  0.00    -0.378 C  
HETATM   14  C   UNL     1     -10.700  19.563  67.140  1.00  0.00    -0.599 C  
HETATM   15  C   UNL     1      -9.740  20.215  66.149  1.00  0.00    -0.481 C  
HETATM   16  C   UNL     1      -8.494  19.382  66.316  1.00  0.00    -0.334 C  
HETATM   17  O   UNL     1      -7.572  19.301  65.520  1.00  0.00    -0.445 OA 
ENDBRANCH  11  12
ENDBRANCH   8  11
ENDBRANCH   6   7
ENDBRANCH   5   6
ENDBRANCH   4   5
BRANCH   4  18
HETATM   18  C   UNL     1     -10.336  11.406  65.890  1.00  0.00    -0.250 C  
HETATM   19  C   UNL     1      -8.809  11.193  66.030  1.00  0.00    -0.196 C  
HETATM   20  C   UNL     1     -10.605  11.284  64.378  1.00  0.00    -0.410 C  
ENDBRANCH   4  18
ENDBRANCH   2   4
TORSDOF 7
ENDMDL
MODEL      105
REMARK 921   NORMALIZED FREE ENERGY PREDICTED BY IDOCK:   -3.95 KCAL/MOL
REMARK 922        TOTAL FREE ENERGY PREDICTED BY IDOCK:   -6.58 KCAL/MOL
REMARK 923 INTER-LIGAND FREE ENERGY PREDICTED BY IDOCK:   -5.41 KCAL/MOL
REMARK 924 INTRA-LIGAND FREE ENERGY PREDICTED BY IDOCK:   -1.17 KCAL/MOL
REMARK 927      BINDING AFFINITY PREDICTED BY RF-SCORE:    0.00 PKD
ROOT
HETATM    1  C   UNL     1     -10.610  16.069  66.460  1.00  0.00    -0.284 C  
HETATM    2  C   UNL     1     -10.455  16.863  67.780  1.00  0.00    -0.340 C  
HETATM    3  C   UNL     1     -11.431  16.204  68.769  1.00  0.00    -0.340 C  
ENDROOT
BRANCH   2   4
HETATM    4  N   UNL     1      -9.019  16.945  68.212  1.00  0.00    -0.228 NA 
BRANCH   4   5
HETATM    5  C   UNL     1      -8.246  15.765  67.699  1.00  0.00    -0.151 C  
BRANCH   5   6
HETATM    6  C   UNL     1      -8.068  14.584  68.688  1.00  0.00    -0.150 C  
BRANCH   6   7
HETATM    7  N   UNL     1      -9.019  13.500  68.495  1.00  0.00    -0.329 N  
HETATM    8  C   UNL     1      -8.725  12.429  67.680  1.00  0.00    -0.178 C  
HETATM    9  H   UNL     1      -9.920  13.534  68.972  1.00  0.00     0.000 HD 
HETATM   10  O   UNL     1      -7.680  12.371  67.032  1.00  0.00    -0.144 OA 
BRANCH   8  11
HETATM   11  C   UNL     1      -9.796  11.333  67.605  1.00  0.00    -0.175 C  
BRANCH  11  12
HETATM   12  N   UNL     1     -10.696  11.578  66.493  1.00  0.00    -0.263 N  
HETATM   13  C   UNL     1     -10.442  11.114  65.150  1.00  0.00    -0.277 C  
HETATM   14  C   UNL     1     -11.117  12.172  64.301  1.00  0.00    -0.403 C  
HETATM   15  C   UNL     1     -12.309  12.603  65.151  1.00  0.00    -0.547 C  
HETATM   16  C   UNL     1     -11.776  12.442  66.553  1.00  0.00    -0.379 C  
HETATM   17  O   UNL     1     -12.229  12.965  67.558  1.00  0.00    -0.303 OA 
ENDBRANCH  11  12
ENDBRANCH   8  11
ENDBRANCH   6   7
ENDBRANCH   5   6
ENDBRANCH   4   5
BRANCH   4  18
HETATM   18  C   UNL     1      -8.299  18.231  67.948  1.00  0.00    -0.250 C  
HETATM   19  C   UNL     1      -9.210  19.463  68.171  1.00  0.00    -0.395 C  
HETATM   20  C   UNL     1      -7.742  18.415  66.524  1.00  0.00    -0.278 C  
ENDBRANCH   4  18
ENDBRANCH   2   4
TORSDOF 7
ENDMDL
MODEL      106
REMARK 921   NORMALIZED FREE ENERGY PREDICTED BY IDOCK:   -3.94 KCAL/MOL
REMARK 922        TOTAL FREE ENERGY PREDICTED BY IDOCK:   -6.56 KCAL/MOL
REMARK 923 INTER-LIGAND FREE ENERGY PREDICTED BY IDOCK:   -5.85 KCAL/MOL
REMARK 924 INTRA-LIGAND FREE ENERGY PREDICTED BY IDOCK:   -0.72 KCAL/MOL
REMARK 927      BINDING AFFINITY PREDICTED BY RF-SCORE:    0.00 PKD
ROOT
HETATM    1  C   UNL     1      -9.536  14.410  67.812  1.00  0.00    -0.216 C  
HETATM    2  C   UNL     1     -10.840  13.723  68.287  1.00  0.00    -0.250 C  
HETATM    3  C   UNL     1     -11.864  13.974  67.168  1.00  0.00    -0.444 C  
ENDROOT
BRANCH   2   4
HETATM    4  N   UNL     1     -10.603  12.290  68.668  1.00  0.00    -0.232 NA 
BRANCH   4   5
HETATM    5  C   UNL     1     -11.901  11.612  69.000  1.00  0.00    -0.328 C  
BRANCH   5   6
HETATM    6  C   UNL     1     -12.054  11.109  70.458  1.00  0.00    -0.381 C  
BRANCH   6   7
HETATM    7  N   UNL     1     -12.628   9.777  70.570  1.00  0.00    -0.512 N  
HETATM    8  C   UNL     1     -12.104   8.845  71.438  1.00  0.00    -0.322 C  
HETATM    9  H   UNL     1     -13.433   9.529  69.994  1.00  0.00     0.000 HD 
HETATM   10  O   UNL     1     -11.096   9.071  72.106  1.00  0.00    -0.350 OA 
BRANCH   8  11
HETATM   11  C   UNL     1     -12.836   7.496  71.491  1.00  0.00    -0.360 C  
BRANCH  11  12
HETATM   12  N   UNL     1     -11.885   6.401  71.464  1.00  0.00    -0.318 N  
HETATM   13  C   UNL     1     -11.403   5.739  72.653  1.00  0.00    -0.300 C  
HETATM   14  C   UNL     1     -10.007   5.308  72.249  1.00  0.00    -0.222 C  
HETATM   15  C   UNL     1     -10.143   5.015  70.757  1.00  0.00    -0.307 C  
HETATM   16  C   UNL     1     -11.192   6.011  70.331  1.00  0.00    -0.310 C  
HETATM   17  O   UNL     1     -11.402   6.389  69.189  1.00  0.00    -0.364 OA 
ENDBRANCH  11  12
ENDBRANCH   8  11
ENDBRANCH   6   7
ENDBRANCH   5   6
ENDBRANCH   4   5
BRANCH   4  18
HETATM   18  C   UNL     1      -9.772  11.464  67.736  1.00  0.00    -0.175 C  
HETATM   19  C   UNL     1     -10.539  10.222  67.220  1.00  0.00    -0.324 C  
HETATM   20  C   UNL     1      -8.464  10.896  68.317  1.00  0.00    -0.134 C  
ENDBRANCH   4  18
ENDBRANCH   2   4
TORSDOF 7
ENDMDL
MODEL      107
REMARK 921   NORMALIZED FREE ENERGY PREDICTED BY IDOCK:   -3.93 KCAL/MOL
REMARK 922        TOTAL FREE ENERGY PREDICTED BY IDOCK:   -6.55 KCAL/MOL
REMARK 923 INTER-LIGAND FREE ENERGY PREDICTED BY IDOCK:   -6.02 KCAL/MOL
REMARK 924 INTRA-LIGAND FREE ENERGY PREDICTED BY IDOCK:   -0.53 KCAL/MOL
REMARK 927      BINDING AFFINITY PREDICTED BY RF-SCORE:    0.00 PKD
ROOT
HETATM    1  C   UNL     1     -10.313  14.848  65.427  1.00  0.00    -0.413 C  
HETATM    2  C   UNL     1     -11.276  14.670  66.627  1.00  0.00    -0.349 C  
HETATM    3  C   UNL     1     -12.344  13.673  66.147  1.00  0.00    -0.476 C  
ENDROOT
BRANCH   2   4
HETATM    4  N   UNL     1     -10.536  14.306  67.882  1.00  0.00    -0.238 NA 
BRANCH   4   5
HETATM    5  C   UNL     1      -9.120  13.921  67.566  1.00  0.00    -0.201 C  
BRANCH   5   6
HETATM    6  C   UNL     1      -8.839  12.402  67.438  1.00  0.00    -0.188 C  
BRANCH   6   7
HETATM    7  N   UNL     1      -9.122  11.642  68.645  1.00  0.00    -0.336 N  
HETATM    8  C   UNL     1      -9.677  10.382  68.581  1.00  0.00    -0.175 C  
HETATM    9  H   UNL     1      -8.907  12.048  69.555  1.00  0.00     0.000 HD 
HETATM   10  O   UNL     1     -10.016   9.873  67.513  1.00  0.00    -0.168 OA 
BRANCH   8  11
HETATM   11  C   UNL     1      -9.879   9.672  69.927  1.00  0.00    -0.239 C  
BRANCH  11  12
HETATM   12  N   UNL     1     -11.199   9.956  70.458  1.00  0.00    -0.305 N  
HETATM   13  C   UNL     1     -12.109  10.902  69.856  1.00  0.00    -0.354 C  
HETATM   14  C   UNL     1     -12.892  11.413  71.050  1.00  0.00    -0.381 C  
HETATM   15  C   UNL     1     -12.954  10.204  71.979  1.00  0.00    -0.508 C  
HETATM   16  C   UNL     1     -11.645   9.512  71.691  1.00  0.00    -0.381 C  
HETATM   17  O   UNL     1     -11.092   8.694  72.408  1.00  0.00    -0.354 OA 
ENDBRANCH  11  12
ENDBRANCH   8  11
ENDBRANCH   6   7
ENDBRANCH   5   6
ENDBRANCH   4   5
BRANCH   4  18
HETATM   18  C   UNL     1     -10.602  15.278  69.019  1.00  0.00    -0.245 C  
HETATM   19  C   UNL     1     -11.962  15.217  69.757  1.00  0.00    -0.374 C  
HETATM   20  C   UNL     1     -10.429  16.763  68.651  1.00  0.00    -0.333 C  
ENDBRANCH   4  18
ENDBRANCH   2   4
TORSDOF 7
ENDMDL
MODEL      108
REMARK 921   NORMALIZED FREE ENERGY PREDICTED BY IDOCK:   -3.93 KCAL/MOL
REMARK 922        TOTAL FREE ENERGY PREDICTED BY IDOCK:   -6.55 KCAL/MOL
REMARK 923 INTER-LIGAND FREE ENERGY PREDICTED BY IDOCK:   -5.96 KCAL/MOL
REMARK 924 INTRA-LIGAND FREE ENERGY PREDICTED BY IDOCK:   -0.59 KCAL/MOL
REMARK 927      BINDING AFFINITY PREDICTED BY RF-SCORE:    0.00 PKD
ROOT
HETATM    1  C   UNL     1     -10.476   4.703  66.117  1.00  0.00    -0.281 C  
HETATM    2  C   UNL     1      -9.585   5.035  67.339  1.00  0.00    -0.145 C  
HETATM    3  C   UNL     1      -8.149   5.091  66.792  1.00  0.00    -0.108 C  
ENDROOT
BRANCH   2   4
HETATM    4  N   UNL     1     -10.072   6.257  68.064  1.00  0.00    -0.140 NA 
BRANCH   4   5
HETATM    5  C   UNL     1     -10.771   7.188  67.117  1.00  0.00    -0.352 C  
BRANCH   5   6
HETATM    6  C   UNL     1      -9.944   8.399  66.617  1.00  0.00    -0.284 C  
BRANCH   6   7
HETATM    7  N   UNL     1     -10.437   9.687  67.079  1.00  0.00    -0.246 N  
HETATM    8  C   UNL     1     -10.462  10.784  66.245  1.00  0.00    -0.226 C  
HETATM    9  H   UNL     1     -10.770   9.781  68.039  1.00  0.00     0.000 HD 
HETATM   10  O   UNL     1     -10.012  10.742  65.101  1.00  0.00    -0.250 OA 
BRANCH   8  11
HETATM   11  C   UNL     1     -11.052  12.067  66.846  1.00  0.00    -0.302 C  
BRANCH  11  12
HETATM   12  N   UNL     1     -11.122  13.112  65.842  1.00  0.00    -0.277 N  
HETATM   13  C   UNL     1     -10.094  14.110  65.664  1.00  0.00    -0.328 C  
HETATM   14  C   UNL     1     -10.878  15.306  65.159  1.00  0.00    -0.441 C  
HETATM   15  C   UNL     1     -12.006  14.674  64.348  1.00  0.00    -0.454 C  
HETATM   16  C   UNL     1     -12.254  13.387  65.095  1.00  0.00    -0.434 C  
HETATM   17  O   UNL     1     -13.263  12.704  65.033  1.00  0.00    -0.753 OA 
ENDBRANCH  11  12
ENDBRANCH   8  11
ENDBRANCH   6   7
ENDBRANCH   5   6
ENDBRANCH   4   5
BRANCH   4  18
HETATM   18  C   UNL     1     -10.871   6.036  69.311  1.00  0.00    -0.358 C  
HETATM   19  C   UNL     1     -11.027   7.335  70.139  1.00  0.00    -0.280 C  
HETATM   20  C   UNL     1     -10.302   5.009  70.308  1.00  0.00    -0.299 C  
ENDBRANCH   4  18
ENDBRANCH   2   4
TORSDOF 7
ENDMDL
MODEL      109
REMARK 921   NORMALIZED FREE ENERGY PREDICTED BY IDOCK:   -3.93 KCAL/MOL
REMARK 922        TOTAL FREE ENERGY PREDICTED BY IDOCK:   -6.55 KCAL/MOL
REMARK 923 INTER-LIGAND FREE ENERGY PREDICTED BY IDOCK:   -5.60 KCAL/MOL
REMARK 924 INTRA-LIGAND FREE ENERGY PREDICTED BY IDOCK:   -0.95 KCAL/MOL
REMARK 927      BINDING AFFINITY PREDICTED BY RF-SCORE:    0.00 PKD
ROOT
HETATM    1  C   UNL     1      -8.417  14.226  67.752  1.00  0.00    -0.177 C  
HETATM    2  C   UNL     1      -9.771  14.795  67.259  1.00  0.00    -0.230 C  
HETATM    3  C   UNL     1      -9.410  15.815  66.166  1.00  0.00    -0.381 C  
ENDROOT
BRANCH   2   4
HETATM    4  N   UNL     1     -10.721  13.701  66.865  1.00  0.00    -0.274 NA 
BRANCH   4   5
HETATM    5  C   UNL     1     -11.986  13.787  67.668  1.00  0.00    -0.356 C  
BRANCH   5   6
HETATM    6  C   UNL     1     -11.856  13.477  69.181  1.00  0.00    -0.340 C  
BRANCH   6   7
HETATM    7  N   UNL     1     -10.945  12.385  69.487  1.00  0.00    -0.461 N  
HETATM    8  C   UNL     1     -11.388  11.082  69.550  1.00  0.00    -0.287 C  
HETATM    9  H   UNL     1      -9.960  12.588  69.659  1.00  0.00     0.000 HD 
HETATM   10  O   UNL     1     -12.575  10.790  69.414  1.00  0.00    -0.314 OA 
BRANCH   8  11
HETATM   11  C   UNL     1     -10.312  10.024  69.834  1.00  0.00    -0.272 C  
BRANCH  11  12
HETATM   12  N   UNL     1     -10.078   9.209  68.657  1.00  0.00    -0.188 N  
HETATM   13  C   UNL     1      -9.530   9.731  67.427  1.00  0.00    -0.152 C  
HETATM   14  C   UNL     1     -10.167   8.842  66.377  1.00  0.00    -0.273 C  
HETATM   15  C   UNL     1     -10.301   7.496  67.085  1.00  0.00    -0.384 C  
HETATM   16  C   UNL     1     -10.535   7.910  68.516  1.00  0.00    -0.167 C  
HETATM   17  O   UNL     1     -11.023   7.216  69.394  1.00  0.00    -0.225 OA 
ENDBRANCH  11  12
ENDBRANCH   8  11
ENDBRANCH   6   7
ENDBRANCH   5   6
ENDBRANCH   4   5
BRANCH   4  18
HETATM   18  C   UNL     1     -11.006  13.537  65.404  1.00  0.00    -0.292 C  
HETATM   19  C   UNL     1     -12.520  13.627  65.094  1.00  0.00    -0.488 C  
HETATM   20  C   UNL     1     -10.561  12.205  64.773  1.00  0.00    -0.335 C  
ENDBRANCH   4  18
ENDBRANCH   2   4
TORSDOF 7
ENDMDL
MODEL      110
REMARK 921   NORMALIZED FREE ENERGY PREDICTED BY IDOCK:   -3.92 KCAL/MOL
REMARK 922        TOTAL FREE ENERGY PREDICTED BY IDOCK:   -6.54 KCAL/MOL
REMARK 923 INTER-LIGAND FREE ENERGY PREDICTED BY IDOCK:   -5.79 KCAL/MOL
REMARK 924 INTRA-LIGAND FREE ENERGY PREDICTED BY IDOCK:   -0.75 KCAL/MOL
REMARK 927      BINDING AFFINITY PREDICTED BY RF-SCORE:    0.00 PKD
ROOT
HETATM    1  C   UNL     1      -6.768  16.732  69.403  1.00  0.00    -0.226 C  
HETATM    2  C   UNL     1      -7.098  16.749  67.891  1.00  0.00    -0.141 C  
HETATM    3  C   UNL     1      -6.538  15.428  67.337  1.00  0.00    -0.150 C  
ENDROOT
BRANCH   2   4
HETATM    4  N   UNL     1      -8.555  17.014  67.644  1.00  0.00    -0.208 NA 
BRANCH   4   5
HETATM    5  C   UNL     1      -9.324  16.973  68.933  1.00  0.00    -0.224 C  
BRANCH   5   6
HETATM    6  C   UNL     1     -10.296  15.779  69.109  1.00  0.00    -0.240 C  
BRANCH   6   7
HETATM    7  N   UNL     1     -10.820  15.250  67.859  1.00  0.00    -0.279 N  
HETATM    8  C   UNL     1     -11.756  14.239  67.849  1.00  0.00    -0.359 C  
HETATM    9  H   UNL     1     -10.489  15.635  66.975  1.00  0.00     0.000 HD 
HETATM   10  O   UNL     1     -12.140  13.696  68.884  1.00  0.00    -0.347 OA 
BRANCH   8  11
HETATM   11  C   UNL     1     -12.259  13.810  66.464  1.00  0.00    -0.430 C  
BRANCH  11  12
HETATM   12  N   UNL     1     -11.301  12.927  65.826  1.00  0.00    -0.304 N  
HETATM   13  C   UNL     1     -10.562  13.285  64.638  1.00  0.00    -0.404 C  
HETATM   14  C   UNL     1     -10.358  11.944  63.959  1.00  0.00    -0.403 C  
HETATM   15  C   UNL     1     -10.236  10.969  65.127  1.00  0.00    -0.352 C  
HETATM   16  C   UNL     1     -11.141  11.593  66.160  1.00  0.00    -0.280 C  
HETATM   17  O   UNL     1     -11.628  11.026  67.125  1.00  0.00    -0.469 OA 
ENDBRANCH  11  12
ENDBRANCH   8  11
ENDBRANCH   6   7
ENDBRANCH   5   6
ENDBRANCH   4   5
BRANCH   4  18
HETATM   18  C   UNL     1      -8.902  18.225  66.835  1.00  0.00    -0.275 C  
HETATM   19  C   UNL     1      -7.691  19.174  66.661  1.00  0.00    -0.263 C  
HETATM   20  C   UNL     1     -10.017  19.122  67.403  1.00  0.00    -0.432 C  
ENDBRANCH   4  18
ENDBRANCH   2   4
TORSDOF 7
ENDMDL
MODEL      111
REMARK 921   NORMALIZED FREE ENERGY PREDICTED BY IDOCK:   -3.92 KCAL/MOL
REMARK 922        TOTAL FREE ENERGY PREDICTED BY IDOCK:   -6.53 KCAL/MOL
REMARK 923 INTER-LIGAND FREE ENERGY PREDICTED BY IDOCK:   -6.48 KCAL/MOL
REMARK 924 INTRA-LIGAND FREE ENERGY PREDICTED BY IDOCK:   -0.05 KCAL/MOL
REMARK 927      BINDING AFFINITY PREDICTED BY RF-SCORE:    0.00 PKD
ROOT
HETATM    1  C   UNL     1     -13.156  15.564  71.271  1.00  0.00    -0.581 C  
HETATM    2  C   UNL     1     -12.660  14.099  71.346  1.00  0.00    -0.368 C  
HETATM    3  C   UNL     1     -13.661  13.377  72.263  1.00  0.00    -0.705 C  
ENDROOT
BRANCH   2   4
HETATM    4  N   UNL     1     -12.460  13.510  69.979  1.00  0.00    -0.226 NA 
BRANCH   4   5
HETATM    5  C   UNL     1     -11.766  14.491  69.080  1.00  0.00    -0.311 C  
BRANCH   5   6
HETATM    6  C   UNL     1     -10.236  14.634  69.279  1.00  0.00    -0.147 C  
BRANCH   6   7
HETATM    7  N   UNL     1      -9.758  16.008  69.243  1.00  0.00    -0.248 N  
HETATM    8  C   UNL     1      -8.474  16.307  68.843  1.00  0.00    -0.253 C  
HETATM    9  H   UNL     1     -10.385  16.764  69.519  1.00  0.00     0.000 HD 
HETATM   10  O   UNL     1      -7.658  15.430  68.563  1.00  0.00    -0.115 OA 
BRANCH   8  11
HETATM   11  C   UNL     1      -8.116  17.799  68.806  1.00  0.00    -0.226 C  
BRANCH  11  12
HETATM   12  N   UNL     1      -9.029  18.518  67.936  1.00  0.00    -0.279 N  
HETATM   13  C   UNL     1      -8.954  18.471  66.495  1.00  0.00    -0.293 C  
HETATM   14  C   UNL     1      -9.481  19.834  66.092  1.00  0.00    -0.464 C  
HETATM   15  C   UNL     1     -10.515  20.149  67.170  1.00  0.00    -0.429 C  
HETATM   16  C   UNL     1      -9.927  19.472  68.383  1.00  0.00    -0.443 C  
HETATM   17  O   UNL     1     -10.209  19.711  69.546  1.00  0.00    -0.270 OA 
ENDBRANCH  11  12
ENDBRANCH   8  11
ENDBRANCH   6   7
ENDBRANCH   5   6
ENDBRANCH   4   5
BRANCH   4  18
HETATM   18  C   UNL     1     -11.829  12.154  69.906  1.00  0.00    -0.319 C  
HETATM   19  C   UNL     1     -11.693  11.655  68.447  1.00  0.00    -0.374 C  
HETATM   20  C   UNL     1     -12.575  11.021  70.634  1.00  0.00    -0.427 C  
ENDBRANCH   4  18
ENDBRANCH   2   4
TORSDOF 7
ENDMDL
MODEL      112
REMARK 921   NORMALIZED FREE ENERGY PREDICTED BY IDOCK:   -3.91 KCAL/MOL
REMARK 922        TOTAL FREE ENERGY PREDICTED BY IDOCK:   -6.52 KCAL/MOL
REMARK 923 INTER-LIGAND FREE ENERGY PREDICTED BY IDOCK:   -5.51 KCAL/MOL
REMARK 924 INTRA-LIGAND FREE ENERGY PREDICTED BY IDOCK:   -1.01 KCAL/MOL
REMARK 927      BINDING AFFINITY PREDICTED BY RF-SCORE:    0.00 PKD
ROOT
HETATM    1  C   UNL     1     -11.100   6.490  69.362  1.00  0.00    -0.407 C  
HETATM    2  C   UNL     1     -10.051   7.295  68.557  1.00  0.00    -0.172 C  
HETATM    3  C   UNL     1     -10.639   7.433  67.143  1.00  0.00    -0.413 C  
ENDROOT
BRANCH   2   4
HETATM    4  N   UNL     1      -9.679   8.572  69.254  1.00  0.00    -0.171 NA 
BRANCH   4   5
HETATM    5  C   UNL     1     -10.893   9.214  69.862  1.00  0.00    -0.228 C  
BRANCH   5   6
HETATM    6  C   UNL     1     -11.293  10.596  69.286  1.00  0.00    -0.282 C  
BRANCH   6   7
HETATM    7  N   UNL     1     -10.473  11.034  68.167  1.00  0.00    -0.180 N  
HETATM    8  C   UNL     1     -10.469  12.349  67.757  1.00  0.00    -0.218 C  
HETATM    9  H   UNL     1      -9.890  10.355  67.678  1.00  0.00     0.000 HD 
HETATM   10  O   UNL     1     -11.201  13.194  68.270  1.00  0.00    -0.244 OA 
BRANCH   8  11
HETATM   11  C   UNL     1      -9.521  12.683  66.597  1.00  0.00    -0.244 C  
BRANCH  11  12
HETATM   12  N   UNL     1     -10.243  12.690  65.338  1.00  0.00    -0.284 N  
HETATM   13  C   UNL     1     -10.794  13.886  64.746  1.00  0.00    -0.419 C  
HETATM   14  C   UNL     1     -12.001  13.358  63.996  1.00  0.00    -0.520 C  
HETATM   15  C   UNL     1     -11.563  11.965  63.553  1.00  0.00    -0.537 C  
HETATM   16  C   UNL     1     -10.652  11.544  64.678  1.00  0.00    -0.311 C  
HETATM   17  O   UNL     1     -10.322  10.399  64.945  1.00  0.00    -0.317 OA 
ENDBRANCH  11  12
ENDBRANCH   8  11
ENDBRANCH   6   7
ENDBRANCH   5   6
ENDBRANCH   4   5
BRANCH   4  18
HETATM   18  C   UNL     1      -8.543   8.512  70.228  1.00  0.00    -0.137 C  
HETATM   19  C   UNL     1      -9.014   8.732  71.686  1.00  0.00    -0.301 C  
HETATM   20  C   UNL     1      -7.422   9.549  70.024  1.00  0.00    -0.126 C  
ENDBRANCH   4  18
ENDBRANCH   2   4
TORSDOF 7
ENDMDL
MODEL      113
REMARK 921   NORMALIZED FREE ENERGY PREDICTED BY IDOCK:   -3.90 KCAL/MOL
REMARK 922        TOTAL FREE ENERGY PREDICTED BY IDOCK:   -6.51 KCAL/MOL
REMARK 923 INTER-LIGAND FREE ENERGY PREDICTED BY IDOCK:   -5.72 KCAL/MOL
REMARK 924 INTRA-LIGAND FREE ENERGY PREDICTED BY IDOCK:   -0.80 KCAL/MOL
REMARK 927      BINDING AFFINITY PREDICTED BY RF-SCORE:    0.00 PKD
ROOT
HETATM    1  C   UNL     1     -11.548  11.638  63.688  1.00  0.00    -0.435 C  
HETATM    2  C   UNL     1     -10.582  11.294  64.848  1.00  0.00    -0.300 C  
HETATM    3  C   UNL     1      -9.241  10.956  64.176  1.00  0.00    -0.216 C  
ENDROOT
BRANCH   2   4
HETATM    4  N   UNL     1     -10.555  12.378  65.887  1.00  0.00    -0.252 NA 
BRANCH   4   5
HETATM    5  C   UNL     1     -11.574  13.434  65.573  1.00  0.00    -0.325 C  
BRANCH   5   6
HETATM    6  C   UNL     1     -11.022  14.859  65.314  1.00  0.00    -0.380 C  
BRANCH   6   7
HETATM    7  N   UNL     1     -10.689  15.596  66.523  1.00  0.00    -0.307 N  
HETATM    8  C   UNL     1     -10.418  16.946  66.485  1.00  0.00    -0.253 C  
HETATM    9  H   UNL     1     -10.654  15.104  67.416  1.00  0.00     0.000 HD 
HETATM   10  O   UNL     1     -10.382  17.574  65.427  1.00  0.00    -0.629 OA 
BRANCH   8  11
HETATM   11  C   UNL     1     -10.129  17.608  67.839  1.00  0.00    -0.345 C  
BRANCH  11  12
HETATM   12  N   UNL     1      -8.767  17.333  68.259  1.00  0.00    -0.243 N  
HETATM   13  C   UNL     1      -7.611  17.954  67.658  1.00  0.00    -0.212 C  
HETATM   14  C   UNL     1      -6.544  16.889  67.813  1.00  0.00    -0.158 C  
HETATM   15  C   UNL     1      -6.916  16.202  69.124  1.00  0.00    -0.201 C  
HETATM   16  C   UNL     1      -8.420  16.311  69.126  1.00  0.00    -0.218 C  
HETATM   17  O   UNL     1      -9.189  15.633  69.789  1.00  0.00    -0.255 OA 
ENDBRANCH  11  12
ENDBRANCH   8  11
ENDBRANCH   6   7
ENDBRANCH   5   6
ENDBRANCH   4   5
BRANCH   4  18
HETATM   18  C   UNL     1     -10.627  11.952  67.320  1.00  0.00    -0.228 C  
HETATM   19  C   UNL     1     -10.796  10.420  67.464  1.00  0.00    -0.358 C  
HETATM   20  C   UNL     1     -11.784  12.547  68.146  1.00  0.00    -0.400 C  
ENDBRANCH   4  18
ENDBRANCH   2   4
TORSDOF 7
ENDMDL
MODEL      114
REMARK 921   NORMALIZED FREE ENERGY PREDICTED BY IDOCK:   -3.90 KCAL/MOL
REMARK 922        TOTAL FREE ENERGY PREDICTED BY IDOCK:   -6.50 KCAL/MOL
REMARK 923 INTER-LIGAND FREE ENERGY PREDICTED BY IDOCK:   -5.87 KCAL/MOL
REMARK 924 INTRA-LIGAND FREE ENERGY PREDICTED BY IDOCK:   -0.63 KCAL/MOL
REMARK 927      BINDING AFFINITY PREDICTED BY RF-SCORE:    0.00 PKD
ROOT
HETATM    1  C   UNL     1      -8.120  17.133  68.608  1.00  0.00    -0.264 C  
HETATM    2  C   UNL     1      -8.652  17.597  67.230  1.00  0.00    -0.231 C  
HETATM    3  C   UNL     1      -8.025  16.636  66.207  1.00  0.00    -0.340 C  
ENDROOT
BRANCH   2   4
HETATM    4  N   UNL     1     -10.150  17.700  67.221  1.00  0.00    -0.318 NA 
BRANCH   4   5
HETATM    5  C   UNL     1     -10.744  16.843  68.301  1.00  0.00    -0.377 C  
BRANCH   5   6
HETATM    6  C   UNL     1     -11.631  15.664  67.826  1.00  0.00    -0.136 C  
BRANCH   6   7
HETATM    7  N   UNL     1     -10.929  14.682  67.016  1.00  0.00    -0.309 N  
HETATM    8  C   UNL     1      -9.940  13.887  67.554  1.00  0.00    -0.240 C  
HETATM    9  H   UNL     1     -11.172  14.579  66.030  1.00  0.00     0.000 HD 
HETATM   10  O   UNL     1      -9.563  14.015  68.718  1.00  0.00    -0.190 OA 
BRANCH   8  11
HETATM   11  C   UNL     1      -9.316  12.860  66.600  1.00  0.00    -0.240 C  
BRANCH  11  12
HETATM   12  N   UNL     1      -9.585  11.510  67.060  1.00  0.00    -0.184 N  
HETATM   13  C   UNL     1      -8.559  10.507  67.219  1.00  0.00    -0.122 C  
HETATM   14  C   UNL     1      -9.309   9.219  66.940  1.00  0.00    -0.193 C  
HETATM   15  C   UNL     1     -10.714   9.506  67.462  1.00  0.00    -0.311 C  
HETATM   16  C   UNL     1     -10.858  10.984  67.198  1.00  0.00    -0.282 C  
HETATM   17  O   UNL     1     -11.908  11.603  67.137  1.00  0.00    -0.608 OA 
ENDBRANCH  11  12
ENDBRANCH   8  11
ENDBRANCH   6   7
ENDBRANCH   5   6
ENDBRANCH   4   5
BRANCH   4  18
HETATM   18  C   UNL     1     -10.740  19.076  67.223  1.00  0.00    -0.470 C  
HETATM   19  C   UNL     1     -10.343  19.880  65.961  1.00  0.00    -0.591 C  
HETATM   20  C   UNL     1     -10.337  19.983  68.401  1.00  0.00    -0.465 C  
ENDBRANCH   4  18
ENDBRANCH   2   4
TORSDOF 7
ENDMDL
MODEL      115
REMARK 921   NORMALIZED FREE ENERGY PREDICTED BY IDOCK:   -3.89 KCAL/MOL
REMARK 922        TOTAL FREE ENERGY PREDICTED BY IDOCK:   -6.49 KCAL/MOL
REMARK 923 INTER-LIGAND FREE ENERGY PREDICTED BY IDOCK:   -5.80 KCAL/MOL
REMARK 924 INTRA-LIGAND FREE ENERGY PREDICTED BY IDOCK:   -0.69 KCAL/MOL
REMARK 927      BINDING AFFINITY PREDICTED BY RF-SCORE:    0.00 PKD
ROOT
HETATM    1  C   UNL     1      -9.286  14.934  68.215  1.00  0.00    -0.187 C  
HETATM    2  C   UNL     1     -10.646  14.196  68.154  1.00  0.00    -0.246 C  
HETATM    3  C   UNL     1     -11.697  15.247  68.550  1.00  0.00    -0.352 C  
ENDROOT
BRANCH   2   4
HETATM    4  N   UNL     1     -10.847  13.514  66.832  1.00  0.00    -0.281 NA 
BRANCH   4   5
HETATM    5  C   UNL     1     -11.175  12.063  67.033  1.00  0.00    -0.320 C  
BRANCH   5   6
HETATM    6  C   UNL     1     -11.806  11.689  68.399  1.00  0.00    -0.278 C  
BRANCH   6   7
HETATM    7  N   UNL     1     -11.006  10.766  69.189  1.00  0.00    -0.225 N  
HETATM    8  C   UNL     1     -11.353  10.450  70.485  1.00  0.00    -0.341 C  
HETATM    9  H   UNL     1     -10.174  10.345  68.777  1.00  0.00     0.000 HD 
HETATM   10  O   UNL     1     -12.309  10.978  71.050  1.00  0.00    -0.357 OA 
BRANCH   8  11
HETATM   11  C   UNL     1     -10.451   9.426  71.187  1.00  0.00    -0.322 C  
BRANCH  11  12
HETATM   12  N   UNL     1     -10.886   8.075  70.887  1.00  0.00    -0.226 N  
HETATM   13  C   UNL     1     -11.835   7.349  71.699  1.00  0.00    -0.291 C  
HETATM   14  C   UNL     1     -11.398   5.910  71.510  1.00  0.00    -0.256 C  
HETATM   15  C   UNL     1     -10.868   5.884  70.079  1.00  0.00    -0.421 C  
HETATM   16  C   UNL     1     -10.300   7.272  69.924  1.00  0.00    -0.219 C  
HETATM   17  O   UNL     1      -9.484   7.625  69.087  1.00  0.00    -0.154 OA 
ENDBRANCH  11  12
ENDBRANCH   8  11
ENDBRANCH   6   7
ENDBRANCH   5   6
ENDBRANCH   4   5
BRANCH   4  18
HETATM   18  C   UNL     1     -11.789  14.162  65.866  1.00  0.00    -0.384 C  
HETATM   19  C   UNL     1     -12.521  13.124  64.981  1.00  0.00    -0.516 C  
HETATM   20  C   UNL     1     -11.159  15.147  64.863  1.00  0.00    -0.425 C  
ENDBRANCH   4  18
ENDBRANCH   2   4
TORSDOF 7
ENDMDL
MODEL      116
REMARK 921   NORMALIZED FREE ENERGY PREDICTED BY IDOCK:   -3.89 KCAL/MOL
REMARK 922        TOTAL FREE ENERGY PREDICTED BY IDOCK:   -6.48 KCAL/MOL
REMARK 923 INTER-LIGAND FREE ENERGY PREDICTED BY IDOCK:   -5.97 KCAL/MOL
REMARK 924 INTRA-LIGAND FREE ENERGY PREDICTED BY IDOCK:   -0.52 KCAL/MOL
REMARK 927      BINDING AFFINITY PREDICTED BY RF-SCORE:    0.00 PKD
ROOT
HETATM    1  C   UNL     1     -10.551  17.705  67.601  1.00  0.00    -0.364 C  
HETATM    2  C   UNL     1     -10.264  16.209  67.326  1.00  0.00    -0.277 C  
HETATM    3  C   UNL     1      -9.886  16.133  65.837  1.00  0.00    -0.384 C  
ENDROOT
BRANCH   2   4
HETATM    4  N   UNL     1      -9.266  15.648  68.298  1.00  0.00    -0.186 NA 
BRANCH   4   5
HETATM    5  C   UNL     1      -9.473  14.172  68.474  1.00  0.00    -0.202 C  
BRANCH   5   6
HETATM    6  C   UNL     1     -10.935  13.670  68.360  1.00  0.00    -0.262 C  
BRANCH   6   7
HETATM    7  N   UNL     1     -11.464  13.097  69.588  1.00  0.00    -0.455 N  
HETATM    8  C   UNL     1     -12.079  11.864  69.593  1.00  0.00    -0.239 C  
HETATM    9  H   UNL     1     -11.377  13.617  70.461  1.00  0.00     0.000 HD 
HETATM   10  O   UNL     1     -12.267  11.225  68.559  1.00  0.00    -0.588 OA 
BRANCH   8  11
HETATM   11  C   UNL     1     -12.547  11.357  70.964  1.00  0.00    -0.386 C  
BRANCH  11  12
HETATM   12  N   UNL     1     -11.936  10.076  71.267  1.00  0.00    -0.376 N  
HETATM   13  C   UNL     1     -10.625   9.693  70.799  1.00  0.00    -0.322 C  
HETATM   14  C   UNL     1     -10.748   8.188  70.666  1.00  0.00    -0.238 C  
HETATM   15  C   UNL     1     -11.714   7.810  71.785  1.00  0.00    -0.323 C  
HETATM   16  C   UNL     1     -12.611   9.021  71.856  1.00  0.00    -0.382 C  
HETATM   17  O   UNL     1     -13.722   9.064  72.359  1.00  0.00    -0.453 OA 
ENDBRANCH  11  12
ENDBRANCH   8  11
ENDBRANCH   6   7
ENDBRANCH   5   6
ENDBRANCH   4   5
BRANCH   4  18
HETATM   18  C   UNL     1      -7.824  15.978  68.063  1.00  0.00    -0.137 C  
HETATM   19  C   UNL     1      -6.968  14.709  67.834  1.00  0.00    -0.172 C  
HETATM   20  C   UNL     1      -7.107  16.727  69.201  1.00  0.00    -0.222 C  
ENDBRANCH   4  18
ENDBRANCH   2   4
TORSDOF 7
ENDMDL
MODEL      117
REMARK 921   NORMALIZED FREE ENERGY PREDICTED BY IDOCK:   -3.87 KCAL/MOL
REMARK 922        TOTAL FREE ENERGY PREDICTED BY IDOCK:   -6.47 KCAL/MOL
REMARK 923 INTER-LIGAND FREE ENERGY PREDICTED BY IDOCK:   -5.84 KCAL/MOL
REMARK 924 INTRA-LIGAND FREE ENERGY PREDICTED BY IDOCK:   -0.62 KCAL/MOL
REMARK 927      BINDING AFFINITY PREDICTED BY RF-SCORE:    0.00 PKD
ROOT
HETATM    1  C   UNL     1     -12.604   6.976  71.535  1.00  0.00    -0.426 C  
HETATM    2  C   UNL     1     -11.460   7.986  71.274  1.00  0.00    -0.269 C  
HETATM    3  C   UNL     1     -10.731   8.133  72.620  1.00  0.00    -0.421 C  
ENDROOT
BRANCH   2   4
HETATM    4  N   UNL     1     -10.620   7.579  70.098  1.00  0.00    -0.230 NA 
BRANCH   4   5
HETATM    5  C   UNL     1      -9.905   8.768  69.525  1.00  0.00    -0.180 C  
BRANCH   5   6
HETATM    6  C   UNL     1     -10.702  10.097  69.503  1.00  0.00    -0.249 C  
BRANCH   6   7
HETATM    7  N   UNL     1     -10.142  11.112  68.625  1.00  0.00    -0.194 N  
HETATM    8  C   UNL     1     -10.945  11.852  67.784  1.00  0.00    -0.228 C  
HETATM    9  H   UNL     1      -9.135  11.279  68.630  1.00  0.00     0.000 HD 
HETATM   10  O   UNL     1     -12.154  11.646  67.691  1.00  0.00    -0.615 OA 
BRANCH   8  11
HETATM   11  C   UNL     1     -10.230  12.921  66.947  1.00  0.00    -0.242 C  
BRANCH  11  12
HETATM   12  N   UNL     1     -10.531  12.749  65.538  1.00  0.00    -0.282 N  
HETATM   13  C   UNL     1     -11.476  13.574  64.823  1.00  0.00    -0.346 C  
HETATM   14  C   UNL     1     -12.010  12.627  63.768  1.00  0.00    -0.588 C  
HETATM   15  C   UNL     1     -10.814  11.731  63.456  1.00  0.00    -0.496 C  
HETATM   16  C   UNL     1     -10.108  11.667  64.787  1.00  0.00    -0.260 C  
HETATM   17  O   UNL     1      -9.296  10.822  65.129  1.00  0.00    -0.195 OA 
ENDBRANCH  11  12
ENDBRANCH   8  11
ENDBRANCH   6   7
ENDBRANCH   5   6
ENDBRANCH   4   5
BRANCH   4  18
HETATM   18  C   UNL     1      -9.692   6.420  70.291  1.00  0.00    -0.167 C  
HETATM   19  C   UNL     1      -8.306   6.671  69.649  1.00  0.00    -0.132 C  
HETATM   20  C   UNL     1     -10.154   5.076  69.697  1.00  0.00    -0.321 C  
ENDBRANCH   4  18
ENDBRANCH   2   4
TORSDOF 7
ENDMDL
MODEL      118
REMARK 921   NORMALIZED FREE ENERGY PREDICTED BY IDOCK:   -3.86 KCAL/MOL
REMARK 922        TOTAL FREE ENERGY PREDICTED BY IDOCK:   -6.45 KCAL/MOL
REMARK 923 INTER-LIGAND FREE ENERGY PREDICTED BY IDOCK:   -5.45 KCAL/MOL
REMARK 924 INTRA-LIGAND FREE ENERGY PREDICTED BY IDOCK:   -1.00 KCAL/MOL
REMARK 927      BINDING AFFINITY PREDICTED BY RF-SCORE:    0.00 PKD
ROOT
HETATM    1  C   UNL     1     -10.592   5.612  66.526  1.00  0.00    -0.320 C  
HETATM    2  C   UNL     1     -10.994   6.528  67.708  1.00  0.00    -0.316 C  
HETATM    3  C   UNL     1     -10.568   5.768  68.975  1.00  0.00    -0.351 C  
ENDROOT
BRANCH   2   4
HETATM    4  N   UNL     1     -10.447   7.916  67.544  1.00  0.00    -0.259 NA 
BRANCH   4   5
HETATM    5  C   UNL     1      -9.798   8.380  68.816  1.00  0.00    -0.173 C  
BRANCH   5   6
HETATM    6  C   UNL     1     -10.643   9.327  69.706  1.00  0.00    -0.231 C  
BRANCH   6   7
HETATM    7  N   UNL     1     -10.478  10.739  69.396  1.00  0.00    -0.298 N  
HETATM    8  C   UNL     1     -11.532  11.497  68.935  1.00  0.00    -0.289 C  
HETATM    9  H   UNL     1      -9.565  11.175  69.521  1.00  0.00     0.000 HD 
HETATM   10  O   UNL     1     -12.637  11.005  68.706  1.00  0.00    -0.350 OA 
BRANCH   8  11
HETATM   11  C   UNL     1     -11.231  12.982  68.694  1.00  0.00    -0.277 C  
BRANCH  11  12
HETATM   12  N   UNL     1     -11.152  13.260  67.272  1.00  0.00    -0.272 N  
HETATM   13  C   UNL     1     -12.278  13.706  66.487  1.00  0.00    -0.404 C  
HETATM   14  C   UNL     1     -11.976  13.130  65.117  1.00  0.00    -0.431 C  
HETATM   15  C   UNL     1     -10.452  13.164  65.046  1.00  0.00    -0.358 C  
HETATM   16  C   UNL     1     -10.060  12.938  66.485  1.00  0.00    -0.261 C  
HETATM   17  O   UNL     1      -8.970  12.558  66.880  1.00  0.00    -0.204 OA 
ENDBRANCH  11  12
ENDBRANCH   8  11
ENDBRANCH   6   7
ENDBRANCH   5   6
ENDBRANCH   4   5
BRANCH   4  18
HETATM   18  C   UNL     1      -9.571   8.169  66.356  1.00  0.00    -0.216 C  
HETATM   19  C   UNL     1      -8.073   8.236  66.741  1.00  0.00    -0.103 C  
HETATM   20  C   UNL     1      -9.831   9.480  65.591  1.00  0.00    -0.343 C  
ENDBRANCH   4  18
ENDBRANCH   2   4
TORSDOF 7
ENDMDL
MODEL      119
REMARK 921   NORMALIZED FREE ENERGY PREDICTED BY IDOCK:   -3.83 KCAL/MOL
REMARK 922        TOTAL FREE ENERGY PREDICTED BY IDOCK:   -6.40 KCAL/MOL
REMARK 923 INTER-LIGAND FREE ENERGY PREDICTED BY IDOCK:   -5.55 KCAL/MOL
REMARK 924 INTRA-LIGAND FREE ENERGY PREDICTED BY IDOCK:   -0.85 KCAL/MOL
REMARK 927      BINDING AFFINITY PREDICTED BY RF-SCORE:    0.00 PKD
ROOT
HETATM    1  C   UNL     1      -5.985  18.950  67.919  1.00  0.00    -0.201 C  
HETATM    2  C   UNL     1      -7.161  19.001  66.913  1.00  0.00    -0.211 C  
HETATM    3  C   UNL     1      -6.598  18.436  65.599  1.00  0.00    -0.313 C  
ENDROOT
BRANCH   2   4
HETATM    4  N   UNL     1      -8.387  18.328  67.460  1.00  0.00    -0.243 NA 
BRANCH   4   5
HETATM    5  C   UNL     1      -8.095  17.705  68.794  1.00  0.00    -0.233 C  
BRANCH   5   6
HETATM    6  C   UNL     1      -8.282  16.169  68.885  1.00  0.00    -0.229 C  
BRANCH   6   7
HETATM    7  N   UNL     1      -9.614  15.710  68.522  1.00  0.00    -0.195 N  
HETATM    8  C   UNL     1     -10.610  15.593  69.467  1.00  0.00    -0.266 C  
HETATM    9  H   UNL     1      -9.814  15.470  67.551  1.00  0.00     0.000 HD 
HETATM   10  O   UNL     1     -10.405  15.807  70.661  1.00  0.00    -0.107 OA 
BRANCH   8  11
HETATM   11  C   UNL     1     -11.980  15.144  68.940  1.00  0.00    -0.253 C  
BRANCH  11  12
HETATM   12  N   UNL     1     -11.989  13.713  68.702  1.00  0.00    -0.364 N  
HETATM   13  C   UNL     1     -11.994  12.733  69.762  1.00  0.00    -0.292 C  
HETATM   14  C   UNL     1     -11.253  11.567  69.138  1.00  0.00    -0.337 C  
HETATM   15  C   UNL     1     -11.635  11.652  67.663  1.00  0.00    -0.349 C  
HETATM   16  C   UNL     1     -11.791  13.138  67.458  1.00  0.00    -0.360 C  
HETATM   17  O   UNL     1     -11.767  13.722  66.387  1.00  0.00    -0.343 OA 
ENDBRANCH  11  12
ENDBRANCH   8  11
ENDBRANCH   6   7
ENDBRANCH   5   6
ENDBRANCH   4   5
BRANCH   4  18
HETATM   18  C   UNL     1      -9.650  19.131  67.492  1.00  0.00    -0.310 C  
HETATM   19  C   UNL     1     -10.591  18.782  66.313  1.00  0.00    -0.429 C  
HETATM   20  C   UNL     1      -9.482  20.660  67.412  1.00  0.00    -0.516 C  
ENDBRANCH   4  18
ENDBRANCH   2   4
TORSDOF 7
ENDMDL
MODEL      120
REMARK 921   NORMALIZED FREE ENERGY PREDICTED BY IDOCK:   -3.82 KCAL/MOL
REMARK 922        TOTAL FREE ENERGY PREDICTED BY IDOCK:   -6.39 KCAL/MOL
REMARK 923 INTER-LIGAND FREE ENERGY PREDICTED BY IDOCK:   -5.91 KCAL/MOL
REMARK 924 INTRA-LIGAND FREE ENERGY PREDICTED BY IDOCK:   -0.48 KCAL/MOL
REMARK 927      BINDING AFFINITY PREDICTED BY RF-SCORE:    0.00 PKD
ROOT
HETATM    1  C   UNL     1     -10.471  14.401  68.453  1.00  0.00    -0.246 C  
HETATM    2  C   UNL     1      -9.789  14.172  67.081  1.00  0.00    -0.253 C  
HETATM    3  C   UNL     1      -8.318  13.864  67.404  1.00  0.00    -0.208 C  
ENDROOT
BRANCH   2   4
HETATM    4  N   UNL     1     -10.522  13.148  66.263  1.00  0.00    -0.280 NA 
BRANCH   4   5
HETATM    5  C   UNL     1     -11.438  12.336  67.132  1.00  0.00    -0.352 C  
BRANCH   5   6
HETATM    6  C   UNL     1     -11.142  10.817  67.202  1.00  0.00    -0.227 C  
BRANCH   6   7
HETATM    7  N   UNL     1     -11.572  10.184  68.440  1.00  0.00    -0.514 N  
HETATM    8  C   UNL     1     -10.724  10.080  69.520  1.00  0.00    -0.244 C  
HETATM    9  H   UNL     1     -12.518   9.810  68.508  1.00  0.00     0.000 HD 
HETATM   10  O   UNL     1      -9.553  10.455  69.469  1.00  0.00    -0.215 OA 
BRANCH   8  11
HETATM   11  C   UNL     1     -11.321   9.434  70.778  1.00  0.00    -0.300 C  
BRANCH  11  12
HETATM   12  N   UNL     1     -10.870   8.061  70.908  1.00  0.00    -0.226 N  
HETATM   13  C   UNL     1     -10.422   7.265  69.789  1.00  0.00    -0.227 C  
HETATM   14  C   UNL     1     -10.804   5.860  70.210  1.00  0.00    -0.391 C  
HETATM   15  C   UNL     1     -10.642   5.886  71.727  1.00  0.00    -0.286 C  
HETATM   16  C   UNL     1     -11.008   7.311  72.063  1.00  0.00    -0.238 C  
HETATM   17  O   UNL     1     -11.346   7.727  73.159  1.00  0.00    -0.374 OA 
ENDBRANCH  11  12
ENDBRANCH   8  11
ENDBRANCH   6   7
ENDBRANCH   5   6
ENDBRANCH   4   5
BRANCH   4  18
HETATM   18  C   UNL     1     -11.220  13.632  65.030  1.00  0.00    -0.321 C  
HETATM   19  C   UNL     1     -12.721  13.913  65.283  1.00  0.00    -0.485 C  
HETATM   20  C   UNL     1     -11.204  12.675  63.823  1.00  0.00    -0.519 C  
ENDBRANCH   4  18
ENDBRANCH   2   4
TORSDOF 7
ENDMDL
MODEL      121
REMARK 921   NORMALIZED FREE ENERGY PREDICTED BY IDOCK:   -3.81 KCAL/MOL
REMARK 922        TOTAL FREE ENERGY PREDICTED BY IDOCK:   -6.38 KCAL/MOL
REMARK 923 INTER-LIGAND FREE ENERGY PREDICTED BY IDOCK:   -5.31 KCAL/MOL
REMARK 924 INTRA-LIGAND FREE ENERGY PREDICTED BY IDOCK:   -1.07 KCAL/MOL
REMARK 927      BINDING AFFINITY PREDICTED BY RF-SCORE:    0.00 PKD
ROOT
HETATM    1  C   UNL     1      -8.157  15.592  69.205  1.00  0.00    -0.244 C  
HETATM    2  C   UNL     1      -8.691  15.298  67.782  1.00  0.00    -0.165 C  
HETATM    3  C   UNL     1      -7.969  14.017  67.332  1.00  0.00    -0.191 C  
ENDROOT
BRANCH   2   4
HETATM    4  N   UNL     1     -10.192  15.267  67.750  1.00  0.00    -0.235 NA 
BRANCH   4   5
HETATM    5  C   UNL     1     -10.751  15.324  69.142  1.00  0.00    -0.251 C  
BRANCH   5   6
HETATM    6  C   UNL     1     -11.628  14.122  69.574  1.00  0.00    -0.295 C  
BRANCH   6   7
HETATM    7  N   UNL     1     -11.896  13.168  68.509  1.00  0.00    -0.340 N  
HETATM    8  C   UNL     1     -11.085  12.072  68.311  1.00  0.00    -0.243 C  
HETATM    9  H   UNL     1     -12.699  13.314  67.897  1.00  0.00     0.000 HD 
HETATM   10  O   UNL     1     -10.069  11.885  68.978  1.00  0.00    -0.098 OA 
BRANCH   8  11
HETATM   11  C   UNL     1     -11.511  11.122  67.183  1.00  0.00    -0.081 C  
BRANCH  11  12
HETATM   12  N   UNL     1     -11.249  11.722  65.888  1.00  0.00    -0.316 N  
HETATM   13  C   UNL     1     -12.230  12.489  65.157  1.00  0.00    -0.448 C  
HETATM   14  C   UNL     1     -11.847  12.226  63.714  1.00  0.00    -0.587 C  
HETATM   15  C   UNL     1     -10.330  12.075  63.770  1.00  0.00    -0.457 C  
HETATM   16  C   UNL     1     -10.121  11.458  65.131  1.00  0.00    -0.271 C  
HETATM   17  O   UNL     1      -9.127  10.854  65.501  1.00  0.00    -0.192 OA 
ENDBRANCH  11  12
ENDBRANCH   8  11
ENDBRANCH   6   7
ENDBRANCH   5   6
ENDBRANCH   4   5
BRANCH   4  18
HETATM   18  C   UNL     1     -10.876  16.241  66.842  1.00  0.00    -0.151 C  
HETATM   19  C   UNL     1     -10.718  15.857  65.350  1.00  0.00    -0.415 C  
HETATM   20  C   UNL     1     -10.383  17.699  66.919  1.00  0.00    -0.329 C  
ENDBRANCH   4  18
ENDBRANCH   2   4
TORSDOF 7
ENDMDL
MODEL      122
REMARK 921   NORMALIZED FREE ENERGY PREDICTED BY IDOCK:   -3.81 KCAL/MOL
REMARK 922        TOTAL FREE ENERGY PREDICTED BY IDOCK:   -6.37 KCAL/MOL
REMARK 923 INTER-LIGAND FREE ENERGY PREDICTED BY IDOCK:   -5.45 KCAL/MOL
REMARK 924 INTRA-LIGAND FREE ENERGY PREDICTED BY IDOCK:   -0.92 KCAL/MOL
REMARK 927      BINDING AFFINITY PREDICTED BY RF-SCORE:    0.00 PKD
ROOT
HETATM    1  C   UNL     1     -11.818  11.684  69.250  1.00  0.00    -0.396 C  
HETATM    2  C   UNL     1     -11.859  13.016  68.462  1.00  0.00    -0.325 C  
HETATM    3  C   UNL     1     -11.384  14.091  69.455  1.00  0.00    -0.317 C  
ENDROOT
BRANCH   2   4
HETATM    4  N   UNL     1     -11.102  12.919  67.169  1.00  0.00    -0.266 NA 
BRANCH   4   5
HETATM    5  C   UNL     1     -11.122  11.510  66.652  1.00  0.00    -0.295 C  
BRANCH   5   6
HETATM    6  C   UNL     1      -9.742  10.882  66.329  1.00  0.00    -0.204 C  
BRANCH   6   7
HETATM    7  N   UNL     1      -9.210  10.040  67.389  1.00  0.00    -0.137 N  
HETATM    8  C   UNL     1      -9.557   8.710  67.486  1.00  0.00    -0.157 C  
HETATM    9  H   UNL     1      -8.569  10.441  68.073  1.00  0.00     0.000 HD 
HETATM   10  O   UNL     1     -10.375   8.193  66.727  1.00  0.00    -0.311 OA 
BRANCH   8  11
HETATM   11  C   UNL     1      -8.885   7.926  68.622  1.00  0.00    -0.134 C  
BRANCH  11  12
HETATM   12  N   UNL     1      -9.669   8.025  69.840  1.00  0.00    -0.179 N  
HETATM   13  C   UNL     1     -10.880   7.272  70.067  1.00  0.00    -0.253 C  
HETATM   14  C   UNL     1     -11.679   8.195  70.965  1.00  0.00    -0.295 C  
HETATM   15  C   UNL     1     -10.608   8.906  71.787  1.00  0.00    -0.432 C  
HETATM   16  C   UNL     1      -9.458   8.985  70.815  1.00  0.00    -0.251 C  
HETATM   17  O   UNL     1      -8.506   9.745  70.888  1.00  0.00    -0.185 OA 
ENDBRANCH  11  12
ENDBRANCH   8  11
ENDBRANCH   6   7
ENDBRANCH   5   6
ENDBRANCH   4   5
BRANCH   4  18
HETATM   18  C   UNL     1     -11.452  13.904  66.097  1.00  0.00    -0.345 C  
HETATM   19  C   UNL     1     -12.504  13.341  65.111  1.00  0.00    -0.525 C  
HETATM   20  C   UNL     1     -10.290  14.368  65.199  1.00  0.00    -0.447 C  
ENDBRANCH   4  18
ENDBRANCH   2   4
TORSDOF 7
ENDMDL
MODEL      123
REMARK 921   NORMALIZED FREE ENERGY PREDICTED BY IDOCK:   -3.80 KCAL/MOL
REMARK 922        TOTAL FREE ENERGY PREDICTED BY IDOCK:   -6.37 KCAL/MOL
REMARK 923 INTER-LIGAND FREE ENERGY PREDICTED BY IDOCK:   -5.05 KCAL/MOL
REMARK 924 INTRA-LIGAND FREE ENERGY PREDICTED BY IDOCK:   -1.32 KCAL/MOL
REMARK 927      BINDING AFFINITY PREDICTED BY RF-SCORE:    0.00 PKD
ROOT
HETATM    1  C   UNL     1      -8.302   8.178  68.321  1.00  0.00    -0.126 C  
HETATM    2  C   UNL     1      -9.384   8.162  67.214  1.00  0.00    -0.141 C  
HETATM    3  C   UNL     1     -10.605   7.473  67.848  1.00  0.00    -0.250 C  
ENDROOT
BRANCH   2   4
HETATM    4  N   UNL     1      -9.612   9.532  66.643  1.00  0.00    -0.174 NA 
BRANCH   4   5
HETATM    5  C   UNL     1      -8.868  10.565  67.438  1.00  0.00    -0.132 C  
BRANCH   5   6
HETATM    6  C   UNL     1      -9.739  11.611  68.180  1.00  0.00    -0.189 C  
BRANCH   6   7
HETATM    7  N   UNL     1     -10.243  11.158  69.467  1.00  0.00    -0.438 N  
HETATM    8  C   UNL     1     -11.565  10.805  69.632  1.00  0.00    -0.316 C  
HETATM    9  H   UNL     1      -9.607  11.100  70.262  1.00  0.00     0.000 HD 
HETATM   10  O   UNL     1     -12.387  10.918  68.724  1.00  0.00    -0.495 OA 
BRANCH   8  11
HETATM   11  C   UNL     1     -11.952  10.299  71.029  1.00  0.00    -0.385 C  
BRANCH  11  12
HETATM   12  N   UNL     1     -11.621   8.893  71.168  1.00  0.00    -0.286 N  
HETATM   13  C   UNL     1     -12.589   7.832  71.017  1.00  0.00    -0.115 C  
HETATM   14  C   UNL     1     -12.055   6.762  71.949  1.00  0.00    -0.375 C  
HETATM   15  C   UNL     1     -10.542   6.944  71.869  1.00  0.00    -0.236 C  
HETATM   16  C   UNL     1     -10.410   8.431  71.654  1.00  0.00    -0.243 C  
HETATM   17  O   UNL     1      -9.409   9.100  71.854  1.00  0.00    -0.349 OA 
ENDBRANCH  11  12
ENDBRANCH   8  11
ENDBRANCH   6   7
ENDBRANCH   5   6
ENDBRANCH   4   5
BRANCH   4  18
HETATM   18  C   UNL     1      -9.388   9.703  65.172  1.00  0.00    -0.259 C  
HETATM   19  C   UNL     1      -7.890   9.898  64.831  1.00  0.00    -0.136 C  
HETATM   20  C   UNL     1     -10.092  10.905  64.516  1.00  0.00    -0.404 C  
ENDBRANCH   4  18
ENDBRANCH   2   4
TORSDOF 7
ENDMDL
MODEL      124
REMARK 921   NORMALIZED FREE ENERGY PREDICTED BY IDOCK:   -3.78 KCAL/MOL
REMARK 922        TOTAL FREE ENERGY PREDICTED BY IDOCK:   -6.34 KCAL/MOL
REMARK 923 INTER-LIGAND FREE ENERGY PREDICTED BY IDOCK:   -5.78 KCAL/MOL
REMARK 924 INTRA-LIGAND FREE ENERGY PREDICTED BY IDOCK:   -0.56 KCAL/MOL
REMARK 927      BINDING AFFINITY PREDICTED BY RF-SCORE:    0.00 PKD
ROOT
HETATM    1  C   UNL     1      -8.131  12.846  66.833  1.00  0.00     0.028 C  
HETATM    2  C   UNL     1      -9.665  12.936  66.648  1.00  0.00    -0.254 C  
HETATM    3  C   UNL     1     -10.041  11.732  65.768  1.00  0.00    -0.270 C  
ENDROOT
BRANCH   2   4
HETATM    4  N   UNL     1     -10.377  13.049  67.965  1.00  0.00    -0.228 NA 
BRANCH   4   5
HETATM    5  C   UNL     1     -11.248  14.271  67.991  1.00  0.00    -0.280 C  
BRANCH   5   6
HETATM    6  C   UNL     1     -11.273  15.118  66.693  1.00  0.00    -0.274 C  
BRANCH   6   7
HETATM    7  N   UNL     1     -10.754  16.467  66.855  1.00  0.00    -0.235 N  
HETATM    8  C   UNL     1     -10.649  17.325  65.782  1.00  0.00    -0.194 C  
HETATM    9  H   UNL     1     -10.462  16.784  67.779  1.00  0.00     0.000 HD 
HETATM   10  O   UNL     1     -10.926  16.972  64.636  1.00  0.00    -0.968 OA 
BRANCH   8  11
HETATM   11  C   UNL     1     -10.132  18.734  66.102  1.00  0.00    -0.384 C  
BRANCH  11  12
HETATM   12  N   UNL     1      -8.983  18.665  66.985  1.00  0.00    -0.278 N  
HETATM   13  C   UNL     1      -9.061  18.901  68.407  1.00  0.00    -0.343 C  
HETATM   14  C   UNL     1      -7.694  19.473  68.724  1.00  0.00    -0.375 C  
HETATM   15  C   UNL     1      -6.774  18.762  67.735  1.00  0.00    -0.219 C  
HETATM   16  C   UNL     1      -7.675  18.570  66.541  1.00  0.00    -0.255 C  
HETATM   17  O   UNL     1      -7.314  18.350  65.396  1.00  0.00    -0.521 OA 
ENDBRANCH  11  12
ENDBRANCH   8  11
ENDBRANCH   6   7
ENDBRANCH   5   6
ENDBRANCH   4   5
BRANCH   4  18
HETATM   18  C   UNL     1     -11.112  11.838  68.450  1.00  0.00    -0.237 C  
HETATM   19  C   UNL     1     -12.161  12.189  69.534  1.00  0.00    -0.263 C  
HETATM   20  C   UNL     1     -10.250  10.734  69.092  1.00  0.00    -0.229 C  
ENDBRANCH   4  18
ENDBRANCH   2   4
TORSDOF 7
ENDMDL
MODEL      125
REMARK 921   NORMALIZED FREE ENERGY PREDICTED BY IDOCK:   -3.78 KCAL/MOL
REMARK 922        TOTAL FREE ENERGY PREDICTED BY IDOCK:   -6.33 KCAL/MOL
REMARK 923 INTER-LIGAND FREE ENERGY PREDICTED BY IDOCK:   -5.72 KCAL/MOL
REMARK 924 INTRA-LIGAND FREE ENERGY PREDICTED BY IDOCK:   -0.61 KCAL/MOL
REMARK 927      BINDING AFFINITY PREDICTED BY RF-SCORE:    0.00 PKD
ROOT
HETATM    1  C   UNL     1     -12.159   6.852  70.909  1.00  0.00    -0.424 C  
HETATM    2  C   UNL     1     -10.631   6.601  70.913  1.00  0.00    -0.224 C  
HETATM    3  C   UNL     1     -10.408   5.428  69.943  1.00  0.00    -0.377 C  
ENDROOT
BRANCH   2   4
HETATM    4  N   UNL     1      -9.863   7.859  70.628  1.00  0.00    -0.184 NA 
BRANCH   4   5
HETATM    5  C   UNL     1     -10.707   8.829  69.853  1.00  0.00    -0.223 C  
BRANCH   5   6
HETATM    6  C   UNL     1     -10.513   8.823  68.315  1.00  0.00    -0.187 C  
BRANCH   6   7
HETATM    7  N   UNL     1     -10.088  10.101  67.766  1.00  0.00    -0.171 N  
HETATM    8  C   UNL     1      -9.923  10.276  66.409  1.00  0.00    -0.229 C  
HETATM    9  H   UNL     1      -9.909  10.883  68.396  1.00  0.00     0.000 HD 
HETATM   10  O   UNL     1     -10.064   9.350  65.611  1.00  0.00    -0.261 OA 
BRANCH   8  11
HETATM   11  C   UNL     1      -9.519  11.688  65.962  1.00  0.00    -0.229 C  
BRANCH  11  12
HETATM   12  N   UNL     1     -10.580  12.295  65.179  1.00  0.00    -0.276 N  
HETATM   13  C   UNL     1     -11.833  12.733  65.747  1.00  0.00    -0.434 C  
HETATM   14  C   UNL     1     -12.802  12.542  64.597  1.00  0.00    -0.325 C  
HETATM   15  C   UNL     1     -11.949  12.824  63.363  1.00  0.00    -0.613 C  
HETATM   16  C   UNL     1     -10.590  12.334  63.795  1.00  0.00    -0.451 C  
HETATM   17  O   UNL     1      -9.662  12.044  63.057  1.00  0.00    -0.383 OA 
ENDBRANCH  11  12
ENDBRANCH   8  11
ENDBRANCH   6   7
ENDBRANCH   5   6
ENDBRANCH   4   5
BRANCH   4  18
HETATM   18  C   UNL     1      -9.187   8.523  71.788  1.00  0.00    -0.246 C  
HETATM   19  C   UNL     1      -7.645   8.407  71.707  1.00  0.00    -0.139 C  
HETATM   20  C   UNL     1      -9.542   7.975  73.183  1.00  0.00    -0.344 C  
ENDBRANCH   4  18
ENDBRANCH   2   4
TORSDOF 7
ENDMDL
MODEL      126
REMARK 921   NORMALIZED FREE ENERGY PREDICTED BY IDOCK:   -3.78 KCAL/MOL
REMARK 922        TOTAL FREE ENERGY PREDICTED BY IDOCK:   -6.33 KCAL/MOL
REMARK 923 INTER-LIGAND FREE ENERGY PREDICTED BY IDOCK:   -5.72 KCAL/MOL
REMARK 924 INTRA-LIGAND FREE ENERGY PREDICTED BY IDOCK:   -0.62 KCAL/MOL
REMARK 927      BINDING AFFINITY PREDICTED BY RF-SCORE:    0.00 PKD
ROOT
HETATM    1  C   UNL     1     -10.093  19.630  68.297  1.00  0.00    -0.560 C  
HETATM    2  C   UNL     1      -9.791  18.893  66.969  1.00  0.00    -0.324 C  
HETATM    3  C   UNL     1     -10.497  19.714  65.877  1.00  0.00    -0.591 C  
ENDROOT
BRANCH   2   4
HETATM    4  N   UNL     1      -8.318  18.664  66.786  1.00  0.00    -0.271 NA 
BRANCH   4   5
HETATM    5  C   UNL     1      -8.065  17.306  66.197  1.00  0.00    -0.237 C  
BRANCH   5   6
HETATM    6  C   UNL     1      -7.966  16.134  67.205  1.00  0.00    -0.174 C  
BRANCH   6   7
HETATM    7  N   UNL     1      -8.423  14.857  66.679  1.00  0.00    -0.414 N  
HETATM    8  C   UNL     1      -9.516  14.214  67.216  1.00  0.00    -0.229 C  
HETATM    9  H   UNL     1      -7.926  14.431  65.897  1.00  0.00     0.000 HD 
HETATM   10  O   UNL     1     -10.112  14.652  68.199  1.00  0.00    -0.217 OA 
BRANCH   8  11
HETATM   11  C   UNL     1      -9.920  12.899  66.534  1.00  0.00    -0.259 C  
BRANCH  11  12
HETATM   12  N   UNL     1     -10.339  11.922  67.522  1.00  0.00    -0.198 N  
HETATM   13  C   UNL     1     -11.715  11.740  67.922  1.00  0.00    -0.276 C  
HETATM   14  C   UNL     1     -11.582  11.285  69.362  1.00  0.00    -0.390 C  
HETATM   15  C   UNL     1     -10.280  10.490  69.365  1.00  0.00    -0.245 C  
HETATM   16  C   UNL     1      -9.463  11.211  68.323  1.00  0.00    -0.182 C  
HETATM   17  O   UNL     1      -8.249  11.161  68.199  1.00  0.00    -0.119 OA 
ENDBRANCH  11  12
ENDBRANCH   8  11
ENDBRANCH   6   7
ENDBRANCH   5   6
ENDBRANCH   4   5
BRANCH   4  18
HETATM   18  C   UNL     1      -7.546  19.728  66.068  1.00  0.00    -0.330 C  
HETATM   19  C   UNL     1      -6.388  19.138  65.227  1.00  0.00    -0.315 C  
HETATM   20  C   UNL     1      -6.874  20.792  66.956  1.00  0.00    -0.385 C  
ENDBRANCH   4  18
ENDBRANCH   2   4
TORSDOF 7
ENDMDL
MODEL      127
REMARK 921   NORMALIZED FREE ENERGY PREDICTED BY IDOCK:   -3.77 KCAL/MOL
REMARK 922        TOTAL FREE ENERGY PREDICTED BY IDOCK:   -6.33 KCAL/MOL
REMARK 923 INTER-LIGAND FREE ENERGY PREDICTED BY IDOCK:   -5.71 KCAL/MOL
REMARK 924 INTRA-LIGAND FREE ENERGY PREDICTED BY IDOCK:   -0.62 KCAL/MOL
REMARK 927      BINDING AFFINITY PREDICTED BY RF-SCORE:    0.00 PKD
ROOT
HETATM    1  C   UNL     1      -8.869  11.264  68.512  1.00  0.00    -0.159 C  
HETATM    2  C   UNL     1     -10.403  11.423  68.376  1.00  0.00    -0.195 C  
HETATM    3  C   UNL     1     -10.856  10.260  67.478  1.00  0.00    -0.355 C  
ENDROOT
BRANCH   2   4
HETATM    4  N   UNL     1     -11.070  11.531  69.718  1.00  0.00    -0.150 NA 
BRANCH   4   5
HETATM    5  C   UNL     1     -12.116  12.607  69.702  1.00  0.00    -0.213 C  
BRANCH   5   6
HETATM    6  C   UNL     1     -11.608  14.055  69.922  1.00  0.00    -0.254 C  
BRANCH   6   7
HETATM    7  N   UNL     1     -11.390  14.802  68.693  1.00  0.00    -0.271 N  
HETATM    8  C   UNL     1     -11.023  16.129  68.719  1.00  0.00    -0.330 C  
HETATM    9  H   UNL     1     -11.511  14.334  67.794  1.00  0.00     0.000 HD 
HETATM   10  O   UNL     1     -10.925  16.757  69.773  1.00  0.00    -0.293 OA 
BRANCH   8  11
HETATM   11  C   UNL     1     -10.778  16.782  67.352  1.00  0.00    -0.244 C  
BRANCH  11  12
HETATM   12  N   UNL     1      -9.736  17.787  67.448  1.00  0.00    -0.277 N  
HETATM   13  C   UNL     1      -8.364  17.477  67.778  1.00  0.00    -0.220 C  
HETATM   14  C   UNL     1      -7.903  18.734  68.489  1.00  0.00    -0.367 C  
HETATM   15  C   UNL     1      -8.686  19.844  67.792  1.00  0.00    -0.377 C  
HETATM   16  C   UNL     1      -9.976  19.150  67.435  1.00  0.00    -0.351 C  
HETATM   17  O   UNL     1     -11.034  19.695  67.166  1.00  0.00    -0.467 OA 
ENDBRANCH  11  12
ENDBRANCH   8  11
ENDBRANCH   6   7
ENDBRANCH   5   6
ENDBRANCH   4   5
BRANCH   4  18
HETATM   18  C   UNL     1     -11.592  10.265  70.324  1.00  0.00    -0.316 C  
HETATM   19  C   UNL     1     -12.867  10.507  71.167  1.00  0.00    -0.513 C  
HETATM   20  C   UNL     1     -10.634   9.526  71.277  1.00  0.00    -0.358 C  
ENDBRANCH   4  18
ENDBRANCH   2   4
TORSDOF 7
ENDMDL
MODEL      128
REMARK 921   NORMALIZED FREE ENERGY PREDICTED BY IDOCK:   -3.77 KCAL/MOL
REMARK 922        TOTAL FREE ENERGY PREDICTED BY IDOCK:   -6.32 KCAL/MOL
REMARK 923 INTER-LIGAND FREE ENERGY PREDICTED BY IDOCK:   -5.58 KCAL/MOL
REMARK 924 INTRA-LIGAND FREE ENERGY PREDICTED BY IDOCK:   -0.73 KCAL/MOL
REMARK 927      BINDING AFFINITY PREDICTED BY RF-SCORE:    0.00 PKD
ROOT
HETATM    1  C   UNL     1     -12.159   8.900  71.948  1.00  0.00    -0.443 C  
HETATM    2  C   UNL     1     -10.915   8.117  71.463  1.00  0.00    -0.243 C  
HETATM    3  C   UNL     1      -9.831   8.379  72.522  1.00  0.00    -0.359 C  
ENDROOT
BRANCH   2   4
HETATM    4  N   UNL     1     -11.241   6.678  71.182  1.00  0.00    -0.277 NA 
BRANCH   4   5
HETATM    5  C   UNL     1     -11.169   6.400  69.708  1.00  0.00    -0.419 C  
BRANCH   5   6
HETATM    6  C   UNL     1     -10.177   7.272  68.897  1.00  0.00    -0.193 C  
BRANCH   6   7
HETATM    7  N   UNL     1     -10.815   8.284  68.070  1.00  0.00    -0.467 N  
HETATM    8  C   UNL     1     -10.132   9.409  67.664  1.00  0.00    -0.211 C  
HETATM    9  H   UNL     1     -11.786   8.159  67.785  1.00  0.00     0.000 HD 
HETATM   10  O   UNL     1      -8.981   9.641  68.032  1.00  0.00    -0.123 OA 
BRANCH   8  11
HETATM   11  C   UNL     1     -10.909  10.371  66.755  1.00  0.00    -0.116 C  
BRANCH  11  12
HETATM   12  N   UNL     1     -11.100  11.650  67.413  1.00  0.00    -0.263 N  
HETATM   13  C   UNL     1     -10.440  12.864  66.995  1.00  0.00    -0.238 C  
HETATM   14  C   UNL     1     -10.304  13.631  68.296  1.00  0.00    -0.251 C  
HETATM   15  C   UNL     1     -11.547  13.222  69.081  1.00  0.00    -0.370 C  
HETATM   16  C   UNL     1     -11.766  11.804  68.617  1.00  0.00    -0.330 C  
HETATM   17  O   UNL     1     -12.427  10.954  69.192  1.00  0.00    -0.409 OA 
ENDBRANCH  11  12
ENDBRANCH   8  11
ENDBRANCH   6   7
ENDBRANCH   5   6
ENDBRANCH   4   5
BRANCH   4  18
HETATM   18  C   UNL     1     -10.503   5.644  71.974  1.00  0.00    -0.219 C  
HETATM   19  C   UNL     1     -10.012   4.473  71.087  1.00  0.00    -0.257 C  
HETATM   20  C   UNL     1     -11.297   4.964  73.105  1.00  0.00    -0.395 C  
ENDBRANCH   4  18
ENDBRANCH   2   4
TORSDOF 7
ENDMDL
MODEL      129
REMARK 921   NORMALIZED FREE ENERGY PREDICTED BY IDOCK:   -3.75 KCAL/MOL
REMARK 922        TOTAL FREE ENERGY PREDICTED BY IDOCK:   -6.30 KCAL/MOL
REMARK 923 INTER-LIGAND FREE ENERGY PREDICTED BY IDOCK:   -5.63 KCAL/MOL
REMARK 924 INTRA-LIGAND FREE ENERGY PREDICTED BY IDOCK:   -0.67 KCAL/MOL
REMARK 927      BINDING AFFINITY PREDICTED BY RF-SCORE:    0.00 PKD
ROOT
HETATM    1  C   UNL     1      -9.302   9.231  68.642  1.00  0.00    -0.139 C  
HETATM    2  C   UNL     1      -9.419   8.828  70.132  1.00  0.00    -0.169 C  
HETATM    3  C   UNL     1      -8.101   9.280  70.782  1.00  0.00    -0.194 C  
ENDROOT
BRANCH   2   4
HETATM    4  N   UNL     1     -10.684   9.351  70.750  1.00  0.00    -0.279 NA 
BRANCH   4   5
HETATM    5  C   UNL     1     -11.319  10.378  69.859  1.00  0.00    -0.302 C  
BRANCH   5   6
HETATM    6  C   UNL     1     -11.997  11.575  70.574  1.00  0.00    -0.344 C  
BRANCH   6   7
HETATM    7  N   UNL     1     -11.900  12.832  69.849  1.00  0.00    -0.435 N  
HETATM    8  C   UNL     1     -12.100  14.039  70.482  1.00  0.00    -0.353 C  
HETATM    9  H   UNL     1     -11.681  12.820  68.853  1.00  0.00     0.000 HD 
HETATM   10  O   UNL     1     -12.429  14.107  71.666  1.00  0.00    -0.335 OA 
BRANCH   8  11
HETATM   11  C   UNL     1     -11.920  15.289  69.610  1.00  0.00    -0.338 C  
BRANCH  11  12
HETATM   12  N   UNL     1     -10.812  15.112  68.690  1.00  0.00    -0.236 N  
HETATM   13  C   UNL     1      -9.463  15.536  68.983  1.00  0.00    -0.242 C  
HETATM   14  C   UNL     1      -8.916  15.868  67.608  1.00  0.00    -0.193 C  
HETATM   15  C   UNL     1      -9.625  14.873  66.693  1.00  0.00    -0.284 C  
HETATM   16  C   UNL     1     -10.960  14.709  67.374  1.00  0.00    -0.308 C  
HETATM   17  O   UNL     1     -11.981  14.280  66.860  1.00  0.00    -0.416 OA 
ENDBRANCH  11  12
ENDBRANCH   8  11
ENDBRANCH   6   7
ENDBRANCH   5   6
ENDBRANCH   4   5
BRANCH   4  18
HETATM   18  C   UNL     1     -11.681   8.339  71.223  1.00  0.00    -0.283 C  
HETATM   19  C   UNL     1     -11.417   7.901  72.684  1.00  0.00    -0.454 C  
HETATM   20  C   UNL     1     -11.737   7.021  70.429  1.00  0.00    -0.326 C  
ENDBRANCH   4  18
ENDBRANCH   2   4
TORSDOF 7
ENDMDL
MODEL      130
REMARK 921   NORMALIZED FREE ENERGY PREDICTED BY IDOCK:   -3.75 KCAL/MOL
REMARK 922        TOTAL FREE ENERGY PREDICTED BY IDOCK:   -6.29 KCAL/MOL
REMARK 923 INTER-LIGAND FREE ENERGY PREDICTED BY IDOCK:   -5.86 KCAL/MOL
REMARK 924 INTRA-LIGAND FREE ENERGY PREDICTED BY IDOCK:   -0.43 KCAL/MOL
REMARK 927      BINDING AFFINITY PREDICTED BY RF-SCORE:    0.00 PKD
ROOT
HETATM    1  C   UNL     1      -8.628   8.259  72.551  1.00  0.00    -0.273 C  
HETATM    2  C   UNL     1      -8.837   8.330  71.018  1.00  0.00    -0.150 C  
HETATM    3  C   UNL     1      -7.896   7.265  70.429  1.00  0.00    -0.099 C  
ENDROOT
BRANCH   2   4
HETATM    4  N   UNL     1     -10.288   8.216  70.651  1.00  0.00    -0.197 NA 
BRANCH   4   5
HETATM    5  C   UNL     1     -10.535   8.799  69.290  1.00  0.00    -0.219 C  
BRANCH   5   6
HETATM    6  C   UNL     1      -9.855  10.161  68.999  1.00  0.00    -0.205 C  
BRANCH   6   7
HETATM    7  N   UNL     1     -10.476  11.291  69.672  1.00  0.00    -0.445 N  
HETATM    8  C   UNL     1     -11.573  11.928  69.133  1.00  0.00    -0.312 C  
HETATM    9  H   UNL     1     -10.093  11.619  70.558  1.00  0.00     0.000 HD 
HETATM   10  O   UNL     1     -12.035  11.615  68.037  1.00  0.00    -0.577 OA 
BRANCH   8  11
HETATM   11  C   UNL     1     -12.158  13.074  69.971  1.00  0.00    -0.297 C  
BRANCH  11  12
HETATM   12  N   UNL     1     -11.540  14.335  69.608  1.00  0.00    -0.280 N  
HETATM   13  C   UNL     1     -10.291  14.428  68.889  1.00  0.00    -0.231 C  
HETATM   14  C   UNL     1      -9.706  15.727  69.408  1.00  0.00    -0.286 C  
HETATM   15  C   UNL     1     -10.937  16.591  69.671  1.00  0.00    -0.287 C  
HETATM   16  C   UNL     1     -11.966  15.565  70.078  1.00  0.00    -0.364 C  
HETATM   17  O   UNL     1     -12.995  15.787  70.695  1.00  0.00    -0.479 OA 
ENDBRANCH  11  12
ENDBRANCH   8  11
ENDBRANCH   6   7
ENDBRANCH   5   6
ENDBRANCH   4   5
BRANCH   4  18
HETATM   18  C   UNL     1     -10.926   6.869  70.797  1.00  0.00    -0.259 C  
HETATM   19  C   UNL     1     -11.256   6.231  69.426  1.00  0.00    -0.489 C  
HETATM   20  C   UNL     1     -12.257   6.830  71.571  1.00  0.00    -0.413 C  
ENDBRANCH   4  18
ENDBRANCH   2   4
TORSDOF 7
ENDMDL
MODEL      131
REMARK 921   NORMALIZED FREE ENERGY PREDICTED BY IDOCK:   -3.75 KCAL/MOL
REMARK 922        TOTAL FREE ENERGY PREDICTED BY IDOCK:   -6.29 KCAL/MOL
REMARK 923 INTER-LIGAND FREE ENERGY PREDICTED BY IDOCK:   -5.66 KCAL/MOL
REMARK 924 INTRA-LIGAND FREE ENERGY PREDICTED BY IDOCK:   -0.63 KCAL/MOL
REMARK 927      BINDING AFFINITY PREDICTED BY RF-SCORE:    0.00 PKD
ROOT
HETATM    1  C   UNL     1      -8.556   6.859  67.375  1.00  0.00    -0.121 C  
HETATM    2  C   UNL     1     -10.005   7.272  67.729  1.00  0.00    -0.166 C  
HETATM    3  C   UNL     1     -10.904   6.216  67.063  1.00  0.00    -0.435 C  
ENDROOT
BRANCH   2   4
HETATM    4  N   UNL     1     -10.182   7.465  69.207  1.00  0.00    -0.194 NA 
BRANCH   4   5
HETATM    5  C   UNL     1     -10.559   8.885  69.513  1.00  0.00    -0.228 C  
BRANCH   5   6
HETATM    6  C   UNL     1      -9.463   9.951  69.256  1.00  0.00    -0.209 C  
BRANCH   6   7
HETATM    7  N   UNL     1      -9.977  11.302  69.089  1.00  0.00    -0.410 N  
HETATM    8  C   UNL     1      -9.660  12.054  67.979  1.00  0.00    -0.199 C  
HETATM    9  H   UNL     1     -10.582  11.700  69.807  1.00  0.00     0.000 HD 
HETATM   10  O   UNL     1      -8.883  11.647  67.116  1.00  0.00    -0.161 OA 
BRANCH   8  11
HETATM   11  C   UNL     1     -10.308  13.444  67.906  1.00  0.00    -0.238 C  
BRANCH  11  12
HETATM   12  N   UNL     1     -11.172  13.541  66.744  1.00  0.00    -0.303 N  
HETATM   13  C   UNL     1     -12.003  12.455  66.281  1.00  0.00    -0.298 C  
HETATM   14  C   UNL     1     -12.062  12.697  64.786  1.00  0.00    -0.495 C  
HETATM   15  C   UNL     1     -12.004  14.218  64.670  1.00  0.00    -0.468 C  
HETATM   16  C   UNL     1     -11.142  14.596  65.848  1.00  0.00    -0.338 C  
HETATM   17  O   UNL     1     -10.543  15.649  65.992  1.00  0.00    -0.307 OA 
ENDBRANCH  11  12
ENDBRANCH   8  11
ENDBRANCH   6   7
ENDBRANCH   5   6
ENDBRANCH   4   5
BRANCH   4  18
HETATM   18  C   UNL     1     -11.071   6.494  69.921  1.00  0.00    -0.371 C  
HETATM   19  C   UNL     1     -11.937   7.185  71.002  1.00  0.00    -0.387 C  
HETATM   20  C   UNL     1     -10.361   5.349  70.668  1.00  0.00    -0.333 C  
ENDBRANCH   4  18
ENDBRANCH   2   4
TORSDOF 7
ENDMDL
MODEL      132
REMARK 921   NORMALIZED FREE ENERGY PREDICTED BY IDOCK:   -3.74 KCAL/MOL
REMARK 922        TOTAL FREE ENERGY PREDICTED BY IDOCK:   -6.28 KCAL/MOL
REMARK 923 INTER-LIGAND FREE ENERGY PREDICTED BY IDOCK:   -5.72 KCAL/MOL
REMARK 924 INTRA-LIGAND FREE ENERGY PREDICTED BY IDOCK:   -0.56 KCAL/MOL
REMARK 927      BINDING AFFINITY PREDICTED BY RF-SCORE:    0.00 PKD
ROOT
HETATM    1  C   UNL     1      -9.382   8.594  71.524  1.00  0.00    -0.319 C  
HETATM    2  C   UNL     1     -10.549   7.982  70.710  1.00  0.00    -0.214 C  
HETATM    3  C   UNL     1     -11.768   8.029  71.647  1.00  0.00    -0.325 C  
ENDROOT
BRANCH   2   4
HETATM    4  N   UNL     1     -10.705   8.653  69.376  1.00  0.00    -0.198 NA 
BRANCH   4   5
HETATM    5  C   UNL     1     -10.373  10.114  69.479  1.00  0.00    -0.240 C  
BRANCH   5   6
HETATM    6  C   UNL     1     -11.580  11.084  69.552  1.00  0.00    -0.313 C  
BRANCH   6   7
HETATM    7  N   UNL     1     -11.448  12.261  68.709  1.00  0.00    -0.285 N  
HETATM    8  C   UNL     1     -11.914  13.490  69.121  1.00  0.00    -0.333 C  
HETATM    9  H   UNL     1     -11.003  12.175  67.795  1.00  0.00     0.000 HD 
HETATM   10  O   UNL     1     -12.515  13.636  70.184  1.00  0.00    -0.308 OA 
BRANCH   8  11
HETATM   11  C   UNL     1     -11.667  14.657  68.154  1.00  0.00    -0.330 C  
BRANCH  11  12
HETATM   12  N   UNL     1     -11.533  14.169  66.794  1.00  0.00    -0.352 N  
HETATM   13  C   UNL     1     -12.660  13.943  65.919  1.00  0.00    -0.456 C  
HETATM   14  C   UNL     1     -12.174  12.805  65.042  1.00  0.00    -0.527 C  
HETATM   15  C   UNL     1     -10.674  13.062  64.926  1.00  0.00    -0.349 C  
HETATM   16  C   UNL     1     -10.352  13.683  66.262  1.00  0.00    -0.293 C  
HETATM   17  O   UNL     1      -9.245  13.758  66.771  1.00  0.00    -0.246 OA 
ENDBRANCH  11  12
ENDBRANCH   8  11
ENDBRANCH   6   7
ENDBRANCH   5   6
ENDBRANCH   4   5
BRANCH   4  18
HETATM   18  C   UNL     1     -10.022   8.015  68.207  1.00  0.00    -0.185 C  
HETATM   19  C   UNL     1     -10.558   8.551  66.857  1.00  0.00    -0.279 C  
HETATM   20  C   UNL     1     -10.160   6.484  68.096  1.00  0.00    -0.170 C  
ENDBRANCH   4  18
ENDBRANCH   2   4
TORSDOF 7
ENDMDL
MODEL      133
REMARK 921   NORMALIZED FREE ENERGY PREDICTED BY IDOCK:   -3.73 KCAL/MOL
REMARK 922        TOTAL FREE ENERGY PREDICTED BY IDOCK:   -6.27 KCAL/MOL
REMARK 923 INTER-LIGAND FREE ENERGY PREDICTED BY IDOCK:   -5.40 KCAL/MOL
REMARK 924 INTRA-LIGAND FREE ENERGY PREDICTED BY IDOCK:   -0.87 KCAL/MOL
REMARK 927      BINDING AFFINITY PREDICTED BY RF-SCORE:    0.00 PKD
ROOT
HETATM    1  C   UNL     1     -10.639  14.855  65.217  1.00  0.00    -0.421 C  
HETATM    2  C   UNL     1     -11.514  14.238  66.335  1.00  0.00    -0.355 C  
HETATM    3  C   UNL     1     -12.854  13.896  65.663  1.00  0.00    -0.467 C  
ENDROOT
BRANCH   2   4
HETATM    4  N   UNL     1     -10.809  13.110  67.032  1.00  0.00    -0.262 NA 
BRANCH   4   5
HETATM    5  C   UNL     1      -9.429  12.926  66.472  1.00  0.00    -0.251 C  
BRANCH   5   6
HETATM    6  C   UNL     1      -8.255  13.267  67.426  1.00  0.00    -0.183 C  
BRANCH   6   7
HETATM    7  N   UNL     1      -7.727  14.612  67.261  1.00  0.00    -0.257 N  
HETATM    8  C   UNL     1      -7.529  15.439  68.344  1.00  0.00    -0.115 C  
HETATM    9  H   UNL     1      -7.500  14.950  66.325  1.00  0.00     0.000 HD 
HETATM   10  O   UNL     1      -7.846  15.106  69.485  1.00  0.00    -0.210 OA 
BRANCH   8  11
HETATM   11  C   UNL     1      -6.920  16.814  68.033  1.00  0.00    -0.148 C  
BRANCH  11  12
HETATM   12  N   UNL     1      -7.960  17.824  67.956  1.00  0.00    -0.237 N  
HETATM   13  C   UNL     1      -9.315  17.537  67.547  1.00  0.00    -0.246 C  
HETATM   14  C   UNL     1      -9.747  18.837  66.899  1.00  0.00    -0.344 C  
HETATM   15  C   UNL     1      -8.998  19.900  67.699  1.00  0.00    -0.416 C  
HETATM   16  C   UNL     1      -7.723  19.183  68.067  1.00  0.00    -0.283 C  
HETATM   17  O   UNL     1      -6.679  19.709  68.417  1.00  0.00    -0.267 OA 
ENDBRANCH  11  12
ENDBRANCH   8  11
ENDBRANCH   6   7
ENDBRANCH   5   6
ENDBRANCH   4   5
BRANCH   4  18
HETATM   18  C   UNL     1     -10.797  13.134  68.529  1.00  0.00    -0.262 C  
HETATM   19  C   UNL     1     -11.781  12.104  69.135  1.00  0.00    -0.384 C  
HETATM   20  C   UNL     1     -11.185  14.471  69.188  1.00  0.00    -0.294 C  
ENDBRANCH   4  18
ENDBRANCH   2   4
TORSDOF 7
ENDMDL
MODEL      134
REMARK 921   NORMALIZED FREE ENERGY PREDICTED BY IDOCK:   -3.71 KCAL/MOL
REMARK 922        TOTAL FREE ENERGY PREDICTED BY IDOCK:   -6.24 KCAL/MOL
REMARK 923 INTER-LIGAND FREE ENERGY PREDICTED BY IDOCK:   -5.57 KCAL/MOL
REMARK 924 INTRA-LIGAND FREE ENERGY PREDICTED BY IDOCK:   -0.67 KCAL/MOL
REMARK 927      BINDING AFFINITY PREDICTED BY RF-SCORE:    0.00 PKD
ROOT
HETATM    1  C   UNL     1      -7.410  10.239  66.065  1.00  0.00    -0.129 C  
HETATM    2  C   UNL     1      -8.666  11.016  65.597  1.00  0.00    -0.157 C  
HETATM    3  C   UNL     1      -9.344  10.106  64.560  1.00  0.00    -0.345 C  
ENDROOT
BRANCH   2   4
HETATM    4  N   UNL     1      -9.511  11.452  66.759  1.00  0.00    -0.179 NA 
BRANCH   4   5
HETATM    5  C   UNL     1      -9.962  12.873  66.578  1.00  0.00    -0.259 C  
BRANCH   5   6
HETATM    6  C   UNL     1      -9.233  13.934  67.441  1.00  0.00    -0.224 C  
BRANCH   6   7
HETATM    7  N   UNL     1      -8.768  15.091  66.692  1.00  0.00    -0.362 N  
HETATM    8  C   UNL     1      -8.421  16.262  67.329  1.00  0.00    -0.177 C  
HETATM    9  H   UNL     1      -8.698  15.035  65.676  1.00  0.00     0.000 HD 
HETATM   10  O   UNL     1      -8.548  16.405  68.545  1.00  0.00    -0.202 OA 
BRANCH   8  11
HETATM   11  C   UNL     1      -7.902  17.387  66.423  1.00  0.00    -0.302 C  
BRANCH  11  12
HETATM   12  N   UNL     1      -8.862  18.473  66.360  1.00  0.00    -0.282 N  
HETATM   13  C   UNL     1      -8.649  19.757  66.987  1.00  0.00    -0.324 C  
HETATM   14  C   UNL     1     -10.060  20.197  67.325  1.00  0.00    -0.572 C  
HETATM   15  C   UNL     1     -10.898  19.605  66.195  1.00  0.00    -0.420 C  
HETATM   16  C   UNL     1     -10.151  18.334  65.876  1.00  0.00    -0.160 C  
HETATM   17  O   UNL     1     -10.599  17.368  65.281  1.00  0.00    -0.667 OA 
ENDBRANCH  11  12
ENDBRANCH   8  11
ENDBRANCH   6   7
ENDBRANCH   5   6
ENDBRANCH   4   5
BRANCH   4  18
HETATM   18  C   UNL     1     -10.648  10.559  67.149  1.00  0.00    -0.264 C  
HETATM   19  C   UNL     1     -11.769  11.333  67.885  1.00  0.00    -0.289 C  
HETATM   20  C   UNL     1     -10.300   9.393  68.093  1.00  0.00    -0.255 C  
ENDBRANCH   4  18
ENDBRANCH   2   4
TORSDOF 7
ENDMDL
MODEL      135
REMARK 921   NORMALIZED FREE ENERGY PREDICTED BY IDOCK:   -3.70 KCAL/MOL
REMARK 922        TOTAL FREE ENERGY PREDICTED BY IDOCK:   -6.23 KCAL/MOL
REMARK 923 INTER-LIGAND FREE ENERGY PREDICTED BY IDOCK:   -5.67 KCAL/MOL
REMARK 924 INTRA-LIGAND FREE ENERGY PREDICTED BY IDOCK:   -0.56 KCAL/MOL
REMARK 927      BINDING AFFINITY PREDICTED BY RF-SCORE:    0.00 PKD
ROOT
HETATM    1  C   UNL     1      -7.358   8.210  71.063  1.00  0.00    -0.058 C  
HETATM    2  C   UNL     1      -8.410   9.135  70.403  1.00  0.00    -0.185 C  
HETATM    3  C   UNL     1      -7.606  10.294  69.789  1.00  0.00    -0.168 C  
ENDROOT
BRANCH   2   4
HETATM    4  N   UNL     1      -9.307   8.376  69.468  1.00  0.00    -0.157 NA 
BRANCH   4   5
HETATM    5  C   UNL     1     -10.749   8.626  69.803  1.00  0.00    -0.215 C  
BRANCH   5   6
HETATM    6  C   UNL     1     -11.019   9.655  70.931  1.00  0.00    -0.342 C  
BRANCH   6   7
HETATM    7  N   UNL     1     -11.358  10.986  70.452  1.00  0.00    -0.467 N  
HETATM    8  C   UNL     1     -12.502  11.626  70.876  1.00  0.00    -0.341 C  
HETATM    9  H   UNL     1     -10.739  11.453  69.791  1.00  0.00     0.000 HD 
HETATM   10  O   UNL     1     -13.315  11.082  71.622  1.00  0.00    -0.363 OA 
BRANCH   8  11
HETATM   11  C   UNL     1     -12.714  13.045  70.331  1.00  0.00     0.024 C  
BRANCH  11  12
HETATM   12  N   UNL     1     -12.457  14.031  71.365  1.00  0.00    -0.359 N  
HETATM   13  C   UNL     1     -13.203  14.098  72.599  1.00  0.00    -0.518 C  
HETATM   14  C   UNL     1     -13.160  15.576  72.931  1.00  0.00    -0.610 C  
HETATM   15  C   UNL     1     -11.802  16.021  72.395  1.00  0.00    -0.639 C  
HETATM   16  C   UNL     1     -11.620  15.121  71.199  1.00  0.00    -0.360 C  
HETATM   17  O   UNL     1     -10.859  15.312  70.265  1.00  0.00    -0.280 OA 
ENDBRANCH  11  12
ENDBRANCH   8  11
ENDBRANCH   6   7
ENDBRANCH   5   6
ENDBRANCH   4   5
BRANCH   4  18
HETATM   18  C   UNL     1      -9.048   8.526  68.001  1.00  0.00    -0.140 C  
HETATM   19  C   UNL     1     -10.358   8.703  67.195  1.00  0.00    -0.369 C  
HETATM   20  C   UNL     1      -8.330   7.347  67.317  1.00  0.00    -0.119 C  
ENDBRANCH   4  18
ENDBRANCH   2   4
TORSDOF 7
ENDMDL
MODEL      136
REMARK 921   NORMALIZED FREE ENERGY PREDICTED BY IDOCK:   -3.70 KCAL/MOL
REMARK 922        TOTAL FREE ENERGY PREDICTED BY IDOCK:   -6.23 KCAL/MOL
REMARK 923 INTER-LIGAND FREE ENERGY PREDICTED BY IDOCK:   -5.83 KCAL/MOL
REMARK 924 INTRA-LIGAND FREE ENERGY PREDICTED BY IDOCK:   -0.40 KCAL/MOL
REMARK 927      BINDING AFFINITY PREDICTED BY RF-SCORE:    0.00 PKD
ROOT
HETATM    1  C   UNL     1      -8.009  16.131  69.050  1.00  0.00    -0.236 C  
HETATM    2  C   UNL     1      -8.468  16.974  67.836  1.00  0.00    -0.209 C  
HETATM    3  C   UNL     1      -7.824  16.307  66.609  1.00  0.00    -0.310 C  
ENDROOT
BRANCH   2   4
HETATM    4  N   UNL     1      -9.961  17.132  67.803  1.00  0.00    -0.280 NA 
BRANCH   4   5
HETATM    5  C   UNL     1     -10.584  16.501  69.015  1.00  0.00    -0.324 C  
BRANCH   5   6
HETATM    6  C   UNL     1     -12.027  15.963  68.837  1.00  0.00    -0.189 C  
BRANCH   6   7
HETATM    7  N   UNL     1     -12.098  14.649  68.218  1.00  0.00    -0.581 N  
HETATM    8  C   UNL     1     -11.597  13.533  68.852  1.00  0.00    -0.323 C  
HETATM    9  H   UNL     1     -12.527  14.551  67.298  1.00  0.00     0.000 HD 
HETATM   10  O   UNL     1     -11.014  13.604  69.933  1.00  0.00     0.043 OA 
BRANCH   8  11
HETATM   11  C   UNL     1     -11.782  12.203  68.108  1.00  0.00    -0.341 C  
BRANCH  11  12
HETATM   12  N   UNL     1     -11.654  11.086  69.026  1.00  0.00    -0.296 N  
HETATM   13  C   UNL     1     -12.630  10.782  70.046  1.00  0.00    -0.181 C  
HETATM   14  C   UNL     1     -11.785  10.151  71.135  1.00  0.00    -0.453 C  
HETATM   15  C   UNL     1     -10.684   9.432  70.359  1.00  0.00    -0.317 C  
HETATM   16  C   UNL     1     -10.506  10.325  69.157  1.00  0.00    -0.224 C  
HETATM   17  O   UNL     1      -9.531  10.354  68.423  1.00  0.00    -0.141 OA 
ENDBRANCH  11  12
ENDBRANCH   8  11
ENDBRANCH   6   7
ENDBRANCH   5   6
ENDBRANCH   4   5
BRANCH   4  18
HETATM   18  C   UNL     1     -10.497  18.510  67.564  1.00  0.00    -0.418 C  
HETATM   19  C   UNL     1     -10.331  18.950  66.089  1.00  0.00    -0.517 C  
HETATM   20  C   UNL     1      -9.844  19.642  68.379  1.00  0.00    -0.531 C  
ENDBRANCH   4  18
ENDBRANCH   2   4
TORSDOF 7
ENDMDL
MODEL      137
REMARK 921   NORMALIZED FREE ENERGY PREDICTED BY IDOCK:   -3.70 KCAL/MOL
REMARK 922        TOTAL FREE ENERGY PREDICTED BY IDOCK:   -6.22 KCAL/MOL
REMARK 923 INTER-LIGAND FREE ENERGY PREDICTED BY IDOCK:   -5.85 KCAL/MOL
REMARK 924 INTRA-LIGAND FREE ENERGY PREDICTED BY IDOCK:   -0.37 KCAL/MOL
REMARK 927      BINDING AFFINITY PREDICTED BY RF-SCORE:    0.00 PKD
ROOT
HETATM    1  C   UNL     1     -11.175  15.430  70.742  1.00  0.00    -0.378 C  
HETATM    2  C   UNL     1     -12.332  14.424  70.956  1.00  0.00    -0.357 C  
HETATM    3  C   UNL     1     -13.618  15.267  70.918  1.00  0.00    -0.402 C  
ENDROOT
BRANCH   2   4
HETATM    4  N   UNL     1     -12.256  13.278  69.989  1.00  0.00    -0.305 NA 
BRANCH   4   5
HETATM    5  C   UNL     1     -11.269  13.574  68.898  1.00  0.00    -0.275 C  
BRANCH   5   6
HETATM    6  C   UNL     1     -11.868  13.907  67.508  1.00  0.00    -0.396 C  
BRANCH   6   7
HETATM    7  N   UNL     1     -11.833  12.800  66.565  1.00  0.00    -0.405 N  
HETATM    8  C   UNL     1     -10.946  12.788  65.511  1.00  0.00    -0.280 C  
HETATM    9  H   UNL     1     -12.477  12.019  66.685  1.00  0.00     0.000 HD 
HETATM   10  O   UNL     1     -10.193  13.734  65.282  1.00  0.00    -0.332 OA 
BRANCH   8  11
HETATM   11  C   UNL     1     -10.982  11.538  64.621  1.00  0.00    -0.288 C  
BRANCH  11  12
HETATM   12  N   UNL     1     -10.194  10.472  65.211  1.00  0.00    -0.299 N  
HETATM   13  C   UNL     1     -10.291  10.089  66.600  1.00  0.00    -0.213 C  
HETATM   14  C   UNL     1      -8.891   9.594  66.905  1.00  0.00    -0.143 C  
HETATM   15  C   UNL     1      -8.433   8.983  65.584  1.00  0.00    -0.163 C  
HETATM   16  C   UNL     1      -9.134   9.853  64.570  1.00  0.00    -0.250 C  
HETATM   17  O   UNL     1      -8.831   9.972  63.394  1.00  0.00    -0.194 OA 
ENDBRANCH  11  12
ENDBRANCH   8  11
ENDBRANCH   6   7
ENDBRANCH   5   6
ENDBRANCH   4   5
BRANCH   4  18
HETATM   18  C   UNL     1     -12.046  11.911  70.565  1.00  0.00    -0.331 C  
HETATM   19  C   UNL     1     -12.092  10.809  69.478  1.00  0.00    -0.344 C  
HETATM   20  C   UNL     1     -13.072  11.457  71.620  1.00  0.00    -0.498 C  
ENDBRANCH   4  18
ENDBRANCH   2   4
TORSDOF 7
ENDMDL
MODEL      138
REMARK 921   NORMALIZED FREE ENERGY PREDICTED BY IDOCK:   -3.68 KCAL/MOL
REMARK 922        TOTAL FREE ENERGY PREDICTED BY IDOCK:   -6.19 KCAL/MOL
REMARK 923 INTER-LIGAND FREE ENERGY PREDICTED BY IDOCK:   -5.41 KCAL/MOL
REMARK 924 INTRA-LIGAND FREE ENERGY PREDICTED BY IDOCK:   -0.78 KCAL/MOL
REMARK 927      BINDING AFFINITY PREDICTED BY RF-SCORE:    0.00 PKD
ROOT
HETATM    1  C   UNL     1      -7.681   6.971  70.517  1.00  0.00    -0.095 C  
HETATM    2  C   UNL     1      -8.523   8.211  70.904  1.00  0.00    -0.130 C  
HETATM    3  C   UNL     1      -7.594   9.418  70.686  1.00  0.00    -0.163 C  
ENDROOT
BRANCH   2   4
HETATM    4  N   UNL     1      -9.836   8.239  70.177  1.00  0.00    -0.183 NA 
BRANCH   4   5
HETATM    5  C   UNL     1      -9.730   7.510  68.869  1.00  0.00    -0.151 C  
BRANCH   5   6
HETATM    6  C   UNL     1     -10.693   7.977  67.748  1.00  0.00    -0.104 C  
BRANCH   6   7
HETATM    7  N   UNL     1     -10.264   9.186  67.063  1.00  0.00    -0.247 N  
HETATM    8  C   UNL     1     -10.790  10.417  67.390  1.00  0.00    -0.286 C  
HETATM    9  H   UNL     1      -9.562   9.122  66.326  1.00  0.00     0.000 HD 
HETATM   10  O   UNL     1     -11.685  10.542  68.225  1.00  0.00    -0.401 OA 
BRANCH   8  11
HETATM   11  C   UNL     1     -10.214  11.615  66.622  1.00  0.00    -0.216 C  
BRANCH  11  12
HETATM   12  N   UNL     1     -11.237  12.229  65.797  1.00  0.00    -0.323 N  
HETATM   13  C   UNL     1     -11.408  11.934  64.394  1.00  0.00    -0.326 C  
HETATM   14  C   UNL     1     -11.953  13.237  63.845  1.00  0.00    -0.541 C  
HETATM   15  C   UNL     1     -12.779  13.792  65.002  1.00  0.00    -0.379 C  
HETATM   16  C   UNL     1     -12.017  13.297  66.206  1.00  0.00    -0.417 C  
HETATM   17  O   UNL     1     -12.091  13.747  67.338  1.00  0.00    -0.386 OA 
ENDBRANCH  11  12
ENDBRANCH   8  11
ENDBRANCH   6   7
ENDBRANCH   5   6
ENDBRANCH   4   5
BRANCH   4  18
HETATM   18  C   UNL     1     -11.050   7.818  70.946  1.00  0.00    -0.259 C  
HETATM   19  C   UNL     1     -10.926   8.144  72.454  1.00  0.00    -0.414 C  
HETATM   20  C   UNL     1     -11.391   6.316  70.903  1.00  0.00    -0.389 C  
ENDBRANCH   4  18
ENDBRANCH   2   4
TORSDOF 7
ENDMDL
MODEL      139
REMARK 921   NORMALIZED FREE ENERGY PREDICTED BY IDOCK:   -3.67 KCAL/MOL
REMARK 922        TOTAL FREE ENERGY PREDICTED BY IDOCK:   -6.19 KCAL/MOL
REMARK 923 INTER-LIGAND FREE ENERGY PREDICTED BY IDOCK:   -5.34 KCAL/MOL
REMARK 924 INTRA-LIGAND FREE ENERGY PREDICTED BY IDOCK:   -0.84 KCAL/MOL
REMARK 927      BINDING AFFINITY PREDICTED BY RF-SCORE:    0.00 PKD
ROOT
HETATM    1  C   UNL     1     -10.035   8.763  71.518  1.00  0.00    -0.370 C  
HETATM    2  C   UNL     1      -9.784   9.657  70.279  1.00  0.00    -0.259 C  
HETATM    3  C   UNL     1      -8.268   9.593  70.030  1.00  0.00    -0.197 C  
ENDROOT
BRANCH   2   4
HETATM    4  N   UNL     1     -10.668   9.271  69.128  1.00  0.00    -0.213 NA 
BRANCH   4   5
HETATM    5  C   UNL     1     -11.525  10.430  68.710  1.00  0.00    -0.175 C  
BRANCH   5   6
HETATM    6  C   UNL     1     -11.548  11.644  69.673  1.00  0.00    -0.330 C  
BRANCH   6   7
HETATM    7  N   UNL     1     -11.886  12.905  69.032  1.00  0.00    -0.311 N  
HETATM    8  C   UNL     1     -10.915  13.695  68.455  1.00  0.00    -0.267 C  
HETATM    9  H   UNL     1     -12.859  13.210  69.009  1.00  0.00     0.000 HD 
HETATM   10  O   UNL     1      -9.721  13.405  68.512  1.00  0.00    -0.218 OA 
BRANCH   8  11
HETATM   11  C   UNL     1     -11.416  14.974  67.771  1.00  0.00    -0.334 C  
BRANCH  11  12
HETATM   12  N   UNL     1     -11.397  14.819  66.328  1.00  0.00    -0.345 N  
HETATM   13  C   UNL     1     -10.652  15.687  65.447  1.00  0.00    -0.415 C  
HETATM   14  C   UNL     1     -11.487  15.671  64.182  1.00  0.00    -0.080 C  
HETATM   15  C   UNL     1     -12.079  14.264  64.165  1.00  0.00    -0.423 C  
HETATM   16  C   UNL     1     -12.238  13.966  65.635  1.00  0.00    -0.452 C  
HETATM   17  O   UNL     1     -12.964  13.113  66.120  1.00  0.00    -0.100 OA 
ENDBRANCH  11  12
ENDBRANCH   8  11
ENDBRANCH   6   7
ENDBRANCH   5   6
ENDBRANCH   4   5
BRANCH   4  18
HETATM   18  C   UNL     1     -10.010   8.619  67.951  1.00  0.00    -0.188 C  
HETATM   19  C   UNL     1     -10.052   9.517  66.691  1.00  0.00    -0.321 C  
HETATM   20  C   UNL     1     -10.618   7.281  67.492  1.00  0.00    -0.344 C  
ENDBRANCH   4  18
ENDBRANCH   2   4
TORSDOF 7
ENDMDL
MODEL      140
REMARK 921   NORMALIZED FREE ENERGY PREDICTED BY IDOCK:   -3.67 KCAL/MOL
REMARK 922        TOTAL FREE ENERGY PREDICTED BY IDOCK:   -6.18 KCAL/MOL
REMARK 923 INTER-LIGAND FREE ENERGY PREDICTED BY IDOCK:   -5.45 KCAL/MOL
REMARK 924 INTRA-LIGAND FREE ENERGY PREDICTED BY IDOCK:   -0.73 KCAL/MOL
REMARK 927      BINDING AFFINITY PREDICTED BY RF-SCORE:    0.00 PKD
ROOT
HETATM    1  C   UNL     1     -12.300  14.339  64.388  1.00  0.00    -0.417 C  
HETATM    2  C   UNL     1     -12.367  12.961  65.091  1.00  0.00    -0.493 C  
HETATM    3  C   UNL     1     -11.504  12.023  64.230  1.00  0.00    -0.435 C  
ENDROOT
BRANCH   2   4
HETATM    4  N   UNL     1     -12.000  13.062  66.543  1.00  0.00    -0.402 NA 
BRANCH   4   5
HETATM    5  C   UNL     1     -11.284  11.822  66.993  1.00  0.00    -0.322 C  
BRANCH   5   6
HETATM    6  C   UNL     1     -11.677  11.278  68.391  1.00  0.00    -0.294 C  
BRANCH   6   7
HETATM    7  N   UNL     1     -11.450   9.850  68.557  1.00  0.00    -0.513 N  
HETATM    8  C   UNL     1     -10.875   9.348  69.704  1.00  0.00    -0.228 C  
HETATM    9  H   UNL     1     -11.722   9.210  67.812  1.00  0.00     0.000 HD 
HETATM   10  O   UNL     1     -10.470  10.081  70.605  1.00  0.00    -0.276 OA 
BRANCH   8  11
HETATM   11  C   UNL     1     -10.739   7.820  69.769  1.00  0.00    -0.236 C  
BRANCH  11  12
HETATM   12  N   UNL     1      -9.776   7.354  68.789  1.00  0.00    -0.148 N  
HETATM   13  C   UNL     1      -8.394   7.773  68.773  1.00  0.00    -0.128 C  
HETATM   14  C   UNL     1      -8.045   7.707  67.300  1.00  0.00    -0.119 C  
HETATM   15  C   UNL     1      -8.890   6.544  66.786  1.00  0.00    -0.130 C  
HETATM   16  C   UNL     1     -10.116   6.630  67.659  1.00  0.00    -0.155 C  
HETATM   17  O   UNL     1     -11.205   6.133  67.420  1.00  0.00    -0.288 OA 
ENDBRANCH  11  12
ENDBRANCH   8  11
ENDBRANCH   6   7
ENDBRANCH   5   6
ENDBRANCH   4   5
BRANCH   4  18
HETATM   18  C   UNL     1     -11.282  14.301  66.982  1.00  0.00    -0.323 C  
HETATM   19  C   UNL     1      -9.782  14.038  67.256  1.00  0.00    -0.237 C  
HETATM   20  C   UNL     1     -11.801  14.962  68.273  1.00  0.00    -0.308 C  
ENDBRANCH   4  18
ENDBRANCH   2   4
TORSDOF 7
ENDMDL
MODEL      141
REMARK 921   NORMALIZED FREE ENERGY PREDICTED BY IDOCK:   -3.67 KCAL/MOL
REMARK 922        TOTAL FREE ENERGY PREDICTED BY IDOCK:   -6.18 KCAL/MOL
REMARK 923 INTER-LIGAND FREE ENERGY PREDICTED BY IDOCK:   -5.24 KCAL/MOL
REMARK 924 INTRA-LIGAND FREE ENERGY PREDICTED BY IDOCK:   -0.94 KCAL/MOL
REMARK 927      BINDING AFFINITY PREDICTED BY RF-SCORE:    0.00 PKD
ROOT
HETATM    1  C   UNL     1      -9.477  13.221  67.168  1.00  0.00    -0.240 C  
HETATM    2  C   UNL     1      -8.854  11.821  67.393  1.00  0.00    -0.164 C  
HETATM    3  C   UNL     1      -7.818  12.011  68.513  1.00  0.00    -0.129 C  
ENDROOT
BRANCH   2   4
HETATM    4  N   UNL     1      -9.908  10.777  67.626  1.00  0.00    -0.169 NA 
BRANCH   4   5
HETATM    5  C   UNL     1     -11.251  11.417  67.820  1.00  0.00    -0.283 C  
BRANCH   5   6
HETATM    6  C   UNL     1     -11.788  11.449  69.274  1.00  0.00    -0.349 C  
BRANCH   6   7
HETATM    7  N   UNL     1     -12.118  10.140  69.814  1.00  0.00    -0.492 N  
HETATM    8  C   UNL     1     -12.757  10.008  71.027  1.00  0.00    -0.362 C  
HETATM    9  H   UNL     1     -11.871   9.303  69.285  1.00  0.00     0.000 HD 
HETATM   10  O   UNL     1     -13.019  10.981  71.735  1.00  0.00    -0.455 OA 
BRANCH   8  11
HETATM   11  C   UNL     1     -13.089   8.572  71.455  1.00  0.00    -0.299 C  
BRANCH  11  12
HETATM   12  N   UNL     1     -11.874   7.794  71.609  1.00  0.00    -0.276 N  
HETATM   13  C   UNL     1     -10.905   8.035  72.652  1.00  0.00    -0.368 C  
HETATM   14  C   UNL     1      -9.604   7.610  71.999  1.00  0.00    -0.200 C  
HETATM   15  C   UNL     1     -10.026   6.469  71.076  1.00  0.00    -0.203 C  
HETATM   16  C   UNL     1     -11.417   6.886  70.670  1.00  0.00    -0.336 C  
HETATM   17  O   UNL     1     -12.034   6.479  69.698  1.00  0.00    -0.216 OA 
ENDBRANCH  11  12
ENDBRANCH   8  11
ENDBRANCH   6   7
ENDBRANCH   5   6
ENDBRANCH   4   5
BRANCH   4  18
HETATM   18  C   UNL     1      -9.974   9.644  66.649  1.00  0.00    -0.236 C  
HETATM   19  C   UNL     1      -9.928   8.266  67.352  1.00  0.00    -0.271 C  
HETATM   20  C   UNL     1      -8.843   9.583  65.606  1.00  0.00    -0.194 C  
ENDBRANCH   4  18
ENDBRANCH   2   4
TORSDOF 7
ENDMDL
MODEL      142
REMARK 921   NORMALIZED FREE ENERGY PREDICTED BY IDOCK:   -3.67 KCAL/MOL
REMARK 922        TOTAL FREE ENERGY PREDICTED BY IDOCK:   -6.18 KCAL/MOL
REMARK 923 INTER-LIGAND FREE ENERGY PREDICTED BY IDOCK:   -5.60 KCAL/MOL
REMARK 924 INTRA-LIGAND FREE ENERGY PREDICTED BY IDOCK:   -0.58 KCAL/MOL
REMARK 927      BINDING AFFINITY PREDICTED BY RF-SCORE:    0.00 PKD
ROOT
HETATM    1  C   UNL     1     -10.771  19.529  67.365  1.00  0.00    -0.589 C  
HETATM    2  C   UNL     1     -10.338  18.084  67.713  1.00  0.00    -0.393 C  
HETATM    3  C   UNL     1     -10.311  17.333  66.371  1.00  0.00    -0.316 C  
ENDROOT
BRANCH   2   4
HETATM    4  N   UNL     1      -9.069  18.064  68.516  1.00  0.00    -0.288 NA 
BRANCH   4   5
HETATM    5  C   UNL     1      -8.670  16.653  68.835  1.00  0.00    -0.238 C  
BRANCH   5   6
HETATM    6  C   UNL     1      -9.695  15.822  69.648  1.00  0.00    -0.248 C  
BRANCH   6   7
HETATM    7  N   UNL     1     -10.079  14.569  69.016  1.00  0.00    -0.319 N  
HETATM    8  C   UNL     1     -11.383  14.127  69.043  1.00  0.00    -0.275 C  
HETATM    9  H   UNL     1      -9.370  14.008  68.544  1.00  0.00     0.000 HD 
HETATM   10  O   UNL     1     -12.264  14.732  69.653  1.00  0.00    -0.306 OA 
BRANCH   8  11
HETATM   11  C   UNL     1     -11.659  12.815  68.296  1.00  0.00    -0.334 C  
BRANCH  11  12
HETATM   12  N   UNL     1     -11.669  11.696  69.220  1.00  0.00    -0.303 N  
HETATM   13  C   UNL     1     -12.780  11.399  70.094  1.00  0.00    -0.004 C  
HETATM   14  C   UNL     1     -12.100  10.761  71.289  1.00  0.00    -0.365 C  
HETATM   15  C   UNL     1     -10.908  10.034  70.673  1.00  0.00    -0.367 C  
HETATM   16  C   UNL     1     -10.556  10.925  69.509  1.00  0.00    -0.175 C  
HETATM   17  O   UNL     1      -9.488  10.947  68.918  1.00  0.00    -0.188 OA 
ENDBRANCH  11  12
ENDBRANCH   8  11
ENDBRANCH   6   7
ENDBRANCH   5   6
ENDBRANCH   4   5
BRANCH   4  18
HETATM   18  C   UNL     1      -7.914  18.857  67.987  1.00  0.00    -0.286 C  
HETATM   19  C   UNL     1      -7.049  18.036  66.999  1.00  0.00    -0.218 C  
HETATM   20  C   UNL     1      -6.914  19.377  69.036  1.00  0.00    -0.390 C  
ENDBRANCH   4  18
ENDBRANCH   2   4
TORSDOF 7
ENDMDL
MODEL      143
REMARK 921   NORMALIZED FREE ENERGY PREDICTED BY IDOCK:   -3.65 KCAL/MOL
REMARK 922        TOTAL FREE ENERGY PREDICTED BY IDOCK:   -6.15 KCAL/MOL
REMARK 923 INTER-LIGAND FREE ENERGY PREDICTED BY IDOCK:   -5.39 KCAL/MOL
REMARK 924 INTRA-LIGAND FREE ENERGY PREDICTED BY IDOCK:   -0.76 KCAL/MOL
REMARK 927      BINDING AFFINITY PREDICTED BY RF-SCORE:    0.00 PKD
ROOT
HETATM    1  C   UNL     1      -9.865   4.836  71.341  1.00  0.00    -0.255 C  
HETATM    2  C   UNL     1      -9.393   6.306  71.462  1.00  0.00    -0.148 C  
HETATM    3  C   UNL     1      -7.950   6.315  70.930  1.00  0.00    -0.112 C  
ENDROOT
BRANCH   2   4
HETATM    4  N   UNL     1     -10.354   7.253  70.803  1.00  0.00    -0.202 NA 
BRANCH   4   5
HETATM    5  C   UNL     1     -11.054   6.581  69.658  1.00  0.00    -0.376 C  
BRANCH   5   6
HETATM    6  C   UNL     1     -10.753   7.149  68.247  1.00  0.00    -0.153 C  
BRANCH   6   7
HETATM    7  N   UNL     1     -10.345   8.545  68.244  1.00  0.00    -0.226 N  
HETATM    8  C   UNL     1      -9.999   9.184  67.073  1.00  0.00    -0.230 C  
HETATM    9  H   UNL     1     -10.314   9.060  69.124  1.00  0.00     0.000 HD 
HETATM   10  O   UNL     1      -9.957   8.593  65.995  1.00  0.00    -0.222 OA 
BRANCH   8  11
HETATM   11  C   UNL     1      -9.636  10.670  67.206  1.00  0.00    -0.163 C  
BRANCH  11  12
HETATM   12  N   UNL     1     -10.513  11.483  66.385  1.00  0.00    -0.241 N  
HETATM   13  C   UNL     1     -10.173  11.916  65.050  1.00  0.00    -0.278 C  
HETATM   14  C   UNL     1     -10.905  13.239  64.936  1.00  0.00    -0.358 C  
HETATM   15  C   UNL     1     -12.158  13.027  65.781  1.00  0.00    -0.510 C  
HETATM   16  C   UNL     1     -11.663  12.092  66.856  1.00  0.00    -0.301 C  
HETATM   17  O   UNL     1     -12.194  11.897  67.938  1.00  0.00    -0.508 OA 
ENDBRANCH  11  12
ENDBRANCH   8  11
ENDBRANCH   6   7
ENDBRANCH   5   6
ENDBRANCH   4   5
BRANCH   4  18
HETATM   18  C   UNL     1     -11.320   7.973  71.692  1.00  0.00    -0.262 C  
HETATM   19  C   UNL     1     -12.779   7.508  71.464  1.00  0.00    -0.391 C  
HETATM   20  C   UNL     1     -11.373   9.504  71.533  1.00  0.00    -0.456 C  
ENDBRANCH   4  18
ENDBRANCH   2   4
TORSDOF 7
ENDMDL
MODEL      144
REMARK 921   NORMALIZED FREE ENERGY PREDICTED BY IDOCK:   -3.65 KCAL/MOL
REMARK 922        TOTAL FREE ENERGY PREDICTED BY IDOCK:   -6.15 KCAL/MOL
REMARK 923 INTER-LIGAND FREE ENERGY PREDICTED BY IDOCK:   -5.53 KCAL/MOL
REMARK 924 INTRA-LIGAND FREE ENERGY PREDICTED BY IDOCK:   -0.62 KCAL/MOL
REMARK 927      BINDING AFFINITY PREDICTED BY RF-SCORE:    0.00 PKD
ROOT
HETATM    1  C   UNL     1     -10.004  20.078  68.567  1.00  0.00    -0.454 C  
HETATM    2  C   UNL     1     -10.135  18.651  67.981  1.00  0.00    -0.375 C  
HETATM    3  C   UNL     1     -10.854  18.828  66.633  1.00  0.00    -0.214 C  
ENDROOT
BRANCH   2   4
HETATM    4  N   UNL     1      -8.812  17.942  67.945  1.00  0.00    -0.255 NA 
BRANCH   4   5
HETATM    5  C   UNL     1      -8.807  16.785  68.901  1.00  0.00    -0.228 C  
BRANCH   5   6
HETATM    6  C   UNL     1     -10.193  16.322  69.418  1.00  0.00    -0.265 C  
BRANCH   6   7
HETATM    7  N   UNL     1     -10.510  14.936  69.108  1.00  0.00    -0.240 N  
HETATM    8  C   UNL     1     -11.686  14.360  69.537  1.00  0.00    -0.313 C  
HETATM    9  H   UNL     1      -9.850  14.381  68.564  1.00  0.00     0.000 HD 
HETATM   10  O   UNL     1     -12.486  14.964  70.249  1.00  0.00    -0.330 OA 
BRANCH   8  11
HETATM   11  C   UNL     1     -11.915  12.907  69.099  1.00  0.00    -0.259 C  
BRANCH  11  12
HETATM   12  N   UNL     1     -11.225  12.637  67.851  1.00  0.00    -0.248 N  
HETATM   13  C   UNL     1     -10.070  11.777  67.754  1.00  0.00    -0.188 C  
HETATM   14  C   UNL     1      -9.302  12.383  66.596  1.00  0.00    -0.227 C  
HETATM   15  C   UNL     1     -10.401  12.922  65.684  1.00  0.00    -0.295 C  
HETATM   16  C   UNL     1     -11.468  13.322  66.673  1.00  0.00    -0.347 C  
HETATM   17  O   UNL     1     -12.388  14.096  66.463  1.00  0.00    -0.460 OA 
ENDBRANCH  11  12
ENDBRANCH   8  11
ENDBRANCH   6   7
ENDBRANCH   5   6
ENDBRANCH   4   5
BRANCH   4  18
HETATM   18  C   UNL     1      -8.285  17.547  66.600  1.00  0.00    -0.256 C  
HETATM   19  C   UNL     1      -7.934  16.041  66.533  1.00  0.00    -0.271 C  
HETATM   20  C   UNL     1      -7.002  18.264  66.139  1.00  0.00    -0.301 C  
ENDBRANCH   4  18
ENDBRANCH   2   4
TORSDOF 7
ENDMDL
MODEL      145
REMARK 921   NORMALIZED FREE ENERGY PREDICTED BY IDOCK:   -3.62 KCAL/MOL
REMARK 922        TOTAL FREE ENERGY PREDICTED BY IDOCK:   -6.11 KCAL/MOL
REMARK 923 INTER-LIGAND FREE ENERGY PREDICTED BY IDOCK:   -5.49 KCAL/MOL
REMARK 924 INTRA-LIGAND FREE ENERGY PREDICTED BY IDOCK:   -0.62 KCAL/MOL
REMARK 927      BINDING AFFINITY PREDICTED BY RF-SCORE:    0.00 PKD
ROOT
HETATM    1  C   UNL     1     -11.745  11.817  68.976  1.00  0.00    -0.390 C  
HETATM    2  C   UNL     1     -12.036  13.249  68.463  1.00  0.00    -0.304 C  
HETATM    3  C   UNL     1     -11.821  14.168  69.677  1.00  0.00    -0.379 C  
ENDROOT
BRANCH   2   4
HETATM    4  N   UNL     1     -11.237  13.568  67.232  1.00  0.00    -0.289 NA 
BRANCH   4   5
HETATM    5  C   UNL     1     -10.053  14.423  67.580  1.00  0.00    -0.232 C  
BRANCH   5   6
HETATM    6  C   UNL     1      -9.964  15.791  66.858  1.00  0.00    -0.243 C  
BRANCH   6   7
HETATM    7  N   UNL     1      -9.861  16.931  67.756  1.00  0.00    -0.247 N  
HETATM    8  C   UNL     1      -8.649  17.537  68.003  1.00  0.00    -0.250 C  
HETATM    9  H   UNL     1     -10.702  17.288  68.211  1.00  0.00     0.000 HD 
HETATM   10  O   UNL     1      -7.597  17.108  67.532  1.00  0.00    -0.164 OA 
BRANCH   8  11
HETATM   11  C   UNL     1      -8.691  18.759  68.932  1.00  0.00    -0.197 C  
BRANCH  11  12
HETATM   12  N   UNL     1      -7.807  19.800  68.442  1.00  0.00    -0.320 N  
HETATM   13  C   UNL     1      -7.941  20.404  67.136  1.00  0.00    -0.335 C  
HETATM   14  C   UNL     1      -6.510  20.767  66.792  1.00  0.00    -0.338 C  
HETATM   15  C   UNL     1      -5.893  21.105  68.147  1.00  0.00    -0.380 C  
HETATM   16  C   UNL     1      -6.638  20.180  69.077  1.00  0.00    -0.286 C  
HETATM   17  O   UNL     1      -6.279  19.844  70.194  1.00  0.00    -0.320 OA 
ENDBRANCH  11  12
ENDBRANCH   8  11
ENDBRANCH   6   7
ENDBRANCH   5   6
ENDBRANCH   4   5
BRANCH   4  18
HETATM   18  C   UNL     1     -10.849  12.420  66.353  1.00  0.00    -0.258 C  
HETATM   19  C   UNL     1      -9.313  12.247  66.268  1.00  0.00    -0.206 C  
HETATM   20  C   UNL     1     -11.309  12.505  64.886  1.00  0.00    -0.351 C  
ENDBRANCH   4  18
ENDBRANCH   2   4
TORSDOF 7
ENDMDL
MODEL      146
REMARK 921   NORMALIZED FREE ENERGY PREDICTED BY IDOCK:   -3.62 KCAL/MOL
REMARK 922        TOTAL FREE ENERGY PREDICTED BY IDOCK:   -6.10 KCAL/MOL
REMARK 923 INTER-LIGAND FREE ENERGY PREDICTED BY IDOCK:   -5.09 KCAL/MOL
REMARK 924 INTRA-LIGAND FREE ENERGY PREDICTED BY IDOCK:   -1.02 KCAL/MOL
REMARK 927      BINDING AFFINITY PREDICTED BY RF-SCORE:    0.00 PKD
ROOT
HETATM    1  C   UNL     1     -12.078  10.256  70.085  1.00  0.00    -0.279 C  
HETATM    2  C   UNL     1     -11.361  10.815  68.833  1.00  0.00    -0.284 C  
HETATM    3  C   UNL     1     -11.197  12.322  69.095  1.00  0.00    -0.300 C  
ENDROOT
BRANCH   2   4
HETATM    4  N   UNL     1     -10.106  10.050  68.525  1.00  0.00    -0.163 NA 
BRANCH   4   5
HETATM    5  C   UNL     1      -8.992  10.988  68.163  1.00  0.00    -0.152 C  
BRANCH   5   6
HETATM    6  C   UNL     1      -8.605  11.042  66.663  1.00  0.00    -0.157 C  
BRANCH   6   7
HETATM    7  N   UNL     1      -8.978  12.280  65.998  1.00  0.00    -0.425 N  
HETATM    8  C   UNL     1     -10.111  12.358  65.217  1.00  0.00    -0.265 C  
HETATM    9  H   UNL     1      -8.390  13.106  66.111  1.00  0.00     0.000 HD 
HETATM   10  O   UNL     1     -10.818  11.377  64.996  1.00  0.00    -0.291 OA 
BRANCH   8  11
HETATM   11  C   UNL     1     -10.412  13.737  64.614  1.00  0.00    -0.412 C  
BRANCH  11  12
HETATM   12  N   UNL     1     -10.535  14.734  65.661  1.00  0.00    -0.325 N  
HETATM   13  C   UNL     1      -9.464  15.625  66.038  1.00  0.00    -0.355 C  
HETATM   14  C   UNL     1      -9.732  15.862  67.511  1.00  0.00    -0.223 C  
HETATM   15  C   UNL     1     -11.254  15.804  67.609  1.00  0.00    -0.246 C  
HETATM   16  C   UNL     1     -11.605  14.802  66.537  1.00  0.00    -0.301 C  
HETATM   17  O   UNL     1     -12.652  14.181  66.450  1.00  0.00    -0.427 OA 
ENDBRANCH  11  12
ENDBRANCH   8  11
ENDBRANCH   6   7
ENDBRANCH   5   6
ENDBRANCH   4   5
BRANCH   4  18
HETATM   18  C   UNL     1      -9.664   9.031  69.530  1.00  0.00    -0.170 C  
HETATM   19  C   UNL     1      -8.190   9.235  69.955  1.00  0.00    -0.148 C  
HETATM   20  C   UNL     1      -9.736   7.560  69.078  1.00  0.00    -0.162 C  
ENDBRANCH   4  18
ENDBRANCH   2   4
TORSDOF 7
ENDMDL
MODEL      147
REMARK 921   NORMALIZED FREE ENERGY PREDICTED BY IDOCK:   -3.62 KCAL/MOL
REMARK 922        TOTAL FREE ENERGY PREDICTED BY IDOCK:   -6.10 KCAL/MOL
REMARK 923 INTER-LIGAND FREE ENERGY PREDICTED BY IDOCK:   -5.43 KCAL/MOL
REMARK 924 INTRA-LIGAND FREE ENERGY PREDICTED BY IDOCK:   -0.67 KCAL/MOL
REMARK 927      BINDING AFFINITY PREDICTED BY RF-SCORE:    0.00 PKD
ROOT
HETATM    1  C   UNL     1      -9.427   7.193  70.655  1.00  0.00    -0.161 C  
HETATM    2  C   UNL     1     -10.490   6.285  69.989  1.00  0.00    -0.218 C  
HETATM    3  C   UNL     1     -11.831   6.699  70.616  1.00  0.00    -0.443 C  
ENDROOT
BRANCH   2   4
HETATM    4  N   UNL     1     -10.406   6.343  68.490  1.00  0.00    -0.177 NA 
BRANCH   4   5
HETATM    5  C   UNL     1      -9.864   7.669  68.043  1.00  0.00    -0.161 C  
BRANCH   5   6
HETATM    6  C   UNL     1     -10.764   8.483  67.079  1.00  0.00    -0.120 C  
BRANCH   6   7
HETATM    7  N   UNL     1     -10.123   9.665  66.524  1.00  0.00    -0.242 N  
HETATM    8  C   UNL     1     -10.593  10.930  66.805  1.00  0.00    -0.259 C  
HETATM    9  H   UNL     1      -9.312   9.556  65.917  1.00  0.00     0.000 HD 
HETATM   10  O   UNL     1     -11.606  11.114  67.479  1.00  0.00    -0.526 OA 
BRANCH   8  11
HETATM   11  C   UNL     1      -9.794  12.090  66.194  1.00  0.00    -0.235 C  
BRANCH  11  12
HETATM   12  N   UNL     1     -10.573  12.758  65.168  1.00  0.00    -0.294 N  
HETATM   13  C   UNL     1     -11.063  14.110  65.299  1.00  0.00    -0.331 C  
HETATM   14  C   UNL     1     -12.340  14.080  64.483  1.00  0.00    -0.409 C  
HETATM   15  C   UNL     1     -12.027  13.084  63.370  1.00  0.00    -0.592 C  
HETATM   16  C   UNL     1     -11.097  12.117  64.059  1.00  0.00    -0.386 C  
HETATM   17  O   UNL     1     -10.839  10.982  63.691  1.00  0.00    -0.319 OA 
ENDBRANCH  11  12
ENDBRANCH   8  11
ENDBRANCH   6   7
ENDBRANCH   5   6
ENDBRANCH   4   5
BRANCH   4  18
HETATM   18  C   UNL     1      -9.718   5.206  67.801  1.00  0.00    -0.148 C  
HETATM   19  C   UNL     1      -8.232   5.522  67.500  1.00  0.00    -0.101 C  
HETATM   20  C   UNL     1     -10.305   4.783  66.441  1.00  0.00    -0.312 C  
ENDBRANCH   4  18
ENDBRANCH   2   4
TORSDOF 7
ENDMDL
MODEL      148
REMARK 921   NORMALIZED FREE ENERGY PREDICTED BY IDOCK:   -3.60 KCAL/MOL
REMARK 922        TOTAL FREE ENERGY PREDICTED BY IDOCK:   -6.09 KCAL/MOL
REMARK 923 INTER-LIGAND FREE ENERGY PREDICTED BY IDOCK:   -5.18 KCAL/MOL
REMARK 924 INTRA-LIGAND FREE ENERGY PREDICTED BY IDOCK:   -0.90 KCAL/MOL
REMARK 927      BINDING AFFINITY PREDICTED BY RF-SCORE:    0.00 PKD
ROOT
HETATM    1  C   UNL     1      -9.312   9.113  70.990  1.00  0.00    -0.333 C  
HETATM    2  C   UNL     1      -9.326   9.850  69.628  1.00  0.00    -0.228 C  
HETATM    3  C   UNL     1      -7.879   9.781  69.112  1.00  0.00    -0.095 C  
ENDROOT
BRANCH   2   4
HETATM    4  N   UNL     1     -10.389   9.308  68.716  1.00  0.00    -0.206 NA 
BRANCH   4   5
HETATM    5  C   UNL     1     -11.337  10.397  68.306  1.00  0.00    -0.224 C  
BRANCH   5   6
HETATM    6  C   UNL     1     -10.889  11.847  68.624  1.00  0.00    -0.235 C  
BRANCH   6   7
HETATM    7  N   UNL     1     -10.895  12.736  67.472  1.00  0.00    -0.235 N  
HETATM    8  C   UNL     1      -9.727  13.071  66.823  1.00  0.00    -0.248 C  
HETATM    9  H   UNL     1     -11.780  13.119  67.140  1.00  0.00     0.000 HD 
HETATM   10  O   UNL     1      -8.628  12.689  67.221  1.00  0.00    -0.180 OA 
BRANCH   8  11
HETATM   11  C   UNL     1      -9.883  13.978  65.595  1.00  0.00    -0.228 C  
BRANCH  11  12
HETATM   12  N   UNL     1     -10.840  13.412  64.663  1.00  0.00    -0.371 N  
HETATM   13  C   UNL     1     -12.228  13.807  64.615  1.00  0.00    -0.406 C  
HETATM   14  C   UNL     1     -12.917  12.540  64.149  1.00  0.00    -0.233 C  
HETATM   15  C   UNL     1     -11.884  11.891  63.231  1.00  0.00    -0.418 C  
HETATM   16  C   UNL     1     -10.583  12.307  63.870  1.00  0.00    -0.427 C  
HETATM   17  O   UNL     1      -9.498  11.775  63.702  1.00  0.00    -0.190 OA 
ENDBRANCH  11  12
ENDBRANCH   8  11
ENDBRANCH   6   7
ENDBRANCH   5   6
ENDBRANCH   4   5
BRANCH   4  18
HETATM   18  C   UNL     1      -9.932   8.505  67.538  1.00  0.00    -0.200 C  
HETATM   19  C   UNL     1      -9.886   9.348  66.241  1.00  0.00    -0.351 C  
HETATM   20  C   UNL     1     -10.798   7.284  67.174  1.00  0.00    -0.378 C  
ENDBRANCH   4  18
ENDBRANCH   2   4
TORSDOF 7
ENDMDL
MODEL      149
REMARK 921   NORMALIZED FREE ENERGY PREDICTED BY IDOCK:   -3.59 KCAL/MOL
REMARK 922        TOTAL FREE ENERGY PREDICTED BY IDOCK:   -6.07 KCAL/MOL
REMARK 923 INTER-LIGAND FREE ENERGY PREDICTED BY IDOCK:   -5.23 KCAL/MOL
REMARK 924 INTRA-LIGAND FREE ENERGY PREDICTED BY IDOCK:   -0.84 KCAL/MOL
REMARK 927      BINDING AFFINITY PREDICTED BY RF-SCORE:    0.00 PKD
ROOT
HETATM    1  C   UNL     1     -10.529  16.700  65.843  1.00  0.00    -0.324 C  
HETATM    2  C   UNL     1     -10.238  17.552  67.102  1.00  0.00    -0.323 C  
HETATM    3  C   UNL     1     -11.066  16.911  68.228  1.00  0.00    -0.213 C  
ENDROOT
BRANCH   2   4
HETATM    4  N   UNL     1      -8.763  17.688  67.351  1.00  0.00    -0.231 NA 
BRANCH   4   5
HETATM    5  C   UNL     1      -7.997  16.686  66.537  1.00  0.00    -0.307 C  
BRANCH   5   6
HETATM    6  C   UNL     1      -7.401  15.487  67.318  1.00  0.00    -0.214 C  
BRANCH   6   7
HETATM    7  N   UNL     1      -7.998  14.204  66.984  1.00  0.00    -0.373 N  
HETATM    8  C   UNL     1      -9.004  13.662  67.754  1.00  0.00    -0.196 C  
HETATM    9  H   UNL     1      -7.667  13.695  66.164  1.00  0.00     0.000 HD 
HETATM   10  O   UNL     1      -9.395  14.202  68.788  1.00  0.00    -0.180 OA 
BRANCH   8  11
HETATM   11  C   UNL     1      -9.577  12.327  67.260  1.00  0.00    -0.187 C  
BRANCH  11  12
HETATM   12  N   UNL     1      -9.946  11.486  68.384  1.00  0.00    -0.201 N  
HETATM   13  C   UNL     1      -8.984  10.760  69.180  1.00  0.00    -0.087 C  
HETATM   14  C   UNL     1      -9.772   9.543  69.623  1.00  0.00    -0.215 C  
HETATM   15  C   UNL     1     -11.196  10.073  69.760  1.00  0.00    -0.307 C  
HETATM   16  C   UNL     1     -11.249  11.130  68.686  1.00  0.00    -0.255 C  
HETATM   17  O   UNL     1     -12.260  11.599  68.188  1.00  0.00    -0.537 OA 
ENDBRANCH  11  12
ENDBRANCH   8  11
ENDBRANCH   6   7
ENDBRANCH   5   6
ENDBRANCH   4   5
BRANCH   4  18
HETATM   18  C   UNL     1      -8.174  19.060  67.231  1.00  0.00    -0.274 C  
HETATM   19  C   UNL     1      -9.264  20.158  67.175  1.00  0.00    -0.506 C  
HETATM   20  C   UNL     1      -7.304  19.316  65.986  1.00  0.00    -0.298 C  
ENDBRANCH   4  18
ENDBRANCH   2   4
TORSDOF 7
ENDMDL
MODEL      150
REMARK 921   NORMALIZED FREE ENERGY PREDICTED BY IDOCK:   -3.58 KCAL/MOL
REMARK 922        TOTAL FREE ENERGY PREDICTED BY IDOCK:   -6.06 KCAL/MOL
REMARK 923 INTER-LIGAND FREE ENERGY PREDICTED BY IDOCK:   -5.11 KCAL/MOL
REMARK 924 INTRA-LIGAND FREE ENERGY PREDICTED BY IDOCK:   -0.95 KCAL/MOL
REMARK 927      BINDING AFFINITY PREDICTED BY RF-SCORE:    0.00 PKD
ROOT
HETATM    1  C   UNL     1      -7.037   8.331  67.241  1.00  0.00    -0.079 C  
HETATM    2  C   UNL     1      -7.857   8.318  68.554  1.00  0.00    -0.121 C  
HETATM    3  C   UNL     1      -7.591   9.681  69.214  1.00  0.00    -0.091 C  
ENDROOT
BRANCH   2   4
HETATM    4  N   UNL     1      -9.295   7.964  68.306  1.00  0.00    -0.143 NA 
BRANCH   4   5
HETATM    5  C   UNL     1      -9.779   8.590  67.031  1.00  0.00    -0.204 C  
BRANCH   5   6
HETATM    6  C   UNL     1     -10.841   9.710  67.182  1.00  0.00    -0.114 C  
BRANCH   6   7
HETATM    7  N   UNL     1     -11.168  10.036  68.561  1.00  0.00    -0.474 N  
HETATM    8  C   UNL     1     -11.783  11.225  68.887  1.00  0.00    -0.341 C  
HETATM    9  H   UNL     1     -10.939   9.372  69.301  1.00  0.00     0.000 HD 
HETATM   10  O   UNL     1     -12.023  12.087  68.043  1.00  0.00    -0.495 OA 
BRANCH   8  11
HETATM   11  C   UNL     1     -12.116  11.419  70.372  1.00  0.00    -0.384 C  
BRANCH  11  12
HETATM   12  N   UNL     1     -12.446  10.148  70.990  1.00  0.00    -0.345 N  
HETATM   13  C   UNL     1     -13.800   9.727  71.261  1.00  0.00    -0.037 C  
HETATM   14  C   UNL     1     -13.635   8.856  72.491  1.00  0.00    -0.467 C  
HETATM   15  C   UNL     1     -12.261   8.221  72.296  1.00  0.00    -0.428 C  
HETATM   16  C   UNL     1     -11.510   9.304  71.562  1.00  0.00    -0.384 C  
HETATM   17  O   UNL     1     -10.297   9.404  71.476  1.00  0.00    -0.327 OA 
ENDBRANCH  11  12
ENDBRANCH   8  11
ENDBRANCH   6   7
ENDBRANCH   5   6
ENDBRANCH   4   5
BRANCH   4  18
HETATM   18  C   UNL     1      -9.664   6.514  68.382  1.00  0.00    -0.132 C  
HETATM   19  C   UNL     1     -11.144   6.312  68.788  1.00  0.00    -0.424 C  
HETATM   20  C   UNL     1      -8.868   5.665  69.391  1.00  0.00    -0.114 C  
ENDBRANCH   4  18
ENDBRANCH   2   4
TORSDOF 7
ENDMDL
MODEL      151
REMARK 921   NORMALIZED FREE ENERGY PREDICTED BY IDOCK:   -3.57 KCAL/MOL
REMARK 922        TOTAL FREE ENERGY PREDICTED BY IDOCK:   -6.04 KCAL/MOL
REMARK 923 INTER-LIGAND FREE ENERGY PREDICTED BY IDOCK:   -5.06 KCAL/MOL
REMARK 924 INTRA-LIGAND FREE ENERGY PREDICTED BY IDOCK:   -0.98 KCAL/MOL
REMARK 927      BINDING AFFINITY PREDICTED BY RF-SCORE:    0.00 PKD
ROOT
HETATM    1  C   UNL     1     -10.691  14.983  64.846  1.00  0.00    -0.420 C  
HETATM    2  C   UNL     1     -11.466  14.833  66.178  1.00  0.00    -0.311 C  
HETATM    3  C   UNL     1     -12.530  13.755  65.912  1.00  0.00    -0.512 C  
ENDROOT
BRANCH   2   4
HETATM    4  N   UNL     1     -10.539  14.586  67.333  1.00  0.00    -0.268 NA 
BRANCH   4   5
HETATM    5  C   UNL     1      -9.158  14.265  66.842  1.00  0.00    -0.252 C  
BRANCH   5   6
HETATM    6  C   UNL     1      -8.608  12.866  67.219  1.00  0.00    -0.205 C  
BRANCH   6   7
HETATM    7  N   UNL     1      -9.552  12.033  67.948  1.00  0.00    -0.189 N  
HETATM    8  C   UNL     1     -10.327  11.097  67.300  1.00  0.00    -0.208 C  
HETATM    9  H   UNL     1      -9.642  12.145  68.958  1.00  0.00     0.000 HD 
HETATM   10  O   UNL     1     -10.304  10.966  66.077  1.00  0.00    -0.243 OA 
BRANCH   8  11
HETATM   11  C   UNL     1     -11.245  10.254  68.196  1.00  0.00    -0.229 C  
BRANCH  11  12
HETATM   12  N   UNL     1     -10.524   9.114  68.732  1.00  0.00    -0.218 N  
HETATM   13  C   UNL     1      -9.850   9.132  70.009  1.00  0.00    -0.193 C  
HETATM   14  C   UNL     1      -8.703   8.165  69.791  1.00  0.00    -0.135 C  
HETATM   15  C   UNL     1      -9.282   7.138  68.822  1.00  0.00    -0.136 C  
HETATM   16  C   UNL     1     -10.235   7.974  68.003  1.00  0.00    -0.210 C  
HETATM   17  O   UNL     1     -10.682   7.684  66.905  1.00  0.00    -0.351 OA 
ENDBRANCH  11  12
ENDBRANCH   8  11
ENDBRANCH   6   7
ENDBRANCH   5   6
ENDBRANCH   4   5
BRANCH   4  18
HETATM   18  C   UNL     1     -10.511  15.618  68.419  1.00  0.00    -0.242 C  
HETATM   19  C   UNL     1     -11.676  15.438  69.422  1.00  0.00    -0.369 C  
HETATM   20  C   UNL     1     -10.618  17.084  67.961  1.00  0.00    -0.373 C  
ENDBRANCH   4  18
ENDBRANCH   2   4
TORSDOF 7
ENDMDL
MODEL      152
REMARK 921   NORMALIZED FREE ENERGY PREDICTED BY IDOCK:   -3.56 KCAL/MOL
REMARK 922        TOTAL FREE ENERGY PREDICTED BY IDOCK:   -6.03 KCAL/MOL
REMARK 923 INTER-LIGAND FREE ENERGY PREDICTED BY IDOCK:   -5.70 KCAL/MOL
REMARK 924 INTRA-LIGAND FREE ENERGY PREDICTED BY IDOCK:   -0.32 KCAL/MOL
REMARK 927      BINDING AFFINITY PREDICTED BY RF-SCORE:    0.00 PKD
ROOT
HETATM    1  C   UNL     1     -11.187   8.716  70.526  1.00  0.00    -0.266 C  
HETATM    2  C   UNL     1     -10.230   8.547  69.321  1.00  0.00    -0.208 C  
HETATM    3  C   UNL     1      -8.812   8.671  69.905  1.00  0.00    -0.144 C  
ENDROOT
BRANCH   2   4
HETATM    4  N   UNL     1     -10.527   7.294  68.549  1.00  0.00    -0.193 NA 
BRANCH   4   5
HETATM    5  C   UNL     1     -10.655   7.595  67.084  1.00  0.00    -0.340 C  
BRANCH   5   6
HETATM    6  C   UNL     1      -9.550   8.495  66.475  1.00  0.00    -0.236 C  
BRANCH   6   7
HETATM    7  N   UNL     1     -10.034   9.435  65.476  1.00  0.00    -0.421 N  
HETATM    8  C   UNL     1      -9.522  10.712  65.391  1.00  0.00    -0.215 C  
HETATM    9  H   UNL     1     -10.765   9.145  64.827  1.00  0.00     0.000 HD 
HETATM   10  O   UNL     1      -8.686  11.134  66.189  1.00  0.00    -0.180 OA 
BRANCH   8  11
HETATM   11  C   UNL     1     -10.088  11.583  64.261  1.00  0.00    -0.291 C  
BRANCH  11  12
HETATM   12  N   UNL     1     -11.001  12.577  64.794  1.00  0.00    -0.292 N  
HETATM   13  C   UNL     1     -10.652  13.480  65.865  1.00  0.00    -0.284 C  
HETATM   14  C   UNL     1     -11.985  13.711  66.550  1.00  0.00    -0.465 C  
HETATM   15  C   UNL     1     -12.991  13.635  65.405  1.00  0.00    -0.331 C  
HETATM   16  C   UNL     1     -12.348  12.631  64.481  1.00  0.00    -0.464 C  
HETATM   17  O   UNL     1     -12.913  11.997  63.605  1.00  0.00    -0.747 OA 
ENDBRANCH  11  12
ENDBRANCH   8  11
ENDBRANCH   6   7
ENDBRANCH   5   6
ENDBRANCH   4   5
BRANCH   4  18
HETATM   18  C   UNL     1      -9.638   6.114  68.793  1.00  0.00    -0.125 C  
HETATM   19  C   UNL     1      -9.711   5.082  67.641  1.00  0.00    -0.188 C  
HETATM   20  C   UNL     1      -9.933   5.295  70.064  1.00  0.00    -0.315 C  
ENDBRANCH   4  18
ENDBRANCH   2   4
TORSDOF 7
ENDMDL
MODEL      153
REMARK 921   NORMALIZED FREE ENERGY PREDICTED BY IDOCK:   -3.55 KCAL/MOL
REMARK 922        TOTAL FREE ENERGY PREDICTED BY IDOCK:   -6.01 KCAL/MOL
REMARK 923 INTER-LIGAND FREE ENERGY PREDICTED BY IDOCK:   -5.28 KCAL/MOL
REMARK 924 INTRA-LIGAND FREE ENERGY PREDICTED BY IDOCK:   -0.73 KCAL/MOL
REMARK 927      BINDING AFFINITY PREDICTED BY RF-SCORE:    0.00 PKD
ROOT
HETATM    1  C   UNL     1      -9.316   8.366  72.101  1.00  0.00    -0.339 C  
HETATM    2  C   UNL     1     -10.616   7.692  71.599  1.00  0.00    -0.202 C  
HETATM    3  C   UNL     1     -11.613   7.811  72.763  1.00  0.00    -0.368 C  
ENDROOT
BRANCH   2   4
HETATM    4  N   UNL     1     -11.058   8.257  70.279  1.00  0.00    -0.247 NA 
BRANCH   4   5
HETATM    5  C   UNL     1     -10.612   9.683  70.140  1.00  0.00    -0.272 C  
BRANCH   5   6
HETATM    6  C   UNL     1     -11.704  10.763  70.349  1.00  0.00    -0.351 C  
BRANCH   6   7
HETATM    7  N   UNL     1     -11.699  11.815  69.345  1.00  0.00    -0.315 N  
HETATM    8  C   UNL     1     -11.988  13.120  69.678  1.00  0.00    -0.306 C  
HETATM    9  H   UNL     1     -11.477  11.583  68.377  1.00  0.00     0.000 HD 
HETATM   10  O   UNL     1     -12.325  13.444  70.816  1.00  0.00    -0.353 OA 
BRANCH   8  11
HETATM   11  C   UNL     1     -11.899  14.137  68.531  1.00  0.00    -0.355 C  
BRANCH  11  12
HETATM   12  N   UNL     1     -10.581  14.743  68.491  1.00  0.00    -0.242 N  
HETATM   13  C   UNL     1      -9.444  14.125  67.850  1.00  0.00    -0.211 C  
HETATM   14  C   UNL     1      -8.281  14.639  68.675  1.00  0.00    -0.159 C  
HETATM   15  C   UNL     1      -8.733  16.035  69.096  1.00  0.00    -0.248 C  
HETATM   16  C   UNL     1     -10.226  15.862  69.223  1.00  0.00    -0.250 C  
HETATM   17  O   UNL     1     -10.983  16.591  69.844  1.00  0.00    -0.349 OA 
ENDBRANCH  11  12
ENDBRANCH   8  11
ENDBRANCH   6   7
ENDBRANCH   5   6
ENDBRANCH   4   5
BRANCH   4  18
HETATM   18  C   UNL     1     -10.739   7.458  69.054  1.00  0.00    -0.148 C  
HETATM   19  C   UNL     1     -10.819   5.934  69.316  1.00  0.00    -0.414 C  
HETATM   20  C   UNL     1      -9.338   7.673  68.451  1.00  0.00    -0.146 C  
ENDBRANCH   4  18
ENDBRANCH   2   4
TORSDOF 7
ENDMDL
MODEL      154
REMARK 921   NORMALIZED FREE ENERGY PREDICTED BY IDOCK:   -3.55 KCAL/MOL
REMARK 922        TOTAL FREE ENERGY PREDICTED BY IDOCK:   -6.01 KCAL/MOL
REMARK 923 INTER-LIGAND FREE ENERGY PREDICTED BY IDOCK:   -5.49 KCAL/MOL
REMARK 924 INTRA-LIGAND FREE ENERGY PREDICTED BY IDOCK:   -0.51 KCAL/MOL
REMARK 927      BINDING AFFINITY PREDICTED BY RF-SCORE:    0.00 PKD
ROOT
HETATM    1  C   UNL     1     -14.223  15.607  72.083  1.00  0.00    -0.529 C  
HETATM    2  C   UNL     1     -12.753  15.197  71.821  1.00  0.00    -0.349 C  
HETATM    3  C   UNL     1     -12.130  15.004  73.214  1.00  0.00    -0.459 C  
ENDROOT
BRANCH   2   4
HETATM    4  N   UNL     1     -12.662  14.031  70.880  1.00  0.00    -0.345 NA 
BRANCH   4   5
HETATM    5  C   UNL     1     -11.680  14.316  69.781  1.00  0.00    -0.309 C  
BRANCH   5   6
HETATM    6  C   UNL     1     -11.678  15.763  69.226  1.00  0.00    -0.374 C  
BRANCH   6   7
HETATM    7  N   UNL     1     -10.928  15.925  67.991  1.00  0.00    -0.326 N  
HETATM    8  C   UNL     1     -10.311  17.117  67.681  1.00  0.00    -0.344 C  
HETATM    9  H   UNL     1     -10.857  15.141  67.342  1.00  0.00     0.000 HD 
HETATM   10  O   UNL     1     -10.419  18.112  68.397  1.00  0.00    -0.359 OA 
BRANCH   8  11
HETATM   11  C   UNL     1      -9.512  17.135  66.371  1.00  0.00    -0.269 C  
BRANCH  11  12
HETATM   12  N   UNL     1      -8.121  16.802  66.619  1.00  0.00    -0.235 N  
HETATM   13  C   UNL     1      -7.691  15.522  67.130  1.00  0.00    -0.222 C  
HETATM   14  C   UNL     1      -6.442  15.880  67.911  1.00  0.00    -0.163 C  
HETATM   15  C   UNL     1      -5.855  17.050  67.125  1.00  0.00    -0.195 C  
HETATM   16  C   UNL     1      -7.091  17.726  66.588  1.00  0.00    -0.222 C  
HETATM   17  O   UNL     1      -7.162  18.875  66.182  1.00  0.00    -0.237 OA 
ENDBRANCH  11  12
ENDBRANCH   8  11
ENDBRANCH   6   7
ENDBRANCH   5   6
ENDBRANCH   4   5
BRANCH   4  18
HETATM   18  C   UNL     1     -12.434  12.681  71.486  1.00  0.00    -0.022 C  
HETATM   19  C   UNL     1     -11.931  11.653  70.444  1.00  0.00    -0.448 C  
HETATM   20  C   UNL     1     -13.663  12.010  72.128  1.00  0.00    -0.080 C  
ENDBRANCH   4  18
ENDBRANCH   2   4
TORSDOF 7
ENDMDL
MODEL      155
REMARK 921   NORMALIZED FREE ENERGY PREDICTED BY IDOCK:   -3.52 KCAL/MOL
REMARK 922        TOTAL FREE ENERGY PREDICTED BY IDOCK:   -5.97 KCAL/MOL
REMARK 923 INTER-LIGAND FREE ENERGY PREDICTED BY IDOCK:   -5.01 KCAL/MOL
REMARK 924 INTRA-LIGAND FREE ENERGY PREDICTED BY IDOCK:   -0.97 KCAL/MOL
REMARK 927      BINDING AFFINITY PREDICTED BY RF-SCORE:    0.00 PKD
ROOT
HETATM    1  C   UNL     1     -10.365   4.787  71.542  1.00  0.00    -0.203 C  
HETATM    2  C   UNL     1     -10.534   6.281  71.911  1.00  0.00    -0.209 C  
HETATM    3  C   UNL     1      -9.229   6.675  72.624  1.00  0.00    -0.148 C  
ENDROOT
BRANCH   2   4
HETATM    4  N   UNL     1     -10.920   7.107  70.718  1.00  0.00    -0.245 NA 
BRANCH   4   5
HETATM    5  C   UNL     1     -11.406   6.227  69.603  1.00  0.00    -0.422 C  
BRANCH   5   6
HETATM    6  C   UNL     1     -10.727   6.435  68.226  1.00  0.00    -0.285 C  
BRANCH   6   7
HETATM    7  N   UNL     1     -11.110   7.667  67.554  1.00  0.00    -0.511 N  
HETATM    8  C   UNL     1     -10.251   8.743  67.494  1.00  0.00    -0.246 C  
HETATM    9  H   UNL     1     -12.030   7.736  67.121  1.00  0.00     0.000 HD 
HETATM   10  O   UNL     1      -9.157   8.736  68.056  1.00  0.00    -0.139 OA 
BRANCH   8  11
HETATM   11  C   UNL     1     -10.762   9.962  66.714  1.00  0.00    -0.084 C  
BRANCH  11  12
HETATM   12  N   UNL     1     -10.669  11.161  67.527  1.00  0.00    -0.220 N  
HETATM   13  C   UNL     1     -11.717  11.596  68.420  1.00  0.00    -0.307 C  
HETATM   14  C   UNL     1     -11.557  13.103  68.408  1.00  0.00    -0.372 C  
HETATM   15  C   UNL     1     -10.054  13.300  68.232  1.00  0.00    -0.250 C  
HETATM   16  C   UNL     1      -9.673  12.111  67.386  1.00  0.00    -0.179 C  
HETATM   17  O   UNL     1      -8.659  12.002  66.716  1.00  0.00    -0.189 OA 
ENDBRANCH  11  12
ENDBRANCH   8  11
ENDBRANCH   6   7
ENDBRANCH   5   6
ENDBRANCH   4   5
BRANCH   4  18
HETATM   18  C   UNL     1     -11.848   8.258  70.956  1.00  0.00    -0.255 C  
HETATM   19  C   UNL     1     -11.092   9.531  71.408  1.00  0.00    -0.438 C  
HETATM   20  C   UNL     1     -12.927   8.046  72.035  1.00  0.00    -0.302 C  
ENDBRANCH   4  18
ENDBRANCH   2   4
TORSDOF 7
ENDMDL
MODEL      156
REMARK 921   NORMALIZED FREE ENERGY PREDICTED BY IDOCK:   -3.52 KCAL/MOL
REMARK 922        TOTAL FREE ENERGY PREDICTED BY IDOCK:   -5.97 KCAL/MOL
REMARK 923 INTER-LIGAND FREE ENERGY PREDICTED BY IDOCK:   -4.96 KCAL/MOL
REMARK 924 INTRA-LIGAND FREE ENERGY PREDICTED BY IDOCK:   -1.00 KCAL/MOL
REMARK 927      BINDING AFFINITY PREDICTED BY RF-SCORE:    0.00 PKD
ROOT
HETATM    1  C   UNL     1      -9.690   8.944  71.484  1.00  0.00    -0.372 C  
HETATM    2  C   UNL     1     -11.163   9.352  71.237  1.00  0.00    -0.367 C  
HETATM    3  C   UNL     1     -11.121  10.336  70.056  1.00  0.00    -0.373 C  
ENDROOT
BRANCH   2   4
HETATM    4  N   UNL     1     -12.051   8.151  71.076  1.00  0.00    -0.256 NA 
BRANCH   4   5
HETATM    5  C   UNL     1     -11.232   6.894  71.019  1.00  0.00    -0.282 C  
BRANCH   5   6
HETATM    6  C   UNL     1     -11.239   6.136  69.668  1.00  0.00    -0.418 C  
BRANCH   6   7
HETATM    7  N   UNL     1     -10.061   6.371  68.848  1.00  0.00    -0.154 N  
HETATM    8  C   UNL     1     -10.172   6.805  67.545  1.00  0.00    -0.190 C  
HETATM    9  H   UNL     1      -9.135   6.212  69.245  1.00  0.00     0.000 HD 
HETATM   10  O   UNL     1     -11.265   6.950  66.998  1.00  0.00    -0.369 OA 
BRANCH   8  11
HETATM   11  C   UNL     1      -8.849   7.060  66.810  1.00  0.00    -0.126 C  
BRANCH  11  12
HETATM   12  N   UNL     1      -8.409   8.427  67.017  1.00  0.00    -0.113 N  
HETATM   13  C   UNL     1      -7.575   8.833  68.124  1.00  0.00    -0.097 C  
HETATM   14  C   UNL     1      -8.016  10.264  68.363  1.00  0.00    -0.108 C  
HETATM   15  C   UNL     1      -8.379  10.762  66.967  1.00  0.00    -0.129 C  
HETATM   16  C   UNL     1      -8.897   9.509  66.306  1.00  0.00    -0.149 C  
HETATM   17  O   UNL     1      -9.604   9.462  65.312  1.00  0.00    -0.269 OA 
ENDBRANCH  11  12
ENDBRANCH   8  11
ENDBRANCH   6   7
ENDBRANCH   5   6
ENDBRANCH   4   5
BRANCH   4  18
HETATM   18  C   UNL     1     -13.199   8.018  72.028  1.00  0.00    -0.253 C  
HETATM   19  C   UNL     1     -14.382   7.236  71.407  1.00  0.00    -0.484 C  
HETATM   20  C   UNL     1     -13.825   9.335  72.522  1.00  0.00    -0.453 C  
ENDBRANCH   4  18
ENDBRANCH   2   4
TORSDOF 7
ENDMDL
MODEL      157
REMARK 921   NORMALIZED FREE ENERGY PREDICTED BY IDOCK:   -3.52 KCAL/MOL
REMARK 922        TOTAL FREE ENERGY PREDICTED BY IDOCK:   -5.96 KCAL/MOL
REMARK 923 INTER-LIGAND FREE ENERGY PREDICTED BY IDOCK:   -5.44 KCAL/MOL
REMARK 924 INTRA-LIGAND FREE ENERGY PREDICTED BY IDOCK:   -0.52 KCAL/MOL
REMARK 927      BINDING AFFINITY PREDICTED BY RF-SCORE:    0.00 PKD
ROOT
HETATM    1  C   UNL     1      -7.537  18.168  69.005  1.00  0.00    -0.155 C  
HETATM    2  C   UNL     1      -7.204  17.847  67.527  1.00  0.00    -0.196 C  
HETATM    3  C   UNL     1      -6.463  16.499  67.561  1.00  0.00    -0.181 C  
ENDROOT
BRANCH   2   4
HETATM    4  N   UNL     1      -8.424  17.918  66.656  1.00  0.00    -0.250 NA 
BRANCH   4   5
HETATM    5  C   UNL     1      -9.585  17.234  67.318  1.00  0.00    -0.254 C  
BRANCH   5   6
HETATM    6  C   UNL     1     -10.066  15.916  66.659  1.00  0.00    -0.279 C  
BRANCH   6   7
HETATM    7  N   UNL     1     -10.010  14.758  67.537  1.00  0.00    -0.219 N  
HETATM    8  C   UNL     1     -10.922  13.731  67.424  1.00  0.00    -0.284 C  
HETATM    9  H   UNL     1      -9.282  14.704  68.250  1.00  0.00     0.000 HD 
HETATM   10  O   UNL     1     -11.857  13.775  66.625  1.00  0.00    -0.366 OA 
BRANCH   8  11
HETATM   11  C   UNL     1     -10.717  12.548  68.380  1.00  0.00    -0.240 C  
BRANCH  11  12
HETATM   12  N   UNL     1     -11.693  12.588  69.453  1.00  0.00    -0.310 N  
HETATM   13  C   UNL     1     -12.237  13.816  69.984  1.00  0.00    -0.342 C  
HETATM   14  C   UNL     1     -12.519  13.455  71.429  1.00  0.00    -0.317 C  
HETATM   15  C   UNL     1     -12.895  11.977  71.360  1.00  0.00    -0.391 C  
HETATM   16  C   UNL     1     -12.050  11.486  70.211  1.00  0.00    -0.359 C  
HETATM   17  O   UNL     1     -11.753  10.325  69.983  1.00  0.00    -0.256 OA 
ENDBRANCH  11  12
ENDBRANCH   8  11
ENDBRANCH   6   7
ENDBRANCH   5   6
ENDBRANCH   4   5
BRANCH   4  18
HETATM   18  C   UNL     1      -8.808  19.265  66.127  1.00  0.00    -0.247 C  
HETATM   19  C   UNL     1      -7.601  20.233  66.070  1.00  0.00    -0.220 C  
HETATM   20  C   UNL     1      -9.877  20.028  66.932  1.00  0.00    -0.571 C  
ENDBRANCH   4  18
ENDBRANCH   2   4
TORSDOF 7
ENDMDL
MODEL      158
REMARK 921   NORMALIZED FREE ENERGY PREDICTED BY IDOCK:   -3.51 KCAL/MOL
REMARK 922        TOTAL FREE ENERGY PREDICTED BY IDOCK:   -5.96 KCAL/MOL
REMARK 923 INTER-LIGAND FREE ENERGY PREDICTED BY IDOCK:   -5.37 KCAL/MOL
REMARK 924 INTRA-LIGAND FREE ENERGY PREDICTED BY IDOCK:   -0.59 KCAL/MOL
REMARK 927      BINDING AFFINITY PREDICTED BY RF-SCORE:    0.00 PKD
ROOT
HETATM    1  C   UNL     1     -10.883   6.479  66.982  1.00  0.00    -0.465 C  
HETATM    2  C   UNL     1     -10.339   7.757  67.667  1.00  0.00    -0.239 C  
HETATM    3  C   UNL     1      -9.418   7.255  68.791  1.00  0.00    -0.142 C  
ENDROOT
BRANCH   2   4
HETATM    4  N   UNL     1      -9.727   8.701  66.672  1.00  0.00    -0.224 NA 
BRANCH   4   5
HETATM    5  C   UNL     1      -9.846  10.119  67.149  1.00  0.00    -0.187 C  
BRANCH   5   6
HETATM    6  C   UNL     1     -10.698  11.066  66.266  1.00  0.00    -0.212 C  
BRANCH   6   7
HETATM    7  N   UNL     1     -10.848  12.408  66.808  1.00  0.00    -0.241 N  
HETATM    8  C   UNL     1     -11.859  13.241  66.382  1.00  0.00    -0.396 C  
HETATM    9  H   UNL     1     -10.192  12.739  67.515  1.00  0.00     0.000 HD 
HETATM   10  O   UNL     1     -12.637  12.916  65.486  1.00  0.00    -0.559 OA 
BRANCH   8  11
HETATM   11  C   UNL     1     -11.931  14.611  67.071  1.00  0.00    -0.276 C  
BRANCH  11  12
HETATM   12  N   UNL     1     -10.664  15.307  66.949  1.00  0.00    -0.309 N  
HETATM   13  C   UNL     1      -9.726  15.444  68.038  1.00  0.00    -0.207 C  
HETATM   14  C   UNL     1      -9.054  16.767  67.732  1.00  0.00    -0.221 C  
HETATM   15  C   UNL     1      -9.044  16.817  66.207  1.00  0.00    -0.320 C  
HETATM   16  C   UNL     1     -10.311  16.079  65.855  1.00  0.00    -0.368 C  
HETATM   17  O   UNL     1     -10.906  16.139  64.791  1.00  0.00    -0.634 OA 
ENDBRANCH  11  12
ENDBRANCH   8  11
ENDBRANCH   6   7
ENDBRANCH   5   6
ENDBRANCH   4   5
BRANCH   4  18
HETATM   18  C   UNL     1      -8.339   8.393  66.203  1.00  0.00    -0.125 C  
HETATM   19  C   UNL     1      -7.303   9.404  66.751  1.00  0.00    -0.086 C  
HETATM   20  C   UNL     1      -8.122   8.405  64.678  1.00  0.00    -0.156 C  
ENDBRANCH   4  18
ENDBRANCH   2   4
TORSDOF 7
ENDMDL
MODEL      159
REMARK 921   NORMALIZED FREE ENERGY PREDICTED BY IDOCK:   -3.51 KCAL/MOL
REMARK 922        TOTAL FREE ENERGY PREDICTED BY IDOCK:   -5.96 KCAL/MOL
REMARK 923 INTER-LIGAND FREE ENERGY PREDICTED BY IDOCK:   -5.01 KCAL/MOL
REMARK 924 INTRA-LIGAND FREE ENERGY PREDICTED BY IDOCK:   -0.95 KCAL/MOL
REMARK 927      BINDING AFFINITY PREDICTED BY RF-SCORE:    0.00 PKD
ROOT
HETATM    1  C   UNL     1     -11.724  16.005  68.914  1.00  0.00    -0.322 C  
HETATM    2  C   UNL     1     -10.217  16.354  68.980  1.00  0.00    -0.269 C  
HETATM    3  C   UNL     1      -9.576  15.234  69.817  1.00  0.00    -0.140 C  
ENDROOT
BRANCH   2   4
HETATM    4  N   UNL     1      -9.640  16.580  67.612  1.00  0.00    -0.233 NA 
BRANCH   4   5
HETATM    5  C   UNL     1     -10.535  15.995  66.559  1.00  0.00    -0.302 C  
BRANCH   5   6
HETATM    6  C   UNL     1      -9.908  14.896  65.664  1.00  0.00    -0.337 C  
BRANCH   6   7
HETATM    7  N   UNL     1     -10.591  13.614  65.731  1.00  0.00    -0.279 N  
HETATM    8  C   UNL     1     -10.176  12.628  66.599  1.00  0.00    -0.236 C  
HETATM    9  H   UNL     1     -11.392  13.441  65.123  1.00  0.00     0.000 HD 
HETATM   10  O   UNL     1      -9.178  12.760  67.306  1.00  0.00    -0.189 OA 
BRANCH   8  11
HETATM   11  C   UNL     1     -11.016  11.343  66.601  1.00  0.00    -0.285 C  
BRANCH  11  12
HETATM   12  N   UNL     1     -11.285  10.915  67.961  1.00  0.00    -0.294 N  
HETATM   13  C   UNL     1     -12.101  11.670  68.883  1.00  0.00    -0.190 C  
HETATM   14  C   UNL     1     -11.491  11.321  70.226  1.00  0.00    -0.286 C  
HETATM   15  C   UNL     1     -11.016   9.883  70.038  1.00  0.00    -0.338 C  
HETATM   16  C   UNL     1     -10.638   9.859  68.579  1.00  0.00    -0.217 C  
HETATM   17  O   UNL     1      -9.907   9.044  68.039  1.00  0.00    -0.155 OA 
ENDBRANCH  11  12
ENDBRANCH   8  11
ENDBRANCH   6   7
ENDBRANCH   5   6
ENDBRANCH   4   5
BRANCH   4  18
HETATM   18  C   UNL     1      -9.227  17.978  67.268  1.00  0.00    -0.255 C  
HETATM   19  C   UNL     1      -7.950  18.008  66.393  1.00  0.00    -0.296 C  
HETATM   20  C   UNL     1      -8.900  18.899  68.458  1.00  0.00    -0.387 C  
ENDBRANCH   4  18
ENDBRANCH   2   4
TORSDOF 7
ENDMDL
MODEL      160
REMARK 921   NORMALIZED FREE ENERGY PREDICTED BY IDOCK:   -3.51 KCAL/MOL
REMARK 922        TOTAL FREE ENERGY PREDICTED BY IDOCK:   -5.95 KCAL/MOL
REMARK 923 INTER-LIGAND FREE ENERGY PREDICTED BY IDOCK:   -4.88 KCAL/MOL
REMARK 924 INTRA-LIGAND FREE ENERGY PREDICTED BY IDOCK:   -1.07 KCAL/MOL
REMARK 927      BINDING AFFINITY PREDICTED BY RF-SCORE:    0.00 PKD
ROOT
HETATM    1  C   UNL     1     -10.903   9.223  67.625  1.00  0.00    -0.188 C  
HETATM    2  C   UNL     1     -11.235  10.731  67.742  1.00  0.00    -0.316 C  
HETATM    3  C   UNL     1     -11.918  10.893  69.110  1.00  0.00    -0.359 C  
ENDROOT
BRANCH   2   4
HETATM    4  N   UNL     1     -10.025  11.585  67.494  1.00  0.00    -0.188 NA 
BRANCH   4   5
HETATM    5  C   UNL     1      -8.772  10.763  67.582  1.00  0.00    -0.126 C  
BRANCH   5   6
HETATM    6  C   UNL     1      -7.930  10.941  68.871  1.00  0.00    -0.146 C  
BRANCH   6   7
HETATM    7  N   UNL     1      -8.490  10.286  70.042  1.00  0.00    -0.359 N  
HETATM    8  C   UNL     1      -8.154   8.989  70.364  1.00  0.00    -0.143 C  
HETATM    9  H   UNL     1      -9.144  10.795  70.637  1.00  0.00     0.000 HD 
HETATM   10  O   UNL     1      -7.421   8.309  69.647  1.00  0.00    -0.077 OA 
BRANCH   8  11
HETATM   11  C   UNL     1      -8.779   8.436  71.652  1.00  0.00    -0.183 C  
BRANCH  11  12
HETATM   12  N   UNL     1      -9.937   7.617  71.344  1.00  0.00    -0.181 N  
HETATM   13  C   UNL     1      -9.854   6.362  70.635  1.00  0.00    -0.184 C  
HETATM   14  C   UNL     1     -11.184   6.303  69.911  1.00  0.00    -0.498 C  
HETATM   15  C   UNL     1     -12.141   7.012  70.865  1.00  0.00    -0.403 C  
HETATM   16  C   UNL     1     -11.245   8.038  71.511  1.00  0.00    -0.255 C  
HETATM   17  O   UNL     1     -11.611   9.047  72.093  1.00  0.00    -0.355 OA 
ENDBRANCH  11  12
ENDBRANCH   8  11
ENDBRANCH   6   7
ENDBRANCH   5   6
ENDBRANCH   4   5
BRANCH   4  18
HETATM   18  C   UNL     1     -10.035  12.442  66.266  1.00  0.00    -0.246 C  
HETATM   19  C   UNL     1      -9.487  13.863  66.544  1.00  0.00    -0.288 C  
HETATM   20  C   UNL     1     -11.412  12.680  65.618  1.00  0.00    -0.387 C  
ENDBRANCH   4  18
ENDBRANCH   2   4
TORSDOF 7
ENDMDL
MODEL      161
REMARK 921   NORMALIZED FREE ENERGY PREDICTED BY IDOCK:   -3.51 KCAL/MOL
REMARK 922        TOTAL FREE ENERGY PREDICTED BY IDOCK:   -5.95 KCAL/MOL
REMARK 923 INTER-LIGAND FREE ENERGY PREDICTED BY IDOCK:   -4.95 KCAL/MOL
REMARK 924 INTRA-LIGAND FREE ENERGY PREDICTED BY IDOCK:   -1.00 KCAL/MOL
REMARK 927      BINDING AFFINITY PREDICTED BY RF-SCORE:    0.00 PKD
ROOT
HETATM    1  C   UNL     1     -11.681  15.612  70.037  1.00  0.00    -0.369 C  
HETATM    2  C   UNL     1     -11.563  15.740  68.499  1.00  0.00    -0.362 C  
HETATM    3  C   UNL     1     -10.815  17.061  68.256  1.00  0.00    -0.341 C  
ENDROOT
BRANCH   2   4
HETATM    4  N   UNL     1     -10.963  14.508  67.884  1.00  0.00    -0.262 NA 
BRANCH   4   5
HETATM    5  C   UNL     1      -9.561  14.301  68.382  1.00  0.00    -0.221 C  
BRANCH   5   6
HETATM    6  C   UNL     1      -8.461  14.195  67.295  1.00  0.00    -0.214 C  
BRANCH   6   7
HETATM    7  N   UNL     1      -8.360  12.881  66.679  1.00  0.00    -0.418 N  
HETATM    8  C   UNL     1      -7.482  11.934  67.158  1.00  0.00    -0.146 C  
HETATM    9  H   UNL     1      -8.949  12.658  65.877  1.00  0.00     0.000 HD 
HETATM   10  O   UNL     1      -6.704  12.174  68.081  1.00  0.00    -0.061 OA 
BRANCH   8  11
HETATM   11  C   UNL     1      -7.512  10.575  66.446  1.00  0.00    -0.133 C  
BRANCH  11  12
HETATM   12  N   UNL     1      -8.597   9.757  66.956  1.00  0.00    -0.124 N  
HETATM   13  C   UNL     1      -8.550   9.083  68.232  1.00  0.00    -0.130 C  
HETATM   14  C   UNL     1      -9.410   7.859  67.991  1.00  0.00    -0.152 C  
HETATM   15  C   UNL     1     -10.462   8.352  67.001  1.00  0.00    -0.375 C  
HETATM   16  C   UNL     1      -9.693   9.375  66.202  1.00  0.00    -0.265 C  
HETATM   17  O   UNL     1      -9.996   9.800  65.099  1.00  0.00    -0.309 OA 
ENDBRANCH  11  12
ENDBRANCH   8  11
ENDBRANCH   6   7
ENDBRANCH   5   6
ENDBRANCH   4   5
BRANCH   4  18
HETATM   18  C   UNL     1     -11.766  13.247  67.960  1.00  0.00    -0.359 C  
HETATM   19  C   UNL     1     -11.170  12.238  68.972  1.00  0.00    -0.319 C  
HETATM   20  C   UNL     1     -11.896  12.447  66.650  1.00  0.00    -0.394 C  
ENDBRANCH   4  18
ENDBRANCH   2   4
TORSDOF 7
ENDMDL
MODEL      162
REMARK 921   NORMALIZED FREE ENERGY PREDICTED BY IDOCK:   -3.49 KCAL/MOL
REMARK 922        TOTAL FREE ENERGY PREDICTED BY IDOCK:   -5.92 KCAL/MOL
REMARK 923 INTER-LIGAND FREE ENERGY PREDICTED BY IDOCK:   -5.37 KCAL/MOL
REMARK 924 INTRA-LIGAND FREE ENERGY PREDICTED BY IDOCK:   -0.56 KCAL/MOL
REMARK 927      BINDING AFFINITY PREDICTED BY RF-SCORE:    0.00 PKD
ROOT
HETATM    1  C   UNL     1     -10.085  17.475  66.512  1.00  0.00    -0.331 C  
HETATM    2  C   UNL     1     -10.646  16.032  66.550  1.00  0.00    -0.284 C  
HETATM    3  C   UNL     1     -10.313  15.430  65.174  1.00  0.00    -0.405 C  
ENDROOT
BRANCH   2   4
HETATM    4  N   UNL     1     -10.150  15.276  67.749  1.00  0.00    -0.229 NA 
BRANCH   4   5
HETATM    5  C   UNL     1     -10.824  13.938  67.843  1.00  0.00    -0.244 C  
BRANCH   5   6
HETATM    6  C   UNL     1     -11.793  13.746  69.038  1.00  0.00    -0.357 C  
BRANCH   6   7
HETATM    7  N   UNL     1     -11.419  12.666  69.938  1.00  0.00    -0.518 N  
HETATM    8  C   UNL     1     -11.757  11.358  69.663  1.00  0.00    -0.345 C  
HETATM    9  H   UNL     1     -10.898  12.880  70.788  1.00  0.00     0.000 HD 
HETATM   10  O   UNL     1     -12.440  11.053  68.686  1.00  0.00    -0.462 OA 
BRANCH   8  11
HETATM   11  C   UNL     1     -11.258  10.314  70.671  1.00  0.00    -0.325 C  
BRANCH  11  12
HETATM   12  N   UNL     1      -9.951   9.818  70.284  1.00  0.00    -0.261 N  
HETATM   13  C   UNL     1      -9.459   9.857  68.927  1.00  0.00    -0.170 C  
HETATM   14  C   UNL     1      -8.550   8.645  68.870  1.00  0.00    -0.130 C  
HETATM   15  C   UNL     1      -7.986   8.556  70.285  1.00  0.00    -0.103 C  
HETATM   16  C   UNL     1      -9.129   9.080  71.118  1.00  0.00    -0.246 C  
HETATM   17  O   UNL     1      -9.287   8.900  72.315  1.00  0.00    -0.360 OA 
ENDBRANCH  11  12
ENDBRANCH   8  11
ENDBRANCH   6   7
ENDBRANCH   5   6
ENDBRANCH   4   5
BRANCH   4  18
HETATM   18  C   UNL     1      -8.667  15.158  67.916  1.00  0.00    -0.157 C  
HETATM   19  C   UNL     1      -8.154  13.737  67.576  1.00  0.00    -0.192 C  
HETATM   20  C   UNL     1      -8.121  15.437  69.329  1.00  0.00    -0.246 C  
ENDBRANCH   4  18
ENDBRANCH   2   4
TORSDOF 7
ENDMDL
MODEL      163
REMARK 921   NORMALIZED FREE ENERGY PREDICTED BY IDOCK:   -3.49 KCAL/MOL
REMARK 922        TOTAL FREE ENERGY PREDICTED BY IDOCK:   -5.92 KCAL/MOL
REMARK 923 INTER-LIGAND FREE ENERGY PREDICTED BY IDOCK:   -6.19 KCAL/MOL
REMARK 924 INTRA-LIGAND FREE ENERGY PREDICTED BY IDOCK:    0.27 KCAL/MOL
REMARK 927      BINDING AFFINITY PREDICTED BY RF-SCORE:    0.00 PKD
ROOT
HETATM    1  C   UNL     1     -10.376  19.262  68.007  1.00  0.00    -0.506 C  
HETATM    2  C   UNL     1      -9.137  18.552  67.410  1.00  0.00    -0.275 C  
HETATM    3  C   UNL     1      -8.615  19.494  66.313  1.00  0.00    -0.382 C  
ENDROOT
BRANCH   2   4
HETATM    4  N   UNL     1      -8.155  18.161  68.478  1.00  0.00    -0.301 NA 
BRANCH   4   5
HETATM    5  C   UNL     1      -8.102  16.668  68.624  1.00  0.00    -0.237 C  
BRANCH   5   6
HETATM    6  C   UNL     1      -9.422  15.977  69.051  1.00  0.00    -0.243 C  
BRANCH   6   7
HETATM    7  N   UNL     1      -9.643  14.681  68.430  1.00  0.00    -0.211 N  
HETATM    8  C   UNL     1      -8.918  14.285  67.327  1.00  0.00    -0.213 C  
HETATM    9  H   UNL     1     -10.348  14.054  68.816  1.00  0.00     0.000 HD 
HETATM   10  O   UNL     1      -8.102  15.028  66.783  1.00  0.00    -0.182 OA 
BRANCH   8  11
HETATM   11  C   UNL     1      -9.218  12.874  66.802  1.00  0.00    -0.230 C  
BRANCH  11  12
HETATM   12  N   UNL     1     -10.381  12.892  65.934  1.00  0.00    -0.280 N  
HETATM   13  C   UNL     1     -10.394  13.532  64.640  1.00  0.00    -0.385 C  
HETATM   14  C   UNL     1     -11.840  13.964  64.499  1.00  0.00    -0.449 C  
HETATM   15  C   UNL     1     -12.611  12.875  65.240  1.00  0.00    -0.502 C  
HETATM   16  C   UNL     1     -11.643  12.484  66.329  1.00  0.00    -0.394 C  
HETATM   17  O   UNL     1     -11.923  11.897  67.362  1.00  0.00    -0.603 OA 
ENDBRANCH  11  12
ENDBRANCH   8  11
ENDBRANCH   6   7
ENDBRANCH   5   6
ENDBRANCH   4   5
BRANCH   4  18
HETATM   18  C   UNL     1      -6.783  18.755  68.394  1.00  0.00    -0.248 C  
HETATM   19  C   UNL     1      -5.678  17.707  68.674  1.00  0.00    -0.164 C  
HETATM   20  C   UNL     1      -6.483  19.905  69.374  1.00  0.00    -0.382 C  
ENDBRANCH   4  18
ENDBRANCH   2   4
TORSDOF 7
ENDMDL
MODEL      164
REMARK 921   NORMALIZED FREE ENERGY PREDICTED BY IDOCK:   -3.48 KCAL/MOL
REMARK 922        TOTAL FREE ENERGY PREDICTED BY IDOCK:   -5.91 KCAL/MOL
REMARK 923 INTER-LIGAND FREE ENERGY PREDICTED BY IDOCK:   -5.39 KCAL/MOL
REMARK 924 INTRA-LIGAND FREE ENERGY PREDICTED BY IDOCK:   -0.52 KCAL/MOL
REMARK 927      BINDING AFFINITY PREDICTED BY RF-SCORE:    0.00 PKD
ROOT
HETATM    1  C   UNL     1     -10.435   5.874  67.833  1.00  0.00    -0.297 C  
HETATM    2  C   UNL     1     -10.973   7.103  68.606  1.00  0.00    -0.035 C  
HETATM    3  C   UNL     1     -11.366   6.572  69.994  1.00  0.00    -0.472 C  
ENDROOT
BRANCH   2   4
HETATM    4  N   UNL     1      -9.997   8.244  68.579  1.00  0.00    -0.185 NA 
BRANCH   4   5
HETATM    5  C   UNL     1     -10.718   9.557  68.684  1.00  0.00    -0.184 C  
BRANCH   5   6
HETATM    6  C   UNL     1     -10.465  10.568  67.537  1.00  0.00    -0.239 C  
BRANCH   6   7
HETATM    7  N   UNL     1     -10.865  11.931  67.848  1.00  0.00    -0.203 N  
HETATM    8  C   UNL     1     -11.785  12.600  67.070  1.00  0.00    -0.369 C  
HETATM    9  H   UNL     1     -10.458  12.401  68.657  1.00  0.00     0.000 HD 
HETATM   10  O   UNL     1     -12.258  12.104  66.048  1.00  0.00    -0.609 OA 
BRANCH   8  11
HETATM   11  C   UNL     1     -12.153  14.014  67.539  1.00  0.00    -0.326 C  
BRANCH  11  12
HETATM   12  N   UNL     1     -11.194  14.981  67.039  1.00  0.00    -0.336 N  
HETATM   13  C   UNL     1     -10.466  14.810  65.803  1.00  0.00    -0.334 C  
HETATM   14  C   UNL     1      -9.166  15.537  66.082  1.00  0.00    -0.379 C  
HETATM   15  C   UNL     1      -9.585  16.674  67.010  1.00  0.00    -0.250 C  
HETATM   16  C   UNL     1     -10.727  16.055  67.777  1.00  0.00    -0.323 C  
HETATM   17  O   UNL     1     -11.170  16.446  68.845  1.00  0.00    -0.332 OA 
ENDBRANCH  11  12
ENDBRANCH   8  11
ENDBRANCH   6   7
ENDBRANCH   5   6
ENDBRANCH   4   5
BRANCH   4  18
HETATM   18  C   UNL     1      -8.839   8.175  69.525  1.00  0.00    -0.143 C  
HETATM   19  C   UNL     1      -8.861   9.329  70.557  1.00  0.00    -0.285 C  
HETATM   20  C   UNL     1      -7.439   8.253  68.889  1.00  0.00    -0.092 C  
ENDBRANCH   4  18
ENDBRANCH   2   4
TORSDOF 7
ENDMDL
MODEL      165
REMARK 921   NORMALIZED FREE ENERGY PREDICTED BY IDOCK:   -3.47 KCAL/MOL
REMARK 922        TOTAL FREE ENERGY PREDICTED BY IDOCK:   -5.90 KCAL/MOL
REMARK 923 INTER-LIGAND FREE ENERGY PREDICTED BY IDOCK:   -4.96 KCAL/MOL
REMARK 924 INTRA-LIGAND FREE ENERGY PREDICTED BY IDOCK:   -0.94 KCAL/MOL
REMARK 927      BINDING AFFINITY PREDICTED BY RF-SCORE:    0.00 PKD
ROOT
HETATM    1  C   UNL     1     -12.753  10.706  70.848  1.00  0.00    -0.498 C  
HETATM    2  C   UNL     1     -12.440   9.486  71.750  1.00  0.00    -0.401 C  
HETATM    3  C   UNL     1     -13.809   8.961  72.214  1.00  0.00    -0.536 C  
ENDROOT
BRANCH   2   4
HETATM    4  N   UNL     1     -11.546   8.500  71.056  1.00  0.00    -0.278 NA 
BRANCH   4   5
HETATM    5  C   UNL     1     -10.107   8.768  71.389  1.00  0.00    -0.284 C  
BRANCH   5   6
HETATM    6  C   UNL     1      -9.269   9.460  70.283  1.00  0.00    -0.245 C  
BRANCH   6   7
HETATM    7  N   UNL     1      -9.831   9.336  68.947  1.00  0.00    -0.161 N  
HETATM    8  C   UNL     1      -9.398   8.359  68.078  1.00  0.00    -0.136 C  
HETATM    9  H   UNL     1     -10.560   9.985  68.649  1.00  0.00     0.000 HD 
HETATM   10  O   UNL     1      -8.478   7.593  68.364  1.00  0.00    -0.124 OA 
BRANCH   8  11
HETATM   11  C   UNL     1     -10.110   8.311  66.719  1.00  0.00    -0.303 C  
BRANCH  11  12
HETATM   12  N   UNL     1      -9.237   8.807  65.671  1.00  0.00    -0.208 N  
HETATM   13  C   UNL     1      -8.267   7.983  64.990  1.00  0.00    -0.141 C  
HETATM   14  C   UNL     1      -7.177   8.976  64.640  1.00  0.00    -0.097 C  
HETATM   15  C   UNL     1      -7.943  10.273  64.394  1.00  0.00    -0.135 C  
HETATM   16  C   UNL     1      -9.099  10.148  65.355  1.00  0.00    -0.188 C  
HETATM   17  O   UNL     1      -9.796  11.063  65.764  1.00  0.00    -0.214 OA 
ENDBRANCH  11  12
ENDBRANCH   8  11
ENDBRANCH   6   7
ENDBRANCH   5   6
ENDBRANCH   4   5
BRANCH   4  18
HETATM   18  C   UNL     1     -11.884   7.049  71.207  1.00  0.00    -0.330 C  
HETATM   19  C   UNL     1     -11.197   6.417  72.442  1.00  0.00    -0.313 C  
HETATM   20  C   UNL     1     -11.483   6.135  70.033  1.00  0.00    -0.369 C  
ENDBRANCH   4  18
ENDBRANCH   2   4
TORSDOF 7
ENDMDL
MODEL      166
REMARK 921   NORMALIZED FREE ENERGY PREDICTED BY IDOCK:   -3.46 KCAL/MOL
REMARK 922        TOTAL FREE ENERGY PREDICTED BY IDOCK:   -5.89 KCAL/MOL
REMARK 923 INTER-LIGAND FREE ENERGY PREDICTED BY IDOCK:   -5.39 KCAL/MOL
REMARK 924 INTRA-LIGAND FREE ENERGY PREDICTED BY IDOCK:   -0.50 KCAL/MOL
REMARK 927      BINDING AFFINITY PREDICTED BY RF-SCORE:    0.00 PKD
ROOT
HETATM    1  C   UNL     1      -7.743  11.149  68.889  1.00  0.00    -0.137 C  
HETATM    2  C   UNL     1      -8.259  12.088  67.771  1.00  0.00    -0.151 C  
HETATM    3  C   UNL     1      -8.040  11.317  66.459  1.00  0.00    -0.160 C  
ENDROOT
BRANCH   2   4
HETATM    4  N   UNL     1      -9.659  12.558  68.045  1.00  0.00    -0.206 NA 
BRANCH   4   5
HETATM    5  C   UNL     1     -10.336  12.968  66.770  1.00  0.00    -0.254 C  
BRANCH   5   6
HETATM    6  C   UNL     1     -10.902  14.410  66.732  1.00  0.00    -0.301 C  
BRANCH   6   7
HETATM    7  N   UNL     1      -9.938  15.436  67.098  1.00  0.00    -0.232 N  
HETATM    8  C   UNL     1      -9.950  16.014  68.349  1.00  0.00    -0.220 C  
HETATM    9  H   UNL     1      -9.240  15.734  66.417  1.00  0.00     0.000 HD 
HETATM   10  O   UNL     1     -10.810  15.738  69.185  1.00  0.00    -0.222 OA 
BRANCH   8  11
HETATM   11  C   UNL     1      -8.848  17.047  68.619  1.00  0.00    -0.267 C  
BRANCH  11  12
HETATM   12  N   UNL     1      -9.256  18.358  68.151  1.00  0.00    -0.303 N  
HETATM   13  C   UNL     1     -10.629  18.713  67.882  1.00  0.00    -0.349 C  
HETATM   14  C   UNL     1     -10.495  19.741  66.777  1.00  0.00    -0.610 C  
HETATM   15  C   UNL     1      -9.180  20.443  67.101  1.00  0.00    -0.511 C  
HETATM   16  C   UNL     1      -8.371  19.333  67.724  1.00  0.00    -0.300 C  
HETATM   17  O   UNL     1      -7.156  19.310  67.844  1.00  0.00    -0.235 OA 
ENDBRANCH  11  12
ENDBRANCH   8  11
ENDBRANCH   6   7
ENDBRANCH   5   6
ENDBRANCH   4   5
BRANCH   4  18
HETATM   18  C   UNL     1     -10.531  11.661  68.867  1.00  0.00    -0.175 C  
HETATM   19  C   UNL     1     -11.122  10.499  68.032  1.00  0.00    -0.361 C  
HETATM   20  C   UNL     1     -11.756  12.325  69.525  1.00  0.00    -0.398 C  
ENDBRANCH   4  18
ENDBRANCH   2   4
TORSDOF 7
ENDMDL
MODEL      167
REMARK 921   NORMALIZED FREE ENERGY PREDICTED BY IDOCK:   -3.46 KCAL/MOL
REMARK 922        TOTAL FREE ENERGY PREDICTED BY IDOCK:   -5.88 KCAL/MOL
REMARK 923 INTER-LIGAND FREE ENERGY PREDICTED BY IDOCK:   -5.39 KCAL/MOL
REMARK 924 INTRA-LIGAND FREE ENERGY PREDICTED BY IDOCK:   -0.49 KCAL/MOL
REMARK 927      BINDING AFFINITY PREDICTED BY RF-SCORE:    0.00 PKD
ROOT
HETATM    1  C   UNL     1     -14.400  15.221  71.611  1.00  0.00    -0.666 C  
HETATM    2  C   UNL     1     -12.926  15.103  71.151  1.00  0.00    -0.421 C  
HETATM    3  C   UNL     1     -12.089  15.207  72.436  1.00  0.00    -0.478 C  
ENDROOT
BRANCH   2   4
HETATM    4  N   UNL     1     -12.706  13.882  70.305  1.00  0.00    -0.251 NA 
BRANCH   4   5
HETATM    5  C   UNL     1     -11.907  14.226  69.081  1.00  0.00    -0.330 C  
BRANCH   5   6
HETATM    6  C   UNL     1     -11.191  15.601  69.098  1.00  0.00    -0.315 C  
BRANCH   6   7
HETATM    7  N   UNL     1      -9.829  15.555  69.606  1.00  0.00    -0.278 N  
HETATM    8  C   UNL     1      -8.768  15.261  68.777  1.00  0.00    -0.195 C  
HETATM    9  H   UNL     1      -9.656  15.743  70.593  1.00  0.00     0.000 HD 
HETATM   10  O   UNL     1      -8.928  14.963  67.594  1.00  0.00    -0.172 OA 
BRANCH   8  11
HETATM   11  C   UNL     1      -7.380  15.294  69.432  1.00  0.00    -0.207 C  
BRANCH  11  12
HETATM   12  N   UNL     1      -6.620  16.433  68.954  1.00  0.00    -0.154 N  
HETATM   13  C   UNL     1      -6.918  17.797  69.323  1.00  0.00    -0.152 C  
HETATM   14  C   UNL     1      -6.471  18.576  68.102  1.00  0.00    -0.212 C  
HETATM   15  C   UNL     1      -5.285  17.769  67.580  1.00  0.00    -0.135 C  
HETATM   16  C   UNL     1      -5.671  16.359  67.949  1.00  0.00    -0.127 C  
HETATM   17  O   UNL     1      -5.213  15.338  67.461  1.00  0.00    -0.313 OA 
ENDBRANCH  11  12
ENDBRANCH   8  11
ENDBRANCH   6   7
ENDBRANCH   5   6
ENDBRANCH   4   5
BRANCH   4  18
HETATM   18  C   UNL     1     -12.165  12.666  70.991  1.00  0.00    -0.097 C  
HETATM   19  C   UNL     1     -11.724  11.578  69.982  1.00  0.00    -0.414 C  
HETATM   20  C   UNL     1     -13.133  11.940  71.943  1.00  0.00    -0.474 C  
ENDBRANCH   4  18
ENDBRANCH   2   4
TORSDOF 7
ENDMDL
MODEL      168
REMARK 921   NORMALIZED FREE ENERGY PREDICTED BY IDOCK:   -3.44 KCAL/MOL
REMARK 922        TOTAL FREE ENERGY PREDICTED BY IDOCK:   -5.85 KCAL/MOL
REMARK 923 INTER-LIGAND FREE ENERGY PREDICTED BY IDOCK:   -5.52 KCAL/MOL
REMARK 924 INTRA-LIGAND FREE ENERGY PREDICTED BY IDOCK:   -0.33 KCAL/MOL
REMARK 927      BINDING AFFINITY PREDICTED BY RF-SCORE:    0.00 PKD
ROOT
HETATM    1  C   UNL     1      -8.798   7.193  68.448  1.00  0.00    -0.127 C  
HETATM    2  C   UNL     1     -10.250   7.728  68.435  1.00  0.00    -0.200 C  
HETATM    3  C   UNL     1     -11.133   6.519  68.789  1.00  0.00    -0.357 C  
ENDROOT
BRANCH   2   4
HETATM    4  N   UNL     1     -10.401   8.943  69.304  1.00  0.00    -0.210 NA 
BRANCH   4   5
HETATM    5  C   UNL     1     -10.740  10.147  68.473  1.00  0.00    -0.230 C  
BRANCH   5   6
HETATM    6  C   UNL     1      -9.878  11.411  68.720  1.00  0.00    -0.164 C  
BRANCH   6   7
HETATM    7  N   UNL     1     -10.291  12.572  67.947  1.00  0.00    -0.211 N  
HETATM    8  C   UNL     1     -11.267  13.427  68.410  1.00  0.00    -0.279 C  
HETATM    9  H   UNL     1      -9.850  12.757  67.046  1.00  0.00     0.000 HD 
HETATM   10  O   UNL     1     -11.876  13.215  69.459  1.00  0.00    -0.299 OA 
BRANCH   8  11
HETATM   11  C   UNL     1     -11.572  14.638  67.519  1.00  0.00    -0.375 C  
BRANCH  11  12
HETATM   12  N   UNL     1     -11.923  14.207  66.178  1.00  0.00    -0.405 N  
HETATM   13  C   UNL     1     -12.624  12.975  65.900  1.00  0.00    -0.110 C  
HETATM   14  C   UNL     1     -12.094  12.596  64.532  1.00  0.00    -0.485 C  
HETATM   15  C   UNL     1     -11.847  13.943  63.860  1.00  0.00    -0.315 C  
HETATM   16  C   UNL     1     -11.456  14.815  65.026  1.00  0.00    -0.389 C  
HETATM   17  O   UNL     1     -10.854  15.875  64.961  1.00  0.00    -0.428 OA 
ENDBRANCH  11  12
ENDBRANCH   8  11
ENDBRANCH   6   7
ENDBRANCH   5   6
ENDBRANCH   4   5
BRANCH   4  18
HETATM   18  C   UNL     1     -11.302   8.825  70.493  1.00  0.00    -0.227 C  
HETATM   19  C   UNL     1     -12.325   9.984  70.566  1.00  0.00    -0.282 C  
HETATM   20  C   UNL     1     -10.611   8.833  71.870  1.00  0.00    -0.425 C  
ENDBRANCH   4  18
ENDBRANCH   2   4
TORSDOF 7
ENDMDL
MODEL      169
REMARK 921   NORMALIZED FREE ENERGY PREDICTED BY IDOCK:   -3.43 KCAL/MOL
REMARK 922        TOTAL FREE ENERGY PREDICTED BY IDOCK:   -5.85 KCAL/MOL
REMARK 923 INTER-LIGAND FREE ENERGY PREDICTED BY IDOCK:   -5.07 KCAL/MOL
REMARK 924 INTRA-LIGAND FREE ENERGY PREDICTED BY IDOCK:   -0.78 KCAL/MOL
REMARK 927      BINDING AFFINITY PREDICTED BY RF-SCORE:    0.00 PKD
ROOT
HETATM    1  C   UNL     1     -10.591   7.462  73.405  1.00  0.00    -0.427 C  
HETATM    2  C   UNL     1      -9.633   6.610  72.537  1.00  0.00    -0.153 C  
HETATM    3  C   UNL     1      -8.419   6.318  73.436  1.00  0.00    -0.122 C  
ENDROOT
BRANCH   2   4
HETATM    4  N   UNL     1     -10.330   5.417  71.949  1.00  0.00    -0.207 NA 
BRANCH   4   5
HETATM    5  C   UNL     1     -10.408   5.536  70.454  1.00  0.00    -0.276 C  
BRANCH   5   6
HETATM    6  C   UNL     1     -11.350   6.638  69.906  1.00  0.00    -0.364 C  
BRANCH   6   7
HETATM    7  N   UNL     1     -10.665   7.851  69.486  1.00  0.00    -0.323 N  
HETATM    8  C   UNL     1     -11.041   9.085  69.968  1.00  0.00    -0.182 C  
HETATM    9  H   UNL     1      -9.893   7.786  68.823  1.00  0.00     0.000 HD 
HETATM   10  O   UNL     1     -12.006   9.226  70.719  1.00  0.00    -0.276 OA 
BRANCH   8  11
HETATM   11  C   UNL     1     -10.203  10.276  69.481  1.00  0.00    -0.236 C  
BRANCH  11  12
HETATM   12  N   UNL     1     -10.939  11.046  68.497  1.00  0.00    -0.208 N  
HETATM   13  C   UNL     1     -10.936  10.739  67.086  1.00  0.00    -0.260 C  
HETATM   14  C   UNL     1     -11.119  12.103  66.450  1.00  0.00    -0.358 C  
HETATM   15  C   UNL     1     -11.996  12.848  67.452  1.00  0.00    -0.360 C  
HETATM   16  C   UNL     1     -11.550  12.258  68.767  1.00  0.00    -0.330 C  
HETATM   17  O   UNL     1     -11.716  12.754  69.870  1.00  0.00    -0.302 OA 
ENDBRANCH  11  12
ENDBRANCH   8  11
ENDBRANCH   6   7
ENDBRANCH   5   6
ENDBRANCH   4   5
BRANCH   4  18
HETATM   18  C   UNL     1      -9.843   4.065  72.369  1.00  0.00    -0.159 C  
HETATM   19  C   UNL     1      -9.651   3.115  71.162  1.00  0.00    -0.230 C  
HETATM   20  C   UNL     1     -10.759   3.285  73.332  1.00  0.00    -0.299 C  
ENDBRANCH   4  18
ENDBRANCH   2   4
TORSDOF 7
ENDMDL
MODEL      170
REMARK 921   NORMALIZED FREE ENERGY PREDICTED BY IDOCK:   -3.43 KCAL/MOL
REMARK 922        TOTAL FREE ENERGY PREDICTED BY IDOCK:   -5.85 KCAL/MOL
REMARK 923 INTER-LIGAND FREE ENERGY PREDICTED BY IDOCK:   -4.95 KCAL/MOL
REMARK 924 INTRA-LIGAND FREE ENERGY PREDICTED BY IDOCK:   -0.90 KCAL/MOL
REMARK 927      BINDING AFFINITY PREDICTED BY RF-SCORE:    0.00 PKD
ROOT
HETATM    1  C   UNL     1     -11.644  12.631  64.983  1.00  0.00    -0.384 C  
HETATM    2  C   UNL     1     -11.022  11.233  64.749  1.00  0.00    -0.192 C  
HETATM    3  C   UNL     1     -10.197  11.365  63.458  1.00  0.00    -0.461 C  
ENDROOT
BRANCH   2   4
HETATM    4  N   UNL     1     -10.289  10.742  65.964  1.00  0.00    -0.251 NA 
BRANCH   4   5
HETATM    5  C   UNL     1      -9.856   9.317  65.778  1.00  0.00    -0.231 C  
BRANCH   5   6
HETATM    6  C   UNL     1     -10.471   8.284  66.756  1.00  0.00    -0.243 C  
BRANCH   6   7
HETATM    7  N   UNL     1     -10.724   8.806  68.090  1.00  0.00    -0.439 N  
HETATM    8  C   UNL     1      -9.872   8.530  69.137  1.00  0.00    -0.186 C  
HETATM    9  H   UNL     1     -11.547   9.386  68.253  1.00  0.00     0.000 HD 
HETATM   10  O   UNL     1      -8.902   7.784  69.010  1.00  0.00    -0.138 OA 
BRANCH   8  11
HETATM   11  C   UNL     1     -10.231   9.184  70.479  1.00  0.00    -0.235 C  
BRANCH  11  12
HETATM   12  N   UNL     1     -10.032   8.247  71.570  1.00  0.00    -0.185 N  
HETATM   13  C   UNL     1     -11.010   7.256  71.951  1.00  0.00    -0.230 C  
HETATM   14  C   UNL     1     -10.767   7.107  73.440  1.00  0.00    -0.410 C  
HETATM   15  C   UNL     1      -9.265   7.339  73.579  1.00  0.00    -0.241 C  
HETATM   16  C   UNL     1      -8.991   8.332  72.478  1.00  0.00    -0.236 C  
HETATM   17  O   UNL     1      -8.018   9.064  72.396  1.00  0.00    -0.344 OA 
ENDBRANCH  11  12
ENDBRANCH   8  11
ENDBRANCH   6   7
ENDBRANCH   5   6
ENDBRANCH   4   5
BRANCH   4  18
HETATM   18  C   UNL     1      -9.171  11.595  66.478  1.00  0.00    -0.198 C  
HETATM   19  C   UNL     1      -7.801  10.880  66.378  1.00  0.00    -0.154 C  
HETATM   20  C   UNL     1      -9.273  12.029  67.952  1.00  0.00    -0.190 C  
ENDBRANCH   4  18
ENDBRANCH   2   4
TORSDOF 7
ENDMDL
MODEL      171
REMARK 921   NORMALIZED FREE ENERGY PREDICTED BY IDOCK:   -3.43 KCAL/MOL
REMARK 922        TOTAL FREE ENERGY PREDICTED BY IDOCK:   -5.84 KCAL/MOL
REMARK 923 INTER-LIGAND FREE ENERGY PREDICTED BY IDOCK:   -5.04 KCAL/MOL
REMARK 924 INTRA-LIGAND FREE ENERGY PREDICTED BY IDOCK:   -0.80 KCAL/MOL
REMARK 927      BINDING AFFINITY PREDICTED BY RF-SCORE:    0.00 PKD
ROOT
HETATM    1  C   UNL     1      -9.916  12.493  65.716  1.00  0.00    -0.272 C  
HETATM    2  C   UNL     1     -10.104  10.988  65.406  1.00  0.00    -0.269 C  
HETATM    3  C   UNL     1      -9.821  10.843  63.901  1.00  0.00    -0.385 C  
ENDROOT
BRANCH   2   4
HETATM    4  N   UNL     1      -9.288  10.126  66.326  1.00  0.00    -0.166 NA 
BRANCH   4   5
HETATM    5  C   UNL     1      -9.755   8.701  66.265  1.00  0.00    -0.251 C  
BRANCH   5   6
HETATM    6  C   UNL     1     -10.773   8.270  67.352  1.00  0.00    -0.166 C  
BRANCH   6   7
HETATM    7  N   UNL     1     -10.571   8.912  68.642  1.00  0.00    -0.347 N  
HETATM    8  C   UNL     1     -10.231   8.180  69.758  1.00  0.00    -0.203 C  
HETATM    9  H   UNL     1     -10.684   9.923  68.722  1.00  0.00     0.000 HD 
HETATM   10  O   UNL     1     -10.145   6.953  69.732  1.00  0.00    -0.180 OA 
BRANCH   8  11
HETATM   11  C   UNL     1     -10.001   8.988  71.043  1.00  0.00    -0.279 C  
BRANCH  11  12
HETATM   12  N   UNL     1     -11.263   9.257  71.706  1.00  0.00    -0.374 N  
HETATM   13  C   UNL     1     -11.884   8.338  72.631  1.00  0.00    -0.315 C  
HETATM   14  C   UNL     1     -13.361   8.622  72.438  1.00  0.00    -0.383 C  
HETATM   15  C   UNL     1     -13.397  10.113  72.116  1.00  0.00    -0.431 C  
HETATM   16  C   UNL     1     -12.096  10.312  71.378  1.00  0.00    -0.362 C  
HETATM   17  O   UNL     1     -11.824  11.246  70.642  1.00  0.00    -0.340 OA 
ENDBRANCH  11  12
ENDBRANCH   8  11
ENDBRANCH   6   7
ENDBRANCH   5   6
ENDBRANCH   4   5
BRANCH   4  18
HETATM   18  C   UNL     1      -7.798  10.222  66.208  1.00  0.00    -0.118 C  
HETATM   19  C   UNL     1      -7.110   8.850  66.404  1.00  0.00    -0.083 C  
HETATM   20  C   UNL     1      -7.098  11.152  67.217  1.00  0.00    -0.109 C  
ENDBRANCH   4  18
ENDBRANCH   2   4
TORSDOF 7
ENDMDL
MODEL      172
REMARK 921   NORMALIZED FREE ENERGY PREDICTED BY IDOCK:   -3.42 KCAL/MOL
REMARK 922        TOTAL FREE ENERGY PREDICTED BY IDOCK:   -5.82 KCAL/MOL
REMARK 923 INTER-LIGAND FREE ENERGY PREDICTED BY IDOCK:   -5.19 KCAL/MOL
REMARK 924 INTRA-LIGAND FREE ENERGY PREDICTED BY IDOCK:   -0.64 KCAL/MOL
REMARK 927      BINDING AFFINITY PREDICTED BY RF-SCORE:    0.00 PKD
ROOT
HETATM    1  C   UNL     1     -11.288   6.264  69.901  1.00  0.00    -0.504 C  
HETATM    2  C   UNL     1     -10.079   6.634  69.007  1.00  0.00    -0.162 C  
HETATM    3  C   UNL     1      -8.930   5.729  69.482  1.00  0.00    -0.130 C  
ENDROOT
BRANCH   2   4
HETATM    4  N   UNL     1     -10.427   6.563  67.548  1.00  0.00    -0.204 NA 
BRANCH   4   5
HETATM    5  C   UNL     1     -10.536   7.942  66.965  1.00  0.00    -0.349 C  
BRANCH   5   6
HETATM    6  C   UNL     1     -10.191   9.115  67.918  1.00  0.00    -0.216 C  
BRANCH   6   7
HETATM    7  N   UNL     1     -11.128  10.226  67.856  1.00  0.00    -0.390 N  
HETATM    8  C   UNL     1     -10.738  11.463  67.392  1.00  0.00    -0.232 C  
HETATM    9  H   UNL     1     -12.091  10.087  68.162  1.00  0.00     0.000 HD 
HETATM   10  O   UNL     1      -9.574  11.702  67.072  1.00  0.00    -0.181 OA 
BRANCH   8  11
HETATM   11  C   UNL     1     -11.838  12.532  67.334  1.00  0.00    -0.312 C  
BRANCH  11  12
HETATM   12  N   UNL     1     -11.719  13.445  68.455  1.00  0.00    -0.336 N  
HETATM   13  C   UNL     1     -11.960  13.055  69.825  1.00  0.00    -0.308 C  
HETATM   14  C   UNL     1     -12.470  14.338  70.449  1.00  0.00    -0.426 C  
HETATM   15  C   UNL     1     -11.717  15.427  69.690  1.00  0.00    -0.355 C  
HETATM   16  C   UNL     1     -11.563  14.814  68.321  1.00  0.00    -0.323 C  
HETATM   17  O   UNL     1     -11.325  15.416  67.286  1.00  0.00    -0.309 OA 
ENDBRANCH  11  12
ENDBRANCH   8  11
ENDBRANCH   6   7
ENDBRANCH   5   6
ENDBRANCH   4   5
BRANCH   4  18
HETATM   18  C   UNL     1      -9.590   5.667  66.689  1.00  0.00    -0.152 C  
HETATM   19  C   UNL     1      -8.878   6.446  65.556  1.00  0.00    -0.026 C  
HETATM   20  C   UNL     1     -10.337   4.531  65.966  1.00  0.00    -0.276 C  
ENDBRANCH   4  18
ENDBRANCH   2   4
TORSDOF 7
ENDMDL
MODEL      173
REMARK 921   NORMALIZED FREE ENERGY PREDICTED BY IDOCK:   -3.41 KCAL/MOL
REMARK 922        TOTAL FREE ENERGY PREDICTED BY IDOCK:   -5.82 KCAL/MOL
REMARK 923 INTER-LIGAND FREE ENERGY PREDICTED BY IDOCK:   -5.52 KCAL/MOL
REMARK 924 INTRA-LIGAND FREE ENERGY PREDICTED BY IDOCK:   -0.29 KCAL/MOL
REMARK 927      BINDING AFFINITY PREDICTED BY RF-SCORE:    0.00 PKD
ROOT
HETATM    1  C   UNL     1      -8.132  13.501  68.047  1.00  0.00    -0.156 C  
HETATM    2  C   UNL     1      -7.207  14.743  68.047  1.00  0.00    -0.137 C  
HETATM    3  C   UNL     1      -5.775  14.184  67.999  1.00  0.00    -0.131 C  
ENDROOT
BRANCH   2   4
HETATM    4  N   UNL     1      -7.582  15.714  66.964  1.00  0.00    -0.221 NA 
BRANCH   4   5
HETATM    5  C   UNL     1      -9.061  15.974  66.979  1.00  0.00    -0.214 C  
BRANCH   5   6
HETATM    6  C   UNL     1      -9.834  15.585  65.693  1.00  0.00    -0.342 C  
BRANCH   6   7
HETATM    7  N   UNL     1     -10.508  14.299  65.771  1.00  0.00    -0.302 N  
HETATM    8  C   UNL     1     -11.588  14.009  64.967  1.00  0.00    -0.350 C  
HETATM    9  H   UNL     1     -10.175  13.598  66.434  1.00  0.00     0.000 HD 
HETATM   10  O   UNL     1     -12.069  14.839  64.197  1.00  0.00    -0.473 OA 
BRANCH   8  11
HETATM   11  C   UNL     1     -12.173  12.598  65.117  1.00  0.00    -0.481 C  
BRANCH  11  12
HETATM   12  N   UNL     1     -11.183  11.693  65.672  1.00  0.00    -0.261 N  
HETATM   13  C   UNL     1     -10.128  11.096  64.888  1.00  0.00    -0.289 C  
HETATM   14  C   UNL     1      -9.901   9.773  65.592  1.00  0.00    -0.371 C  
HETATM   15  C   UNL     1     -10.191  10.095  67.056  1.00  0.00    -0.290 C  
HETATM   16  C   UNL     1     -11.260  11.153  66.944  1.00  0.00    -0.186 C  
HETATM   17  O   UNL     1     -12.038  11.484  67.824  1.00  0.00    -0.626 OA 
ENDBRANCH  11  12
ENDBRANCH   8  11
ENDBRANCH   6   7
ENDBRANCH   5   6
ENDBRANCH   4   5
BRANCH   4  18
HETATM   18  C   UNL     1      -6.800  16.988  66.889  1.00  0.00    -0.212 C  
HETATM   19  C   UNL     1      -6.367  17.488  68.289  1.00  0.00    -0.180 C  
HETATM   20  C   UNL     1      -7.525  18.191  66.257  1.00  0.00    -0.301 C  
ENDBRANCH   4  18
ENDBRANCH   2   4
TORSDOF 7
ENDMDL
MODEL      174
REMARK 921   NORMALIZED FREE ENERGY PREDICTED BY IDOCK:   -3.41 KCAL/MOL
REMARK 922        TOTAL FREE ENERGY PREDICTED BY IDOCK:   -5.81 KCAL/MOL
REMARK 923 INTER-LIGAND FREE ENERGY PREDICTED BY IDOCK:   -4.64 KCAL/MOL
REMARK 924 INTRA-LIGAND FREE ENERGY PREDICTED BY IDOCK:   -1.17 KCAL/MOL
REMARK 927      BINDING AFFINITY PREDICTED BY RF-SCORE:    0.00 PKD
ROOT
HETATM    1  C   UNL     1     -11.195  14.892  65.911  1.00  0.00    -0.328 C  
HETATM    2  C   UNL     1     -11.673  13.984  67.071  1.00  0.00    -0.398 C  
HETATM    3  C   UNL     1     -11.933  12.610  66.432  1.00  0.00    -0.425 C  
ENDROOT
BRANCH   2   4
HETATM    4  N   UNL     1     -10.716  14.014  68.228  1.00  0.00    -0.247 NA 
BRANCH   4   5
HETATM    5  C   UNL     1      -9.499  14.823  67.886  1.00  0.00    -0.201 C  
BRANCH   5   6
HETATM    6  C   UNL     1      -8.171  14.369  68.543  1.00  0.00    -0.151 C  
BRANCH   6   7
HETATM    7  N   UNL     1      -8.132  12.956  68.887  1.00  0.00    -0.339 N  
HETATM    8  C   UNL     1      -7.390  12.062  68.147  1.00  0.00    -0.094 C  
HETATM    9  H   UNL     1      -8.663  12.622  69.691  1.00  0.00     0.000 HD 
HETATM   10  O   UNL     1      -6.784  12.401  67.131  1.00  0.00    -0.148 OA 
BRANCH   8  11
HETATM   11  C   UNL     1      -7.398  10.611  68.649  1.00  0.00    -0.094 C  
BRANCH  11  12
HETATM   12  N   UNL     1      -8.502   9.876  68.060  1.00  0.00    -0.117 N  
HETATM   13  C   UNL     1      -8.406   9.177  66.800  1.00  0.00    -0.123 C  
HETATM   14  C   UNL     1      -9.821   9.267  66.264  1.00  0.00    -0.361 C  
HETATM   15  C   UNL     1     -10.681   9.232  67.524  1.00  0.00    -0.272 C  
HETATM   16  C   UNL     1      -9.802   9.931  68.530  1.00  0.00    -0.156 C  
HETATM   17  O   UNL     1     -10.171  10.436  69.578  1.00  0.00    -0.227 OA 
ENDBRANCH  11  12
ENDBRANCH   8  11
ENDBRANCH   6   7
ENDBRANCH   5   6
ENDBRANCH   4   5
BRANCH   4  18
HETATM   18  C   UNL     1     -11.273  14.396  69.565  1.00  0.00    -0.254 C  
HETATM   19  C   UNL     1     -12.209  13.304  70.138  1.00  0.00    -0.376 C  
HETATM   20  C   UNL     1     -12.115  15.685  69.604  1.00  0.00    -0.329 C  
ENDBRANCH   4  18
ENDBRANCH   2   4
TORSDOF 7
ENDMDL
MODEL      175
REMARK 921   NORMALIZED FREE ENERGY PREDICTED BY IDOCK:   -3.39 KCAL/MOL
REMARK 922        TOTAL FREE ENERGY PREDICTED BY IDOCK:   -5.78 KCAL/MOL
REMARK 923 INTER-LIGAND FREE ENERGY PREDICTED BY IDOCK:   -4.95 KCAL/MOL
REMARK 924 INTRA-LIGAND FREE ENERGY PREDICTED BY IDOCK:   -0.83 KCAL/MOL
REMARK 927      BINDING AFFINITY PREDICTED BY RF-SCORE:    0.00 PKD
ROOT
HETATM    1  C   UNL     1      -9.476   8.563  66.018  1.00  0.00    -0.256 C  
HETATM    2  C   UNL     1      -8.632   8.228  67.272  1.00  0.00    -0.124 C  
HETATM    3  C   UNL     1      -7.417   9.169  67.209  1.00  0.00    -0.088 C  
ENDROOT
BRANCH   2   4
HETATM    4  N   UNL     1      -9.456   8.282  68.526  1.00  0.00    -0.146 NA 
BRANCH   4   5
HETATM    5  C   UNL     1     -10.739   9.022  68.281  1.00  0.00    -0.103 C  
BRANCH   5   6
HETATM    6  C   UNL     1     -10.814  10.464  68.845  1.00  0.00    -0.236 C  
BRANCH   6   7
HETATM    7  N   UNL     1     -11.542  11.396  67.999  1.00  0.00    -0.297 N  
HETATM    8  C   UNL     1     -10.932  12.019  66.933  1.00  0.00    -0.281 C  
HETATM    9  H   UNL     1     -12.523  11.592  68.199  1.00  0.00     0.000 HD 
HETATM   10  O   UNL     1      -9.736  11.867  66.687  1.00  0.00    -0.197 OA 
BRANCH   8  11
HETATM   11  C   UNL     1     -11.829  12.940  66.095  1.00  0.00    -0.429 C  
BRANCH  11  12
HETATM   12  N   UNL     1     -11.419  14.324  66.247  1.00  0.00    -0.347 N  
HETATM   13  C   UNL     1     -10.882  15.115  65.165  1.00  0.00    -0.422 C  
HETATM   14  C   UNL     1      -9.948  16.069  65.884  1.00  0.00    -0.380 C  
HETATM   15  C   UNL     1     -10.635  16.293  67.228  1.00  0.00    -0.298 C  
HETATM   16  C   UNL     1     -11.307  14.964  67.469  1.00  0.00    -0.342 C  
HETATM   17  O   UNL     1     -11.698  14.542  68.545  1.00  0.00    -0.294 OA 
ENDBRANCH  11  12
ENDBRANCH   8  11
ENDBRANCH   6   7
ENDBRANCH   5   6
ENDBRANCH   4   5
BRANCH   4  18
HETATM   18  C   UNL     1      -9.694   6.990  69.243  1.00  0.00    -0.158 C  
HETATM   19  C   UNL     1      -8.652   5.911  68.859  1.00  0.00    -0.110 C  
HETATM   20  C   UNL     1     -11.057   6.317  68.992  1.00  0.00    -0.446 C  
ENDBRANCH   4  18
ENDBRANCH   2   4
TORSDOF 7
ENDMDL
MODEL      176
REMARK 921   NORMALIZED FREE ENERGY PREDICTED BY IDOCK:   -3.37 KCAL/MOL
REMARK 922        TOTAL FREE ENERGY PREDICTED BY IDOCK:   -5.76 KCAL/MOL
REMARK 923 INTER-LIGAND FREE ENERGY PREDICTED BY IDOCK:   -5.16 KCAL/MOL
REMARK 924 INTRA-LIGAND FREE ENERGY PREDICTED BY IDOCK:   -0.60 KCAL/MOL
REMARK 927      BINDING AFFINITY PREDICTED BY RF-SCORE:    0.00 PKD
ROOT
HETATM    1  C   UNL     1     -10.393  14.439  68.338  1.00  0.00    -0.244 C  
HETATM    2  C   UNL     1      -9.608  14.670  67.024  1.00  0.00    -0.240 C  
HETATM    3  C   UNL     1      -8.127  14.705  67.435  1.00  0.00    -0.216 C  
ENDROOT
BRANCH   2   4
HETATM    4  N   UNL     1      -9.986  13.669  65.970  1.00  0.00    -0.303 NA 
BRANCH   4   5
HETATM    5  C   UNL     1     -10.328  12.348  66.595  1.00  0.00    -0.226 C  
BRANCH   5   6
HETATM    6  C   UNL     1      -9.414  11.156  66.213  1.00  0.00    -0.196 C  
BRANCH   6   7
HETATM    7  N   UNL     1      -9.685   9.937  66.959  1.00  0.00    -0.174 N  
HETATM    8  C   UNL     1      -9.007   9.647  68.123  1.00  0.00    -0.123 C  
HETATM    9  H   UNL     1     -10.389   9.285  66.614  1.00  0.00     0.000 HD 
HETATM   10  O   UNL     1      -8.104  10.367  68.548  1.00  0.00    -0.106 OA 
BRANCH   8  11
HETATM   11  C   UNL     1      -9.425   8.353  68.835  1.00  0.00    -0.147 C  
BRANCH  11  12
HETATM   12  N   UNL     1     -10.530   8.607  69.741  1.00  0.00    -0.217 N  
HETATM   13  C   UNL     1     -10.740   9.874  70.400  1.00  0.00    -0.318 C  
HETATM   14  C   UNL     1     -11.410   9.465  71.697  1.00  0.00    -0.452 C  
HETATM   15  C   UNL     1     -12.224   8.236  71.305  1.00  0.00    -0.295 C  
HETATM   16  C   UNL     1     -11.372   7.620  70.224  1.00  0.00    -0.181 C  
HETATM   17  O   UNL     1     -11.430   6.464  69.835  1.00  0.00    -0.404 OA 
ENDBRANCH  11  12
ENDBRANCH   8  11
ENDBRANCH   6   7
ENDBRANCH   5   6
ENDBRANCH   4   5
BRANCH   4  18
HETATM   18  C   UNL     1     -11.018  14.089  64.969  1.00  0.00    -0.375 C  
HETATM   19  C   UNL     1     -11.067  15.626  64.794  1.00  0.00    -0.426 C  
HETATM   20  C   UNL     1     -12.471  13.690  65.289  1.00  0.00    -0.517 C  
ENDBRANCH   4  18
ENDBRANCH   2   4
TORSDOF 7
ENDMDL
MODEL      177
REMARK 921   NORMALIZED FREE ENERGY PREDICTED BY IDOCK:   -3.37 KCAL/MOL
REMARK 922        TOTAL FREE ENERGY PREDICTED BY IDOCK:   -5.76 KCAL/MOL
REMARK 923 INTER-LIGAND FREE ENERGY PREDICTED BY IDOCK:   -5.14 KCAL/MOL
REMARK 924 INTRA-LIGAND FREE ENERGY PREDICTED BY IDOCK:   -0.62 KCAL/MOL
REMARK 927      BINDING AFFINITY PREDICTED BY RF-SCORE:    0.00 PKD
ROOT
HETATM    1  C   UNL     1     -11.314   6.576  69.235  1.00  0.00    -0.359 C  
HETATM    2  C   UNL     1     -10.273   6.610  70.380  1.00  0.00    -0.188 C  
HETATM    3  C   UNL     1      -9.205   5.575  69.990  1.00  0.00    -0.172 C  
ENDROOT
BRANCH   2   4
HETATM    4  N   UNL     1      -9.786   8.006  70.645  1.00  0.00    -0.184 NA 
BRANCH   4   5
HETATM    5  C   UNL     1     -10.319   8.955  69.611  1.00  0.00    -0.212 C  
BRANCH   5   6
HETATM    6  C   UNL     1     -11.126  10.164  70.148  1.00  0.00    -0.315 C  
BRANCH   6   7
HETATM    7  N   UNL     1     -10.707  11.447  69.605  1.00  0.00    -0.455 N  
HETATM    8  C   UNL     1     -11.354  12.011  68.527  1.00  0.00    -0.272 C  
HETATM    9  H   UNL     1      -9.920  11.937  70.030  1.00  0.00     0.000 HD 
HETATM   10  O   UNL     1     -12.265  11.432  67.938  1.00  0.00    -0.592 OA 
BRANCH   8  11
HETATM   11  C   UNL     1     -10.840  13.389  68.086  1.00  0.00    -0.255 C  
BRANCH  11  12
HETATM   12  N   UNL     1      -9.431  13.321  67.747  1.00  0.00    -0.201 N  
HETATM   13  C   UNL     1      -8.873  12.315  66.874  1.00  0.00    -0.207 C  
HETATM   14  C   UNL     1      -7.466  12.153  67.413  1.00  0.00    -0.156 C  
HETATM   15  C   UNL     1      -7.113  13.551  67.913  1.00  0.00    -0.140 C  
HETATM   16  C   UNL     1      -8.451  14.073  68.372  1.00  0.00    -0.166 C  
HETATM   17  O   UNL     1      -8.634  15.003  69.140  1.00  0.00    -0.196 OA 
ENDBRANCH  11  12
ENDBRANCH   8  11
ENDBRANCH   6   7
ENDBRANCH   5   6
ENDBRANCH   4   5
BRANCH   4  18
HETATM   18  C   UNL     1      -9.970   8.541  72.031  1.00  0.00    -0.313 C  
HETATM   19  C   UNL     1      -8.786   8.175  72.958  1.00  0.00    -0.309 C  
HETATM   20  C   UNL     1     -11.218   8.047  72.787  1.00  0.00    -0.448 C  
ENDBRANCH   4  18
ENDBRANCH   2   4
TORSDOF 7
ENDMDL
MODEL      178
REMARK 921   NORMALIZED FREE ENERGY PREDICTED BY IDOCK:   -3.37 KCAL/MOL
REMARK 922        TOTAL FREE ENERGY PREDICTED BY IDOCK:   -5.76 KCAL/MOL
REMARK 923 INTER-LIGAND FREE ENERGY PREDICTED BY IDOCK:   -5.43 KCAL/MOL
REMARK 924 INTRA-LIGAND FREE ENERGY PREDICTED BY IDOCK:   -0.33 KCAL/MOL
REMARK 927      BINDING AFFINITY PREDICTED BY RF-SCORE:    0.00 PKD
ROOT
HETATM    1  C   UNL     1     -11.421   9.998  70.041  1.00  0.00    -0.310 C  
HETATM    2  C   UNL     1     -11.639  10.978  68.863  1.00  0.00    -0.314 C  
HETATM    3  C   UNL     1     -12.348  12.198  69.474  1.00  0.00    -0.027 C  
ENDROOT
BRANCH   2   4
HETATM    4  N   UNL     1     -10.361  11.249  68.123  1.00  0.00    -0.180 NA 
BRANCH   4   5
HETATM    5  C   UNL     1      -9.881  12.645  68.394  1.00  0.00    -0.200 C  
BRANCH   5   6
HETATM    6  C   UNL     1      -9.951  13.633  67.202  1.00  0.00    -0.247 C  
BRANCH   6   7
HETATM    7  N   UNL     1     -10.642  14.878  67.503  1.00  0.00    -0.262 N  
HETATM    8  C   UNL     1     -10.066  15.838  68.305  1.00  0.00    -0.222 C  
HETATM    9  H   UNL     1     -11.570  15.042  67.113  1.00  0.00     0.000 HD 
HETATM   10  O   UNL     1      -8.978  15.663  68.852  1.00  0.00    -0.188 OA 
BRANCH   8  11
HETATM   11  C   UNL     1     -10.883  17.123  68.501  1.00  0.00    -0.281 C  
BRANCH  11  12
HETATM   12  N   UNL     1     -10.261  18.232  67.802  1.00  0.00    -0.365 N  
HETATM   13  C   UNL     1      -9.837  19.446  68.459  1.00  0.00    -0.427 C  
HETATM   14  C   UNL     1     -10.005  20.487  67.371  1.00  0.00    -0.525 C  
HETATM   15  C   UNL     1      -9.695  19.717  66.091  1.00  0.00    -0.489 C  
HETATM   16  C   UNL     1     -10.192  18.332  66.423  1.00  0.00    -0.403 C  
HETATM   17  O   UNL     1     -10.464  17.455  65.620  1.00  0.00    -0.577 OA 
ENDBRANCH  11  12
ENDBRANCH   8  11
ENDBRANCH   6   7
ENDBRANCH   5   6
ENDBRANCH   4   5
BRANCH   4  18
HETATM   18  C   UNL     1      -9.258  10.248  68.276  1.00  0.00    -0.139 C  
HETATM   19  C   UNL     1      -7.886  10.823  67.848  1.00  0.00    -0.109 C  
HETATM   20  C   UNL     1      -9.404   8.950  67.460  1.00  0.00    -0.160 C  
ENDBRANCH   4  18
ENDBRANCH   2   4
TORSDOF 7
ENDMDL
MODEL      179
REMARK 921   NORMALIZED FREE ENERGY PREDICTED BY IDOCK:   -3.36 KCAL/MOL
REMARK 922        TOTAL FREE ENERGY PREDICTED BY IDOCK:   -5.75 KCAL/MOL
REMARK 923 INTER-LIGAND FREE ENERGY PREDICTED BY IDOCK:   -5.11 KCAL/MOL
REMARK 924 INTRA-LIGAND FREE ENERGY PREDICTED BY IDOCK:   -0.64 KCAL/MOL
REMARK 927      BINDING AFFINITY PREDICTED BY RF-SCORE:    0.00 PKD
ROOT
HETATM    1  C   UNL     1      -9.058   7.119  68.323  1.00  0.00    -0.134 C  
HETATM    2  C   UNL     1     -10.483   7.381  68.868  1.00  0.00    -0.203 C  
HETATM    3  C   UNL     1     -10.982   6.017  69.374  1.00  0.00    -0.455 C  
ENDROOT
BRANCH   2   4
HETATM    4  N   UNL     1     -10.499   8.509  69.859  1.00  0.00    -0.215 NA 
BRANCH   4   5
HETATM    5  C   UNL     1     -10.810   9.808  69.174  1.00  0.00    -0.207 C  
BRANCH   5   6
HETATM    6  C   UNL     1      -9.610  10.760  68.940  1.00  0.00    -0.195 C  
BRANCH   6   7
HETATM    7  N   UNL     1      -9.951  11.981  68.228  1.00  0.00    -0.200 N  
HETATM    8  C   UNL     1      -9.075  12.552  67.330  1.00  0.00    -0.189 C  
HETATM    9  H   UNL     1     -10.854  12.424  68.396  1.00  0.00     0.000 HD 
HETATM   10  O   UNL     1      -7.949  12.096  67.138  1.00  0.00    -0.167 OA 
BRANCH   8  11
HETATM   11  C   UNL     1      -9.581  13.811  66.612  1.00  0.00    -0.288 C  
BRANCH  11  12
HETATM   12  N   UNL     1     -10.118  14.760  67.570  1.00  0.00    -0.224 N  
HETATM   13  C   UNL     1      -9.291  15.613  68.391  1.00  0.00    -0.195 C  
HETATM   14  C   UNL     1     -10.131  15.785  69.641  1.00  0.00    -0.289 C  
HETATM   15  C   UNL     1     -11.563  15.751  69.114  1.00  0.00    -0.399 C  
HETATM   16  C   UNL     1     -11.450  14.808  67.943  1.00  0.00    -0.342 C  
HETATM   17  O   UNL     1     -12.372  14.210  67.410  1.00  0.00    -0.317 OA 
ENDBRANCH  11  12
ENDBRANCH   8  11
ENDBRANCH   6   7
ENDBRANCH   5   6
ENDBRANCH   4   5
BRANCH   4  18
HETATM   18  C   UNL     1     -11.329   8.323  71.091  1.00  0.00    -0.263 C  
HETATM   19  C   UNL     1     -12.389   9.441  71.252  1.00  0.00    -0.422 C  
HETATM   20  C   UNL     1     -10.565   8.321  72.429  1.00  0.00    -0.408 C  
ENDBRANCH   4  18
ENDBRANCH   2   4
TORSDOF 7
ENDMDL
MODEL      180
REMARK 921   NORMALIZED FREE ENERGY PREDICTED BY IDOCK:   -3.34 KCAL/MOL
REMARK 922        TOTAL FREE ENERGY PREDICTED BY IDOCK:   -5.72 KCAL/MOL
REMARK 923 INTER-LIGAND FREE ENERGY PREDICTED BY IDOCK:   -5.36 KCAL/MOL
REMARK 924 INTRA-LIGAND FREE ENERGY PREDICTED BY IDOCK:   -0.36 KCAL/MOL
REMARK 927      BINDING AFFINITY PREDICTED BY RF-SCORE:    0.00 PKD
ROOT
HETATM    1  C   UNL     1      -8.732   8.910  71.045  1.00  0.00    -0.276 C  
HETATM    2  C   UNL     1      -8.820   8.915  69.499  1.00  0.00    -0.144 C  
HETATM    3  C   UNL     1      -7.602   8.107  69.019  1.00  0.00    -0.097 C  
ENDROOT
BRANCH   2   4
HETATM    4  N   UNL     1     -10.164   8.448  69.019  1.00  0.00    -0.204 NA 
BRANCH   4   5
HETATM    5  C   UNL     1     -10.782   9.468  68.108  1.00  0.00    -0.197 C  
BRANCH   5   6
HETATM    6  C   UNL     1      -9.811  10.503  67.485  1.00  0.00    -0.168 C  
BRANCH   6   7
HETATM    7  N   UNL     1     -10.157  11.888  67.768  1.00  0.00    -0.187 N  
HETATM    8  C   UNL     1     -11.275  12.471  67.214  1.00  0.00    -0.295 C  
HETATM    9  H   UNL     1      -9.561  12.436  68.388  1.00  0.00     0.000 HD 
HETATM   10  O   UNL     1     -11.992  11.875  66.411  1.00  0.00    -0.572 OA 
BRANCH   8  11
HETATM   11  C   UNL     1     -11.550  13.922  67.635  1.00  0.00    -0.348 C  
BRANCH  11  12
HETATM   12  N   UNL     1     -11.606  14.029  69.081  1.00  0.00    -0.290 N  
HETATM   13  C   UNL     1     -12.235  13.040  69.925  1.00  0.00    -0.202 C  
HETATM   14  C   UNL     1     -12.723  13.868  71.097  1.00  0.00    -0.441 C  
HETATM   15  C   UNL     1     -11.671  14.968  71.218  1.00  0.00    -0.397 C  
HETATM   16  C   UNL     1     -11.251  15.167  69.783  1.00  0.00    -0.279 C  
HETATM   17  O   UNL     1     -10.685  16.149  69.331  1.00  0.00    -0.259 OA 
ENDBRANCH  11  12
ENDBRANCH   8  11
ENDBRANCH   6   7
ENDBRANCH   5   6
ENDBRANCH   4   5
BRANCH   4  18
HETATM   18  C   UNL     1     -10.239   7.071  68.435  1.00  0.00    -0.179 C  
HETATM   19  C   UNL     1     -10.788   7.083  66.987  1.00  0.00    -0.413 C  
HETATM   20  C   UNL     1     -11.139   6.068  69.181  1.00  0.00    -0.405 C  
ENDBRANCH   4  18
ENDBRANCH   2   4
TORSDOF 7
ENDMDL
MODEL      181
REMARK 921   NORMALIZED FREE ENERGY PREDICTED BY IDOCK:   -3.33 KCAL/MOL
REMARK 922        TOTAL FREE ENERGY PREDICTED BY IDOCK:   -5.70 KCAL/MOL
REMARK 923 INTER-LIGAND FREE ENERGY PREDICTED BY IDOCK:   -5.11 KCAL/MOL
REMARK 924 INTRA-LIGAND FREE ENERGY PREDICTED BY IDOCK:   -0.59 KCAL/MOL
REMARK 927      BINDING AFFINITY PREDICTED BY RF-SCORE:    0.00 PKD
ROOT
HETATM    1  C   UNL     1     -10.372   5.009  66.350  1.00  0.00    -0.335 C  
HETATM    2  C   UNL     1      -9.489   5.254  67.598  1.00  0.00    -0.123 C  
HETATM    3  C   UNL     1      -8.057   5.405  67.060  1.00  0.00    -0.101 C  
ENDROOT
BRANCH   2   4
HETATM    4  N   UNL     1     -10.013   6.387  68.433  1.00  0.00    -0.136 NA 
BRANCH   4   5
HETATM    5  C   UNL     1     -10.718   7.394  67.572  1.00  0.00    -0.240 C  
BRANCH   5   6
HETATM    6  C   UNL     1     -10.023   8.772  67.428  1.00  0.00    -0.208 C  
BRANCH   6   7
HETATM    7  N   UNL     1     -10.944   9.895  67.342  1.00  0.00    -0.331 N  
HETATM    8  C   UNL     1     -10.576  11.075  66.732  1.00  0.00    -0.266 C  
HETATM    9  H   UNL     1     -11.879   9.808  67.739  1.00  0.00     0.000 HD 
HETATM   10  O   UNL     1      -9.441  11.255  66.294  1.00  0.00    -0.192 OA 
BRANCH   8  11
HETATM   11  C   UNL     1     -11.660  12.160  66.667  1.00  0.00    -0.350 C  
BRANCH  11  12
HETATM   12  N   UNL     1     -11.444  13.156  67.700  1.00  0.00    -0.304 N  
HETATM   13  C   UNL     1     -11.871  12.985  69.068  1.00  0.00    -0.316 C  
HETATM   14  C   UNL     1     -12.151  14.409  69.507  1.00  0.00    -0.366 C  
HETATM   15  C   UNL     1     -11.128  15.230  68.726  1.00  0.00    -0.273 C  
HETATM   16  C   UNL     1     -10.995  14.441  67.448  1.00  0.00    -0.299 C  
HETATM   17  O   UNL     1     -10.554  14.859  66.389  1.00  0.00    -0.293 OA 
ENDBRANCH  11  12
ENDBRANCH   8  11
ENDBRANCH   6   7
ENDBRANCH   5   6
ENDBRANCH   4   5
BRANCH   4  18
HETATM   18  C   UNL     1     -10.826   6.027  69.638  1.00  0.00    -0.369 C  
HETATM   19  C   UNL     1     -11.236   7.275  70.456  1.00  0.00    -0.305 C  
HETATM   20  C   UNL     1     -10.145   5.100  70.662  1.00  0.00    -0.309 C  
ENDBRANCH   4  18
ENDBRANCH   2   4
TORSDOF 7
ENDMDL
MODEL      182
REMARK 921   NORMALIZED FREE ENERGY PREDICTED BY IDOCK:   -3.33 KCAL/MOL
REMARK 922        TOTAL FREE ENERGY PREDICTED BY IDOCK:   -5.70 KCAL/MOL
REMARK 923 INTER-LIGAND FREE ENERGY PREDICTED BY IDOCK:   -5.59 KCAL/MOL
REMARK 924 INTRA-LIGAND FREE ENERGY PREDICTED BY IDOCK:   -0.11 KCAL/MOL
REMARK 927      BINDING AFFINITY PREDICTED BY RF-SCORE:    0.00 PKD
ROOT
HETATM    1  C   UNL     1     -10.554  14.853  65.118  1.00  0.00    -0.450 C  
HETATM    2  C   UNL     1     -11.473  13.965  65.992  1.00  0.00    -0.340 C  
HETATM    3  C   UNL     1     -12.860  14.037  65.330  1.00  0.00    -0.442 C  
ENDROOT
BRANCH   2   4
HETATM    4  N   UNL     1     -10.896  12.593  66.186  1.00  0.00    -0.268 NA 
BRANCH   4   5
HETATM    5  C   UNL     1     -11.432  11.968  67.441  1.00  0.00    -0.336 C  
BRANCH   5   6
HETATM    6  C   UNL     1     -10.408  11.743  68.582  1.00  0.00    -0.214 C  
BRANCH   6   7
HETATM    7  N   UNL     1     -10.065  10.347  68.806  1.00  0.00    -0.178 N  
HETATM    8  C   UNL     1     -10.867   9.529  69.571  1.00  0.00    -0.222 C  
HETATM    9  H   UNL     1      -9.215   9.967  68.389  1.00  0.00     0.000 HD 
HETATM   10  O   UNL     1     -11.867   9.952  70.148  1.00  0.00    -0.216 OA 
BRANCH   8  11
HETATM   11  C   UNL     1     -10.413   8.067  69.685  1.00  0.00    -0.224 C  
BRANCH  11  12
HETATM   12  N   UNL     1     -10.080   7.744  71.060  1.00  0.00    -0.186 N  
HETATM   13  C   UNL     1     -10.836   6.812  71.862  1.00  0.00    -0.232 C  
HETATM   14  C   UNL     1     -10.656   7.359  73.264  1.00  0.00    -0.442 C  
HETATM   15  C   UNL     1      -9.254   7.960  73.234  1.00  0.00    -0.346 C  
HETATM   16  C   UNL     1      -9.140   8.434  71.806  1.00  0.00    -0.218 C  
HETATM   17  O   UNL     1      -8.349   9.263  71.386  1.00  0.00    -0.323 OA 
ENDBRANCH  11  12
ENDBRANCH   8  11
ENDBRANCH   6   7
ENDBRANCH   5   6
ENDBRANCH   4   5
BRANCH   4  18
HETATM   18  C   UNL     1     -10.972  11.650  65.026  1.00  0.00    -0.273 C  
HETATM   19  C   UNL     1     -10.405  10.252  65.374  1.00  0.00    -0.233 C  
HETATM   20  C   UNL     1     -10.205  12.072  63.758  1.00  0.00    -0.447 C  
ENDBRANCH   4  18
ENDBRANCH   2   4
TORSDOF 7
ENDMDL
MODEL      183
REMARK 921   NORMALIZED FREE ENERGY PREDICTED BY IDOCK:   -3.31 KCAL/MOL
REMARK 922        TOTAL FREE ENERGY PREDICTED BY IDOCK:   -5.67 KCAL/MOL
REMARK 923 INTER-LIGAND FREE ENERGY PREDICTED BY IDOCK:   -5.03 KCAL/MOL
REMARK 924 INTRA-LIGAND FREE ENERGY PREDICTED BY IDOCK:   -0.64 KCAL/MOL
REMARK 927      BINDING AFFINITY PREDICTED BY RF-SCORE:    0.00 PKD
ROOT
HETATM    1  C   UNL     1     -12.108  14.473  64.513  1.00  0.00    -0.501 C  
HETATM    2  C   UNL     1     -12.544  13.206  65.289  1.00  0.00    -0.472 C  
HETATM    3  C   UNL     1     -11.858  12.032  64.572  1.00  0.00    -0.363 C  
ENDROOT
BRANCH   2   4
HETATM    4  N   UNL     1     -12.278  13.338  66.761  1.00  0.00    -0.332 NA 
BRANCH   4   5
HETATM    5  C   UNL     1     -11.707  12.063  67.310  1.00  0.00    -0.269 C  
BRANCH   5   6
HETATM    6  C   UNL     1     -12.365  11.523  68.605  1.00  0.00     0.293 C  
BRANCH   6   7
HETATM    7  N   UNL     1     -11.829  10.248  69.057  1.00  0.00    -0.515 N  
HETATM    8  C   UNL     1     -11.642   9.987  70.397  1.00  0.00    -0.302 C  
HETATM    9  H   UNL     1     -11.586   9.535  68.369  1.00  0.00     0.000 HD 
HETATM   10  O   UNL     1     -11.858  10.835  71.262  1.00  0.00    -0.268 OA 
BRANCH   8  11
HETATM   11  C   UNL     1     -11.116   8.586  70.737  1.00  0.00    -0.254 C  
BRANCH  11  12
HETATM   12  N   UNL     1      -9.747   8.660  71.214  1.00  0.00    -0.213 N  
HETATM   13  C   UNL     1      -8.619   8.918  70.350  1.00  0.00    -0.180 C  
HETATM   14  C   UNL     1      -7.496   8.170  71.042  1.00  0.00    -0.067 C  
HETATM   15  C   UNL     1      -7.849   8.288  72.522  1.00  0.00    -0.176 C  
HETATM   16  C   UNL     1      -9.356   8.297  72.491  1.00  0.00    -0.280 C  
HETATM   17  O   UNL     1     -10.095   8.047  73.430  1.00  0.00    -0.279 OA 
ENDBRANCH  11  12
ENDBRANCH   8  11
ENDBRANCH   6   7
ENDBRANCH   5   6
ENDBRANCH   4   5
BRANCH   4  18
HETATM   18  C   UNL     1     -11.491  14.531  67.208  1.00  0.00    -0.365 C  
HETATM   19  C   UNL     1      -9.994  14.196  67.414  1.00  0.00    -0.240 C  
HETATM   20  C   UNL     1     -11.930  15.172  68.538  1.00  0.00    -0.243 C  
ENDBRANCH   4  18
ENDBRANCH   2   4
TORSDOF 7
ENDMDL
MODEL      184
REMARK 921   NORMALIZED FREE ENERGY PREDICTED BY IDOCK:   -3.30 KCAL/MOL
REMARK 922        TOTAL FREE ENERGY PREDICTED BY IDOCK:   -5.66 KCAL/MOL
REMARK 923 INTER-LIGAND FREE ENERGY PREDICTED BY IDOCK:   -5.21 KCAL/MOL
REMARK 924 INTRA-LIGAND FREE ENERGY PREDICTED BY IDOCK:   -0.45 KCAL/MOL
REMARK 927      BINDING AFFINITY PREDICTED BY RF-SCORE:    0.00 PKD
ROOT
HETATM    1  C   UNL     1     -10.917  16.030  68.512  1.00  0.00    -0.326 C  
HETATM    2  C   UNL     1      -9.576  16.774  68.301  1.00  0.00    -0.244 C  
HETATM    3  C   UNL     1      -8.491  15.810  68.810  1.00  0.00    -0.198 C  
ENDROOT
BRANCH   2   4
HETATM    4  N   UNL     1      -9.428  17.260  66.888  1.00  0.00    -0.249 NA 
BRANCH   4   5
HETATM    5  C   UNL     1     -10.509  16.688  66.018  1.00  0.00    -0.298 C  
BRANCH   5   6
HETATM    6  C   UNL     1     -10.091  15.519  65.091  1.00  0.00    -0.227 C  
BRANCH   6   7
HETATM    7  N   UNL     1     -10.244  14.202  65.690  1.00  0.00    -0.324 N  
HETATM    8  C   UNL     1     -11.020  13.232  65.093  1.00  0.00    -0.299 C  
HETATM    9  H   UNL     1      -9.769  13.993  66.568  1.00  0.00     0.000 HD 
HETATM   10  O   UNL     1     -11.665  13.453  64.070  1.00  0.00    -0.404 OA 
BRANCH   8  11
HETATM   11  C   UNL     1     -11.055  11.873  65.806  1.00  0.00    -0.317 C  
BRANCH  11  12
HETATM   12  N   UNL     1      -9.773  11.589  66.422  1.00  0.00    -0.201 N  
HETATM   13  C   UNL     1      -9.361  12.146  67.689  1.00  0.00    -0.187 C  
HETATM   14  C   UNL     1      -7.855  12.237  67.537  1.00  0.00    -0.166 C  
HETATM   15  C   UNL     1      -7.514  11.041  66.653  1.00  0.00    -0.146 C  
HETATM   16  C   UNL     1      -8.739  10.929  65.780  1.00  0.00    -0.190 C  
HETATM   17  O   UNL     1      -8.808  10.346  64.710  1.00  0.00    -0.175 OA 
ENDBRANCH  11  12
ENDBRANCH   8  11
ENDBRANCH   6   7
ENDBRANCH   5   6
ENDBRANCH   4   5
BRANCH   4  18
HETATM   18  C   UNL     1      -9.283  18.737  66.687  1.00  0.00    -0.329 C  
HETATM   19  C   UNL     1      -8.226  19.352  67.636  1.00  0.00    -0.329 C  
HETATM   20  C   UNL     1     -10.550  19.580  66.922  1.00  0.00    -0.602 C  
ENDBRANCH   4  18
ENDBRANCH   2   4
TORSDOF 7
ENDMDL
MODEL      185
REMARK 921   NORMALIZED FREE ENERGY PREDICTED BY IDOCK:   -3.29 KCAL/MOL
REMARK 922        TOTAL FREE ENERGY PREDICTED BY IDOCK:   -5.65 KCAL/MOL
REMARK 923 INTER-LIGAND FREE ENERGY PREDICTED BY IDOCK:   -5.73 KCAL/MOL
REMARK 924 INTRA-LIGAND FREE ENERGY PREDICTED BY IDOCK:    0.08 KCAL/MOL
REMARK 927      BINDING AFFINITY PREDICTED BY RF-SCORE:    0.00 PKD
ROOT
HETATM    1  C   UNL     1     -10.072   8.677  66.527  1.00  0.00    -0.339 C  
HETATM    2  C   UNL     1      -9.734  10.065  65.929  1.00  0.00    -0.247 C  
HETATM    3  C   UNL     1      -8.313  10.385  66.422  1.00  0.00    -0.139 C  
ENDROOT
BRANCH   2   4
HETATM    4  N   UNL     1      -9.949  10.096  64.444  1.00  0.00    -0.263 NA 
BRANCH   4   5
HETATM    5  C   UNL     1     -10.814  11.262  64.061  1.00  0.00    -0.344 C  
BRANCH   5   6
HETATM    6  C   UNL     1     -10.184  12.667  64.243  1.00  0.00    -0.332 C  
BRANCH   6   7
HETATM    7  N   UNL     1     -10.944  13.549  65.114  1.00  0.00    -0.308 N  
HETATM    8  C   UNL     1     -10.387  14.076  66.258  1.00  0.00    -0.293 C  
HETATM    9  H   UNL     1     -11.908  13.782  64.874  1.00  0.00     0.000 HD 
HETATM   10  O   UNL     1      -9.252  13.777  66.628  1.00  0.00    -0.256 OA 
BRANCH   8  11
HETATM   11  C   UNL     1     -11.283  15.031  67.059  1.00  0.00    -0.328 C  
BRANCH  11  12
HETATM   12  N   UNL     1     -10.766  16.386  66.995  1.00  0.00    -0.268 N  
HETATM   13  C   UNL     1     -10.373  17.140  68.162  1.00  0.00    -0.350 C  
HETATM   14  C   UNL     1     -10.664  18.569  67.745  1.00  0.00    -0.378 C  
HETATM   15  C   UNL     1     -10.388  18.564  66.244  1.00  0.00    -0.459 C  
HETATM   16  C   UNL     1     -10.785  17.164  65.851  1.00  0.00    -0.132 C  
HETATM   17  O   UNL     1     -11.055  16.784  64.723  1.00  0.00    -0.678 OA 
ENDBRANCH  11  12
ENDBRANCH   8  11
ENDBRANCH   6   7
ENDBRANCH   5   6
ENDBRANCH   4   5
BRANCH   4  18
HETATM   18  C   UNL     1      -8.732  10.005  63.576  1.00  0.00    -0.222 C  
HETATM   19  C   UNL     1      -8.695  11.124  62.506  1.00  0.00    -0.304 C  
HETATM   20  C   UNL     1      -8.569   8.700  62.774  1.00  0.00    -0.091 C  
ENDBRANCH   4  18
ENDBRANCH   2   4
TORSDOF 7
ENDMDL
MODEL      186
REMARK 921   NORMALIZED FREE ENERGY PREDICTED BY IDOCK:   -3.28 KCAL/MOL
REMARK 922        TOTAL FREE ENERGY PREDICTED BY IDOCK:   -5.64 KCAL/MOL
REMARK 923 INTER-LIGAND FREE ENERGY PREDICTED BY IDOCK:   -4.97 KCAL/MOL
REMARK 924 INTRA-LIGAND FREE ENERGY PREDICTED BY IDOCK:   -0.67 KCAL/MOL
REMARK 927      BINDING AFFINITY PREDICTED BY RF-SCORE:    0.00 PKD
ROOT
HETATM    1  C   UNL     1      -9.443   3.113  67.993  1.00  0.00    -0.218 C  
HETATM    2  C   UNL     1      -8.446   3.877  67.087  1.00  0.00    -0.100 C  
HETATM    3  C   UNL     1      -7.440   2.819  66.605  1.00  0.00    -0.071 C  
ENDROOT
BRANCH   2   4
HETATM    4  N   UNL     1      -9.156   4.661  66.021  1.00  0.00    -0.125 NA 
BRANCH   4   5
HETATM    5  C   UNL     1      -8.720   6.097  66.044  1.00  0.00    -0.153 C  
BRANCH   5   6
HETATM    6  C   UNL     1      -9.774   7.121  66.537  1.00  0.00    -0.133 C  
BRANCH   6   7
HETATM    7  N   UNL     1      -9.573   8.470  66.031  1.00  0.00    -0.416 N  
HETATM    8  C   UNL     1      -9.702   9.568  66.854  1.00  0.00    -0.182 C  
HETATM    9  H   UNL     1      -9.332   8.606  65.050  1.00  0.00     0.000 HD 
HETATM   10  O   UNL     1     -10.054   9.464  68.029  1.00  0.00    -0.172 OA 
BRANCH   8  11
HETATM   11  C   UNL     1      -9.415  10.928  66.203  1.00  0.00    -0.200 C  
BRANCH  11  12
HETATM   12  N   UNL     1     -10.540  11.349  65.390  1.00  0.00    -0.278 N  
HETATM   13  C   UNL     1     -10.537  11.303  63.947  1.00  0.00    -0.391 C  
HETATM   14  C   UNL     1     -11.446  12.457  63.576  1.00  0.00    -0.561 C  
HETATM   15  C   UNL     1     -12.464  12.487  64.713  1.00  0.00    -0.532 C  
HETATM   16  C   UNL     1     -11.643  12.020  65.889  1.00  0.00    -0.300 C  
HETATM   17  O   UNL     1     -11.915  12.189  67.067  1.00  0.00    -0.593 OA 
ENDBRANCH  11  12
ENDBRANCH   8  11
ENDBRANCH   6   7
ENDBRANCH   5   6
ENDBRANCH   4   5
BRANCH   4  18
HETATM   18  C   UNL     1      -9.132   4.101  64.632  1.00  0.00    -0.146 C  
HETATM   19  C   UNL     1      -8.493   5.083  63.620  1.00  0.00    -0.127 C  
HETATM   20  C   UNL     1     -10.501   3.752  64.019  1.00  0.00    -0.271 C  
ENDBRANCH   4  18
ENDBRANCH   2   4
TORSDOF 7
ENDMDL
MODEL      187
REMARK 921   NORMALIZED FREE ENERGY PREDICTED BY IDOCK:   -3.28 KCAL/MOL
REMARK 922        TOTAL FREE ENERGY PREDICTED BY IDOCK:   -5.63 KCAL/MOL
REMARK 923 INTER-LIGAND FREE ENERGY PREDICTED BY IDOCK:   -4.26 KCAL/MOL
REMARK 924 INTRA-LIGAND FREE ENERGY PREDICTED BY IDOCK:   -1.36 KCAL/MOL
REMARK 927      BINDING AFFINITY PREDICTED BY RF-SCORE:    0.00 PKD
ROOT
HETATM    1  C   UNL     1     -10.521   5.137  67.055  1.00  0.00    -0.256 C  
HETATM    2  C   UNL     1     -10.624   6.340  68.024  1.00  0.00    -0.262 C  
HETATM    3  C   UNL     1     -10.946   5.731  69.398  1.00  0.00    -0.352 C  
ENDROOT
BRANCH   2   4
HETATM    4  N   UNL     1      -9.406   7.216  67.949  1.00  0.00    -0.129 NA 
BRANCH   4   5
HETATM    5  C   UNL     1      -8.160   6.382  67.884  1.00  0.00    -0.115 C  
BRANCH   5   6
HETATM    6  C   UNL     1      -7.311   6.323  69.180  1.00  0.00    -0.089 C  
BRANCH   6   7
HETATM    7  N   UNL     1      -7.728   7.265  70.207  1.00  0.00    -0.093 N  
HETATM    8  C   UNL     1      -8.128   6.832  71.452  1.00  0.00    -0.110 C  
HETATM    9  H   UNL     1      -7.724   8.264  70.001  1.00  0.00     0.000 HD 
HETATM   10  O   UNL     1      -8.212   5.637  71.731  1.00  0.00    -0.116 OA 
BRANCH   8  11
HETATM   11  C   UNL     1      -8.494   7.934  72.456  1.00  0.00    -0.145 C  
BRANCH  11  12
HETATM   12  N   UNL     1      -9.888   8.312  72.309  1.00  0.00    -0.264 N  
HETATM   13  C   UNL     1     -10.958   7.705  73.065  1.00  0.00    -0.400 C  
HETATM   14  C   UNL     1     -12.132   7.799  72.111  1.00  0.00    -0.346 C  
HETATM   15  C   UNL     1     -11.867   9.094  71.348  1.00  0.00    -0.415 C  
HETATM   16  C   UNL     1     -10.360   9.135  71.301  1.00  0.00    -0.334 C  
HETATM   17  O   UNL     1      -9.683   9.792  70.527  1.00  0.00    -0.249 OA 
ENDBRANCH  11  12
ENDBRANCH   8  11
ENDBRANCH   6   7
ENDBRANCH   5   6
ENDBRANCH   4   5
BRANCH   4  18
HETATM   18  C   UNL     1      -9.403   8.293  66.909  1.00  0.00    -0.176 C  
HETATM   19  C   UNL     1      -8.059   9.061  66.871  1.00  0.00    -0.112 C  
HETATM   20  C   UNL     1     -10.470   9.392  67.069  1.00  0.00    -0.302 C  
ENDBRANCH   4  18
ENDBRANCH   2   4
TORSDOF 7
ENDMDL
MODEL      188
REMARK 921   NORMALIZED FREE ENERGY PREDICTED BY IDOCK:   -3.26 KCAL/MOL
REMARK 922        TOTAL FREE ENERGY PREDICTED BY IDOCK:   -5.61 KCAL/MOL
REMARK 923 INTER-LIGAND FREE ENERGY PREDICTED BY IDOCK:   -4.76 KCAL/MOL
REMARK 924 INTRA-LIGAND FREE ENERGY PREDICTED BY IDOCK:   -0.85 KCAL/MOL
REMARK 927      BINDING AFFINITY PREDICTED BY RF-SCORE:    0.00 PKD
ROOT
HETATM    1  C   UNL     1     -10.546  16.095  66.501  1.00  0.00    -0.268 C  
HETATM    2  C   UNL     1     -10.651  16.958  67.782  1.00  0.00    -0.340 C  
HETATM    3  C   UNL     1     -11.413  16.089  68.797  1.00  0.00    -0.375 C  
ENDROOT
BRANCH   2   4
HETATM    4  N   UNL     1      -9.308  17.471  68.217  1.00  0.00    -0.272 NA 
BRANCH   4   5
HETATM    5  C   UNL     1      -8.217  16.553  67.748  1.00  0.00    -0.165 C  
BRANCH   5   6
HETATM    6  C   UNL     1      -7.582  15.641  68.828  1.00  0.00    -0.162 C  
BRANCH   6   7
HETATM    7  N   UNL     1      -8.101  14.282  68.838  1.00  0.00    -0.270 N  
HETATM    8  C   UNL     1      -7.498  13.282  68.109  1.00  0.00    -0.128 C  
HETATM    9  H   UNL     1      -8.928  14.067  69.396  1.00  0.00     0.000 HD 
HETATM   10  O   UNL     1      -6.539  13.501  67.370  1.00  0.00    -0.224 OA 
BRANCH   8  11
HETATM   11  C   UNL     1      -8.120  11.885  68.248  1.00  0.00    -0.154 C  
BRANCH  11  12
HETATM   12  N   UNL     1      -9.162  11.692  67.257  1.00  0.00    -0.167 N  
HETATM   13  C   UNL     1     -10.551  12.009  67.495  1.00  0.00    -0.221 C  
HETATM   14  C   UNL     1     -11.274  11.001  66.624  1.00  0.00    -0.124 C  
HETATM   15  C   UNL     1     -10.334  10.818  65.436  1.00  0.00    -0.315 C  
HETATM   16  C   UNL     1      -8.978  11.005  66.070  1.00  0.00    -0.197 C  
HETATM   17  O   UNL     1      -7.911  10.634  65.607  1.00  0.00    -0.160 OA 
ENDBRANCH  11  12
ENDBRANCH   8  11
ENDBRANCH   6   7
ENDBRANCH   5   6
ENDBRANCH   4   5
BRANCH   4  18
HETATM   18  C   UNL     1      -8.993  18.902  67.912  1.00  0.00    -0.297 C  
HETATM   19  C   UNL     1     -10.138  19.853  68.338  1.00  0.00    -0.557 C  
HETATM   20  C   UNL     1      -8.743  19.239  66.430  1.00  0.00    -0.362 C  
ENDBRANCH   4  18
ENDBRANCH   2   4
TORSDOF 7
ENDMDL
MODEL      189
REMARK 921   NORMALIZED FREE ENERGY PREDICTED BY IDOCK:   -3.26 KCAL/MOL
REMARK 922        TOTAL FREE ENERGY PREDICTED BY IDOCK:   -5.61 KCAL/MOL
REMARK 923 INTER-LIGAND FREE ENERGY PREDICTED BY IDOCK:   -4.83 KCAL/MOL
REMARK 924 INTRA-LIGAND FREE ENERGY PREDICTED BY IDOCK:   -0.77 KCAL/MOL
REMARK 927      BINDING AFFINITY PREDICTED BY RF-SCORE:    0.00 PKD
ROOT
HETATM    1  C   UNL     1      -5.814  10.400  66.633  1.00  0.00    -0.061 C  
HETATM    2  C   UNL     1      -7.349  10.380  66.432  1.00  0.00    -0.120 C  
HETATM    3  C   UNL     1      -7.562   9.970  64.965  1.00  0.00    -0.139 C  
ENDROOT
BRANCH   2   4
HETATM    4  N   UNL     1      -8.032   9.535  67.468  1.00  0.00    -0.106 NA 
BRANCH   4   5
HETATM    5  C   UNL     1      -8.831  10.393  68.405  1.00  0.00    -0.136 C  
BRANCH   5   6
HETATM    6  C   UNL     1      -8.421  11.886  68.479  1.00  0.00    -0.113 C  
BRANCH   6   7
HETATM    7  N   UNL     1      -9.532  12.814  68.338  1.00  0.00    -0.327 N  
HETATM    8  C   UNL     1      -9.409  13.966  67.591  1.00  0.00    -0.205 C  
HETATM    9  H   UNL     1     -10.417  12.610  68.800  1.00  0.00     0.000 HD 
HETATM   10  O   UNL     1      -8.346  14.292  67.066  1.00  0.00    -0.195 OA 
BRANCH   8  11
HETATM   11  C   UNL     1     -10.673  14.831  67.485  1.00  0.00    -0.269 C  
BRANCH  11  12
HETATM   12  N   UNL     1     -11.451  14.454  66.320  1.00  0.00    -0.351 N  
HETATM   13  C   UNL     1     -12.416  13.381  66.324  1.00  0.00    -0.276 C  
HETATM   14  C   UNL     1     -12.360  12.880  64.895  1.00  0.00    -0.532 C  
HETATM   15  C   UNL     1     -12.061  14.140  64.088  1.00  0.00    -0.437 C  
HETATM   16  C   UNL     1     -11.212  14.938  65.045  1.00  0.00    -0.404 C  
HETATM   17  O   UNL     1     -10.464  15.856  64.749  1.00  0.00    -0.538 OA 
ENDBRANCH  11  12
ENDBRANCH   8  11
ENDBRANCH   6   7
ENDBRANCH   5   6
ENDBRANCH   4   5
BRANCH   4  18
HETATM   18  C   UNL     1      -8.829   8.365  66.978  1.00  0.00    -0.134 C  
HETATM   19  C   UNL     1     -10.353   8.606  67.105  1.00  0.00    -0.369 C  
HETATM   20  C   UNL     1      -8.588   7.029  67.705  1.00  0.00    -0.122 C  
ENDBRANCH   4  18
ENDBRANCH   2   4
TORSDOF 7
ENDMDL
MODEL      190
REMARK 921   NORMALIZED FREE ENERGY PREDICTED BY IDOCK:   -3.25 KCAL/MOL
REMARK 922        TOTAL FREE ENERGY PREDICTED BY IDOCK:   -5.59 KCAL/MOL
REMARK 923 INTER-LIGAND FREE ENERGY PREDICTED BY IDOCK:   -5.31 KCAL/MOL
REMARK 924 INTRA-LIGAND FREE ENERGY PREDICTED BY IDOCK:   -0.28 KCAL/MOL
REMARK 927      BINDING AFFINITY PREDICTED BY RF-SCORE:    0.00 PKD
ROOT
HETATM    1  C   UNL     1      -9.353  10.957  68.623  1.00  0.00    -0.188 C  
HETATM    2  C   UNL     1     -10.759  10.351  68.854  1.00  0.00    -0.224 C  
HETATM    3  C   UNL     1     -10.685   8.923  68.289  1.00  0.00    -0.135 C  
ENDROOT
BRANCH   2   4
HETATM    4  N   UNL     1     -11.190  10.482  70.286  1.00  0.00    -0.312 NA 
BRANCH   4   5
HETATM    5  C   UNL     1     -12.419  11.339  70.390  1.00  0.00    -0.271 C  
BRANCH   5   6
HETATM    6  C   UNL     1     -12.197  12.793  70.877  1.00  0.00    -0.191 C  
BRANCH   6   7
HETATM    7  N   UNL     1     -12.213  13.785  69.813  1.00  0.00    -0.327 N  
HETATM    8  C   UNL     1     -11.863  15.095  70.054  1.00  0.00    -0.325 C  
HETATM    9  H   UNL     1     -12.490  13.505  68.872  1.00  0.00     0.000 HD 
HETATM   10  O   UNL     1     -11.585  15.499  71.182  1.00  0.00    -0.323 OA 
BRANCH   8  11
HETATM   11  C   UNL     1     -11.877  16.025  68.833  1.00  0.00    -0.242 C  
BRANCH  11  12
HETATM   12  N   UNL     1     -10.829  15.655  67.900  1.00  0.00    -0.298 N  
HETATM   13  C   UNL     1     -10.570  14.292  67.499  1.00  0.00    -0.261 C  
HETATM   14  C   UNL     1      -9.078  14.305  67.228  1.00  0.00    -0.221 C  
HETATM   15  C   UNL     1      -8.825  15.716  66.703  1.00  0.00    -0.327 C  
HETATM   16  C   UNL     1      -9.849  16.526  67.457  1.00  0.00    -0.248 C  
HETATM   17  O   UNL     1      -9.824  17.735  67.629  1.00  0.00    -0.282 OA 
ENDBRANCH  11  12
ENDBRANCH   8  11
ENDBRANCH   6   7
ENDBRANCH   5   6
ENDBRANCH   4   5
BRANCH   4  18
HETATM   18  C   UNL     1     -11.333   9.217  71.074  1.00  0.00    -0.320 C  
HETATM   19  C   UNL     1     -12.565   9.252  72.011  1.00  0.00    -0.465 C  
HETATM   20  C   UNL     1     -10.155   8.860  72.000  1.00  0.00    -0.351 C  
ENDBRANCH   4  18
ENDBRANCH   2   4
TORSDOF 7
ENDMDL
MODEL      191
REMARK 921   NORMALIZED FREE ENERGY PREDICTED BY IDOCK:   -3.25 KCAL/MOL
REMARK 922        TOTAL FREE ENERGY PREDICTED BY IDOCK:   -5.59 KCAL/MOL
REMARK 923 INTER-LIGAND FREE ENERGY PREDICTED BY IDOCK:   -4.66 KCAL/MOL
REMARK 924 INTRA-LIGAND FREE ENERGY PREDICTED BY IDOCK:   -0.92 KCAL/MOL
REMARK 927      BINDING AFFINITY PREDICTED BY RF-SCORE:    0.00 PKD
ROOT
HETATM    1  C   UNL     1     -11.987  13.870  67.527  1.00  0.00    -0.421 C  
HETATM    2  C   UNL     1     -10.454  13.882  67.308  1.00  0.00    -0.271 C  
HETATM    3  C   UNL     1      -9.929  12.632  68.034  1.00  0.00    -0.220 C  
ENDROOT
BRANCH   2   4
HETATM    4  N   UNL     1     -10.103  14.009  65.854  1.00  0.00    -0.311 NA 
BRANCH   4   5
HETATM    5  C   UNL     1     -11.161  13.372  64.999  1.00  0.00    -0.319 C  
BRANCH   5   6
HETATM    6  C   UNL     1     -10.654  12.438  63.871  1.00  0.00    -0.437 C  
BRANCH   6   7
HETATM    7  N   UNL     1      -9.414  11.746  64.185  1.00  0.00    -0.456 N  
HETATM    8  C   UNL     1      -9.011  10.642  63.466  1.00  0.00    -0.208 C  
HETATM    9  H   UNL     1      -8.832  12.084  64.951  1.00  0.00     0.000 HD 
HETATM   10  O   UNL     1      -9.707  10.155  62.575  1.00  0.00    -0.248 OA 
BRANCH   8  11
HETATM   11  C   UNL     1      -7.659  10.038  63.871  1.00  0.00    -0.138 C  
BRANCH  11  12
HETATM   12  N   UNL     1      -7.764   9.374  65.157  1.00  0.00    -0.106 N  
HETATM   13  C   UNL     1      -8.403   8.092  65.337  1.00  0.00    -0.153 C  
HETATM   14  C   UNL     1      -8.942   8.187  66.751  1.00  0.00    -0.172 C  
HETATM   15  C   UNL     1      -7.913   9.059  67.466  1.00  0.00    -0.101 C  
HETATM   16  C   UNL     1      -7.451   9.977  66.363  1.00  0.00    -0.104 C  
HETATM   17  O   UNL     1      -6.887  11.050  66.510  1.00  0.00    -0.122 OA 
ENDBRANCH  11  12
ENDBRANCH   8  11
ENDBRANCH   6   7
ENDBRANCH   5   6
ENDBRANCH   4   5
BRANCH   4  18
HETATM   18  C   UNL     1      -9.740  15.373  65.355  1.00  0.00    -0.215 C  
HETATM   19  C   UNL     1      -8.758  16.098  66.308  1.00  0.00    -0.373 C  
HETATM   20  C   UNL     1     -10.907  16.362  65.179  1.00  0.00    -0.289 C  
ENDBRANCH   4  18
ENDBRANCH   2   4
TORSDOF 7
ENDMDL
MODEL      192
REMARK 921   NORMALIZED FREE ENERGY PREDICTED BY IDOCK:   -3.25 KCAL/MOL
REMARK 922        TOTAL FREE ENERGY PREDICTED BY IDOCK:   -5.58 KCAL/MOL
REMARK 923 INTER-LIGAND FREE ENERGY PREDICTED BY IDOCK:   -5.10 KCAL/MOL
REMARK 924 INTRA-LIGAND FREE ENERGY PREDICTED BY IDOCK:   -0.48 KCAL/MOL
REMARK 927      BINDING AFFINITY PREDICTED BY RF-SCORE:    0.00 PKD
ROOT
HETATM    1  C   UNL     1      -9.494  15.049  66.334  1.00  0.00    -0.325 C  
HETATM    2  C   UNL     1     -10.713  14.351  65.681  1.00  0.00    -0.320 C  
HETATM    3  C   UNL     1     -11.235  15.343  64.629  1.00  0.00    -0.374 C  
ENDROOT
BRANCH   2   4
HETATM    4  N   UNL     1     -10.365  12.976  65.190  1.00  0.00    -0.302 NA 
BRANCH   4   5
HETATM    5  C   UNL     1     -10.683  11.946  66.235  1.00  0.00    -0.271 C  
BRANCH   5   6
HETATM    6  C   UNL     1      -9.490  11.094  66.738  1.00  0.00    -0.184 C  
BRANCH   6   7
HETATM    7  N   UNL     1      -9.867   9.782  67.239  1.00  0.00    -0.172 N  
HETATM    8  C   UNL     1      -9.970   9.536  68.591  1.00  0.00    -0.167 C  
HETATM    9  H   UNL     1     -10.058   9.029  66.577  1.00  0.00     0.000 HD 
HETATM   10  O   UNL     1      -9.688  10.389  69.431  1.00  0.00    -0.217 OA 
BRANCH   8  11
HETATM   11  C   UNL     1     -10.423   8.122  68.980  1.00  0.00    -0.198 C  
BRANCH  11  12
HETATM   12  N   UNL     1     -10.018   7.163  67.970  1.00  0.00    -0.152 N  
HETATM   13  C   UNL     1     -10.922   6.621  66.983  1.00  0.00    -0.393 C  
HETATM   14  C   UNL     1     -10.347   5.240  66.731  1.00  0.00    -0.320 C  
HETATM   15  C   UNL     1      -8.845   5.442  66.912  1.00  0.00    -0.111 C  
HETATM   16  C   UNL     1      -8.793   6.519  67.967  1.00  0.00    -0.114 C  
HETATM   17  O   UNL     1      -7.835   6.784  68.675  1.00  0.00    -0.113 OA 
ENDBRANCH  11  12
ENDBRANCH   8  11
ENDBRANCH   6   7
ENDBRANCH   5   6
ENDBRANCH   4   5
BRANCH   4  18
HETATM   18  C   UNL     1     -10.894  12.577  63.846  1.00  0.00    -0.431 C  
HETATM   19  C   UNL     1     -12.354  12.068  63.923  1.00  0.00    -0.553 C  
HETATM   20  C   UNL     1     -10.130  11.451  63.125  1.00  0.00    -0.390 C  
ENDBRANCH   4  18
ENDBRANCH   2   4
TORSDOF 7
ENDMDL
MODEL      193
REMARK 921   NORMALIZED FREE ENERGY PREDICTED BY IDOCK:   -3.24 KCAL/MOL
REMARK 922        TOTAL FREE ENERGY PREDICTED BY IDOCK:   -5.58 KCAL/MOL
REMARK 923 INTER-LIGAND FREE ENERGY PREDICTED BY IDOCK:   -5.28 KCAL/MOL
REMARK 924 INTRA-LIGAND FREE ENERGY PREDICTED BY IDOCK:   -0.30 KCAL/MOL
REMARK 927      BINDING AFFINITY PREDICTED BY RF-SCORE:    0.00 PKD
ROOT
HETATM    1  C   UNL     1      -7.661   7.218  70.403  1.00  0.00    -0.088 C  
HETATM    2  C   UNL     1      -8.190   7.765  69.055  1.00  0.00    -0.126 C  
HETATM    3  C   UNL     1      -7.098   7.435  68.024  1.00  0.00    -0.081 C  
ENDROOT
BRANCH   2   4
HETATM    4  N   UNL     1      -9.570   7.254  68.754  1.00  0.00    -0.142 NA 
BRANCH   4   5
HETATM    5  C   UNL     1     -10.499   8.394  68.450  1.00  0.00    -0.164 C  
BRANCH   5   6
HETATM    6  C   UNL     1      -9.929   9.817  68.677  1.00  0.00    -0.167 C  
BRANCH   6   7
HETATM    7  N   UNL     1     -10.597  10.564  69.731  1.00  0.00    -0.343 N  
HETATM    8  C   UNL     1     -11.774  11.239  69.492  1.00  0.00    -0.345 C  
HETATM    9  H   UNL     1     -10.187  10.588  70.665  1.00  0.00     0.000 HD 
HETATM   10  O   UNL     1     -12.276  11.295  68.370  1.00  0.00    -0.604 OA 
BRANCH   8  11
HETATM   11  C   UNL     1     -12.398  11.945  70.704  1.00  0.00    -0.313 C  
BRANCH  11  12
HETATM   12  N   UNL     1     -12.446  13.379  70.487  1.00  0.00    -0.309 N  
HETATM   13  C   UNL     1     -11.766  14.039  69.398  1.00  0.00    -0.315 C  
HETATM   14  C   UNL     1     -11.449  15.401  69.983  1.00  0.00    -0.335 C  
HETATM   15  C   UNL     1     -12.622  15.666  70.923  1.00  0.00    -0.503 C  
HETATM   16  C   UNL     1     -12.969  14.278  71.400  1.00  0.00    -0.341 C  
HETATM   17  O   UNL     1     -13.611  14.002  72.400  1.00  0.00    -0.465 OA 
ENDBRANCH  11  12
ENDBRANCH   8  11
ENDBRANCH   6   7
ENDBRANCH   5   6
ENDBRANCH   4   5
BRANCH   4  18
HETATM   18  C   UNL     1      -9.687   6.163  67.736  1.00  0.00    -0.116 C  
HETATM   19  C   UNL     1     -10.846   6.416  66.742  1.00  0.00    -0.361 C  
HETATM   20  C   UNL     1      -9.954   4.749  68.287  1.00  0.00    -0.157 C  
ENDBRANCH   4  18
ENDBRANCH   2   4
TORSDOF 7
ENDMDL
MODEL      194
REMARK 921   NORMALIZED FREE ENERGY PREDICTED BY IDOCK:   -3.24 KCAL/MOL
REMARK 922        TOTAL FREE ENERGY PREDICTED BY IDOCK:   -5.57 KCAL/MOL
REMARK 923 INTER-LIGAND FREE ENERGY PREDICTED BY IDOCK:   -4.74 KCAL/MOL
REMARK 924 INTRA-LIGAND FREE ENERGY PREDICTED BY IDOCK:   -0.84 KCAL/MOL
REMARK 927      BINDING AFFINITY PREDICTED BY RF-SCORE:    0.00 PKD
ROOT
HETATM    1  C   UNL     1     -10.127   8.388  66.679  1.00  0.00    -0.358 C  
HETATM    2  C   UNL     1      -9.326   9.518  67.371  1.00  0.00    -0.130 C  
HETATM    3  C   UNL     1      -8.083   9.734  66.491  1.00  0.00    -0.116 C  
ENDROOT
BRANCH   2   4
HETATM    4  N   UNL     1     -10.180  10.725  67.630  1.00  0.00    -0.182 NA 
BRANCH   4   5
HETATM    5  C   UNL     1     -10.188  11.061  69.093  1.00  0.00    -0.166 C  
BRANCH   5   6
HETATM    6  C   UNL     1     -11.481  10.701  69.868  1.00  0.00    -0.317 C  
BRANCH   6   7
HETATM    7  N   UNL     1     -11.784   9.278  69.889  1.00  0.00    -0.443 N  
HETATM    8  C   UNL     1     -11.618   8.530  71.033  1.00  0.00    -0.279 C  
HETATM    9  H   UNL     1     -12.126   8.826  69.041  1.00  0.00     0.000 HD 
HETATM   10  O   UNL     1     -11.148   9.010  72.064  1.00  0.00    -0.364 OA 
BRANCH   8  11
HETATM   11  C   UNL     1     -12.021   7.052  70.930  1.00  0.00    -0.364 C  
BRANCH  11  12
HETATM   12  N   UNL     1     -10.843   6.207  70.865  1.00  0.00    -0.267 N  
HETATM   13  C   UNL     1      -9.922   6.215  69.753  1.00  0.00    -0.170 C  
HETATM   14  C   UNL     1      -9.407   4.790  69.739  1.00  0.00    -0.208 C  
HETATM   15  C   UNL     1      -9.410   4.397  71.214  1.00  0.00    -0.210 C  
HETATM   16  C   UNL     1     -10.586   5.174  71.749  1.00  0.00    -0.168 C  
HETATM   17  O   UNL     1     -11.188   4.943  72.786  1.00  0.00    -0.233 OA 
ENDBRANCH  11  12
ENDBRANCH   8  11
ENDBRANCH   6   7
ENDBRANCH   5   6
ENDBRANCH   4   5
BRANCH   4  18
HETATM   18  C   UNL     1      -9.922  11.937  66.788  1.00  0.00    -0.195 C  
HETATM   19  C   UNL     1      -9.909  13.236  67.629  1.00  0.00    -0.230 C  
HETATM   20  C   UNL     1     -10.943  12.212  65.668  1.00  0.00    -0.337 C  
ENDBRANCH   4  18
ENDBRANCH   2   4
TORSDOF 7
ENDMDL
MODEL      195
REMARK 921   NORMALIZED FREE ENERGY PREDICTED BY IDOCK:   -3.23 KCAL/MOL
REMARK 922        TOTAL FREE ENERGY PREDICTED BY IDOCK:   -5.56 KCAL/MOL
REMARK 923 INTER-LIGAND FREE ENERGY PREDICTED BY IDOCK:   -4.44 KCAL/MOL
REMARK 924 INTRA-LIGAND FREE ENERGY PREDICTED BY IDOCK:   -1.11 KCAL/MOL
REMARK 927      BINDING AFFINITY PREDICTED BY RF-SCORE:    0.00 PKD
ROOT
HETATM    1  C   UNL     1      -9.429   8.802  71.805  1.00  0.00    -0.363 C  
HETATM    2  C   UNL     1     -10.417   9.615  70.933  1.00  0.00    -0.289 C  
HETATM    3  C   UNL     1      -9.630   9.988  69.665  1.00  0.00    -0.251 C  
ENDROOT
BRANCH   2   4
HETATM    4  N   UNL     1     -11.708   8.878  70.725  1.00  0.00    -0.264 NA 
BRANCH   4   5
HETATM    5  C   UNL     1     -11.643   7.514  71.349  1.00  0.00    -0.275 C  
BRANCH   5   6
HETATM    6  C   UNL     1     -11.772   6.313  70.378  1.00  0.00    -0.220 C  
BRANCH   6   7
HETATM    7  N   UNL     1     -10.549   6.001  69.654  1.00  0.00    -0.267 N  
HETATM    8  C   UNL     1     -10.449   6.211  68.297  1.00  0.00    -0.232 C  
HETATM    9  H   UNL     1      -9.751   5.618  70.162  1.00  0.00     0.000 HD 
HETATM   10  O   UNL     1     -11.401   6.608  67.627  1.00  0.00    -0.246 OA 
BRANCH   8  11
HETATM   11  C   UNL     1      -9.087   5.883  67.669  1.00  0.00    -0.106 C  
BRANCH  11  12
HETATM   12  N   UNL     1      -8.326   7.099  67.444  1.00  0.00    -0.119 N  
HETATM   13  C   UNL     1      -8.288   7.787  66.175  1.00  0.00    -0.129 C  
HETATM   14  C   UNL     1      -6.909   8.415  66.181  1.00  0.00    -0.065 C  
HETATM   15  C   UNL     1      -6.666   8.727  67.655  1.00  0.00    -0.066 C  
HETATM   16  C   UNL     1      -7.408   7.610  68.344  1.00  0.00    -0.095 C  
HETATM   17  O   UNL     1      -7.239   7.238  69.495  1.00  0.00    -0.075 OA 
ENDBRANCH  11  12
ENDBRANCH   8  11
ENDBRANCH   6   7
ENDBRANCH   5   6
ENDBRANCH   4   5
BRANCH   4  18
HETATM   18  C   UNL     1     -12.970   9.594  71.097  1.00  0.00    -0.309 C  
HETATM   19  C   UNL     1     -12.741  11.112  71.294  1.00  0.00    -0.531 C  
HETATM   20  C   UNL     1     -13.650   9.133  72.400  1.00  0.00    -0.544 C  
ENDBRANCH   4  18
ENDBRANCH   2   4
TORSDOF 7
ENDMDL
MODEL      196
REMARK 921   NORMALIZED FREE ENERGY PREDICTED BY IDOCK:   -3.22 KCAL/MOL
REMARK 922        TOTAL FREE ENERGY PREDICTED BY IDOCK:   -5.55 KCAL/MOL
REMARK 923 INTER-LIGAND FREE ENERGY PREDICTED BY IDOCK:   -4.81 KCAL/MOL
REMARK 924 INTRA-LIGAND FREE ENERGY PREDICTED BY IDOCK:   -0.73 KCAL/MOL
REMARK 927      BINDING AFFINITY PREDICTED BY RF-SCORE:    0.00 PKD
ROOT
HETATM    1  C   UNL     1      -6.738   5.950  66.560  1.00  0.00    -0.057 C  
HETATM    2  C   UNL     1      -7.912   6.619  67.316  1.00  0.00    -0.117 C  
HETATM    3  C   UNL     1      -9.045   6.740  66.284  1.00  0.00    -0.165 C  
ENDROOT
BRANCH   2   4
HETATM    4  N   UNL     1      -8.239   5.888  68.587  1.00  0.00    -0.108 NA 
BRANCH   4   5
HETATM    5  C   UNL     1      -8.246   6.835  69.752  1.00  0.00    -0.127 C  
BRANCH   5   6
HETATM    6  C   UNL     1      -8.045   8.334  69.413  1.00  0.00    -0.115 C  
BRANCH   6   7
HETATM    7  N   UNL     1      -9.005   9.221  70.051  1.00  0.00    -0.180 N  
HETATM    8  C   UNL     1     -10.227   9.485  69.472  1.00  0.00    -0.213 C  
HETATM    9  H   UNL     1      -8.769   9.656  70.943  1.00  0.00     0.000 HD 
HETATM   10  O   UNL     1     -10.535   9.038  68.368  1.00  0.00    -0.206 OA 
BRANCH   8  11
HETATM   11  C   UNL     1     -11.163  10.399  70.275  1.00  0.00    -0.320 C  
BRANCH  11  12
HETATM   12  N   UNL     1     -12.018   9.613  71.145  1.00  0.00    -0.341 N  
HETATM   13  C   UNL     1     -11.963   8.172  71.218  1.00  0.00    -0.291 C  
HETATM   14  C   UNL     1     -13.393   7.803  71.562  1.00  0.00    -0.365 C  
HETATM   15  C   UNL     1     -13.863   8.971  72.424  1.00  0.00    -0.540 C  
HETATM   16  C   UNL     1     -13.100  10.131  71.834  1.00  0.00    -0.466 C  
HETATM   17  O   UNL     1     -13.378  11.313  71.961  1.00  0.00    -0.462 OA 
ENDBRANCH  11  12
ENDBRANCH   8  11
ENDBRANCH   6   7
ENDBRANCH   5   6
ENDBRANCH   4   5
BRANCH   4  18
HETATM   18  C   UNL     1      -9.456   5.017  68.579  1.00  0.00    -0.138 C  
HETATM   19  C   UNL     1     -10.420   5.352  69.743  1.00  0.00    -0.378 C  
HETATM   20  C   UNL     1      -9.205   3.503  68.710  1.00  0.00    -0.226 C  
ENDBRANCH   4  18
ENDBRANCH   2   4
TORSDOF 7
ENDMDL
MODEL      197
REMARK 921   NORMALIZED FREE ENERGY PREDICTED BY IDOCK:   -3.22 KCAL/MOL
REMARK 922        TOTAL FREE ENERGY PREDICTED BY IDOCK:   -5.54 KCAL/MOL
REMARK 923 INTER-LIGAND FREE ENERGY PREDICTED BY IDOCK:   -4.85 KCAL/MOL
REMARK 924 INTRA-LIGAND FREE ENERGY PREDICTED BY IDOCK:   -0.69 KCAL/MOL
REMARK 927      BINDING AFFINITY PREDICTED BY RF-SCORE:    0.00 PKD
ROOT
HETATM    1  C   UNL     1     -11.377  12.198  66.570  1.00  0.00    -0.405 C  
HETATM    2  C   UNL     1     -10.444  11.227  65.806  1.00  0.00    -0.254 C  
HETATM    3  C   UNL     1     -10.203  11.887  64.438  1.00  0.00    -0.333 C  
ENDROOT
BRANCH   2   4
HETATM    4  N   UNL     1      -9.222  10.886  66.608  1.00  0.00    -0.165 NA 
BRANCH   4   5
HETATM    5  C   UNL     1      -9.191  11.678  67.884  1.00  0.00    -0.171 C  
BRANCH   5   6
HETATM    6  C   UNL     1      -8.153  12.827  67.948  1.00  0.00    -0.159 C  
BRANCH   6   7
HETATM    7  N   UNL     1      -8.567  13.956  68.767  1.00  0.00    -0.348 N  
HETATM    8  C   UNL     1      -8.090  15.225  68.525  1.00  0.00    -0.143 C  
HETATM    9  H   UNL     1      -9.222  13.804  69.534  1.00  0.00     0.000 HD 
HETATM   10  O   UNL     1      -7.250  15.452  67.655  1.00  0.00    -0.146 OA 
BRANCH   8  11
HETATM   11  C   UNL     1      -8.646  16.331  69.433  1.00  0.00    -0.037 C  
BRANCH  11  12
HETATM   12  N   UNL     1      -9.244  17.388  68.639  1.00  0.00    -0.274 N  
HETATM   13  C   UNL     1     -10.436  17.204  67.845  1.00  0.00    -0.369 C  
HETATM   14  C   UNL     1     -10.226  18.179  66.703  1.00  0.00    -0.388 C  
HETATM   15  C   UNL     1      -9.453  19.325  67.352  1.00  0.00    -0.376 C  
HETATM   16  C   UNL     1      -8.637  18.608  68.397  1.00  0.00    -0.337 C  
HETATM   17  O   UNL     1      -7.633  19.036  68.943  1.00  0.00    -0.333 OA 
ENDBRANCH  11  12
ENDBRANCH   8  11
ENDBRANCH   6   7
ENDBRANCH   5   6
ENDBRANCH   4   5
BRANCH   4  18
HETATM   18  C   UNL     1      -8.951   9.434  66.855  1.00  0.00    -0.131 C  
HETATM   19  C   UNL     1      -7.933   8.853  65.844  1.00  0.00    -0.107 C  
HETATM   20  C   UNL     1     -10.166   8.493  66.763  1.00  0.00    -0.370 C  
ENDBRANCH   4  18
ENDBRANCH   2   4
TORSDOF 7
ENDMDL
MODEL      198
REMARK 921   NORMALIZED FREE ENERGY PREDICTED BY IDOCK:   -3.21 KCAL/MOL
REMARK 922        TOTAL FREE ENERGY PREDICTED BY IDOCK:   -5.54 KCAL/MOL
REMARK 923 INTER-LIGAND FREE ENERGY PREDICTED BY IDOCK:   -5.05 KCAL/MOL
REMARK 924 INTRA-LIGAND FREE ENERGY PREDICTED BY IDOCK:   -0.48 KCAL/MOL
REMARK 927      BINDING AFFINITY PREDICTED BY RF-SCORE:    0.00 PKD
ROOT
HETATM    1  C   UNL     1     -10.574  19.495  68.469  1.00  0.00    -0.138 C  
HETATM    2  C   UNL     1     -10.604  18.674  67.156  1.00  0.00    -0.417 C  
HETATM    3  C   UNL     1     -10.654  19.715  66.025  1.00  0.00    -0.584 C  
ENDROOT
BRANCH   2   4
HETATM    4  N   UNL     1      -9.482  17.678  67.099  1.00  0.00    -0.261 NA 
BRANCH   4   5
HETATM    5  C   UNL     1      -9.818  16.558  66.159  1.00  0.00    -0.332 C  
BRANCH   5   6
HETATM    6  C   UNL     1     -11.041  15.688  66.545  1.00  0.00    -0.135 C  
BRANCH   6   7
HETATM    7  N   UNL     1     -10.774  14.258  66.552  1.00  0.00    -0.294 N  
HETATM    8  C   UNL     1     -11.091  13.467  65.470  1.00  0.00    -0.282 C  
HETATM    9  H   UNL     1     -10.345  13.833  67.374  1.00  0.00     0.000 HD 
HETATM   10  O   UNL     1     -11.668  13.916  64.481  1.00  0.00    -0.376 OA 
BRANCH   8  11
HETATM   11  C   UNL     1     -10.710  11.985  65.592  1.00  0.00    -0.272 C  
BRANCH  11  12
HETATM   12  N   UNL     1     -10.087  11.724  66.877  1.00  0.00    -0.205 N  
HETATM   13  C   UNL     1      -8.665  11.824  67.102  1.00  0.00    -0.169 C  
HETATM   14  C   UNL     1      -8.429  10.795  68.190  1.00  0.00    -0.125 C  
HETATM   15  C   UNL     1      -9.719  10.838  69.005  1.00  0.00    -0.201 C  
HETATM   16  C   UNL     1     -10.750  11.164  67.955  1.00  0.00    -0.216 C  
HETATM   17  O   UNL     1     -11.954  10.982  68.049  1.00  0.00    -0.623 OA 
ENDBRANCH  11  12
ENDBRANCH   8  11
ENDBRANCH   6   7
ENDBRANCH   5   6
ENDBRANCH   4   5
BRANCH   4  18
HETATM   18  C   UNL     1      -8.106  18.214  66.848  1.00  0.00    -0.237 C  
HETATM   19  C   UNL     1      -7.335  17.370  65.804  1.00  0.00     0.055 C  
HETATM   20  C   UNL     1      -7.168  18.269  68.068  1.00  0.00    -0.240 C  
ENDBRANCH   4  18
ENDBRANCH   2   4
TORSDOF 7
ENDMDL
MODEL      199
REMARK 921   NORMALIZED FREE ENERGY PREDICTED BY IDOCK:   -3.20 KCAL/MOL
REMARK 922        TOTAL FREE ENERGY PREDICTED BY IDOCK:   -5.52 KCAL/MOL
REMARK 923 INTER-LIGAND FREE ENERGY PREDICTED BY IDOCK:   -4.61 KCAL/MOL
REMARK 924 INTRA-LIGAND FREE ENERGY PREDICTED BY IDOCK:   -0.91 KCAL/MOL
REMARK 927      BINDING AFFINITY PREDICTED BY RF-SCORE:    0.00 PKD
ROOT
HETATM    1  C   UNL     1     -12.118  14.010  70.242  1.00  0.00    -0.425 C  
HETATM    2  C   UNL     1     -11.981  14.187  68.710  1.00  0.00    -0.332 C  
HETATM    3  C   UNL     1     -11.062  15.406  68.522  1.00  0.00    -0.295 C  
ENDROOT
BRANCH   2   4
HETATM    4  N   UNL     1     -11.549  12.914  68.041  1.00  0.00    -0.320 NA 
BRANCH   4   5
HETATM    5  C   UNL     1     -10.889  13.208  66.725  1.00  0.00    -0.276 C  
BRANCH   5   6
HETATM    6  C   UNL     1     -11.496  12.503  65.486  1.00  0.00    -0.350 C  
BRANCH   6   7
HETATM    7  N   UNL     1     -10.771  11.313  65.066  1.00  0.00    -0.281 N  
HETATM    8  C   UNL     1     -10.103  11.273  63.862  1.00  0.00    -0.340 C  
HETATM    9  H   UNL     1     -10.759  10.494  65.673  1.00  0.00     0.000 HD 
HETATM   10  O   UNL     1     -10.140  12.209  63.064  1.00  0.00    -0.309 OA 
BRANCH   8  11
HETATM   11  C   UNL     1      -9.340   9.974  63.565  1.00  0.00    -0.256 C  
BRANCH  11  12
HETATM   12  N   UNL     1      -7.923  10.147  63.827  1.00  0.00    -0.154 N  
HETATM   13  C   UNL     1      -6.934  10.278  62.782  1.00  0.00    -0.134 C  
HETATM   14  C   UNL     1      -5.699   9.671  63.418  1.00  0.00    -0.093 C  
HETATM   15  C   UNL     1      -5.850  10.022  64.895  1.00  0.00    -0.104 C  
HETATM   16  C   UNL     1      -7.348  10.002  65.077  1.00  0.00    -0.140 C  
HETATM   17  O   UNL     1      -7.941   9.897  66.138  1.00  0.00    -0.105 OA 
ENDBRANCH  11  12
ENDBRANCH   8  11
ENDBRANCH   6   7
ENDBRANCH   5   6
ENDBRANCH   4   5
BRANCH   4  18
HETATM   18  C   UNL     1     -10.743  11.953  68.859  1.00  0.00    -0.199 C  
HETATM   19  C   UNL     1      -9.271  11.879  68.385  1.00  0.00    -0.173 C  
HETATM   20  C   UNL     1     -11.224  10.490  68.854  1.00  0.00    -0.323 C  
ENDBRANCH   4  18
ENDBRANCH   2   4
TORSDOF 7
ENDMDL
MODEL      200
REMARK 921   NORMALIZED FREE ENERGY PREDICTED BY IDOCK:   -3.17 KCAL/MOL
REMARK 922        TOTAL FREE ENERGY PREDICTED BY IDOCK:   -5.48 KCAL/MOL
REMARK 923 INTER-LIGAND FREE ENERGY PREDICTED BY IDOCK:   -5.06 KCAL/MOL
REMARK 924 INTRA-LIGAND FREE ENERGY PREDICTED BY IDOCK:   -0.42 KCAL/MOL
REMARK 927      BINDING AFFINITY PREDICTED BY RF-SCORE:    0.00 PKD
ROOT
HETATM    1  C   UNL     1     -10.283  18.124  68.796  1.00  0.00    -0.353 C  
HETATM    2  C   UNL     1      -9.939  16.852  67.983  1.00  0.00    -0.279 C  
HETATM    3  C   UNL     1      -9.810  17.323  66.525  1.00  0.00    -0.306 C  
ENDROOT
BRANCH   2   4
HETATM    4  N   UNL     1      -8.756  16.130  68.559  1.00  0.00    -0.190 NA 
BRANCH   4   5
HETATM    5  C   UNL     1      -8.848  14.658  68.279  1.00  0.00    -0.176 C  
BRANCH   5   6
HETATM    6  C   UNL     1     -10.275  14.053  68.276  1.00  0.00    -0.249 C  
BRANCH   6   7
HETATM    7  N   UNL     1     -10.378  12.771  68.955  1.00  0.00    -0.437 N  
HETATM    8  C   UNL     1     -11.324  11.840  68.585  1.00  0.00    -0.270 C  
HETATM    9  H   UNL     1      -9.738  12.557  69.720  1.00  0.00     0.000 HD 
HETATM   10  O   UNL     1     -12.161  12.073  67.713  1.00  0.00    -0.537 OA 
BRANCH   8  11
HETATM   11  C   UNL     1     -11.290  10.511  69.352  1.00  0.00    -0.269 C  
BRANCH  11  12
HETATM   12  N   UNL     1     -10.564   9.507  68.597  1.00  0.00    -0.217 N  
HETATM   13  C   UNL     1     -10.197   9.671  67.210  1.00  0.00    -0.233 C  
HETATM   14  C   UNL     1     -10.209   8.245  66.694  1.00  0.00    -0.333 C  
HETATM   15  C   UNL     1      -9.763   7.426  67.903  1.00  0.00    -0.166 C  
HETATM   16  C   UNL     1     -10.326   8.223  69.053  1.00  0.00    -0.221 C  
HETATM   17  O   UNL     1     -10.519   7.811  70.186  1.00  0.00    -0.220 OA 
ENDBRANCH  11  12
ENDBRANCH   8  11
ENDBRANCH   6   7
ENDBRANCH   5   6
ENDBRANCH   4   5
BRANCH   4  18
HETATM   18  C   UNL     1      -7.399  16.669  68.227  1.00  0.00    -0.179 C  
HETATM   19  C   UNL     1      -6.565  15.670  67.388  1.00  0.00    -0.194 C  
HETATM   20  C   UNL     1      -6.495  17.013  69.426  1.00  0.00    -0.236 C  
ENDBRANCH   4  18
ENDBRANCH   2   4
TORSDOF 7
ENDMDL
MODEL      201
REMARK 921   NORMALIZED FREE ENERGY PREDICTED BY IDOCK:   -3.16 KCAL/MOL
REMARK 922        TOTAL FREE ENERGY PREDICTED BY IDOCK:   -5.46 KCAL/MOL
REMARK 923 INTER-LIGAND FREE ENERGY PREDICTED BY IDOCK:   -5.83 KCAL/MOL
REMARK 924 INTRA-LIGAND FREE ENERGY PREDICTED BY IDOCK:    0.38 KCAL/MOL
REMARK 927      BINDING AFFINITY PREDICTED BY RF-SCORE:    0.00 PKD
ROOT
HETATM    1  C   UNL     1      -7.016  18.738  69.286  1.00  0.00    -0.247 C  
HETATM    2  C   UNL     1      -7.677  19.913  68.525  1.00  0.00    -0.229 C  
HETATM    3  C   UNL     1      -6.550  20.932  68.291  1.00  0.00    -0.201 C  
ENDROOT
BRANCH   2   4
HETATM    4  N   UNL     1      -8.413  19.438  67.305  1.00  0.00    -0.288 NA 
BRANCH   4   5
HETATM    5  C   UNL     1      -8.756  17.982  67.429  1.00  0.00    -0.248 C  
BRANCH   5   6
HETATM    6  C   UNL     1      -9.889  17.630  68.426  1.00  0.00    -0.334 C  
BRANCH   6   7
HETATM    7  N   UNL     1     -10.792  16.592  67.957  1.00  0.00    -0.344 N  
HETATM    8  C   UNL     1     -11.112  15.512  68.750  1.00  0.00    -0.291 C  
HETATM    9  H   UNL     1     -11.196  16.664  67.023  1.00  0.00     0.000 HD 
HETATM   10  O   UNL     1     -10.603  15.343  69.858  1.00  0.00    -0.270 OA 
BRANCH   8  11
HETATM   11  C   UNL     1     -12.114  14.516  68.150  1.00  0.00    -0.197 C  
BRANCH  11  12
HETATM   12  N   UNL     1     -11.636  14.021  66.873  1.00  0.00    -0.365 N  
HETATM   13  C   UNL     1     -10.266  13.631  66.637  1.00  0.00    -0.276 C  
HETATM   14  C   UNL     1     -10.081  13.946  65.166  1.00  0.00    -0.330 C  
HETATM   15  C   UNL     1     -11.461  13.681  64.569  1.00  0.00    -0.401 C  
HETATM   16  C   UNL     1     -12.378  14.060  65.705  1.00  0.00    -0.480 C  
HETATM   17  O   UNL     1     -13.564  14.332  65.611  1.00  0.00    -0.394 OA 
ENDBRANCH  11  12
ENDBRANCH   8  11
ENDBRANCH   6   7
ENDBRANCH   5   6
ENDBRANCH   4   5
BRANCH   4  18
HETATM   18  C   UNL     1      -9.595  20.246  66.864  1.00  0.00    -0.427 C  
HETATM   19  C   UNL     1     -10.588  20.505  68.023  1.00  0.00     0.028 C  
HETATM   20  C   UNL     1     -10.458  19.628  65.748  1.00  0.00    -0.540 C  
ENDBRANCH   4  18
ENDBRANCH   2   4
TORSDOF 7
ENDMDL
MODEL      202
REMARK 921   NORMALIZED FREE ENERGY PREDICTED BY IDOCK:   -3.15 KCAL/MOL
REMARK 922        TOTAL FREE ENERGY PREDICTED BY IDOCK:   -5.45 KCAL/MOL
REMARK 923 INTER-LIGAND FREE ENERGY PREDICTED BY IDOCK:   -5.20 KCAL/MOL
REMARK 924 INTRA-LIGAND FREE ENERGY PREDICTED BY IDOCK:   -0.25 KCAL/MOL
REMARK 927      BINDING AFFINITY PREDICTED BY RF-SCORE:    0.00 PKD
ROOT
HETATM    1  C   UNL     1     -10.708  15.210  65.024  1.00  0.00    -0.451 C  
HETATM    2  C   UNL     1     -11.464  14.144  65.854  1.00  0.00    -0.338 C  
HETATM    3  C   UNL     1     -12.937  14.267  65.429  1.00  0.00    -0.230 C  
ENDROOT
BRANCH   2   4
HETATM    4  N   UNL     1     -10.839  12.786  65.713  1.00  0.00    -0.269 NA 
BRANCH   4   5
HETATM    5  C   UNL     1     -11.559  11.783  66.567  1.00  0.00    -0.181 C  
BRANCH   5   6
HETATM    6  C   UNL     1     -10.670  10.911  67.490  1.00  0.00    -0.252 C  
BRANCH   6   7
HETATM    7  N   UNL     1     -11.012   9.497  67.480  1.00  0.00    -0.433 N  
HETATM    8  C   UNL     1     -10.206   8.563  68.093  1.00  0.00    -0.208 C  
HETATM    9  H   UNL     1     -11.865   9.191  67.011  1.00  0.00     0.000 HD 
HETATM   10  O   UNL     1      -9.136   8.870  68.617  1.00  0.00    -0.137 OA 
BRANCH   8  11
HETATM   11  C   UNL     1     -10.710   7.114  68.050  1.00  0.00    -0.171 C  
BRANCH  11  12
HETATM   12  N   UNL     1     -10.714   6.537  69.381  1.00  0.00    -0.249 N  
HETATM   13  C   UNL     1     -11.537   7.035  70.458  1.00  0.00    -0.319 C  
HETATM   14  C   UNL     1     -10.704   6.720  71.685  1.00  0.00    -0.252 C  
HETATM   15  C   UNL     1      -9.984   5.429  71.303  1.00  0.00    -0.253 C  
HETATM   16  C   UNL     1      -9.798   5.595  69.816  1.00  0.00    -0.185 C  
HETATM   17  O   UNL     1      -8.996   4.993  69.121  1.00  0.00    -0.097 OA 
ENDBRANCH  11  12
ENDBRANCH   8  11
ENDBRANCH   6   7
ENDBRANCH   5   6
ENDBRANCH   4   5
BRANCH   4  18
HETATM   18  C   UNL     1     -10.626  12.273  64.323  1.00  0.00    -0.354 C  
HETATM   19  C   UNL     1     -11.948  11.805  63.667  1.00  0.00    -0.490 C  
HETATM   20  C   UNL     1      -9.679  11.066  64.184  1.00  0.00    -0.332 C  
ENDBRANCH   4  18
ENDBRANCH   2   4
TORSDOF 7
ENDMDL
MODEL      203
REMARK 921   NORMALIZED FREE ENERGY PREDICTED BY IDOCK:   -3.12 KCAL/MOL
REMARK 922        TOTAL FREE ENERGY PREDICTED BY IDOCK:   -5.41 KCAL/MOL
REMARK 923 INTER-LIGAND FREE ENERGY PREDICTED BY IDOCK:   -4.51 KCAL/MOL
REMARK 924 INTRA-LIGAND FREE ENERGY PREDICTED BY IDOCK:   -0.90 KCAL/MOL
REMARK 927      BINDING AFFINITY PREDICTED BY RF-SCORE:    0.00 PKD
ROOT
HETATM    1  C   UNL     1      -9.614   8.704  72.227  1.00  0.00    -0.348 C  
HETATM    2  C   UNL     1     -10.365   9.575  71.190  1.00  0.00    -0.260 C  
HETATM    3  C   UNL     1      -9.367   9.791  70.040  1.00  0.00    -0.274 C  
ENDROOT
BRANCH   2   4
HETATM    4  N   UNL     1     -11.691   8.976  70.820  1.00  0.00    -0.270 NA 
BRANCH   4   5
HETATM    5  C   UNL     1     -11.758   7.538  71.248  1.00  0.00    -0.287 C  
BRANCH   5   6
HETATM    6  C   UNL     1     -11.758   6.487  70.109  1.00  0.00    -0.353 C  
BRANCH   6   7
HETATM    7  N   UNL     1     -10.467   6.311  69.464  1.00  0.00    -0.213 N  
HETATM    8  C   UNL     1     -10.326   6.446  68.100  1.00  0.00    -0.192 C  
HETATM    9  H   UNL     1      -9.651   6.082  70.031  1.00  0.00     0.000 HD 
HETATM   10  O   UNL     1     -11.289   6.657  67.363  1.00  0.00    -0.299 OA 
BRANCH   8  11
HETATM   11  C   UNL     1      -8.900   6.282  67.556  1.00  0.00    -0.103 C  
BRANCH  11  12
HETATM   12  N   UNL     1      -8.612   4.883  67.301  1.00  0.00    -0.105 N  
HETATM   13  C   UNL     1      -7.812   4.065  68.182  1.00  0.00    -0.073 C  
HETATM   14  C   UNL     1      -7.175   3.075  67.227  1.00  0.00    -0.058 C  
HETATM   15  C   UNL     1      -8.239   2.886  66.149  1.00  0.00    -0.085 C  
HETATM   16  C   UNL     1      -8.896   4.243  66.107  1.00  0.00    -0.116 C  
HETATM   17  O   UNL     1      -9.570   4.686  65.192  1.00  0.00    -0.166 OA 
ENDBRANCH  11  12
ENDBRANCH   8  11
ENDBRANCH   6   7
ENDBRANCH   5   6
ENDBRANCH   4   5
BRANCH   4  18
HETATM   18  C   UNL     1     -12.919   9.729  71.229  1.00  0.00    -0.380 C  
HETATM   19  C   UNL     1     -12.603  11.200  71.596  1.00  0.00    -0.386 C  
HETATM   20  C   UNL     1     -13.673   9.179  72.455  1.00  0.00    -0.543 C  
ENDBRANCH   4  18
ENDBRANCH   2   4
TORSDOF 7
ENDMDL
MODEL      204
REMARK 921   NORMALIZED FREE ENERGY PREDICTED BY IDOCK:   -3.11 KCAL/MOL
REMARK 922        TOTAL FREE ENERGY PREDICTED BY IDOCK:   -5.40 KCAL/MOL
REMARK 923 INTER-LIGAND FREE ENERGY PREDICTED BY IDOCK:   -4.88 KCAL/MOL
REMARK 924 INTRA-LIGAND FREE ENERGY PREDICTED BY IDOCK:   -0.52 KCAL/MOL
REMARK 927      BINDING AFFINITY PREDICTED BY RF-SCORE:    0.00 PKD
ROOT
HETATM    1  C   UNL     1      -9.555   4.989  70.345  1.00  0.00    -0.260 C  
HETATM    2  C   UNL     1      -9.287   5.673  68.982  1.00  0.00    -0.124 C  
HETATM    3  C   UNL     1      -7.767   5.574  68.768  1.00  0.00    -0.091 C  
ENDROOT
BRANCH   2   4
HETATM    4  N   UNL     1     -10.154   5.104  67.896  1.00  0.00    -0.155 NA 
BRANCH   4   5
HETATM    5  C   UNL     1     -11.022   6.174  67.300  1.00  0.00    -0.326 C  
BRANCH   5   6
HETATM    6  C   UNL     1     -10.299   7.473  66.862  1.00  0.00    -0.309 C  
BRANCH   6   7
HETATM    7  N   UNL     1     -10.701   8.656  67.606  1.00  0.00    -0.467 N  
HETATM    8  C   UNL     1      -9.789   9.381  68.340  1.00  0.00    -0.160 C  
HETATM    9  H   UNL     1     -11.676   8.954  67.584  1.00  0.00     0.000 HD 
HETATM   10  O   UNL     1      -8.615   9.029  68.452  1.00  0.00    -0.128 OA 
BRANCH   8  11
HETATM   11  C   UNL     1     -10.337  10.634  69.037  1.00  0.00    -0.218 C  
BRANCH  11  12
HETATM   12  N   UNL     1     -11.083  10.268  70.227  1.00  0.00    -0.302 N  
HETATM   13  C   UNL     1     -10.948   8.990  70.885  1.00  0.00    -0.268 C  
HETATM   14  C   UNL     1     -12.327   8.776  71.477  1.00  0.00    -0.380 C  
HETATM   15  C   UNL     1     -12.792  10.190  71.816  1.00  0.00    -0.554 C  
HETATM   16  C   UNL     1     -12.136  11.010  70.734  1.00  0.00    -0.366 C  
HETATM   17  O   UNL     1     -12.465  12.132  70.384  1.00  0.00    -0.240 OA 
ENDBRANCH  11  12
ENDBRANCH   8  11
ENDBRANCH   6   7
ENDBRANCH   5   6
ENDBRANCH   4   5
BRANCH   4  18
HETATM   18  C   UNL     1      -9.475   4.292  66.837  1.00  0.00    -0.187 C  
HETATM   19  C   UNL     1     -10.339   4.166  65.558  1.00  0.00    -0.144 C  
HETATM   20  C   UNL     1      -9.132   2.838  67.214  1.00  0.00    -0.203 C  
ENDBRANCH   4  18
ENDBRANCH   2   4
TORSDOF 7
ENDMDL
MODEL      205
REMARK 921   NORMALIZED FREE ENERGY PREDICTED BY IDOCK:   -3.11 KCAL/MOL
REMARK 922        TOTAL FREE ENERGY PREDICTED BY IDOCK:   -5.39 KCAL/MOL
REMARK 923 INTER-LIGAND FREE ENERGY PREDICTED BY IDOCK:   -4.45 KCAL/MOL
REMARK 924 INTRA-LIGAND FREE ENERGY PREDICTED BY IDOCK:   -0.95 KCAL/MOL
REMARK 927      BINDING AFFINITY PREDICTED BY RF-SCORE:    0.00 PKD
ROOT
HETATM    1  C   UNL     1      -8.947  13.301  67.117  1.00  0.00    -0.229 C  
HETATM    2  C   UNL     1      -8.139  12.006  66.854  1.00  0.00    -0.127 C  
HETATM    3  C   UNL     1      -7.422  11.698  68.179  1.00  0.00    -0.103 C  
ENDROOT
BRANCH   2   4
HETATM    4  N   UNL     1      -9.006  10.916  66.294  1.00  0.00    -0.170 NA 
BRANCH   4   5
HETATM    5  C   UNL     1     -10.450  11.327  66.315  1.00  0.00    -0.258 C  
BRANCH   5   6
HETATM    6  C   UNL     1     -11.375  10.519  67.260  1.00  0.00     0.024 C  
BRANCH   6   7
HETATM    7  N   UNL     1     -10.676   9.845  68.342  1.00  0.00    -0.230 N  
HETATM    8  C   UNL     1     -10.658  10.368  69.616  1.00  0.00    -0.253 C  
HETATM    9  H   UNL     1     -10.189   8.968  68.155  1.00  0.00     0.000 HD 
HETATM   10  O   UNL     1     -11.174  11.453  69.882  1.00  0.00    -0.235 OA 
BRANCH   8  11
HETATM   11  C   UNL     1      -9.925   9.530  70.673  1.00  0.00    -0.276 C  
BRANCH  11  12
HETATM   12  N   UNL     1     -10.653   8.304  70.943  1.00  0.00    -0.203 N  
HETATM   13  C   UNL     1     -10.267   7.019  70.410  1.00  0.00    -0.196 C  
HETATM   14  C   UNL     1     -11.596   6.302  70.281  1.00  0.00    -0.379 C  
HETATM   15  C   UNL     1     -12.413   6.854  71.446  1.00  0.00    -0.413 C  
HETATM   16  C   UNL     1     -11.890   8.263  71.563  1.00  0.00    -0.293 C  
HETATM   17  O   UNL     1     -12.450   9.193  72.120  1.00  0.00    -0.368 OA 
ENDBRANCH  11  12
ENDBRANCH   8  11
ENDBRANCH   6   7
ENDBRANCH   5   6
ENDBRANCH   4   5
BRANCH   4  18
HETATM   18  C   UNL     1      -8.615  10.349  64.965  1.00  0.00    -0.181 C  
HETATM   19  C   UNL     1      -9.685  10.620  63.879  1.00  0.00    -0.378 C  
HETATM   20  C   UNL     1      -8.396   8.825  64.917  1.00  0.00    -0.179 C  
ENDBRANCH   4  18
ENDBRANCH   2   4
TORSDOF 7
ENDMDL
MODEL      206
REMARK 921   NORMALIZED FREE ENERGY PREDICTED BY IDOCK:   -3.11 KCAL/MOL
REMARK 922        TOTAL FREE ENERGY PREDICTED BY IDOCK:   -5.38 KCAL/MOL
REMARK 923 INTER-LIGAND FREE ENERGY PREDICTED BY IDOCK:   -4.47 KCAL/MOL
REMARK 924 INTRA-LIGAND FREE ENERGY PREDICTED BY IDOCK:   -0.92 KCAL/MOL
REMARK 927      BINDING AFFINITY PREDICTED BY RF-SCORE:    0.00 PKD
ROOT
HETATM    1  C   UNL     1      -8.238  15.395  69.411  1.00  0.00    -0.250 C  
HETATM    2  C   UNL     1      -8.677  15.470  67.928  1.00  0.00    -0.163 C  
HETATM    3  C   UNL     1      -7.877  14.370  67.210  1.00  0.00    -0.188 C  
ENDROOT
BRANCH   2   4
HETATM    4  N   UNL     1     -10.171  15.409  67.788  1.00  0.00    -0.238 NA 
BRANCH   4   5
HETATM    5  C   UNL     1     -10.804  14.987  69.082  1.00  0.00    -0.251 C  
BRANCH   5   6
HETATM    6  C   UNL     1     -11.482  13.593  69.086  1.00  0.00    -0.297 C  
BRANCH   6   7
HETATM    7  N   UNL     1     -10.550  12.480  69.171  1.00  0.00    -0.438 N  
HETATM    8  C   UNL     1     -10.269  11.699  68.071  1.00  0.00    -0.190 C  
HETATM    9  H   UNL     1     -10.097  12.273  70.061  1.00  0.00     0.000 HD 
HETATM   10  O   UNL     1     -10.836  11.864  66.992  1.00  0.00    -0.235 OA 
BRANCH   8  11
HETATM   11  C   UNL     1      -9.231  10.588  68.289  1.00  0.00    -0.152 C  
BRANCH  11  12
HETATM   12  N   UNL     1      -9.817   9.484  69.025  1.00  0.00    -0.170 N  
HETATM   13  C   UNL     1      -9.712   9.342  70.459  1.00  0.00    -0.271 C  
HETATM   14  C   UNL     1      -9.733   7.838  70.645  1.00  0.00    -0.177 C  
HETATM   15  C   UNL     1     -10.636   7.352  69.515  1.00  0.00    -0.244 C  
HETATM   16  C   UNL     1     -10.354   8.358  68.426  1.00  0.00    -0.200 C  
HETATM   17  O   UNL     1     -10.579   8.209  67.236  1.00  0.00    -0.299 OA 
ENDBRANCH  11  12
ENDBRANCH   8  11
ENDBRANCH   6   7
ENDBRANCH   5   6
ENDBRANCH   4   5
BRANCH   4  18
HETATM   18  C   UNL     1     -10.851  16.611  67.209  1.00  0.00    -0.158 C  
HETATM   19  C   UNL     1     -10.848  16.590  65.661  1.00  0.00    -0.165 C  
HETATM   20  C   UNL     1     -10.243  17.977  67.578  1.00  0.00    -0.376 C  
ENDBRANCH   4  18
ENDBRANCH   2   4
TORSDOF 7
ENDMDL
MODEL      207
REMARK 921   NORMALIZED FREE ENERGY PREDICTED BY IDOCK:   -3.10 KCAL/MOL
REMARK 922        TOTAL FREE ENERGY PREDICTED BY IDOCK:   -5.38 KCAL/MOL
REMARK 923 INTER-LIGAND FREE ENERGY PREDICTED BY IDOCK:   -5.36 KCAL/MOL
REMARK 924 INTRA-LIGAND FREE ENERGY PREDICTED BY IDOCK:   -0.02 KCAL/MOL
REMARK 927      BINDING AFFINITY PREDICTED BY RF-SCORE:    0.00 PKD
ROOT
HETATM    1  C   UNL     1      -9.839   7.809  67.536  1.00  0.00    -0.221 C  
HETATM    2  C   UNL     1      -9.457   7.272  68.937  1.00  0.00    -0.143 C  
HETATM    3  C   UNL     1      -8.010   6.770  68.799  1.00  0.00    -0.119 C  
ENDROOT
BRANCH   2   4
HETATM    4  N   UNL     1      -9.712   8.291  70.010  1.00  0.00    -0.175 NA 
BRANCH   4   5
HETATM    5  C   UNL     1      -9.291   9.657  69.550  1.00  0.00    -0.200 C  
BRANCH   5   6
HETATM    6  C   UNL     1     -10.431  10.607  69.105  1.00  0.00    -0.222 C  
BRANCH   6   7
HETATM    7  N   UNL     1      -9.993  11.705  68.257  1.00  0.00    -0.195 N  
HETATM    8  C   UNL     1     -10.831  12.256  67.313  1.00  0.00    -0.245 C  
HETATM    9  H   UNL     1      -9.047  12.073  68.363  1.00  0.00     0.000 HD 
HETATM   10  O   UNL     1     -11.956  11.808  67.100  1.00  0.00    -0.617 OA 
BRANCH   8  11
HETATM   11  C   UNL     1     -10.257  13.439  66.520  1.00  0.00    -0.282 C  
BRANCH  11  12
HETATM   12  N   UNL     1     -10.357  14.664  67.292  1.00  0.00    -0.255 N  
HETATM   13  C   UNL     1     -10.996  14.735  68.586  1.00  0.00    -0.255 C  
HETATM   14  C   UNL     1     -11.529  16.154  68.613  1.00  0.00    -0.340 C  
HETATM   15  C   UNL     1     -10.498  16.937  67.806  1.00  0.00    -0.340 C  
HETATM   16  C   UNL     1     -10.040  15.916  66.795  1.00  0.00    -0.271 C  
HETATM   17  O   UNL     1      -9.474  16.153  65.740  1.00  0.00    -0.385 OA 
ENDBRANCH  11  12
ENDBRANCH   8  11
ENDBRANCH   6   7
ENDBRANCH   5   6
ENDBRANCH   4   5
BRANCH   4  18
HETATM   18  C   UNL     1     -11.079   8.312  70.620  1.00  0.00    -0.253 C  
HETATM   19  C   UNL     1     -11.066   8.891  72.055  1.00  0.00    -0.421 C  
HETATM   20  C   UNL     1     -11.779   6.948  70.760  1.00  0.00    -0.417 C  
ENDBRANCH   4  18
ENDBRANCH   2   4
TORSDOF 7
ENDMDL
MODEL      208
REMARK 921   NORMALIZED FREE ENERGY PREDICTED BY IDOCK:   -3.08 KCAL/MOL
REMARK 922        TOTAL FREE ENERGY PREDICTED BY IDOCK:   -5.35 KCAL/MOL
REMARK 923 INTER-LIGAND FREE ENERGY PREDICTED BY IDOCK:   -4.78 KCAL/MOL
REMARK 924 INTRA-LIGAND FREE ENERGY PREDICTED BY IDOCK:   -0.57 KCAL/MOL
REMARK 927      BINDING AFFINITY PREDICTED BY RF-SCORE:    0.00 PKD
ROOT
HETATM    1  C   UNL     1     -11.920  11.394  70.433  1.00  0.00    -0.465 C  
HETATM    2  C   UNL     1     -12.220  12.612  69.526  1.00  0.00    -0.090 C  
HETATM    3  C   UNL     1     -12.092  13.842  70.440  1.00  0.00    -0.421 C  
ENDROOT
BRANCH   2   4
HETATM    4  N   UNL     1     -11.368  12.606  68.290  1.00  0.00    -0.272 NA 
BRANCH   4   5
HETATM    5  C   UNL     1     -11.596  11.351  67.499  1.00  0.00    -0.219 C  
BRANCH   5   6
HETATM    6  C   UNL     1     -10.414  10.350  67.452  1.00  0.00    -0.249 C  
BRANCH   6   7
HETATM    7  N   UNL     1     -10.783   8.980  67.773  1.00  0.00    -0.441 N  
HETATM    8  C   UNL     1     -10.391   7.929  66.972  1.00  0.00    -0.341 C  
HETATM    9  H   UNL     1     -11.341   8.793  68.606  1.00  0.00     0.000 HD 
HETATM   10  O   UNL     1      -9.772   8.104  65.924  1.00  0.00    -0.072 OA 
BRANCH   8  11
HETATM   11  C   UNL     1     -10.807   6.532  67.453  1.00  0.00    -0.373 C  
BRANCH  11  12
HETATM   12  N   UNL     1      -9.690   5.610  67.361  1.00  0.00    -0.121 N  
HETATM   13  C   UNL     1      -8.449   5.794  68.074  1.00  0.00    -0.106 C  
HETATM   14  C   UNL     1      -7.437   5.148  67.149  1.00  0.00    -0.087 C  
HETATM   15  C   UNL     1      -8.221   4.010  66.503  1.00  0.00    -0.101 C  
HETATM   16  C   UNL     1      -9.616   4.580  66.439  1.00  0.00    -0.189 C  
HETATM   17  O   UNL     1     -10.520   4.189  65.718  1.00  0.00    -0.150 OA 
ENDBRANCH  11  12
ENDBRANCH   8  11
ENDBRANCH   6   7
ENDBRANCH   5   6
ENDBRANCH   4   5
BRANCH   4  18
HETATM   18  C   UNL     1     -11.420  13.823  67.419  1.00  0.00    -0.345 C  
HETATM   19  C   UNL     1     -12.297  13.601  66.162  1.00  0.00    -0.476 C  
HETATM   20  C   UNL     1     -10.070  14.317  66.865  1.00  0.00    -0.264 C  
ENDBRANCH   4  18
ENDBRANCH   2   4
TORSDOF 7
ENDMDL
MODEL      209
REMARK 921   NORMALIZED FREE ENERGY PREDICTED BY IDOCK:   -3.08 KCAL/MOL
REMARK 922        TOTAL FREE ENERGY PREDICTED BY IDOCK:   -5.34 KCAL/MOL
REMARK 923 INTER-LIGAND FREE ENERGY PREDICTED BY IDOCK:   -4.45 KCAL/MOL
REMARK 924 INTRA-LIGAND FREE ENERGY PREDICTED BY IDOCK:   -0.90 KCAL/MOL
REMARK 927      BINDING AFFINITY PREDICTED BY RF-SCORE:    0.00 PKD
ROOT
HETATM    1  C   UNL     1      -9.284  11.520  68.313  1.00  0.00    -0.186 C  
HETATM    2  C   UNL     1     -10.793  11.452  68.657  1.00  0.00    -0.208 C  
HETATM    3  C   UNL     1     -11.524  11.676  67.323  1.00  0.00    -0.350 C  
ENDROOT
BRANCH   2   4
HETATM    4  N   UNL     1     -11.134  10.195  69.404  1.00  0.00    -0.240 NA 
BRANCH   4   5
HETATM    5  C   UNL     1     -10.059   9.164  69.221  1.00  0.00    -0.194 C  
BRANCH   5   6
HETATM    6  C   UNL     1     -10.422   7.953  68.325  1.00  0.00    -0.164 C  
BRANCH   6   7
HETATM    7  N   UNL     1      -9.938   6.676  68.827  1.00  0.00    -0.141 N  
HETATM    8  C   UNL     1     -10.704   5.904  69.672  1.00  0.00    -0.345 C  
HETATM    9  H   UNL     1      -9.013   6.347  68.548  1.00  0.00     0.000 HD 
HETATM   10  O   UNL     1     -11.797   6.284  70.090  1.00  0.00    -0.349 OA 
BRANCH   8  11
HETATM   11  C   UNL     1     -10.093   4.559  70.087  1.00  0.00    -0.149 C  
BRANCH  11  12
HETATM   12  N   UNL     1      -9.645   4.608  71.466  1.00  0.00    -0.155 N  
HETATM   13  C   UNL     1     -10.358   3.981  72.554  1.00  0.00    -0.152 C  
HETATM   14  C   UNL     1     -10.029   4.881  73.728  1.00  0.00    -0.188 C  
HETATM   15  C   UNL     1      -8.614   5.363  73.421  1.00  0.00    -0.116 C  
HETATM   16  C   UNL     1      -8.615   5.418  71.913  1.00  0.00    -0.131 C  
HETATM   17  O   UNL     1      -7.836   6.048  71.217  1.00  0.00    -0.107 OA 
ENDBRANCH  11  12
ENDBRANCH   8  11
ENDBRANCH   6   7
ENDBRANCH   5   6
ENDBRANCH   4   5
BRANCH   4  18
HETATM   18  C   UNL     1     -11.517  10.341  70.845  1.00  0.00    -0.339 C  
HETATM   19  C   UNL     1     -10.951   9.193  71.716  1.00  0.00    -0.429 C  
HETATM   20  C   UNL     1     -13.028  10.345  71.146  1.00  0.00    -0.506 C  
ENDBRANCH   4  18
ENDBRANCH   2   4
TORSDOF 7
ENDMDL
MODEL      210
REMARK 921   NORMALIZED FREE ENERGY PREDICTED BY IDOCK:   -3.06 KCAL/MOL
REMARK 922        TOTAL FREE ENERGY PREDICTED BY IDOCK:   -5.32 KCAL/MOL
REMARK 923 INTER-LIGAND FREE ENERGY PREDICTED BY IDOCK:   -4.73 KCAL/MOL
REMARK 924 INTRA-LIGAND FREE ENERGY PREDICTED BY IDOCK:   -0.59 KCAL/MOL
REMARK 927      BINDING AFFINITY PREDICTED BY RF-SCORE:    0.00 PKD
ROOT
HETATM    1  C   UNL     1     -10.595   9.178  68.258  1.00  0.00    -0.223 C  
HETATM    2  C   UNL     1      -9.293   9.573  67.518  1.00  0.00    -0.126 C  
HETATM    3  C   UNL     1      -8.168   8.816  68.242  1.00  0.00    -0.118 C  
ENDROOT
BRANCH   2   4
HETATM    4  N   UNL     1      -9.407   9.347  66.038  1.00  0.00    -0.200 NA 
BRANCH   4   5
HETATM    5  C   UNL     1      -9.870  10.598  65.348  1.00  0.00    -0.267 C  
BRANCH   5   6
HETATM    6  C   UNL     1      -9.568  11.931  66.078  1.00  0.00    -0.235 C  
BRANCH   6   7
HETATM    7  N   UNL     1     -10.725  12.529  66.726  1.00  0.00    -0.233 N  
HETATM    8  C   UNL     1     -10.579  13.411  67.774  1.00  0.00    -0.245 C  
HETATM    9  H   UNL     1     -11.661  12.291  66.399  1.00  0.00     0.000 HD 
HETATM   10  O   UNL     1      -9.477  13.682  68.249  1.00  0.00    -0.208 OA 
BRANCH   8  11
HETATM   11  C   UNL     1     -11.880  14.005  68.333  1.00  0.00    -0.362 C  
BRANCH  11  12
HETATM   12  N   UNL     1     -12.119  13.525  69.682  1.00  0.00    -0.321 N  
HETATM   13  C   UNL     1     -12.021  12.134  70.057  1.00  0.00    -0.315 C  
HETATM   14  C   UNL     1     -13.031  12.025  71.183  1.00  0.00    -0.252 C  
HETATM   15  C   UNL     1     -12.966  13.394  71.854  1.00  0.00    -0.422 C  
HETATM   16  C   UNL     1     -12.655  14.304  70.692  1.00  0.00    -0.355 C  
HETATM   17  O   UNL     1     -12.828  15.512  70.660  1.00  0.00    -0.458 OA 
ENDBRANCH  11  12
ENDBRANCH   8  11
ENDBRANCH   6   7
ENDBRANCH   5   6
ENDBRANCH   4   5
BRANCH   4  18
HETATM   18  C   UNL     1      -8.225   8.743  65.347  1.00  0.00    -0.136 C  
HETATM   19  C   UNL     1      -8.025   9.320  63.924  1.00  0.00    -0.141 C  
HETATM   20  C   UNL     1      -8.267   7.217  65.142  1.00  0.00    -0.114 C  
ENDBRANCH   4  18
ENDBRANCH   2   4
TORSDOF 7
ENDMDL
MODEL      211
REMARK 921   NORMALIZED FREE ENERGY PREDICTED BY IDOCK:   -3.06 KCAL/MOL
REMARK 922        TOTAL FREE ENERGY PREDICTED BY IDOCK:   -5.32 KCAL/MOL
REMARK 923 INTER-LIGAND FREE ENERGY PREDICTED BY IDOCK:   -4.83 KCAL/MOL
REMARK 924 INTRA-LIGAND FREE ENERGY PREDICTED BY IDOCK:   -0.48 KCAL/MOL
REMARK 927      BINDING AFFINITY PREDICTED BY RF-SCORE:    0.00 PKD
ROOT
HETATM    1  C   UNL     1      -7.237  10.135  68.040  1.00  0.00    -0.085 C  
HETATM    2  C   UNL     1      -8.727  10.247  67.635  1.00  0.00    -0.121 C  
HETATM    3  C   UNL     1      -8.911   9.249  66.479  1.00  0.00    -0.154 C  
ENDROOT
BRANCH   2   4
HETATM    4  N   UNL     1      -9.637  10.077  68.817  1.00  0.00    -0.162 NA 
BRANCH   4   5
HETATM    5  C   UNL     1     -11.075  10.115  68.385  1.00  0.00    -0.218 C  
BRANCH   5   6
HETATM    6  C   UNL     1     -11.977  11.145  69.110  1.00  0.00    -0.343 C  
BRANCH   6   7
HETATM    7  N   UNL     1     -11.755  12.523  68.698  1.00  0.00    -0.311 N  
HETATM    8  C   UNL     1     -11.899  12.907  67.383  1.00  0.00    -0.360 C  
HETATM    9  H   UNL     1     -11.487  13.217  69.396  1.00  0.00     0.000 HD 
HETATM   10  O   UNL     1     -12.157  12.098  66.492  1.00  0.00    -0.627 OA 
BRANCH   8  11
HETATM   11  C   UNL     1     -11.682  14.399  67.095  1.00  0.00    -0.400 C  
BRANCH  11  12
HETATM   12  N   UNL     1     -10.265  14.698  67.007  1.00  0.00    -0.259 N  
HETATM   13  C   UNL     1      -9.277  13.738  66.575  1.00  0.00    -0.192 C  
HETATM   14  C   UNL     1      -8.042  14.167  67.341  1.00  0.00    -0.205 C  
HETATM   15  C   UNL     1      -8.192  15.682  67.439  1.00  0.00    -0.198 C  
HETATM   16  C   UNL     1      -9.689  15.851  67.512  1.00  0.00    -0.223 C  
HETATM   17  O   UNL     1     -10.282  16.835  67.925  1.00  0.00    -0.277 OA 
ENDBRANCH  11  12
ENDBRANCH   8  11
ENDBRANCH   6   7
ENDBRANCH   5   6
ENDBRANCH   4   5
BRANCH   4  18
HETATM   18  C   UNL     1      -9.366   8.918  69.726  1.00  0.00    -0.166 C  
HETATM   19  C   UNL     1     -10.313   7.726  69.446  1.00  0.00    -0.219 C  
HETATM   20  C   UNL     1      -9.522   9.190  71.234  1.00  0.00    -0.313 C  
ENDBRANCH   4  18
ENDBRANCH   2   4
TORSDOF 7
ENDMDL
MODEL      212
REMARK 921   NORMALIZED FREE ENERGY PREDICTED BY IDOCK:   -3.06 KCAL/MOL
REMARK 922        TOTAL FREE ENERGY PREDICTED BY IDOCK:   -5.32 KCAL/MOL
REMARK 923 INTER-LIGAND FREE ENERGY PREDICTED BY IDOCK:   -4.00 KCAL/MOL
REMARK 924 INTRA-LIGAND FREE ENERGY PREDICTED BY IDOCK:   -1.32 KCAL/MOL
REMARK 927      BINDING AFFINITY PREDICTED BY RF-SCORE:    0.00 PKD
ROOT
HETATM    1  C   UNL     1     -11.952  11.105  68.847  1.00  0.00    -0.367 C  
HETATM    2  C   UNL     1     -10.653  10.604  69.524  1.00  0.00    -0.230 C  
HETATM    3  C   UNL     1     -11.116   9.818  70.762  1.00  0.00    -0.415 C  
ENDROOT
BRANCH   2   4
HETATM    4  N   UNL     1      -9.772   9.869  68.556  1.00  0.00    -0.151 NA 
BRANCH   4   5
HETATM    5  C   UNL     1     -10.600   9.156  67.526  1.00  0.00    -0.249 C  
BRANCH   5   6
HETATM    6  C   UNL     1     -10.717   7.619  67.691  1.00  0.00    -0.175 C  
BRANCH   6   7
HETATM    7  N   UNL     1      -9.785   7.052  68.652  1.00  0.00    -0.138 N  
HETATM    8  C   UNL     1     -10.216   6.210  69.654  1.00  0.00    -0.201 C  
HETATM    9  H   UNL     1      -8.793   7.281  68.584  1.00  0.00     0.000 HD 
HETATM   10  O   UNL     1     -11.407   5.952  69.820  1.00  0.00    -0.371 OA 
BRANCH   8  11
HETATM   11  C   UNL     1      -9.121   5.644  70.569  1.00  0.00    -0.145 C  
BRANCH  11  12
HETATM   12  N   UNL     1      -9.075   6.377  71.820  1.00  0.00    -0.143 N  
HETATM   13  C   UNL     1      -9.779   5.959  73.010  1.00  0.00    -0.155 C  
HETATM   14  C   UNL     1     -10.080   7.276  73.696  1.00  0.00    -0.387 C  
HETATM   15  C   UNL     1      -8.885   8.151  73.327  1.00  0.00    -0.324 C  
HETATM   16  C   UNL     1      -8.530   7.642  71.952  1.00  0.00    -0.109 C  
HETATM   17  O   UNL     1      -7.865   8.234  71.117  1.00  0.00    -0.081 OA 
ENDBRANCH  11  12
ENDBRANCH   8  11
ENDBRANCH   6   7
ENDBRANCH   5   6
ENDBRANCH   4   5
BRANCH   4  18
HETATM   18  C   UNL     1      -8.656  10.642  67.925  1.00  0.00    -0.124 C  
HETATM   19  C   UNL     1      -7.806   9.766  66.974  1.00  0.00    -0.102 C  
HETATM   20  C   UNL     1      -7.633  11.266  68.893  1.00  0.00    -0.126 C  
ENDBRANCH   4  18
ENDBRANCH   2   4
TORSDOF 7
ENDMDL
MODEL      213
REMARK 921   NORMALIZED FREE ENERGY PREDICTED BY IDOCK:   -3.05 KCAL/MOL
REMARK 922        TOTAL FREE ENERGY PREDICTED BY IDOCK:   -5.31 KCAL/MOL
REMARK 923 INTER-LIGAND FREE ENERGY PREDICTED BY IDOCK:   -4.73 KCAL/MOL
REMARK 924 INTRA-LIGAND FREE ENERGY PREDICTED BY IDOCK:   -0.58 KCAL/MOL
REMARK 927      BINDING AFFINITY PREDICTED BY RF-SCORE:    0.00 PKD
ROOT
HETATM    1  C   UNL     1     -13.264  13.640  71.631  1.00  0.00    -0.447 C  
HETATM    2  C   UNL     1     -12.283  14.699  71.073  1.00  0.00    -0.332 C  
HETATM    3  C   UNL     1     -11.648  15.358  72.309  1.00  0.00    -0.554 C  
ENDROOT
BRANCH   2   4
HETATM    4  N   UNL     1     -11.335  14.104  70.072  1.00  0.00    -0.187 NA 
BRANCH   4   5
HETATM    5  C   UNL     1     -11.944  12.894  69.424  1.00  0.00    -0.269 C  
BRANCH   5   6
HETATM    6  C   UNL     1     -11.701  12.740  67.902  1.00  0.00    -0.357 C  
BRANCH   6   7
HETATM    7  N   UNL     1     -10.610  11.840  67.562  1.00  0.00    -0.208 N  
HETATM    8  C   UNL     1     -10.415  11.411  66.268  1.00  0.00    -0.255 C  
HETATM    9  H   UNL     1      -9.977  11.521  68.296  1.00  0.00     0.000 HD 
HETATM   10  O   UNL     1     -11.186  11.713  65.358  1.00  0.00    -0.279 OA 
BRANCH   8  11
HETATM   11  C   UNL     1      -9.198  10.503  66.041  1.00  0.00    -0.176 C  
BRANCH  11  12
HETATM   12  N   UNL     1      -8.928   9.710  67.226  1.00  0.00    -0.134 N  
HETATM   13  C   UNL     1      -7.823   9.968  68.118  1.00  0.00    -0.089 C  
HETATM   14  C   UNL     1      -7.495   8.586  68.647  1.00  0.00    -0.093 C  
HETATM   15  C   UNL     1      -8.852   7.889  68.686  1.00  0.00    -0.134 C  
HETATM   16  C   UNL     1      -9.567   8.517  67.516  1.00  0.00    -0.154 C  
HETATM   17  O   UNL     1     -10.543   8.061  66.942  1.00  0.00    -0.338 OA 
ENDBRANCH  11  12
ENDBRANCH   8  11
ENDBRANCH   6   7
ENDBRANCH   5   6
ENDBRANCH   4   5
BRANCH   4  18
HETATM   18  C   UNL     1     -10.743  15.032  69.056  1.00  0.00    -0.239 C  
HETATM   19  C   UNL     1      -9.268  15.376  69.373  1.00  0.00    -0.268 C  
HETATM   20  C   UNL     1     -11.435  16.400  68.905  1.00  0.00    -0.216 C  
ENDBRANCH   4  18
ENDBRANCH   2   4
TORSDOF 7
ENDMDL
MODEL      214
REMARK 921   NORMALIZED FREE ENERGY PREDICTED BY IDOCK:   -3.05 KCAL/MOL
REMARK 922        TOTAL FREE ENERGY PREDICTED BY IDOCK:   -5.31 KCAL/MOL
REMARK 923 INTER-LIGAND FREE ENERGY PREDICTED BY IDOCK:   -4.55 KCAL/MOL
REMARK 924 INTRA-LIGAND FREE ENERGY PREDICTED BY IDOCK:   -0.75 KCAL/MOL
REMARK 927      BINDING AFFINITY PREDICTED BY RF-SCORE:    0.00 PKD
ROOT
HETATM    1  C   UNL     1      -9.229   8.192  66.961  1.00  0.00    -0.187 C  
HETATM    2  C   UNL     1      -8.749   7.347  68.166  1.00  0.00    -0.122 C  
HETATM    3  C   UNL     1      -7.217   7.471  68.167  1.00  0.00    -0.090 C  
ENDROOT
BRANCH   2   4
HETATM    4  N   UNL     1      -9.453   7.740  69.433  1.00  0.00    -0.156 NA 
BRANCH   4   5
HETATM    5  C   UNL     1     -10.481   8.799  69.159  1.00  0.00    -0.217 C  
BRANCH   5   6
HETATM    6  C   UNL     1     -10.371  10.092  70.005  1.00  0.00    -0.272 C  
BRANCH   6   7
HETATM    7  N   UNL     1     -10.223  11.306  69.219  1.00  0.00    -0.419 N  
HETATM    8  C   UNL     1      -9.039  11.603  68.579  1.00  0.00    -0.157 C  
HETATM    9  H   UNL     1     -11.010  11.950  69.139  1.00  0.00     0.000 HD 
HETATM   10  O   UNL     1      -8.040  10.895  68.696  1.00  0.00    -0.127 OA 
BRANCH   8  11
HETATM   11  C   UNL     1      -9.036  12.891  67.744  1.00  0.00    -0.197 C  
BRANCH  11  12
HETATM   12  N   UNL     1      -9.921  12.757  66.602  1.00  0.00    -0.239 N  
HETATM   13  C   UNL     1     -11.195  13.430  66.503  1.00  0.00    -0.307 C  
HETATM   14  C   UNL     1     -12.012  12.469  65.662  1.00  0.00    -0.492 C  
HETATM   15  C   UNL     1     -10.978  11.844  64.730  1.00  0.00    -0.366 C  
HETATM   16  C   UNL     1      -9.740  11.829  65.591  1.00  0.00    -0.233 C  
HETATM   17  O   UNL     1      -8.751  11.136  65.415  1.00  0.00    -0.158 OA 
ENDBRANCH  11  12
ENDBRANCH   8  11
ENDBRANCH   6   7
ENDBRANCH   5   6
ENDBRANCH   4   5
BRANCH   4  18
HETATM   18  C   UNL     1     -10.013   6.634  70.274  1.00  0.00    -0.174 C  
HETATM   19  C   UNL     1     -11.559   6.587  70.219  1.00  0.00    -0.473 C  
HETATM   20  C   UNL     1      -9.682   6.693  71.777  1.00  0.00    -0.168 C  
ENDBRANCH   4  18
ENDBRANCH   2   4
TORSDOF 7
ENDMDL
MODEL      215
REMARK 921   NORMALIZED FREE ENERGY PREDICTED BY IDOCK:   -3.01 KCAL/MOL
REMARK 922        TOTAL FREE ENERGY PREDICTED BY IDOCK:   -5.26 KCAL/MOL
REMARK 923 INTER-LIGAND FREE ENERGY PREDICTED BY IDOCK:   -4.18 KCAL/MOL
REMARK 924 INTRA-LIGAND FREE ENERGY PREDICTED BY IDOCK:   -1.07 KCAL/MOL
REMARK 927      BINDING AFFINITY PREDICTED BY RF-SCORE:    0.00 PKD
ROOT
HETATM    1  C   UNL     1      -8.538   6.524  67.880  1.00  0.00    -0.117 C  
HETATM    2  C   UNL     1      -9.332   6.813  66.582  1.00  0.00    -0.165 C  
HETATM    3  C   UNL     1     -10.813   6.779  66.996  1.00  0.00    -0.453 C  
ENDROOT
BRANCH   2   4
HETATM    4  N   UNL     1      -8.855   8.066  65.908  1.00  0.00    -0.164 NA 
BRANCH   4   5
HETATM    5  C   UNL     1      -8.027   8.890  66.851  1.00  0.00    -0.101 C  
BRANCH   5   6
HETATM    6  C   UNL     1      -8.630  10.254  67.273  1.00  0.00    -0.125 C  
BRANCH   6   7
HETATM    7  N   UNL     1      -9.129  10.286  68.639  1.00  0.00    -0.144 N  
HETATM    8  C   UNL     1     -10.470  10.133  68.913  1.00  0.00    -0.210 C  
HETATM    9  H   UNL     1      -8.473  10.426  69.408  1.00  0.00     0.000 HD 
HETATM   10  O   UNL     1     -11.310  10.026  68.020  1.00  0.00    -0.203 OA 
BRANCH   8  11
HETATM   11  C   UNL     1     -10.853  10.138  70.400  1.00  0.00    -0.301 C  
BRANCH  11  12
HETATM   12  N   UNL     1     -11.281   8.816  70.819  1.00  0.00    -0.260 N  
HETATM   13  C   UNL     1     -10.472   7.632  70.654  1.00  0.00    -0.216 C  
HETATM   14  C   UNL     1     -11.512   6.543  70.480  1.00  0.00    -0.448 C  
HETATM   15  C   UNL     1     -12.674   7.018  71.348  1.00  0.00    -0.421 C  
HETATM   16  C   UNL     1     -12.569   8.518  71.228  1.00  0.00    -0.226 C  
HETATM   17  O   UNL     1     -13.456   9.322  71.467  1.00  0.00    -0.368 OA 
ENDBRANCH  11  12
ENDBRANCH   8  11
ENDBRANCH   6   7
ENDBRANCH   5   6
ENDBRANCH   4   5
BRANCH   4  18
HETATM   18  C   UNL     1      -8.184   7.912  64.578  1.00  0.00    -0.069 C  
HETATM   19  C   UNL     1      -7.847   6.434  64.264  1.00  0.00    -0.114 C  
HETATM   20  C   UNL     1      -6.848   8.658  64.403  1.00  0.00    -0.077 C  
ENDBRANCH   4  18
ENDBRANCH   2   4
TORSDOF 7
ENDMDL
MODEL      216
REMARK 921   NORMALIZED FREE ENERGY PREDICTED BY IDOCK:   -3.01 KCAL/MOL
REMARK 922        TOTAL FREE ENERGY PREDICTED BY IDOCK:   -5.24 KCAL/MOL
REMARK 923 INTER-LIGAND FREE ENERGY PREDICTED BY IDOCK:   -4.45 KCAL/MOL
REMARK 924 INTRA-LIGAND FREE ENERGY PREDICTED BY IDOCK:   -0.79 KCAL/MOL
REMARK 927      BINDING AFFINITY PREDICTED BY RF-SCORE:    0.00 PKD
ROOT
HETATM    1  C   UNL     1     -10.750  16.022  66.095  1.00  0.00    -0.246 C  
HETATM    2  C   UNL     1     -10.637  16.714  67.476  1.00  0.00    -0.311 C  
HETATM    3  C   UNL     1     -11.317  15.756  68.468  1.00  0.00    -0.374 C  
ENDROOT
BRANCH   2   4
HETATM    4  N   UNL     1      -9.221  17.103  67.786  1.00  0.00    -0.238 NA 
BRANCH   4   5
HETATM    5  C   UNL     1      -8.267  16.401  66.864  1.00  0.00    -0.218 C  
BRANCH   5   6
HETATM    6  C   UNL     1      -7.622  15.102  67.410  1.00  0.00    -0.203 C  
BRANCH   6   7
HETATM    7  N   UNL     1      -8.063  13.891  66.735  1.00  0.00    -0.346 N  
HETATM    8  C   UNL     1      -8.900  12.991  67.358  1.00  0.00    -0.203 C  
HETATM    9  H   UNL     1      -7.747  13.705  65.783  1.00  0.00     0.000 HD 
HETATM   10  O   UNL     1      -9.258  13.135  68.526  1.00  0.00    -0.165 OA 
BRANCH   8  11
HETATM   11  C   UNL     1      -9.326  11.781  66.514  1.00  0.00    -0.210 C  
BRANCH  11  12
HETATM   12  N   UNL     1      -8.634  10.585  66.957  1.00  0.00    -0.127 N  
HETATM   13  C   UNL     1      -7.403  10.116  66.366  1.00  0.00    -0.108 C  
HETATM   14  C   UNL     1      -7.499   8.614  66.548  1.00  0.00    -0.088 C  
HETATM   15  C   UNL     1      -8.263   8.464  67.861  1.00  0.00    -0.127 C  
HETATM   16  C   UNL     1      -9.174   9.666  67.840  1.00  0.00    -0.124 C  
HETATM   17  O   UNL     1     -10.192   9.807  68.499  1.00  0.00    -0.172 OA 
ENDBRANCH  11  12
ENDBRANCH   8  11
ENDBRANCH   6   7
ENDBRANCH   5   6
ENDBRANCH   4   5
BRANCH   4  18
HETATM   18  C   UNL     1      -8.920  18.567  67.879  1.00  0.00    -0.284 C  
HETATM   19  C   UNL     1      -9.831  19.284  68.905  1.00  0.00    -0.512 C  
HETATM   20  C   UNL     1      -9.092  19.377  66.580  1.00  0.00    -0.397 C  
ENDBRANCH   4  18
ENDBRANCH   2   4
TORSDOF 7
ENDMDL
MODEL      217
REMARK 921   NORMALIZED FREE ENERGY PREDICTED BY IDOCK:   -3.00 KCAL/MOL
REMARK 922        TOTAL FREE ENERGY PREDICTED BY IDOCK:   -5.24 KCAL/MOL
REMARK 923 INTER-LIGAND FREE ENERGY PREDICTED BY IDOCK:   -4.66 KCAL/MOL
REMARK 924 INTRA-LIGAND FREE ENERGY PREDICTED BY IDOCK:   -0.58 KCAL/MOL
REMARK 927      BINDING AFFINITY PREDICTED BY RF-SCORE:    0.00 PKD
ROOT
HETATM    1  C   UNL     1      -8.189  10.142  64.773  1.00  0.00    -0.161 C  
HETATM    2  C   UNL     1      -8.040   9.413  66.131  1.00  0.00    -0.111 C  
HETATM    3  C   UNL     1      -6.574   8.951  66.186  1.00  0.00    -0.065 C  
ENDROOT
BRANCH   2   4
HETATM    4  N   UNL     1      -8.516  10.265  67.272  1.00  0.00    -0.125 NA 
BRANCH   4   5
HETATM    5  C   UNL     1      -9.296  11.441  66.761  1.00  0.00    -0.180 C  
BRANCH   5   6
HETATM    6  C   UNL     1      -8.905  12.823  67.344  1.00  0.00    -0.190 C  
BRANCH   6   7
HETATM    7  N   UNL     1      -9.955  13.826  67.252  1.00  0.00    -0.237 N  
HETATM    8  C   UNL     1      -9.692  15.094  66.783  1.00  0.00    -0.242 C  
HETATM    9  H   UNL     1     -10.903  13.585  67.541  1.00  0.00     0.000 HD 
HETATM   10  O   UNL     1      -8.555  15.455  66.483  1.00  0.00    -0.273 OA 
BRANCH   8  11
HETATM   11  C   UNL     1     -10.900  16.036  66.692  1.00  0.00    -0.179 C  
BRANCH  11  12
HETATM   12  N   UNL     1     -10.567  17.342  67.230  1.00  0.00    -0.320 N  
HETATM   13  C   UNL     1     -10.201  18.469  66.405  1.00  0.00    -0.420 C  
HETATM   14  C   UNL     1      -9.260  19.246  67.304  1.00  0.00    -0.357 C  
HETATM   15  C   UNL     1      -9.813  18.989  68.703  1.00  0.00    -0.474 C  
HETATM   16  C   UNL     1     -10.368  17.593  68.576  1.00  0.00    -0.370 C  
HETATM   17  O   UNL     1     -10.613  16.831  69.498  1.00  0.00    -0.324 OA 
ENDBRANCH  11  12
ENDBRANCH   8  11
ENDBRANCH   6   7
ENDBRANCH   5   6
ENDBRANCH   4   5
BRANCH   4  18
HETATM   18  C   UNL     1      -9.234   9.571  68.388  1.00  0.00    -0.130 C  
HETATM   19  C   UNL     1     -10.752   9.872  68.379  1.00  0.00    -0.271 C  
HETATM   20  C   UNL     1      -8.777   9.933  69.814  1.00  0.00    -0.229 C  
ENDBRANCH   4  18
ENDBRANCH   2   4
TORSDOF 7
ENDMDL
MODEL      218
REMARK 921   NORMALIZED FREE ENERGY PREDICTED BY IDOCK:   -2.99 KCAL/MOL
REMARK 922        TOTAL FREE ENERGY PREDICTED BY IDOCK:   -5.23 KCAL/MOL
REMARK 923 INTER-LIGAND FREE ENERGY PREDICTED BY IDOCK:   -4.49 KCAL/MOL
REMARK 924 INTRA-LIGAND FREE ENERGY PREDICTED BY IDOCK:   -0.74 KCAL/MOL
REMARK 927      BINDING AFFINITY PREDICTED BY RF-SCORE:    0.00 PKD
ROOT
HETATM    1  C   UNL     1      -9.850   3.981  65.275  1.00  0.00    -0.199 C  
HETATM    2  C   UNL     1      -9.671   5.188  66.228  1.00  0.00    -0.174 C  
HETATM    3  C   UNL     1      -9.298   4.581  67.590  1.00  0.00    -0.176 C  
ENDROOT
BRANCH   2   4
HETATM    4  N   UNL     1      -8.718   6.202  65.664  1.00  0.00    -0.149 NA 
BRANCH   4   5
HETATM    5  C   UNL     1      -8.603   7.385  66.581  1.00  0.00    -0.127 C  
BRANCH   5   6
HETATM    6  C   UNL     1      -9.898   8.209  66.796  1.00  0.00    -0.259 C  
BRANCH   6   7
HETATM    7  N   UNL     1      -9.925   8.959  68.042  1.00  0.00    -0.169 N  
HETATM    8  C   UNL     1     -10.337   8.374  69.219  1.00  0.00    -0.214 C  
HETATM    9  H   UNL     1      -9.634   9.937  68.044  1.00  0.00     0.000 HD 
HETATM   10  O   UNL     1     -10.759   7.219  69.260  1.00  0.00    -0.222 OA 
BRANCH   8  11
HETATM   11  C   UNL     1     -10.269   9.265  70.467  1.00  0.00    -0.251 C  
BRANCH  11  12
HETATM   12  N   UNL     1     -11.601   9.505  70.992  1.00  0.00    -0.316 N  
HETATM   13  C   UNL     1     -12.411  10.637  70.611  1.00  0.00    -0.371 C  
HETATM   14  C   UNL     1     -13.234  10.890  71.859  1.00  0.00    -0.508 C  
HETATM   15  C   UNL     1     -13.429   9.494  72.445  1.00  0.00    -0.475 C  
HETATM   16  C   UNL     1     -12.149   8.801  72.050  1.00  0.00    -0.377 C  
HETATM   17  O   UNL     1     -11.693   7.790  72.560  1.00  0.00    -0.344 OA 
ENDBRANCH  11  12
ENDBRANCH   8  11
ENDBRANCH   6   7
ENDBRANCH   5   6
ENDBRANCH   4   5
BRANCH   4  18
HETATM   18  C   UNL     1      -7.372   5.708  65.232  1.00  0.00    -0.072 C  
HETATM   19  C   UNL     1      -6.244   6.195  66.174  1.00  0.00    -0.037 C  
HETATM   20  C   UNL     1      -6.912   6.136  63.826  1.00  0.00    -0.046 C  
ENDBRANCH   4  18
ENDBRANCH   2   4
TORSDOF 7
ENDMDL
MODEL      219
REMARK 921   NORMALIZED FREE ENERGY PREDICTED BY IDOCK:   -2.99 KCAL/MOL
REMARK 922        TOTAL FREE ENERGY PREDICTED BY IDOCK:   -5.22 KCAL/MOL
REMARK 923 INTER-LIGAND FREE ENERGY PREDICTED BY IDOCK:   -4.70 KCAL/MOL
REMARK 924 INTRA-LIGAND FREE ENERGY PREDICTED BY IDOCK:   -0.53 KCAL/MOL
REMARK 927      BINDING AFFINITY PREDICTED BY RF-SCORE:    0.00 PKD
ROOT
HETATM    1  C   UNL     1      -6.617  11.882  66.909  1.00  0.00    -0.083 C  
HETATM    2  C   UNL     1      -7.846  11.163  66.299  1.00  0.00    -0.109 C  
HETATM    3  C   UNL     1      -7.295   9.865  65.686  1.00  0.00    -0.116 C  
ENDROOT
BRANCH   2   4
HETATM    4  N   UNL     1      -8.954  11.012  67.301  1.00  0.00    -0.138 NA 
BRANCH   4   5
HETATM    5  C   UNL     1      -9.779  12.264  67.367  1.00  0.00    -0.185 C  
BRANCH   5   6
HETATM    6  C   UNL     1      -9.627  13.114  68.653  1.00  0.00    -0.029 C  
BRANCH   6   7
HETATM    7  N   UNL     1     -10.748  14.004  68.913  1.00  0.00    -0.253 N  
HETATM    8  C   UNL     1     -11.797  13.616  69.717  1.00  0.00    -0.327 C  
HETATM    9  H   UNL     1     -10.758  14.933  68.492  1.00  0.00     0.000 HD 
HETATM   10  O   UNL     1     -11.866  12.485  70.197  1.00  0.00    -0.324 OA 
BRANCH   8  11
HETATM   11  C   UNL     1     -12.889  14.670  69.946  1.00  0.00     0.032 C  
BRANCH  11  12
HETATM   12  N   UNL     1     -12.836  15.168  71.308  1.00  0.00    -0.356 N  
HETATM   13  C   UNL     1     -11.949  16.226  71.732  1.00  0.00    -0.406 C  
HETATM   14  C   UNL     1     -11.681  15.872  73.181  1.00  0.00    -0.377 C  
HETATM   15  C   UNL     1     -12.987  15.228  73.638  1.00  0.00    -0.576 C  
HETATM   16  C   UNL     1     -13.471  14.558  72.377  1.00  0.00    -0.448 C  
HETATM   17  O   UNL     1     -14.290  13.655  72.312  1.00  0.00    -0.566 OA 
ENDBRANCH  11  12
ENDBRANCH   8  11
ENDBRANCH   6   7
ENDBRANCH   5   6
ENDBRANCH   4   5
BRANCH   4  18
HETATM   18  C   UNL     1      -9.813   9.791  67.190  1.00  0.00    -0.188 C  
HETATM   19  C   UNL     1     -11.279  10.072  67.601  1.00  0.00    -0.099 C  
HETATM   20  C   UNL     1      -9.394   8.587  68.054  1.00  0.00    -0.147 C  
ENDBRANCH   4  18
ENDBRANCH   2   4
TORSDOF 7
ENDMDL
MODEL      220
REMARK 921   NORMALIZED FREE ENERGY PREDICTED BY IDOCK:   -2.97 KCAL/MOL
REMARK 922        TOTAL FREE ENERGY PREDICTED BY IDOCK:   -5.20 KCAL/MOL
REMARK 923 INTER-LIGAND FREE ENERGY PREDICTED BY IDOCK:   -4.43 KCAL/MOL
REMARK 924 INTRA-LIGAND FREE ENERGY PREDICTED BY IDOCK:   -0.77 KCAL/MOL
REMARK 927      BINDING AFFINITY PREDICTED BY RF-SCORE:    0.00 PKD
ROOT
HETATM    1  C   UNL     1     -10.519  14.643  68.432  1.00  0.00    -0.243 C  
HETATM    2  C   UNL     1     -11.414  13.430  68.077  1.00  0.00    -0.304 C  
HETATM    3  C   UNL     1     -12.169  13.840  66.802  1.00  0.00    -0.440 C  
ENDROOT
BRANCH   2   4
HETATM    4  N   UNL     1     -10.619  12.158  68.004  1.00  0.00    -0.204 NA 
BRANCH   4   5
HETATM    5  C   UNL     1     -11.497  10.971  68.276  1.00  0.00    -0.304 C  
BRANCH   5   6
HETATM    6  C   UNL     1     -11.413  10.374  69.704  1.00  0.00    -0.262 C  
BRANCH   6   7
HETATM    7  N   UNL     1     -11.319   8.923  69.736  1.00  0.00    -0.442 N  
HETATM    8  C   UNL     1     -10.141   8.278  69.429  1.00  0.00    -0.198 C  
HETATM    9  H   UNL     1     -12.139   8.373  69.991  1.00  0.00     0.000 HD 
HETATM   10  O   UNL     1      -9.141   8.889  69.054  1.00  0.00    -0.136 OA 
BRANCH   8  11
HETATM   11  C   UNL     1     -10.167   6.748  69.550  1.00  0.00    -0.184 C  
BRANCH  11  12
HETATM   12  N   UNL     1      -9.885   6.132  68.267  1.00  0.00    -0.121 N  
HETATM   13  C   UNL     1     -10.835   6.093  67.180  1.00  0.00    -0.360 C  
HETATM   14  C   UNL     1     -10.469   4.807  66.466  1.00  0.00    -0.251 C  
HETATM   15  C   UNL     1      -8.959   4.708  66.664  1.00  0.00    -0.112 C  
HETATM   16  C   UNL     1      -8.772   5.349  68.017  1.00  0.00    -0.106 C  
HETATM   17  O   UNL     1      -7.803   5.214  68.747  1.00  0.00    -0.078 OA 
ENDBRANCH  11  12
ENDBRANCH   8  11
ENDBRANCH   6   7
ENDBRANCH   5   6
ENDBRANCH   4   5
BRANCH   4  18
HETATM   18  C   UNL     1      -9.775  11.950  66.785  1.00  0.00    -0.204 C  
HETATM   19  C   UNL     1     -10.161  10.658  66.024  1.00  0.00    -0.309 C  
HETATM   20  C   UNL     1      -8.259  11.816  67.026  1.00  0.00    -0.172 C  
ENDBRANCH   4  18
ENDBRANCH   2   4
TORSDOF 7
ENDMDL
MODEL      221
REMARK 921   NORMALIZED FREE ENERGY PREDICTED BY IDOCK:   -2.97 KCAL/MOL
REMARK 922        TOTAL FREE ENERGY PREDICTED BY IDOCK:   -5.20 KCAL/MOL
REMARK 923 INTER-LIGAND FREE ENERGY PREDICTED BY IDOCK:   -5.18 KCAL/MOL
REMARK 924 INTRA-LIGAND FREE ENERGY PREDICTED BY IDOCK:   -0.02 KCAL/MOL
REMARK 927      BINDING AFFINITY PREDICTED BY RF-SCORE:    0.00 PKD
ROOT
HETATM    1  C   UNL     1     -11.494  11.985  66.079  1.00  0.00    -0.399 C  
HETATM    2  C   UNL     1     -10.473  11.252  65.174  1.00  0.00    -0.291 C  
HETATM    3  C   UNL     1     -10.345  12.125  63.915  1.00  0.00    -0.441 C  
ENDROOT
BRANCH   2   4
HETATM    4  N   UNL     1      -9.200  10.947  65.909  1.00  0.00    -0.184 NA 
BRANCH   4   5
HETATM    5  C   UNL     1      -9.472  10.063  67.091  1.00  0.00    -0.155 C  
BRANCH   5   6
HETATM    6  C   UNL     1     -10.388   8.841  66.832  1.00  0.00    -0.274 C  
BRANCH   6   7
HETATM    7  N   UNL     1     -10.876   8.196  68.041  1.00  0.00    -0.464 N  
HETATM    8  C   UNL     1     -10.905   6.823  68.157  1.00  0.00    -0.228 C  
HETATM    9  H   UNL     1     -11.202   8.771  68.818  1.00  0.00     0.000 HD 
HETATM   10  O   UNL     1     -10.584   6.084  67.227  1.00  0.00    -0.225 OA 
BRANCH   8  11
HETATM   11  C   UNL     1     -11.396   6.277  69.504  1.00  0.00    -0.404 C  
BRANCH  11  12
HETATM   12  N   UNL     1     -11.060   7.194  70.577  1.00  0.00    -0.262 N  
HETATM   13  C   UNL     1     -11.976   8.186  71.089  1.00  0.00    -0.273 C  
HETATM   14  C   UNL     1     -11.046   9.295  71.537  1.00  0.00    -0.443 C  
HETATM   15  C   UNL     1      -9.799   8.547  72.002  1.00  0.00    -0.383 C  
HETATM   16  C   UNL     1      -9.781   7.353  71.082  1.00  0.00    -0.163 C  
HETATM   17  O   UNL     1      -8.816   6.646  70.842  1.00  0.00    -0.144 OA 
ENDBRANCH  11  12
ENDBRANCH   8  11
ENDBRANCH   6   7
ENDBRANCH   5   6
ENDBRANCH   4   5
BRANCH   4  18
HETATM   18  C   UNL     1      -8.048  10.441  65.097  1.00  0.00    -0.145 C  
HETATM   19  C   UNL     1      -8.443   9.228  64.220  1.00  0.00    -0.202 C  
HETATM   20  C   UNL     1      -6.820   9.959  65.892  1.00  0.00    -0.101 C  
ENDBRANCH   4  18
ENDBRANCH   2   4
TORSDOF 7
ENDMDL
MODEL      222
REMARK 921   NORMALIZED FREE ENERGY PREDICTED BY IDOCK:   -2.97 KCAL/MOL
REMARK 922        TOTAL FREE ENERGY PREDICTED BY IDOCK:   -5.19 KCAL/MOL
REMARK 923 INTER-LIGAND FREE ENERGY PREDICTED BY IDOCK:   -4.64 KCAL/MOL
REMARK 924 INTRA-LIGAND FREE ENERGY PREDICTED BY IDOCK:   -0.55 KCAL/MOL
REMARK 927      BINDING AFFINITY PREDICTED BY RF-SCORE:    0.00 PKD
ROOT
HETATM    1  C   UNL     1      -6.774   6.033  69.402  1.00  0.00    -0.060 C  
HETATM    2  C   UNL     1      -7.394   6.821  68.222  1.00  0.00    -0.093 C  
HETATM    3  C   UNL     1      -7.013   6.031  66.959  1.00  0.00    -0.068 C  
ENDROOT
BRANCH   2   4
HETATM    4  N   UNL     1      -8.858   7.077  68.435  1.00  0.00    -0.124 NA 
BRANCH   4   5
HETATM    5  C   UNL     1      -9.343   8.161  67.516  1.00  0.00    -0.140 C  
BRANCH   5   6
HETATM    6  C   UNL     1      -9.470   9.575  68.138  1.00  0.00    -0.133 C  
BRANCH   6   7
HETATM    7  N   UNL     1      -9.593  10.645  67.161  1.00  0.00    -0.163 N  
HETATM    8  C   UNL     1      -9.317  11.953  67.495  1.00  0.00    -0.177 C  
HETATM    9  H   UNL     1      -9.891  10.423  66.210  1.00  0.00     0.000 HD 
HETATM   10  O   UNL     1      -9.018  12.283  68.641  1.00  0.00    -0.109 OA 
BRANCH   8  11
HETATM   11  C   UNL     1      -9.441  12.973  66.355  1.00  0.00    -0.224 C  
BRANCH  11  12
HETATM   12  N   UNL     1     -10.550  12.630  65.484  1.00  0.00    -0.270 N  
HETATM   13  C   UNL     1     -10.380  11.998  64.197  1.00  0.00    -0.347 C  
HETATM   14  C   UNL     1     -11.560  12.531  63.408  1.00  0.00    -0.547 C  
HETATM   15  C   UNL     1     -12.650  12.692  64.465  1.00  0.00    -0.491 C  
HETATM   16  C   UNL     1     -11.853  13.046  65.695  1.00  0.00    -0.399 C  
HETATM   17  O   UNL     1     -12.286  13.586  66.701  1.00  0.00    -0.398 OA 
ENDBRANCH  11  12
ENDBRANCH   8  11
ENDBRANCH   6   7
ENDBRANCH   5   6
ENDBRANCH   4   5
BRANCH   4  18
HETATM   18  C   UNL     1      -9.769   5.888  68.412  1.00  0.00    -0.129 C  
HETATM   19  C   UNL     1     -10.874   6.023  67.337  1.00  0.00    -0.394 C  
HETATM   20  C   UNL     1     -10.534   5.597  69.717  1.00  0.00    -0.377 C  
ENDBRANCH   4  18
ENDBRANCH   2   4
TORSDOF 7
ENDMDL
MODEL      223
REMARK 921   NORMALIZED FREE ENERGY PREDICTED BY IDOCK:   -2.96 KCAL/MOL
REMARK 922        TOTAL FREE ENERGY PREDICTED BY IDOCK:   -5.18 KCAL/MOL
REMARK 923 INTER-LIGAND FREE ENERGY PREDICTED BY IDOCK:   -4.54 KCAL/MOL
REMARK 924 INTRA-LIGAND FREE ENERGY PREDICTED BY IDOCK:   -0.64 KCAL/MOL
REMARK 927      BINDING AFFINITY PREDICTED BY RF-SCORE:    0.00 PKD
ROOT
HETATM    1  C   UNL     1      -7.924   9.085  71.131  1.00  0.00    -0.169 C  
HETATM    2  C   UNL     1      -8.054   7.906  70.137  1.00  0.00    -0.116 C  
HETATM    3  C   UNL     1      -7.410   6.703  70.845  1.00  0.00    -0.082 C  
ENDROOT
BRANCH   2   4
HETATM    4  N   UNL     1      -9.470   7.728  69.670  1.00  0.00    -0.157 NA 
BRANCH   4   5
HETATM    5  C   UNL     1      -9.570   7.961  68.190  1.00  0.00    -0.152 C  
BRANCH   5   6
HETATM    6  C   UNL     1     -10.739   8.865  67.720  1.00  0.00    -0.137 C  
BRANCH   6   7
HETATM    7  N   UNL     1     -10.848  10.120  68.447  1.00  0.00    -0.233 N  
HETATM    8  C   UNL     1     -11.437  11.227  67.875  1.00  0.00    -0.288 C  
HETATM    9  H   UNL     1     -10.483  10.182  69.397  1.00  0.00     0.000 HD 
HETATM   10  O   UNL     1     -11.836  11.225  66.711  1.00  0.00    -0.368 OA 
BRANCH   8  11
HETATM   11  C   UNL     1     -11.530  12.470  68.770  1.00  0.00    -0.310 C  
BRANCH  11  12
HETATM   12  N   UNL     1     -11.108  13.653  68.042  1.00  0.00    -0.253 N  
HETATM   13  C   UNL     1     -11.994  14.425  67.202  1.00  0.00    -0.389 C  
HETATM   14  C   UNL     1     -11.054  14.971  66.146  1.00  0.00    -0.329 C  
HETATM   15  C   UNL     1      -9.743  15.166  66.902  1.00  0.00    -0.248 C  
HETATM   16  C   UNL     1      -9.788  14.047  67.913  1.00  0.00    -0.233 C  
HETATM   17  O   UNL     1      -8.833  13.587  68.518  1.00  0.00    -0.166 OA 
ENDBRANCH  11  12
ENDBRANCH   8  11
ENDBRANCH   6   7
ENDBRANCH   5   6
ENDBRANCH   4   5
BRANCH   4  18
HETATM   18  C   UNL     1     -10.170   6.469  70.078  1.00  0.00    -0.184 C  
HETATM   19  C   UNL     1     -10.311   5.475  68.900  1.00  0.00    -0.289 C  
HETATM   20  C   UNL     1     -11.604   6.636  70.615  1.00  0.00    -0.439 C  
ENDBRANCH   4  18
ENDBRANCH   2   4
TORSDOF 7
ENDMDL
MODEL      224
REMARK 921   NORMALIZED FREE ENERGY PREDICTED BY IDOCK:   -2.96 KCAL/MOL
REMARK 922        TOTAL FREE ENERGY PREDICTED BY IDOCK:   -5.17 KCAL/MOL
REMARK 923 INTER-LIGAND FREE ENERGY PREDICTED BY IDOCK:   -5.59 KCAL/MOL
REMARK 924 INTRA-LIGAND FREE ENERGY PREDICTED BY IDOCK:    0.41 KCAL/MOL
REMARK 927      BINDING AFFINITY PREDICTED BY RF-SCORE:    0.00 PKD
ROOT
HETATM    1  C   UNL     1     -10.494  18.684  66.004  1.00  0.00    -0.456 C  
HETATM    2  C   UNL     1     -10.387  17.410  66.877  1.00  0.00    -0.317 C  
HETATM    3  C   UNL     1      -9.181  16.635  66.319  1.00  0.00    -0.328 C  
ENDROOT
BRANCH   2   4
HETATM    4  N   UNL     1     -10.350  17.742  68.341  1.00  0.00    -0.374 NA 
BRANCH   4   5
HETATM    5  C   UNL     1     -10.454  16.493  69.167  1.00  0.00    -0.317 C  
BRANCH   5   6
HETATM    6  C   UNL     1     -11.767  15.683  69.017  1.00  0.00    -0.395 C  
BRANCH   6   7
HETATM    7  N   UNL     1     -11.567  14.251  68.859  1.00  0.00    -0.284 N  
HETATM    8  C   UNL     1     -11.836  13.620  67.664  1.00  0.00    -0.369 C  
HETATM    9  H   UNL     1     -11.222  13.704  69.648  1.00  0.00     0.000 HD 
HETATM   10  O   UNL     1     -12.315  14.221  66.703  1.00  0.00    -0.446 OA 
BRANCH   8  11
HETATM   11  C   UNL     1     -11.535  12.116  67.621  1.00  0.00    -0.331 C  
BRANCH  11  12
HETATM   12  N   UNL     1     -10.261  11.871  66.970  1.00  0.00    -0.208 N  
HETATM   13  C   UNL     1     -10.142  11.281  65.658  1.00  0.00    -0.247 C  
HETATM   14  C   UNL     1      -8.816  10.551  65.743  1.00  0.00    -0.190 C  
HETATM   15  C   UNL     1      -7.987  11.427  66.679  1.00  0.00    -0.148 C  
HETATM   16  C   UNL     1      -9.037  11.986  67.606  1.00  0.00    -0.179 C  
HETATM   17  O   UNL     1      -8.838  12.469  68.709  1.00  0.00    -0.008 OA 
ENDBRANCH  11  12
ENDBRANCH   8  11
ENDBRANCH   6   7
ENDBRANCH   5   6
ENDBRANCH   4   5
BRANCH   4  18
HETATM   18  C   UNL     1      -9.235  18.623  68.813  1.00  0.00    -0.285 C  
HETATM   19  C   UNL     1      -9.186  19.963  68.039  1.00  0.00    -0.405 C  
HETATM   20  C   UNL     1      -7.813  18.047  68.678  1.00  0.00    -0.298 C  
ENDBRANCH   4  18
ENDBRANCH   2   4
TORSDOF 7
ENDMDL
MODEL      225
REMARK 921   NORMALIZED FREE ENERGY PREDICTED BY IDOCK:   -2.94 KCAL/MOL
REMARK 922        TOTAL FREE ENERGY PREDICTED BY IDOCK:   -5.15 KCAL/MOL
REMARK 923 INTER-LIGAND FREE ENERGY PREDICTED BY IDOCK:   -4.23 KCAL/MOL
REMARK 924 INTRA-LIGAND FREE ENERGY PREDICTED BY IDOCK:   -0.92 KCAL/MOL
REMARK 927      BINDING AFFINITY PREDICTED BY RF-SCORE:    0.00 PKD
ROOT
HETATM    1  C   UNL     1      -8.394   9.118  66.303  1.00  0.00    -0.121 C  
HETATM    2  C   UNL     1      -8.971   8.391  67.542  1.00  0.00    -0.135 C  
HETATM    3  C   UNL     1     -10.390   8.955  67.723  1.00  0.00    -0.301 C  
ENDROOT
BRANCH   2   4
HETATM    4  N   UNL     1      -8.856   6.899  67.412  1.00  0.00    -0.118 NA 
BRANCH   4   5
HETATM    5  C   UNL     1      -8.064   6.330  68.553  1.00  0.00    -0.109 C  
BRANCH   5   6
HETATM    6  C   UNL     1      -7.548   7.349  69.600  1.00  0.00    -0.095 C  
BRANCH   6   7
HETATM    7  N   UNL     1      -8.253   7.303  70.872  1.00  0.00    -0.114 N  
HETATM    8  C   UNL     1      -8.534   8.454  71.575  1.00  0.00    -0.157 C  
HETATM    9  H   UNL     1      -8.544   6.401  71.250  1.00  0.00     0.000 HD 
HETATM   10  O   UNL     1      -8.149   9.559  71.196  1.00  0.00    -0.308 OA 
BRANCH   8  11
HETATM   11  C   UNL     1      -9.325   8.265  72.877  1.00  0.00    -0.254 C  
BRANCH  11  12
HETATM   12  N   UNL     1     -10.704   7.919  72.587  1.00  0.00    -0.319 N  
HETATM   13  C   UNL     1     -11.245   6.594  72.775  1.00  0.00    -0.227 C  
HETATM   14  C   UNL     1     -12.315   6.518  71.703  1.00  0.00    -0.315 C  
HETATM   15  C   UNL     1     -12.823   7.954  71.607  1.00  0.00    -0.357 C  
HETATM   16  C   UNL     1     -11.583   8.754  71.919  1.00  0.00    -0.361 C  
HETATM   17  O   UNL     1     -11.399   9.929  71.647  1.00  0.00    -0.300 OA 
ENDBRANCH  11  12
ENDBRANCH   8  11
ENDBRANCH   6   7
ENDBRANCH   5   6
ENDBRANCH   4   5
BRANCH   4  18
HETATM   18  C   UNL     1     -10.123   6.134  67.187  1.00  0.00    -0.170 C  
HETATM   19  C   UNL     1     -10.647   5.480  68.488  1.00  0.00    -0.208 C  
HETATM   20  C   UNL     1     -10.043   4.975  66.176  1.00  0.00    -0.262 C  
ENDBRANCH   4  18
ENDBRANCH   2   4
TORSDOF 7
ENDMDL
MODEL      226
REMARK 921   NORMALIZED FREE ENERGY PREDICTED BY IDOCK:   -2.93 KCAL/MOL
REMARK 922        TOTAL FREE ENERGY PREDICTED BY IDOCK:   -5.13 KCAL/MOL
REMARK 923 INTER-LIGAND FREE ENERGY PREDICTED BY IDOCK:   -4.48 KCAL/MOL
REMARK 924 INTRA-LIGAND FREE ENERGY PREDICTED BY IDOCK:   -0.65 KCAL/MOL
REMARK 927      BINDING AFFINITY PREDICTED BY RF-SCORE:    0.00 PKD
ROOT
HETATM    1  C   UNL     1      -8.244   9.073  70.907  1.00  0.00    -0.222 C  
HETATM    2  C   UNL     1      -8.677   9.497  69.482  1.00  0.00    -0.174 C  
HETATM    3  C   UNL     1      -7.369   9.678  68.695  1.00  0.00    -0.074 C  
ENDROOT
BRANCH   2   4
HETATM    4  N   UNL     1      -9.681   8.543  68.902  1.00  0.00    -0.167 NA 
BRANCH   4   5
HETATM    5  C   UNL     1     -10.896   9.283  68.423  1.00  0.00    -0.076 C  
BRANCH   5   6
HETATM    6  C   UNL     1     -10.636  10.480  67.473  1.00  0.00    -0.259 C  
BRANCH   6   7
HETATM    7  N   UNL     1     -11.366  11.688  67.824  1.00  0.00    -0.269 N  
HETATM    8  C   UNL     1     -10.711  12.813  68.272  1.00  0.00    -0.239 C  
HETATM    9  H   UNL     1     -12.382  11.701  67.738  1.00  0.00     0.000 HD 
HETATM   10  O   UNL     1      -9.494  12.830  68.456  1.00  0.00    -0.187 OA 
BRANCH   8  11
HETATM   11  C   UNL     1     -11.598  14.032  68.561  1.00  0.00    -0.322 C  
BRANCH  11  12
HETATM   12  N   UNL     1     -11.333  15.091  67.604  1.00  0.00    -0.327 N  
HETATM   13  C   UNL     1     -11.482  14.925  66.177  1.00  0.00    -0.272 C  
HETATM   14  C   UNL     1     -10.439  15.876  65.623  1.00  0.00    -0.411 C  
HETATM   15  C   UNL     1     -10.415  17.011  66.643  1.00  0.00    -0.253 C  
HETATM   16  C   UNL     1     -10.725  16.290  67.931  1.00  0.00    -0.329 C  
HETATM   17  O   UNL     1     -10.496  16.702  69.057  1.00  0.00    -0.285 OA 
ENDBRANCH  11  12
ENDBRANCH   8  11
ENDBRANCH   6   7
ENDBRANCH   5   6
ENDBRANCH   4   5
BRANCH   4  18
HETATM   18  C   UNL     1      -9.186   7.574  67.873  1.00  0.00    -0.136 C  
HETATM   19  C   UNL     1     -10.326   7.067  66.957  1.00  0.00    -0.360 C  
HETATM   20  C   UNL     1      -8.525   6.292  68.413  1.00  0.00    -0.115 C  
ENDBRANCH   4  18
ENDBRANCH   2   4
TORSDOF 7
ENDMDL
MODEL      227
REMARK 921   NORMALIZED FREE ENERGY PREDICTED BY IDOCK:   -2.92 KCAL/MOL
REMARK 922        TOTAL FREE ENERGY PREDICTED BY IDOCK:   -5.13 KCAL/MOL
REMARK 923 INTER-LIGAND FREE ENERGY PREDICTED BY IDOCK:   -4.34 KCAL/MOL
REMARK 924 INTRA-LIGAND FREE ENERGY PREDICTED BY IDOCK:   -0.79 KCAL/MOL
REMARK 927      BINDING AFFINITY PREDICTED BY RF-SCORE:    0.00 PKD
ROOT
HETATM    1  C   UNL     1      -6.377   6.410  68.192  1.00  0.00    -0.040 C  
HETATM    2  C   UNL     1      -7.538   5.878  69.067  1.00  0.00    -0.090 C  
HETATM    3  C   UNL     1      -7.145   6.217  70.515  1.00  0.00    -0.071 C  
ENDROOT
BRANCH   2   4
HETATM    4  N   UNL     1      -8.868   6.394  68.597  1.00  0.00    -0.121 NA 
BRANCH   4   5
HETATM    5  C   UNL     1      -8.753   6.962  67.212  1.00  0.00    -0.119 C  
BRANCH   5   6
HETATM    6  C   UNL     1      -9.924   7.864  66.746  1.00  0.00    -0.263 C  
BRANCH   6   7
HETATM    7  N   UNL     1     -10.300   8.892  67.704  1.00  0.00    -0.237 N  
HETATM    8  C   UNL     1      -9.687  10.126  67.704  1.00  0.00    -0.161 C  
HETATM    9  H   UNL     1     -11.030   8.696  68.388  1.00  0.00     0.000 HD 
HETATM   10  O   UNL     1      -8.757  10.392  66.944  1.00  0.00    -0.127 OA 
BRANCH   8  11
HETATM   11  C   UNL     1     -10.214  11.133  68.736  1.00  0.00    -0.206 C  
BRANCH  11  12
HETATM   12  N   UNL     1     -11.001  10.456  69.750  1.00  0.00    -0.273 N  
HETATM   13  C   UNL     1     -12.396  10.739  69.990  1.00  0.00    -0.298 C  
HETATM   14  C   UNL     1     -12.542  10.451  71.472  1.00  0.00    -0.544 C  
HETATM   15  C   UNL     1     -11.551   9.315  71.712  1.00  0.00    -0.458 C  
HETATM   16  C   UNL     1     -10.461   9.626  70.717  1.00  0.00    -0.305 C  
HETATM   17  O   UNL     1      -9.316   9.205  70.752  1.00  0.00    -0.223 OA 
ENDBRANCH  11  12
ENDBRANCH   8  11
ENDBRANCH   6   7
ENDBRANCH   5   6
ENDBRANCH   4   5
BRANCH   4  18
HETATM   18  C   UNL     1     -10.040   5.470  68.718  1.00  0.00    -0.191 C  
HETATM   19  C   UNL     1     -11.025   5.922  69.824  1.00  0.00    -0.452 C  
HETATM   20  C   UNL     1      -9.714   4.006  69.066  1.00  0.00    -0.161 C  
ENDBRANCH   4  18
ENDBRANCH   2   4
TORSDOF 7
ENDMDL
MODEL      228
REMARK 921   NORMALIZED FREE ENERGY PREDICTED BY IDOCK:   -2.92 KCAL/MOL
REMARK 922        TOTAL FREE ENERGY PREDICTED BY IDOCK:   -5.13 KCAL/MOL
REMARK 923 INTER-LIGAND FREE ENERGY PREDICTED BY IDOCK:   -4.63 KCAL/MOL
REMARK 924 INTRA-LIGAND FREE ENERGY PREDICTED BY IDOCK:   -0.50 KCAL/MOL
REMARK 927      BINDING AFFINITY PREDICTED BY RF-SCORE:    0.00 PKD
ROOT
HETATM    1  C   UNL     1     -10.525  18.214  66.054  1.00  0.00    -0.346 C  
HETATM    2  C   UNL     1      -9.669  17.252  66.915  1.00  0.00    -0.273 C  
HETATM    3  C   UNL     1      -8.776  16.498  65.916  1.00  0.00    -0.118 C  
ENDROOT
BRANCH   2   4
HETATM    4  N   UNL     1      -8.966  17.979  68.024  1.00  0.00    -0.266 NA 
BRANCH   4   5
HETATM    5  C   UNL     1      -8.496  17.013  69.072  1.00  0.00    -0.124 C  
BRANCH   5   6
HETATM    6  C   UNL     1      -9.379  15.757  69.288  1.00  0.00    -0.261 C  
BRANCH   6   7
HETATM    7  N   UNL     1      -8.657  14.499  69.188  1.00  0.00    -0.359 N  
HETATM    8  C   UNL     1      -9.021  13.538  68.270  1.00  0.00    -0.180 C  
HETATM    9  H   UNL     1      -7.866  14.324  69.808  1.00  0.00     0.000 HD 
HETATM   10  O   UNL     1     -10.005  13.670  67.543  1.00  0.00    -0.225 OA 
BRANCH   8  11
HETATM   11  C   UNL     1      -8.144  12.278  68.238  1.00  0.00    -0.166 C  
BRANCH  11  12
HETATM   12  N   UNL     1      -8.874  11.166  67.660  1.00  0.00    -0.135 N  
HETATM   13  C   UNL     1      -8.855  10.852  66.250  1.00  0.00    -0.179 C  
HETATM   14  C   UNL     1     -10.223  10.235  66.031  1.00  0.00    -0.298 C  
HETATM   15  C   UNL     1     -10.510   9.528  67.352  1.00  0.00    -0.336 C  
HETATM   16  C   UNL     1      -9.814  10.419  68.350  1.00  0.00    -0.162 C  
HETATM   17  O   UNL     1     -10.029  10.459  69.550  1.00  0.00    -0.227 OA 
ENDBRANCH  11  12
ENDBRANCH   8  11
ENDBRANCH   6   7
ENDBRANCH   5   6
ENDBRANCH   4   5
BRANCH   4  18
HETATM   18  C   UNL     1      -7.884  18.938  67.634  1.00  0.00    -0.243 C  
HETATM   19  C   UNL     1      -6.815  19.091  68.744  1.00  0.00    -0.332 C  
HETATM   20  C   UNL     1      -8.334  20.379  67.330  1.00  0.00    -0.398 C  
ENDBRANCH   4  18
ENDBRANCH   2   4
TORSDOF 7
ENDMDL
MODEL      229
REMARK 921   NORMALIZED FREE ENERGY PREDICTED BY IDOCK:   -2.92 KCAL/MOL
REMARK 922        TOTAL FREE ENERGY PREDICTED BY IDOCK:   -5.13 KCAL/MOL
REMARK 923 INTER-LIGAND FREE ENERGY PREDICTED BY IDOCK:   -4.75 KCAL/MOL
REMARK 924 INTRA-LIGAND FREE ENERGY PREDICTED BY IDOCK:   -0.38 KCAL/MOL
REMARK 927      BINDING AFFINITY PREDICTED BY RF-SCORE:    0.00 PKD
ROOT
HETATM    1  C   UNL     1      -6.593  16.696  69.410  1.00  0.00    -0.222 C  
HETATM    2  C   UNL     1      -6.655  16.860  67.871  1.00  0.00    -0.141 C  
HETATM    3  C   UNL     1      -5.450  16.075  67.329  1.00  0.00    -0.018 C  
ENDROOT
BRANCH   2   4
HETATM    4  N   UNL     1      -8.002  16.479  67.327  1.00  0.00    -0.154 NA 
BRANCH   4   5
HETATM    5  C   UNL     1      -8.857  15.884  68.407  1.00  0.00    -0.184 C  
BRANCH   5   6
HETATM    6  C   UNL     1      -8.681  14.364  68.657  1.00  0.00    -0.164 C  
BRANCH   6   7
HETATM    7  N   UNL     1      -9.931  13.621  68.703  1.00  0.00    -0.351 N  
HETATM    8  C   UNL     1      -9.944  12.244  68.657  1.00  0.00    -0.118 C  
HETATM    9  H   UNL     1     -10.813  14.128  68.769  1.00  0.00     0.000 HD 
HETATM   10  O   UNL     1      -8.914  11.587  68.512  1.00  0.00    -0.165 OA 
BRANCH   8  11
HETATM   11  C   UNL     1     -11.327  11.586  68.763  1.00  0.00    -0.265 C  
BRANCH  11  12
HETATM   12  N   UNL     1     -11.876  11.770  70.094  1.00  0.00    -0.338 N  
HETATM   13  C   UNL     1     -11.953  10.712  71.073  1.00  0.00    -0.339 C  
HETATM   14  C   UNL     1     -13.183  11.091  71.874  1.00  0.00    -0.503 C  
HETATM   15  C   UNL     1     -13.170  12.617  71.843  1.00  0.00    -0.504 C  
HETATM   16  C   UNL     1     -12.561  12.904  70.494  1.00  0.00    -0.129 C  
HETATM   17  O   UNL     1     -12.643  13.955  69.877  1.00  0.00    -0.281 OA 
ENDBRANCH  11  12
ENDBRANCH   8  11
ENDBRANCH   6   7
ENDBRANCH   5   6
ENDBRANCH   4   5
BRANCH   4  18
HETATM   18  C   UNL     1      -8.744  17.521  66.549  1.00  0.00    -0.262 C  
HETATM   19  C   UNL     1      -8.121  18.928  66.721  1.00  0.00    -0.278 C  
HETATM   20  C   UNL     1     -10.228  17.709  66.913  1.00  0.00    -0.334 C  
ENDBRANCH   4  18
ENDBRANCH   2   4
TORSDOF 7
ENDMDL
MODEL      230
REMARK 921   NORMALIZED FREE ENERGY PREDICTED BY IDOCK:   -2.92 KCAL/MOL
REMARK 922        TOTAL FREE ENERGY PREDICTED BY IDOCK:   -5.13 KCAL/MOL
REMARK 923 INTER-LIGAND FREE ENERGY PREDICTED BY IDOCK:   -4.59 KCAL/MOL
REMARK 924 INTRA-LIGAND FREE ENERGY PREDICTED BY IDOCK:   -0.54 KCAL/MOL
REMARK 927      BINDING AFFINITY PREDICTED BY RF-SCORE:    0.00 PKD
ROOT
HETATM    1  C   UNL     1      -5.739  17.719  67.238  1.00  0.00    -0.157 C  
HETATM    2  C   UNL     1      -6.842  18.770  66.962  1.00  0.00    -0.201 C  
HETATM    3  C   UNL     1      -6.346  19.574  65.749  1.00  0.00    -0.234 C  
ENDROOT
BRANCH   2   4
HETATM    4  N   UNL     1      -8.196  18.133  66.834  1.00  0.00    -0.236 NA 
BRANCH   4   5
HETATM    5  C   UNL     1      -8.076  16.636  66.838  1.00  0.00    -0.214 C  
BRANCH   5   6
HETATM    6  C   UNL     1      -8.932  15.886  67.889  1.00  0.00    -0.181 C  
BRANCH   6   7
HETATM    7  N   UNL     1      -9.307  14.537  67.497  1.00  0.00    -0.189 N  
HETATM    8  C   UNL     1     -10.619  14.119  67.539  1.00  0.00    -0.257 C  
HETATM    9  H   UNL     1      -8.584  13.887  67.186  1.00  0.00     0.000 HD 
HETATM   10  O   UNL     1     -11.519  14.840  67.967  1.00  0.00    -0.304 OA 
BRANCH   8  11
HETATM   11  C   UNL     1     -10.880  12.687  67.052  1.00  0.00    -0.253 C  
BRANCH  11  12
HETATM   12  N   UNL     1     -10.550  11.729  68.091  1.00  0.00    -0.195 N  
HETATM   13  C   UNL     1      -9.204  11.276  68.352  1.00  0.00    -0.178 C  
HETATM   14  C   UNL     1      -9.423   9.867  68.867  1.00  0.00    -0.170 C  
HETATM   15  C   UNL     1     -10.757   9.961  69.601  1.00  0.00    -0.277 C  
HETATM   16  C   UNL     1     -11.493  11.003  68.797  1.00  0.00    -0.305 C  
HETATM   17  O   UNL     1     -12.700  11.183  68.787  1.00  0.00    -0.162 OA 
ENDBRANCH  11  12
ENDBRANCH   8  11
ENDBRANCH   6   7
ENDBRANCH   5   6
ENDBRANCH   4   5
BRANCH   4  18
HETATM   18  C   UNL     1      -9.263  18.601  67.773  1.00  0.00    -0.285 C  
HETATM   19  C   UNL     1     -10.546  19.038  67.025  1.00  0.00    -0.543 C  
HETATM   20  C   UNL     1      -8.903  19.809  68.659  1.00  0.00    -0.244 C  
ENDBRANCH   4  18
ENDBRANCH   2   4
TORSDOF 7
ENDMDL
MODEL      231
REMARK 921   NORMALIZED FREE ENERGY PREDICTED BY IDOCK:   -2.91 KCAL/MOL
REMARK 922        TOTAL FREE ENERGY PREDICTED BY IDOCK:   -5.11 KCAL/MOL
REMARK 923 INTER-LIGAND FREE ENERGY PREDICTED BY IDOCK:   -4.40 KCAL/MOL
REMARK 924 INTRA-LIGAND FREE ENERGY PREDICTED BY IDOCK:   -0.71 KCAL/MOL
REMARK 927      BINDING AFFINITY PREDICTED BY RF-SCORE:    0.00 PKD
ROOT
HETATM    1  C   UNL     1     -11.370  14.730  65.380  1.00  0.00    -0.356 C  
HETATM    2  C   UNL     1     -11.943  13.535  66.181  1.00  0.00    -0.412 C  
HETATM    3  C   UNL     1     -12.575  12.606  65.131  1.00  0.00    -0.459 C  
ENDROOT
BRANCH   2   4
HETATM    4  N   UNL     1     -10.908  12.922  67.080  1.00  0.00    -0.257 NA 
BRANCH   4   5
HETATM    5  C   UNL     1     -11.459  11.705  67.765  1.00  0.00    -0.302 C  
BRANCH   5   6
HETATM    6  C   UNL     1     -11.160  11.582  69.281  1.00  0.00    -0.246 C  
BRANCH   6   7
HETATM    7  N   UNL     1     -10.027  10.725  69.595  1.00  0.00    -0.442 N  
HETATM    8  C   UNL     1     -10.201   9.390  69.884  1.00  0.00    -0.222 C  
HETATM    9  H   UNL     1      -9.087  11.121  69.602  1.00  0.00     0.000 HD 
HETATM   10  O   UNL     1     -11.318   8.878  69.952  1.00  0.00    -0.138 OA 
BRANCH   8  11
HETATM   11  C   UNL     1      -8.917   8.591  70.150  1.00  0.00    -0.147 C  
BRANCH  11  12
HETATM   12  N   UNL     1      -9.035   7.247  69.615  1.00  0.00    -0.141 N  
HETATM   13  C   UNL     1      -9.504   6.123  70.391  1.00  0.00    -0.161 C  
HETATM   14  C   UNL     1      -8.761   4.958  69.768  1.00  0.00    -0.110 C  
HETATM   15  C   UNL     1      -8.640   5.358  68.300  1.00  0.00    -0.096 C  
HETATM   16  C   UNL     1      -8.529   6.860  68.386  1.00  0.00    -0.123 C  
HETATM   17  O   UNL     1      -8.089   7.599  67.520  1.00  0.00    -0.117 OA 
ENDBRANCH  11  12
ENDBRANCH   8  11
ENDBRANCH   6   7
ENDBRANCH   5   6
ENDBRANCH   4   5
BRANCH   4  18
HETATM   18  C   UNL     1      -9.560  12.656  66.486  1.00  0.00    -0.248 C  
HETATM   19  C   UNL     1      -9.369  11.164  66.121  1.00  0.00    -0.227 C  
HETATM   20  C   UNL     1      -8.349  12.994  67.376  1.00  0.00    -0.194 C  
ENDBRANCH   4  18
ENDBRANCH   2   4
TORSDOF 7
ENDMDL
MODEL      232
REMARK 921   NORMALIZED FREE ENERGY PREDICTED BY IDOCK:   -2.90 KCAL/MOL
REMARK 922        TOTAL FREE ENERGY PREDICTED BY IDOCK:   -5.10 KCAL/MOL
REMARK 923 INTER-LIGAND FREE ENERGY PREDICTED BY IDOCK:   -4.42 KCAL/MOL
REMARK 924 INTRA-LIGAND FREE ENERGY PREDICTED BY IDOCK:   -0.68 KCAL/MOL
REMARK 927      BINDING AFFINITY PREDICTED BY RF-SCORE:    0.00 PKD
ROOT
HETATM    1  C   UNL     1      -7.571  10.345  65.079  1.00  0.00    -0.086 C  
HETATM    2  C   UNL     1      -8.632  10.457  63.957  1.00  0.00    -0.175 C  
HETATM    3  C   UNL     1      -8.721   9.052  63.338  1.00  0.00    -0.101 C  
ENDROOT
BRANCH   2   4
HETATM    4  N   UNL     1      -9.916  11.046  64.465  1.00  0.00    -0.282 NA 
BRANCH   4   5
HETATM    5  C   UNL     1      -9.830  11.305  65.941  1.00  0.00    -0.232 C  
BRANCH   5   6
HETATM    6  C   UNL     1     -10.853  10.548  66.826  1.00  0.00    -0.142 C  
BRANCH   6   7
HETATM    7  N   UNL     1     -10.321  10.113  68.108  1.00  0.00    -0.175 N  
HETATM    8  C   UNL     1      -9.483   9.023  68.201  1.00  0.00    -0.142 C  
HETATM    9  H   UNL     1     -10.574  10.624  68.954  1.00  0.00     0.000 HD 
HETATM   10  O   UNL     1      -9.199   8.334  67.222  1.00  0.00    -0.134 OA 
BRANCH   8  11
HETATM   11  C   UNL     1      -8.957   8.703  69.607  1.00  0.00    -0.145 C  
BRANCH  11  12
HETATM   12  N   UNL     1      -9.433   7.404  70.044  1.00  0.00    -0.161 N  
HETATM   13  C   UNL     1      -8.710   6.176  69.811  1.00  0.00    -0.135 C  
HETATM   14  C   UNL     1      -9.823   5.152  69.702  1.00  0.00    -0.286 C  
HETATM   15  C   UNL     1     -10.889   5.685  70.656  1.00  0.00    -0.304 C  
HETATM   16  C   UNL     1     -10.704   7.177  70.542  1.00  0.00    -0.238 C  
HETATM   17  O   UNL     1     -11.522   8.028  70.851  1.00  0.00    -0.276 OA 
ENDBRANCH  11  12
ENDBRANCH   8  11
ENDBRANCH   6   7
ENDBRANCH   5   6
ENDBRANCH   4   5
BRANCH   4  18
HETATM   18  C   UNL     1     -10.461  12.232  63.729  1.00  0.00    -0.444 C  
HETATM   19  C   UNL     1     -10.313  13.540  64.544  1.00  0.00    -0.381 C  
HETATM   20  C   UNL     1     -11.956  12.173  63.364  1.00  0.00    -0.578 C  
ENDBRANCH   4  18
ENDBRANCH   2   4
TORSDOF 7
ENDMDL
MODEL      233
REMARK 921   NORMALIZED FREE ENERGY PREDICTED BY IDOCK:   -2.90 KCAL/MOL
REMARK 922        TOTAL FREE ENERGY PREDICTED BY IDOCK:   -5.10 KCAL/MOL
REMARK 923 INTER-LIGAND FREE ENERGY PREDICTED BY IDOCK:   -4.73 KCAL/MOL
REMARK 924 INTRA-LIGAND FREE ENERGY PREDICTED BY IDOCK:   -0.38 KCAL/MOL
REMARK 927      BINDING AFFINITY PREDICTED BY RF-SCORE:    0.00 PKD
ROOT
HETATM    1  C   UNL     1      -8.489   4.697  66.421  1.00  0.00    -0.109 C  
HETATM    2  C   UNL     1      -9.601   4.434  67.466  1.00  0.00    -0.172 C  
HETATM    3  C   UNL     1      -9.658   2.906  67.624  1.00  0.00    -0.057 C  
ENDROOT
BRANCH   2   4
HETATM    4  N   UNL     1      -9.381   5.229  68.721  1.00  0.00    -0.116 NA 
BRANCH   4   5
HETATM    5  C   UNL     1     -10.597   6.046  69.048  1.00  0.00    -0.291 C  
BRANCH   5   6
HETATM    6  C   UNL     1     -10.433   7.583  68.942  1.00  0.00    -0.203 C  
BRANCH   6   7
HETATM    7  N   UNL     1     -11.434   8.339  69.680  1.00  0.00    -0.364 N  
HETATM    8  C   UNL     1     -11.078   9.402  70.481  1.00  0.00    -0.273 C  
HETATM    9  H   UNL     1     -12.416   8.077  69.603  1.00  0.00     0.000 HD 
HETATM   10  O   UNL     1      -9.903   9.718  70.660  1.00  0.00    -0.244 OA 
BRANCH   8  11
HETATM   11  C   UNL     1     -12.237  10.141  71.164  1.00  0.00    -0.389 C  
BRANCH  11  12
HETATM   12  N   UNL     1     -12.384  11.475  70.612  1.00  0.00    -0.373 N  
HETATM   13  C   UNL     1     -11.834  11.870  69.336  1.00  0.00    -0.327 C  
HETATM   14  C   UNL     1     -11.548  13.344  69.542  1.00  0.00    -0.352 C  
HETATM   15  C   UNL     1     -12.654  13.791  70.494  1.00  0.00    -0.361 C  
HETATM   16  C   UNL     1     -12.882  12.553  71.323  1.00  0.00    -0.241 C  
HETATM   17  O   UNL     1     -13.424  12.509  72.416  1.00  0.00    -0.529 OA 
ENDBRANCH  11  12
ENDBRANCH   8  11
ENDBRANCH   6   7
ENDBRANCH   5   6
ENDBRANCH   4   5
BRANCH   4  18
HETATM   18  C   UNL     1      -8.879   4.485  69.920  1.00  0.00    -0.086 C  
HETATM   19  C   UNL     1      -9.405   5.092  71.243  1.00  0.00    -0.192 C  
HETATM   20  C   UNL     1      -7.349   4.441  70.098  1.00  0.00    -0.046 C  
ENDBRANCH   4  18
ENDBRANCH   2   4
TORSDOF 7
ENDMDL
MODEL      234
REMARK 921   NORMALIZED FREE ENERGY PREDICTED BY IDOCK:   -2.90 KCAL/MOL
REMARK 922        TOTAL FREE ENERGY PREDICTED BY IDOCK:   -5.10 KCAL/MOL
REMARK 923 INTER-LIGAND FREE ENERGY PREDICTED BY IDOCK:   -4.27 KCAL/MOL
REMARK 924 INTRA-LIGAND FREE ENERGY PREDICTED BY IDOCK:   -0.83 KCAL/MOL
REMARK 927      BINDING AFFINITY PREDICTED BY RF-SCORE:    0.00 PKD
ROOT
HETATM    1  C   UNL     1      -9.623   8.618  72.009  1.00  0.00    -0.385 C  
HETATM    2  C   UNL     1     -10.328   9.394  70.869  1.00  0.00    -0.310 C  
HETATM    3  C   UNL     1      -9.552   9.034  69.591  1.00  0.00    -0.175 C  
ENDROOT
BRANCH   2   4
HETATM    4  N   UNL     1     -11.806   9.131  70.851  1.00  0.00    -0.286 NA 
BRANCH   4   5
HETATM    5  C   UNL     1     -12.185   8.179  71.948  1.00  0.00    -0.331 C  
BRANCH   5   6
HETATM    6  C   UNL     1     -12.604   6.755  71.499  1.00  0.00    -0.322 C  
BRANCH   6   7
HETATM    7  N   UNL     1     -11.502   5.808  71.426  1.00  0.00    -0.124 N  
HETATM    8  C   UNL     1     -10.830   5.585  70.245  1.00  0.00    -0.215 C  
HETATM    9  H   UNL     1     -11.223   5.299  72.265  1.00  0.00     0.000 HD 
HETATM   10  O   UNL     1     -11.167   6.124  69.191  1.00  0.00    -0.386 OA 
BRANCH   8  11
HETATM   11  C   UNL     1      -9.658   4.597  70.320  1.00  0.00    -0.200 C  
BRANCH  11  12
HETATM   12  N   UNL     1      -8.852   4.673  69.115  1.00  0.00    -0.090 N  
HETATM   13  C   UNL     1      -9.040   3.801  67.979  1.00  0.00    -0.144 C  
HETATM   14  C   UNL     1      -7.641   3.699  67.405  1.00  0.00    -0.074 C  
HETATM   15  C   UNL     1      -7.034   5.067  67.704  1.00  0.00    -0.061 C  
HETATM   16  C   UNL     1      -7.703   5.437  69.004  1.00  0.00    -0.089 C  
HETATM   17  O   UNL     1      -7.311   6.272  69.802  1.00  0.00    -0.075 OA 
ENDBRANCH  11  12
ENDBRANCH   8  11
ENDBRANCH   6   7
ENDBRANCH   5   6
ENDBRANCH   4   5
BRANCH   4  18
HETATM   18  C   UNL     1     -12.711  10.324  70.820  1.00  0.00    -0.346 C  
HETATM   19  C   UNL     1     -12.128  11.475  69.964  1.00  0.00    -0.408 C  
HETATM   20  C   UNL     1     -13.020  10.974  72.182  1.00  0.00    -0.244 C  
ENDBRANCH   4  18
ENDBRANCH   2   4
TORSDOF 7
ENDMDL
MODEL      235
REMARK 921   NORMALIZED FREE ENERGY PREDICTED BY IDOCK:   -2.90 KCAL/MOL
REMARK 922        TOTAL FREE ENERGY PREDICTED BY IDOCK:   -5.09 KCAL/MOL
REMARK 923 INTER-LIGAND FREE ENERGY PREDICTED BY IDOCK:   -4.46 KCAL/MOL
REMARK 924 INTRA-LIGAND FREE ENERGY PREDICTED BY IDOCK:   -0.63 KCAL/MOL
REMARK 927      BINDING AFFINITY PREDICTED BY RF-SCORE:    0.00 PKD
ROOT
HETATM    1  C   UNL     1     -13.128  11.451  71.125  1.00  0.00    -0.216 C  
HETATM    2  C   UNL     1     -12.036  11.018  70.117  1.00  0.00    -0.360 C  
HETATM    3  C   UNL     1     -11.470  12.328  69.542  1.00  0.00    -0.318 C  
ENDROOT
BRANCH   2   4
HETATM    4  N   UNL     1     -11.045  10.080  70.742  1.00  0.00    -0.330 NA 
BRANCH   4   5
HETATM    5  C   UNL     1     -11.689   9.293  71.847  1.00  0.00    -0.350 C  
BRANCH   5   6
HETATM    6  C   UNL     1     -12.094   7.838  71.500  1.00  0.00    -0.309 C  
BRANCH   6   7
HETATM    7  N   UNL     1     -11.911   6.894  72.591  1.00  0.00    -0.498 N  
HETATM    8  C   UNL     1     -10.724   6.214  72.756  1.00  0.00    -0.239 C  
HETATM    9  H   UNL     1     -12.676   6.732  73.246  1.00  0.00     0.000 HD 
HETATM   10  O   UNL     1      -9.794   6.324  71.958  1.00  0.00    -0.159 OA 
BRANCH   8  11
HETATM   11  C   UNL     1     -10.650   5.286  73.976  1.00  0.00    -0.278 C  
BRANCH  11  12
HETATM   12  N   UNL     1     -10.370   3.924  73.562  1.00  0.00    -0.149 N  
HETATM   13  C   UNL     1     -11.400   2.937  73.336  1.00  0.00    -0.116 C  
HETATM   14  C   UNL     1     -10.700   1.641  73.696  1.00  0.00    -0.211 C  
HETATM   15  C   UNL     1      -9.252   1.893  73.284  1.00  0.00    -0.078 C  
HETATM   16  C   UNL     1      -9.101   3.372  73.535  1.00  0.00    -0.093 C  
HETATM   17  O   UNL     1      -8.048   3.974  73.671  1.00  0.00    -0.087 OA 
ENDBRANCH  11  12
ENDBRANCH   8  11
ENDBRANCH   6   7
ENDBRANCH   5   6
ENDBRANCH   4   5
BRANCH   4  18
HETATM   18  C   UNL     1     -10.265   9.196  69.819  1.00  0.00    -0.207 C  
HETATM   19  C   UNL     1      -8.749   9.510  69.855  1.00  0.00    -0.224 C  
HETATM   20  C   UNL     1     -10.640   9.277  68.327  1.00  0.00    -0.237 C  
ENDBRANCH   4  18
ENDBRANCH   2   4
TORSDOF 7
ENDMDL
MODEL      236
REMARK 921   NORMALIZED FREE ENERGY PREDICTED BY IDOCK:   -2.90 KCAL/MOL
REMARK 922        TOTAL FREE ENERGY PREDICTED BY IDOCK:   -5.09 KCAL/MOL
REMARK 923 INTER-LIGAND FREE ENERGY PREDICTED BY IDOCK:   -4.50 KCAL/MOL
REMARK 924 INTRA-LIGAND FREE ENERGY PREDICTED BY IDOCK:   -0.59 KCAL/MOL
REMARK 927      BINDING AFFINITY PREDICTED BY RF-SCORE:    0.00 PKD
ROOT
HETATM    1  C   UNL     1     -10.477   7.308  69.662  1.00  0.00    -0.239 C  
HETATM    2  C   UNL     1      -9.166   7.575  68.882  1.00  0.00    -0.142 C  
HETATM    3  C   UNL     1      -8.048   6.964  69.743  1.00  0.00    -0.126 C  
ENDROOT
BRANCH   2   4
HETATM    4  N   UNL     1      -9.257   7.092  67.463  1.00  0.00    -0.125 NA 
BRANCH   4   5
HETATM    5  C   UNL     1      -9.798   8.173  66.572  1.00  0.00    -0.239 C  
BRANCH   5   6
HETATM    6  C   UNL     1      -9.487   9.629  67.001  1.00  0.00    -0.154 C  
BRANCH   6   7
HETATM    7  N   UNL     1     -10.653  10.384  67.431  1.00  0.00    -0.250 N  
HETATM    8  C   UNL     1     -10.524  11.535  68.177  1.00  0.00    -0.193 C  
HETATM    9  H   UNL     1     -11.585  10.055  67.176  1.00  0.00     0.000 HD 
HETATM   10  O   UNL     1      -9.429  11.940  68.566  1.00  0.00    -0.198 OA 
BRANCH   8  11
HETATM   11  C   UNL     1     -11.833  12.259  68.522  1.00  0.00    -0.307 C  
BRANCH  11  12
HETATM   12  N   UNL     1     -12.149  12.095  69.929  1.00  0.00    -0.284 N  
HETATM   13  C   UNL     1     -12.169  10.813  70.593  1.00  0.00    -0.379 C  
HETATM   14  C   UNL     1     -13.218  11.014  71.668  1.00  0.00    -0.461 C  
HETATM   15  C   UNL     1     -13.070  12.487  72.038  1.00  0.00    -0.472 C  
HETATM   16  C   UNL     1     -12.655  13.106  70.727  1.00  0.00    -0.260 C  
HETATM   17  O   UNL     1     -12.735  14.288  70.433  1.00  0.00    -0.347 OA 
ENDBRANCH  11  12
ENDBRANCH   8  11
ENDBRANCH   6   7
ENDBRANCH   5   6
ENDBRANCH   4   5
BRANCH   4  18
HETATM   18  C   UNL     1      -8.034   6.457  66.879  1.00  0.00    -0.109 C  
HETATM   19  C   UNL     1      -7.805   6.882  65.407  1.00  0.00    -0.115 C  
HETATM   20  C   UNL     1      -8.022   4.918  66.842  1.00  0.00    -0.103 C  
ENDBRANCH   4  18
ENDBRANCH   2   4
TORSDOF 7
ENDMDL
MODEL      237
REMARK 921   NORMALIZED FREE ENERGY PREDICTED BY IDOCK:   -2.89 KCAL/MOL
REMARK 922        TOTAL FREE ENERGY PREDICTED BY IDOCK:   -5.08 KCAL/MOL
REMARK 923 INTER-LIGAND FREE ENERGY PREDICTED BY IDOCK:   -4.59 KCAL/MOL
REMARK 924 INTRA-LIGAND FREE ENERGY PREDICTED BY IDOCK:   -0.49 KCAL/MOL
REMARK 927      BINDING AFFINITY PREDICTED BY RF-SCORE:    0.00 PKD
ROOT
HETATM    1  C   UNL     1      -8.201  10.520  65.240  1.00  0.00    -0.146 C  
HETATM    2  C   UNL     1      -8.743  10.292  66.673  1.00  0.00    -0.127 C  
HETATM    3  C   UNL     1      -7.526   9.857  67.505  1.00  0.00    -0.091 C  
ENDROOT
BRANCH   2   4
HETATM    4  N   UNL     1      -9.504  11.486  67.173  1.00  0.00    -0.176 NA 
BRANCH   4   5
HETATM    5  C   UNL     1      -9.164  12.704  66.364  1.00  0.00    -0.160 C  
BRANCH   5   6
HETATM    6  C   UNL     1      -8.579  13.904  67.152  1.00  0.00    -0.203 C  
BRANCH   6   7
HETATM    7  N   UNL     1      -9.128  15.194  66.764  1.00  0.00    -0.238 N  
HETATM    8  C   UNL     1      -8.313  16.286  66.563  1.00  0.00    -0.308 C  
HETATM    9  H   UNL     1     -10.136  15.292  66.638  1.00  0.00     0.000 HD 
HETATM   10  O   UNL     1      -7.100  16.239  66.764  1.00  0.00    -0.214 OA 
BRANCH   8  11
HETATM   11  C   UNL     1      -9.018  17.572  66.109  1.00  0.00    -0.124 C  
BRANCH  11  12
HETATM   12  N   UNL     1      -8.238  18.737  66.482  1.00  0.00    -0.283 N  
HETATM   13  C   UNL     1      -7.142  19.244  65.690  1.00  0.00    -0.249 C  
HETATM   14  C   UNL     1      -6.232  19.854  66.738  1.00  0.00    -0.196 C  
HETATM   15  C   UNL     1      -7.203  20.365  67.798  1.00  0.00    -0.334 C  
HETATM   16  C   UNL     1      -8.324  19.360  67.715  1.00  0.00    -0.305 C  
HETATM   17  O   UNL     1      -9.165  19.149  68.574  1.00  0.00    -0.346 OA 
ENDBRANCH  11  12
ENDBRANCH   8  11
ENDBRANCH   6   7
ENDBRANCH   5   6
ENDBRANCH   4   5
BRANCH   4  18
HETATM   18  C   UNL     1     -10.984  11.332  67.341  1.00  0.00    -0.282 C  
HETATM   19  C   UNL     1     -11.776  12.264  66.392  1.00  0.00    -0.431 C  
HETATM   20  C   UNL     1     -11.542  11.642  68.742  1.00  0.00    -0.374 C  
ENDBRANCH   4  18
ENDBRANCH   2   4
TORSDOF 7
ENDMDL
MODEL      238
REMARK 921   NORMALIZED FREE ENERGY PREDICTED BY IDOCK:   -2.89 KCAL/MOL
REMARK 922        TOTAL FREE ENERGY PREDICTED BY IDOCK:   -5.08 KCAL/MOL
REMARK 923 INTER-LIGAND FREE ENERGY PREDICTED BY IDOCK:   -4.31 KCAL/MOL
REMARK 924 INTRA-LIGAND FREE ENERGY PREDICTED BY IDOCK:   -0.77 KCAL/MOL
REMARK 927      BINDING AFFINITY PREDICTED BY RF-SCORE:    0.00 PKD
ROOT
HETATM    1  C   UNL     1     -12.126  14.709  64.952  1.00  0.00    -0.386 C  
HETATM    2  C   UNL     1     -12.514  13.305  65.475  1.00  0.00    -0.474 C  
HETATM    3  C   UNL     1     -12.128  12.330  64.350  1.00  0.00    -0.481 C  
ENDROOT
BRANCH   2   4
HETATM    4  N   UNL     1     -11.922  13.034  66.827  1.00  0.00    -0.390 NA 
BRANCH   4   5
HETATM    5  C   UNL     1     -11.215  11.710  66.837  1.00  0.00    -0.313 C  
BRANCH   5   6
HETATM    6  C   UNL     1     -11.712  10.679  67.883  1.00  0.00     0.143 C  
BRANCH   6   7
HETATM    7  N   UNL     1     -10.661   9.841  68.438  1.00  0.00    -0.276 N  
HETATM    8  C   UNL     1     -10.295   8.660  67.832  1.00  0.00    -0.229 C  
HETATM    9  H   UNL     1     -10.186  10.134  69.292  1.00  0.00     0.000 HD 
HETATM   10  O   UNL     1     -10.878   8.229  66.838  1.00  0.00    -0.228 OA 
BRANCH   8  11
HETATM   11  C   UNL     1      -9.139   7.899  68.497  1.00  0.00    -0.132 C  
BRANCH  11  12
HETATM   12  N   UNL     1      -8.030   8.795  68.767  1.00  0.00    -0.105 N  
HETATM   13  C   UNL     1      -6.945   9.017  67.840  1.00  0.00    -0.078 C  
HETATM   14  C   UNL     1      -5.779   9.318  68.760  1.00  0.00    -0.040 C  
HETATM   15  C   UNL     1      -6.433  10.030  69.941  1.00  0.00    -0.077 C  
HETATM   16  C   UNL     1      -7.787   9.369  70.003  1.00  0.00    -0.132 C  
HETATM   17  O   UNL     1      -8.539   9.361  70.964  1.00  0.00    -0.274 OA 
ENDBRANCH  11  12
ENDBRANCH   8  11
ENDBRANCH   6   7
ENDBRANCH   5   6
ENDBRANCH   4   5
BRANCH   4  18
HETATM   18  C   UNL     1     -11.077  14.113  67.431  1.00  0.00    -0.306 C  
HETATM   19  C   UNL     1      -9.570  13.762  67.393  1.00  0.00    -0.229 C  
HETATM   20  C   UNL     1     -11.359  14.445  68.909  1.00  0.00    -0.300 C  
ENDBRANCH   4  18
ENDBRANCH   2   4
TORSDOF 7
ENDMDL
MODEL      239
REMARK 921   NORMALIZED FREE ENERGY PREDICTED BY IDOCK:   -2.88 KCAL/MOL
REMARK 922        TOTAL FREE ENERGY PREDICTED BY IDOCK:   -5.06 KCAL/MOL
REMARK 923 INTER-LIGAND FREE ENERGY PREDICTED BY IDOCK:   -4.30 KCAL/MOL
REMARK 924 INTRA-LIGAND FREE ENERGY PREDICTED BY IDOCK:   -0.76 KCAL/MOL
REMARK 927      BINDING AFFINITY PREDICTED BY RF-SCORE:    0.00 PKD
ROOT
HETATM    1  C   UNL     1     -10.401   5.515  70.493  1.00  0.00    -0.342 C  
HETATM    2  C   UNL     1      -9.577   6.792  70.787  1.00  0.00    -0.168 C  
HETATM    3  C   UNL     1      -8.243   6.596  70.049  1.00  0.00    -0.130 C  
ENDROOT
BRANCH   2   4
HETATM    4  N   UNL     1     -10.348   8.038  70.456  1.00  0.00    -0.200 NA 
BRANCH   4   5
HETATM    5  C   UNL     1     -11.195   7.824  69.235  1.00  0.00     0.235 C  
BRANCH   5   6
HETATM    6  C   UNL     1     -10.820   8.667  67.990  1.00  0.00     0.025 C  
BRANCH   6   7
HETATM    7  N   UNL     1     -10.171   9.931  68.301  1.00  0.00    -0.168 N  
HETATM    8  C   UNL     1     -10.902  11.085  68.478  1.00  0.00    -0.213 C  
HETATM    9  H   UNL     1      -9.155   9.964  68.390  1.00  0.00     0.000 HD 
HETATM   10  O   UNL     1     -12.122  11.114  68.319  1.00  0.00    -0.620 OA 
BRANCH   8  11
HETATM   11  C   UNL     1     -10.096  12.336  68.850  1.00  0.00     0.020 C  
BRANCH  11  12
HETATM   12  N   UNL     1     -10.789  13.535  68.416  1.00  0.00    -0.258 N  
HETATM   13  C   UNL     1     -10.630  14.110  67.100  1.00  0.00    -0.278 C  
HETATM   14  C   UNL     1     -10.849  15.588  67.357  1.00  0.00    -0.312 C  
HETATM   15  C   UNL     1     -11.868  15.605  68.493  1.00  0.00    -0.252 C  
HETATM   16  C   UNL     1     -11.507  14.360  69.264  1.00  0.00    -0.285 C  
HETATM   17  O   UNL     1     -11.812  14.118  70.421  1.00  0.00    -0.297 OA 
ENDBRANCH  11  12
ENDBRANCH   8  11
ENDBRANCH   6   7
ENDBRANCH   5   6
ENDBRANCH   4   5
BRANCH   4  18
HETATM   18  C   UNL     1     -11.130   8.672  71.564  1.00  0.00    -0.288 C  
HETATM   19  C   UNL     1     -11.110   7.815  72.854  1.00  0.00    -0.457 C  
HETATM   20  C   UNL     1     -12.625   8.914  71.285  1.00  0.00    -0.309 C  
ENDBRANCH   4  18
ENDBRANCH   2   4
TORSDOF 7
ENDMDL
MODEL      240
REMARK 921   NORMALIZED FREE ENERGY PREDICTED BY IDOCK:   -2.87 KCAL/MOL
REMARK 922        TOTAL FREE ENERGY PREDICTED BY IDOCK:   -5.06 KCAL/MOL
REMARK 923 INTER-LIGAND FREE ENERGY PREDICTED BY IDOCK:   -4.26 KCAL/MOL
REMARK 924 INTRA-LIGAND FREE ENERGY PREDICTED BY IDOCK:   -0.79 KCAL/MOL
REMARK 927      BINDING AFFINITY PREDICTED BY RF-SCORE:    0.00 PKD
ROOT
HETATM    1  C   UNL     1     -10.303   4.880  71.480  1.00  0.00    -0.228 C  
HETATM    2  C   UNL     1     -10.225   6.409  71.709  1.00  0.00    -0.197 C  
HETATM    3  C   UNL     1      -8.803   6.670  72.235  1.00  0.00    -0.133 C  
ENDROOT
BRANCH   2   4
HETATM    4  N   UNL     1     -10.636   7.175  70.485  1.00  0.00    -0.220 NA 
BRANCH   4   5
HETATM    5  C   UNL     1     -11.396   6.290  69.540  1.00  0.00    -0.404 C  
BRANCH   5   6
HETATM    6  C   UNL     1     -10.853   6.214  68.091  1.00  0.00    -0.306 C  
BRANCH   6   7
HETATM    7  N   UNL     1     -10.686   7.509  67.451  1.00  0.00    -0.457 N  
HETATM    8  C   UNL     1      -9.563   7.799  66.708  1.00  0.00    -0.212 C  
HETATM    9  H   UNL     1     -11.413   8.217  67.554  1.00  0.00     0.000 HD 
HETATM   10  O   UNL     1      -8.627   7.006  66.604  1.00  0.00    -0.116 OA 
BRANCH   8  11
HETATM   11  C   UNL     1      -9.537   9.184  66.048  1.00  0.00    -0.272 C  
BRANCH  11  12
HETATM   12  N   UNL     1      -8.248   9.819  66.249  1.00  0.00    -0.116 N  
HETATM   13  C   UNL     1      -7.890  10.521  67.459  1.00  0.00    -0.106 C  
HETATM   14  C   UNL     1      -6.927  11.578  66.956  1.00  0.00    -0.145 C  
HETATM   15  C   UNL     1      -6.225  10.892  65.787  1.00  0.00    -0.059 C  
HETATM   16  C   UNL     1      -7.310   9.994  65.246  1.00  0.00    -0.137 C  
HETATM   17  O   UNL     1      -7.343   9.499  64.131  1.00  0.00    -0.106 OA 
ENDBRANCH  11  12
ENDBRANCH   8  11
ENDBRANCH   6   7
ENDBRANCH   5   6
ENDBRANCH   4   5
BRANCH   4  18
HETATM   18  C   UNL     1     -11.335   8.481  70.699  1.00  0.00    -0.241 C  
HETATM   19  C   UNL     1     -10.380   9.687  70.530  1.00  0.00    -0.359 C  
HETATM   20  C   UNL     1     -11.975   8.686  72.085  1.00  0.00    -0.449 C  
ENDBRANCH   4  18
ENDBRANCH   2   4
TORSDOF 7
ENDMDL
MODEL      241
REMARK 921   NORMALIZED FREE ENERGY PREDICTED BY IDOCK:   -2.87 KCAL/MOL
REMARK 922        TOTAL FREE ENERGY PREDICTED BY IDOCK:   -5.05 KCAL/MOL
REMARK 923 INTER-LIGAND FREE ENERGY PREDICTED BY IDOCK:   -4.20 KCAL/MOL
REMARK 924 INTRA-LIGAND FREE ENERGY PREDICTED BY IDOCK:   -0.86 KCAL/MOL
REMARK 927      BINDING AFFINITY PREDICTED BY RF-SCORE:    0.00 PKD
ROOT
HETATM    1  C   UNL     1      -9.106   8.538  71.681  1.00  0.00    -0.296 C  
HETATM    2  C   UNL     1      -9.659   9.422  70.538  1.00  0.00    -0.271 C  
HETATM    3  C   UNL     1      -8.579   9.397  69.444  1.00  0.00    -0.148 C  
ENDROOT
BRANCH   2   4
HETATM    4  N   UNL     1     -11.039   8.996  70.125  1.00  0.00    -0.232 NA 
BRANCH   4   5
HETATM    5  C   UNL     1     -11.408   7.698  70.783  1.00  0.00    -0.281 C  
BRANCH   5   6
HETATM    6  C   UNL     1     -11.522   6.468  69.847  1.00  0.00    -0.403 C  
BRANCH   6   7
HETATM    7  N   UNL     1     -10.264   6.071  69.232  1.00  0.00    -0.189 N  
HETATM    8  C   UNL     1     -10.157   5.908  67.868  1.00  0.00    -0.162 C  
HETATM    9  H   UNL     1      -9.448   5.910  69.821  1.00  0.00     0.000 HD 
HETATM   10  O   UNL     1     -11.126   6.026  67.119  1.00  0.00    -0.301 OA 
BRANCH   8  11
HETATM   11  C   UNL     1      -8.762   5.534  67.348  1.00  0.00    -0.107 C  
BRANCH  11  12
HETATM   12  N   UNL     1      -8.639   5.867  65.941  1.00  0.00    -0.141 N  
HETATM   13  C   UNL     1      -8.703   4.883  64.885  1.00  0.00    -0.150 C  
HETATM   14  C   UNL     1      -7.810   5.485  63.818  1.00  0.00    -0.103 C  
HETATM   15  C   UNL     1      -8.014   6.987  63.990  1.00  0.00    -0.075 C  
HETATM   16  C   UNL     1      -8.250   7.110  65.474  1.00  0.00    -0.139 C  
HETATM   17  O   UNL     1      -8.136   8.128  66.138  1.00  0.00    -0.101 OA 
ENDBRANCH  11  12
ENDBRANCH   8  11
ENDBRANCH   6   7
ENDBRANCH   5   6
ENDBRANCH   4   5
BRANCH   4  18
HETATM   18  C   UNL     1     -12.134  10.009  70.254  1.00  0.00    -0.150 C  
HETATM   19  C   UNL     1     -11.695  11.407  69.753  1.00  0.00    -0.418 C  
HETATM   20  C   UNL     1     -12.661  10.258  71.680  1.00  0.00    -0.534 C  
ENDBRANCH   4  18
ENDBRANCH   2   4
TORSDOF 7
ENDMDL
MODEL      242
REMARK 921   NORMALIZED FREE ENERGY PREDICTED BY IDOCK:   -2.87 KCAL/MOL
REMARK 922        TOTAL FREE ENERGY PREDICTED BY IDOCK:   -5.05 KCAL/MOL
REMARK 923 INTER-LIGAND FREE ENERGY PREDICTED BY IDOCK:   -4.68 KCAL/MOL
REMARK 924 INTRA-LIGAND FREE ENERGY PREDICTED BY IDOCK:   -0.37 KCAL/MOL
REMARK 927      BINDING AFFINITY PREDICTED BY RF-SCORE:    0.00 PKD
ROOT
HETATM    1  C   UNL     1     -10.140   4.877  71.169  1.00  0.00    -0.277 C  
HETATM    2  C   UNL     1     -10.316   6.373  71.529  1.00  0.00    -0.207 C  
HETATM    3  C   UNL     1      -9.068   6.745  72.347  1.00  0.00    -0.142 C  
ENDROOT
BRANCH   2   4
HETATM    4  N   UNL     1     -10.590   7.207  70.310  1.00  0.00    -0.221 NA 
BRANCH   4   5
HETATM    5  C   UNL     1     -10.181   8.632  70.544  1.00  0.00    -0.197 C  
BRANCH   5   6
HETATM    6  C   UNL     1     -11.262   9.561  71.151  1.00  0.00    -0.376 C  
BRANCH   6   7
HETATM    7  N   UNL     1     -11.185  10.940  70.695  1.00  0.00    -0.371 N  
HETATM    8  C   UNL     1     -11.638  11.305  69.446  1.00  0.00    -0.321 C  
HETATM    9  H   UNL     1     -10.787  11.650  71.310  1.00  0.00     0.000 HD 
HETATM   10  O   UNL     1     -12.067  10.479  68.641  1.00  0.00    -0.324 OA 
BRANCH   8  11
HETATM   11  C   UNL     1     -11.542  12.800  69.111  1.00  0.00    -0.319 C  
BRANCH  11  12
HETATM   12  N   UNL     1     -10.417  13.051  68.230  1.00  0.00    -0.244 N  
HETATM   13  C   UNL     1      -9.602  12.001  67.665  1.00  0.00    -0.188 C  
HETATM   14  C   UNL     1      -8.249  12.670  67.528  1.00  0.00    -0.178 C  
HETATM   15  C   UNL     1      -8.600  14.125  67.231  1.00  0.00    -0.231 C  
HETATM   16  C   UNL     1      -9.884  14.308  68.000  1.00  0.00    -0.224 C  
HETATM   17  O   UNL     1     -10.372  15.373  68.341  1.00  0.00    -0.224 OA 
ENDBRANCH  11  12
ENDBRANCH   8  11
ENDBRANCH   6   7
ENDBRANCH   5   6
ENDBRANCH   4   5
BRANCH   4  18
HETATM   18  C   UNL     1     -10.075   6.693  69.002  1.00  0.00    -0.162 C  
HETATM   19  C   UNL     1      -9.021   7.642  68.379  1.00  0.00    -0.128 C  
HETATM   20  C   UNL     1     -11.124   6.499  67.890  1.00  0.00    -0.352 C  
ENDBRANCH   4  18
ENDBRANCH   2   4
TORSDOF 7
ENDMDL
MODEL      243
REMARK 921   NORMALIZED FREE ENERGY PREDICTED BY IDOCK:   -2.87 KCAL/MOL
REMARK 922        TOTAL FREE ENERGY PREDICTED BY IDOCK:   -5.05 KCAL/MOL
REMARK 923 INTER-LIGAND FREE ENERGY PREDICTED BY IDOCK:   -4.73 KCAL/MOL
REMARK 924 INTRA-LIGAND FREE ENERGY PREDICTED BY IDOCK:   -0.32 KCAL/MOL
REMARK 927      BINDING AFFINITY PREDICTED BY RF-SCORE:    0.00 PKD
ROOT
HETATM    1  C   UNL     1      -8.980  15.258  66.298  1.00  0.00    -0.314 C  
HETATM    2  C   UNL     1     -10.299  14.528  65.945  1.00  0.00    -0.319 C  
HETATM    3  C   UNL     1     -11.154  15.568  65.201  1.00  0.00    -0.382 C  
ENDROOT
BRANCH   2   4
HETATM    4  N   UNL     1     -10.041  13.236  65.225  1.00  0.00    -0.271 NA 
BRANCH   4   5
HETATM    5  C   UNL     1      -9.787  12.128  66.205  1.00  0.00    -0.234 C  
BRANCH   5   6
HETATM    6  C   UNL     1     -10.254  12.385  67.660  1.00  0.00    -0.207 C  
BRANCH   6   7
HETATM    7  N   UNL     1      -9.473  11.682  68.667  1.00  0.00    -0.327 N  
HETATM    8  C   UNL     1      -9.778  10.390  69.034  1.00  0.00    -0.206 C  
HETATM    9  H   UNL     1      -8.686  12.156  69.110  1.00  0.00     0.000 HD 
HETATM   10  O   UNL     1     -10.755   9.797  68.578  1.00  0.00    -0.217 OA 
BRANCH   8  11
HETATM   11  C   UNL     1      -8.844   9.752  70.071  1.00  0.00    -0.215 C  
BRANCH  11  12
HETATM   12  N   UNL     1      -8.474   8.409  69.664  1.00  0.00    -0.125 N  
HETATM   13  C   UNL     1      -9.110   7.220  70.181  1.00  0.00    -0.148 C  
HETATM   14  C   UNL     1      -7.993   6.196  70.123  1.00  0.00    -0.107 C  
HETATM   15  C   UNL     1      -7.189   6.617  68.896  1.00  0.00    -0.091 C  
HETATM   16  C   UNL     1      -7.356   8.116  68.903  1.00  0.00    -0.090 C  
HETATM   17  O   UNL     1      -6.643   8.920  68.325  1.00  0.00    -0.059 OA 
ENDBRANCH  11  12
ENDBRANCH   8  11
ENDBRANCH   6   7
ENDBRANCH   5   6
ENDBRANCH   4   5
BRANCH   4  18
HETATM   18  C   UNL     1     -11.032  12.828  64.178  1.00  0.00    -0.398 C  
HETATM   19  C   UNL     1     -12.411  12.477  64.788  1.00  0.00    -0.544 C  
HETATM   20  C   UNL     1     -10.657  11.595  63.335  1.00  0.00    -0.472 C  
ENDBRANCH   4  18
ENDBRANCH   2   4
TORSDOF 7
ENDMDL
MODEL      244
REMARK 921   NORMALIZED FREE ENERGY PREDICTED BY IDOCK:   -2.87 KCAL/MOL
REMARK 922        TOTAL FREE ENERGY PREDICTED BY IDOCK:   -5.05 KCAL/MOL
REMARK 923 INTER-LIGAND FREE ENERGY PREDICTED BY IDOCK:   -4.22 KCAL/MOL
REMARK 924 INTRA-LIGAND FREE ENERGY PREDICTED BY IDOCK:   -0.83 KCAL/MOL
REMARK 927      BINDING AFFINITY PREDICTED BY RF-SCORE:    0.00 PKD
ROOT
HETATM    1  C   UNL     1      -7.080   6.889  65.981  1.00  0.00    -0.073 C  
HETATM    2  C   UNL     1      -8.180   6.591  67.029  1.00  0.00    -0.113 C  
HETATM    3  C   UNL     1      -9.497   6.549  66.236  1.00  0.00    -0.126 C  
ENDROOT
BRANCH   2   4
HETATM    4  N   UNL     1      -7.852   5.374  67.846  1.00  0.00    -0.092 NA 
BRANCH   4   5
HETATM    5  C   UNL     1      -7.744   5.730  69.301  1.00  0.00    -0.089 C  
BRANCH   5   6
HETATM    6  C   UNL     1      -7.803   7.241  69.639  1.00  0.00    -0.118 C  
BRANCH   6   7
HETATM    7  N   UNL     1      -8.632   7.560  70.791  1.00  0.00    -0.134 N  
HETATM    8  C   UNL     1      -9.695   8.430  70.687  1.00  0.00    -0.178 C  
HETATM    9  H   UNL     1      -8.422   7.132  71.693  1.00  0.00     0.000 HD 
HETATM   10  O   UNL     1      -9.952   9.022  69.640  1.00  0.00    -0.181 OA 
BRANCH   8  11
HETATM   11  C   UNL     1     -10.515   8.639  71.968  1.00  0.00    -0.352 C  
BRANCH  11  12
HETATM   12  N   UNL     1     -11.930   8.467  71.699  1.00  0.00    -0.290 N  
HETATM   13  C   UNL     1     -12.863   9.567  71.626  1.00  0.00    -0.393 C  
HETATM   14  C   UNL     1     -14.156   8.936  72.102  1.00  0.00    -0.497 C  
HETATM   15  C   UNL     1     -14.052   7.495  71.608  1.00  0.00    -0.562 C  
HETATM   16  C   UNL     1     -12.568   7.238  71.684  1.00  0.00    -0.368 C  
HETATM   17  O   UNL     1     -12.029   6.144  71.710  1.00  0.00    -0.289 OA 
ENDBRANCH  11  12
ENDBRANCH   8  11
ENDBRANCH   6   7
ENDBRANCH   5   6
ENDBRANCH   4   5
BRANCH   4  18
HETATM   18  C   UNL     1      -8.705   4.162  67.638  1.00  0.00    -0.107 C  
HETATM   19  C   UNL     1      -9.537   3.813  68.896  1.00  0.00    -0.183 C  
HETATM   20  C   UNL     1      -7.958   2.859  67.296  1.00  0.00    -0.077 C  
ENDBRANCH   4  18
ENDBRANCH   2   4
TORSDOF 7
ENDMDL
MODEL      245
REMARK 921   NORMALIZED FREE ENERGY PREDICTED BY IDOCK:   -2.85 KCAL/MOL
REMARK 922        TOTAL FREE ENERGY PREDICTED BY IDOCK:   -5.03 KCAL/MOL
REMARK 923 INTER-LIGAND FREE ENERGY PREDICTED BY IDOCK:   -4.08 KCAL/MOL
REMARK 924 INTRA-LIGAND FREE ENERGY PREDICTED BY IDOCK:   -0.94 KCAL/MOL
REMARK 927      BINDING AFFINITY PREDICTED BY RF-SCORE:    0.00 PKD
ROOT
HETATM    1  C   UNL     1      -7.760   4.546  67.862  1.00  0.00    -0.081 C  
HETATM    2  C   UNL     1      -7.508   5.738  68.818  1.00  0.00    -0.085 C  
HETATM    3  C   UNL     1      -6.756   6.783  67.977  1.00  0.00    -0.068 C  
ENDROOT
BRANCH   2   4
HETATM    4  N   UNL     1      -8.776   6.197  69.478  1.00  0.00    -0.129 NA 
BRANCH   4   5
HETATM    5  C   UNL     1      -9.972   5.759  68.683  1.00  0.00    -0.155 C  
BRANCH   5   6
HETATM    6  C   UNL     1     -10.731   6.876  67.922  1.00  0.00    -0.232 C  
BRANCH   6   7
HETATM    7  N   UNL     1     -10.195   8.211  68.136  1.00  0.00    -0.203 N  
HETATM    8  C   UNL     1      -9.660   8.941  67.098  1.00  0.00    -0.172 C  
HETATM    9  H   UNL     1     -10.215   8.614  69.073  1.00  0.00     0.000 HD 
HETATM   10  O   UNL     1      -9.552   8.477  65.963  1.00  0.00    -0.227 OA 
BRANCH   8  11
HETATM   11  C   UNL     1      -9.175  10.353  67.454  1.00  0.00    -0.142 C  
BRANCH  11  12
HETATM   12  N   UNL     1      -9.994  11.353  66.795  1.00  0.00    -0.205 N  
HETATM   13  C   UNL     1      -9.498  12.228  65.760  1.00  0.00    -0.121 C  
HETATM   14  C   UNL     1     -10.339  13.475  65.949  1.00  0.00    -0.301 C  
HETATM   15  C   UNL     1     -11.679  12.929  66.434  1.00  0.00    -0.454 C  
HETATM   16  C   UNL     1     -11.262  11.711  67.219  1.00  0.00    -0.304 C  
HETATM   17  O   UNL     1     -11.932  11.136  68.062  1.00  0.00    -0.625 OA 
ENDBRANCH  11  12
ENDBRANCH   8  11
ENDBRANCH   6   7
ENDBRANCH   5   6
ENDBRANCH   4   5
BRANCH   4  18
HETATM   18  C   UNL     1      -8.939   5.887  70.934  1.00  0.00    -0.146 C  
HETATM   19  C   UNL     1     -10.156   4.967  71.200  1.00  0.00    -0.293 C  
HETATM   20  C   UNL     1      -9.159   7.096  71.863  1.00  0.00    -0.144 C  
ENDBRANCH   4  18
ENDBRANCH   2   4
TORSDOF 7
ENDMDL
MODEL      246
REMARK 921   NORMALIZED FREE ENERGY PREDICTED BY IDOCK:   -2.83 KCAL/MOL
REMARK 922        TOTAL FREE ENERGY PREDICTED BY IDOCK:   -5.00 KCAL/MOL
REMARK 923 INTER-LIGAND FREE ENERGY PREDICTED BY IDOCK:   -4.22 KCAL/MOL
REMARK 924 INTRA-LIGAND FREE ENERGY PREDICTED BY IDOCK:   -0.78 KCAL/MOL
REMARK 927      BINDING AFFINITY PREDICTED BY RF-SCORE:    0.00 PKD
ROOT
HETATM    1  C   UNL     1     -10.493  12.015  65.259  1.00  0.00    -0.323 C  
HETATM    2  C   UNL     1     -10.306  10.490  65.451  1.00  0.00    -0.222 C  
HETATM    3  C   UNL     1      -8.977  10.151  64.755  1.00  0.00    -0.236 C  
ENDROOT
BRANCH   2   4
HETATM    4  N   UNL     1     -10.424  10.095  66.895  1.00  0.00    -0.234 NA 
BRANCH   4   5
HETATM    5  C   UNL     1      -9.494   8.959  67.209  1.00  0.00    -0.154 C  
BRANCH   5   6
HETATM    6  C   UNL     1     -10.120   7.748  67.945  1.00  0.00    -0.185 C  
BRANCH   6   7
HETATM    7  N   UNL     1      -9.862   7.725  69.377  1.00  0.00    -0.173 N  
HETATM    8  C   UNL     1     -10.724   7.094  70.247  1.00  0.00    -0.238 C  
HETATM    9  H   UNL     1      -9.029   8.185  69.743  1.00  0.00     0.000 HD 
HETATM   10  O   UNL     1     -11.775   6.581  69.866  1.00  0.00    -0.406 OA 
BRANCH   8  11
HETATM   11  C   UNL     1     -10.306   7.104  71.724  1.00  0.00    -0.196 C  
BRANCH  11  12
HETATM   12  N   UNL     1     -10.258   5.751  72.247  1.00  0.00    -0.191 N  
HETATM   13  C   UNL     1     -11.347   5.143  72.975  1.00  0.00    -0.309 C  
HETATM   14  C   UNL     1     -10.629   4.191  73.911  1.00  0.00    -0.299 C  
HETATM   15  C   UNL     1      -9.410   3.751  73.105  1.00  0.00    -0.122 C  
HETATM   16  C   UNL     1      -9.109   4.980  72.285  1.00  0.00    -0.131 C  
HETATM   17  O   UNL     1      -8.048   5.237  71.738  1.00  0.00    -0.112 OA 
ENDBRANCH  11  12
ENDBRANCH   8  11
ENDBRANCH   6   7
ENDBRANCH   5   6
ENDBRANCH   4   5
BRANCH   4  18
HETATM   18  C   UNL     1     -10.320  11.188  67.913  1.00  0.00    -0.185 C  
HETATM   19  C   UNL     1      -8.937  11.207  68.607  1.00  0.00    -0.162 C  
HETATM   20  C   UNL     1     -11.333  11.133  69.071  1.00  0.00    -0.343 C  
ENDBRANCH   4  18
ENDBRANCH   2   4
TORSDOF 7
ENDMDL
MODEL      247
REMARK 921   NORMALIZED FREE ENERGY PREDICTED BY IDOCK:   -2.82 KCAL/MOL
REMARK 922        TOTAL FREE ENERGY PREDICTED BY IDOCK:   -4.99 KCAL/MOL
REMARK 923 INTER-LIGAND FREE ENERGY PREDICTED BY IDOCK:   -4.21 KCAL/MOL
REMARK 924 INTRA-LIGAND FREE ENERGY PREDICTED BY IDOCK:   -0.78 KCAL/MOL
REMARK 927      BINDING AFFINITY PREDICTED BY RF-SCORE:    0.00 PKD
ROOT
HETATM    1  C   UNL     1      -6.211   9.489  64.709  1.00  0.00    -0.081 C  
HETATM    2  C   UNL     1      -7.689   9.400  64.259  1.00  0.00    -0.117 C  
HETATM    3  C   UNL     1      -7.937   7.911  63.965  1.00  0.00    -0.124 C  
ENDROOT
BRANCH   2   4
HETATM    4  N   UNL     1      -8.611  10.048  65.252  1.00  0.00    -0.146 NA 
BRANCH   4   5
HETATM    5  C   UNL     1      -7.886  10.334  66.535  1.00  0.00    -0.116 C  
BRANCH   5   6
HETATM    6  C   UNL     1      -8.185   9.374  67.715  1.00  0.00    -0.114 C  
BRANCH   6   7
HETATM    7  N   UNL     1      -9.587   9.327  68.101  1.00  0.00    -0.141 N  
HETATM    8  C   UNL     1      -9.992   9.694  69.366  1.00  0.00    -0.197 C  
HETATM    9  H   UNL     1     -10.283   9.015  67.423  1.00  0.00     0.000 HD 
HETATM   10  O   UNL     1      -9.188  10.015  70.240  1.00  0.00    -0.149 OA 
BRANCH   8  11
HETATM   11  C   UNL     1     -11.504   9.643  69.624  1.00  0.00    -0.001 C  
BRANCH  11  12
HETATM   12  N   UNL     1     -12.022  10.975  69.875  1.00  0.00    -0.321 N  
HETATM   13  C   UNL     1     -11.846  12.079  68.961  1.00  0.00    -0.315 C  
HETATM   14  C   UNL     1     -11.815  13.276  69.891  1.00  0.00    -0.380 C  
HETATM   15  C   UNL     1     -12.756  12.871  71.023  1.00  0.00    -0.338 C  
HETATM   16  C   UNL     1     -12.555  11.378  71.087  1.00  0.00    -0.386 C  
HETATM   17  O   UNL     1     -12.830  10.656  72.032  1.00  0.00    -0.422 OA 
ENDBRANCH  11  12
ENDBRANCH   8  11
ENDBRANCH   6   7
ENDBRANCH   5   6
ENDBRANCH   4   5
BRANCH   4  18
HETATM   18  C   UNL     1      -9.391  11.237  64.783  1.00  0.00    -0.145 C  
HETATM   19  C   UNL     1     -10.740  11.379  65.530  1.00  0.00    -0.313 C  
HETATM   20  C   UNL     1      -9.773  11.251  63.291  1.00  0.00    -0.405 C  
ENDBRANCH   4  18
ENDBRANCH   2   4
TORSDOF 7
ENDMDL
MODEL      248
REMARK 921   NORMALIZED FREE ENERGY PREDICTED BY IDOCK:   -2.82 KCAL/MOL
REMARK 922        TOTAL FREE ENERGY PREDICTED BY IDOCK:   -4.98 KCAL/MOL
REMARK 923 INTER-LIGAND FREE ENERGY PREDICTED BY IDOCK:   -4.42 KCAL/MOL
REMARK 924 INTRA-LIGAND FREE ENERGY PREDICTED BY IDOCK:   -0.56 KCAL/MOL
REMARK 927      BINDING AFFINITY PREDICTED BY RF-SCORE:    0.00 PKD
ROOT
HETATM    1  C   UNL     1      -8.250  11.509  68.412  1.00  0.00    -0.152 C  
HETATM    2  C   UNL     1      -8.236  10.934  66.975  1.00  0.00    -0.134 C  
HETATM    3  C   UNL     1      -6.756  10.905  66.561  1.00  0.00    -0.133 C  
ENDROOT
BRANCH   2   4
HETATM    4  N   UNL     1      -8.979   9.632  66.892  1.00  0.00    -0.133 NA 
BRANCH   4   5
HETATM    5  C   UNL     1      -9.913   9.483  68.058  1.00  0.00    -0.167 C  
BRANCH   5   6
HETATM    6  C   UNL     1      -9.949   8.086  68.728  1.00  0.00    -0.189 C  
BRANCH   6   7
HETATM    7  N   UNL     1     -10.782   8.020  69.919  1.00  0.00    -0.247 N  
HETATM    8  C   UNL     1     -11.366   6.837  70.317  1.00  0.00    -0.352 C  
HETATM    9  H   UNL     1     -10.937   8.864  70.469  1.00  0.00     0.000 HD 
HETATM   10  O   UNL     1     -11.264   5.805  69.655  1.00  0.00    -0.353 OA 
BRANCH   8  11
HETATM   11  C   UNL     1     -12.179   6.898  71.617  1.00  0.00    -0.361 C  
BRANCH  11  12
HETATM   12  N   UNL     1     -11.307   6.753  72.769  1.00  0.00    -0.230 N  
HETATM   13  C   UNL     1     -10.469   7.818  73.267  1.00  0.00    -0.294 C  
HETATM   14  C   UNL     1      -9.292   7.065  73.855  1.00  0.00    -0.264 C  
HETATM   15  C   UNL     1      -9.919   5.772  74.370  1.00  0.00    -0.271 C  
HETATM   16  C   UNL     1     -11.035   5.542  73.381  1.00  0.00    -0.275 C  
HETATM   17  O   UNL     1     -11.605   4.483  73.174  1.00  0.00    -0.243 OA 
ENDBRANCH  11  12
ENDBRANCH   8  11
ENDBRANCH   6   7
ENDBRANCH   5   6
ENDBRANCH   4   5
BRANCH   4  18
HETATM   18  C   UNL     1      -9.661   9.316  65.597  1.00  0.00    -0.232 C  
HETATM   19  C   UNL     1      -8.725   8.573  64.613  1.00  0.00    -0.023 C  
HETATM   20  C   UNL     1     -10.184  10.523  64.796  1.00  0.00    -0.373 C  
ENDBRANCH   4  18
ENDBRANCH   2   4
TORSDOF 7
ENDMDL
MODEL      249
REMARK 921   NORMALIZED FREE ENERGY PREDICTED BY IDOCK:   -2.82 KCAL/MOL
REMARK 922        TOTAL FREE ENERGY PREDICTED BY IDOCK:   -4.98 KCAL/MOL
REMARK 923 INTER-LIGAND FREE ENERGY PREDICTED BY IDOCK:   -4.79 KCAL/MOL
REMARK 924 INTRA-LIGAND FREE ENERGY PREDICTED BY IDOCK:   -0.19 KCAL/MOL
REMARK 927      BINDING AFFINITY PREDICTED BY RF-SCORE:    0.00 PKD
ROOT
HETATM    1  C   UNL     1      -6.710  10.642  66.666  1.00  0.00    -0.106 C  
HETATM    2  C   UNL     1      -6.740  10.444  68.201  1.00  0.00    -0.061 C  
HETATM    3  C   UNL     1      -6.850  11.859  68.793  1.00  0.00    -0.093 C  
ENDROOT
BRANCH   2   4
HETATM    4  N   UNL     1      -7.799   9.462  68.613  1.00  0.00    -0.088 NA 
BRANCH   4   5
HETATM    5  C   UNL     1      -9.117  10.156  68.798  1.00  0.00    -0.153 C  
BRANCH   5   6
HETATM    6  C   UNL     1      -9.886  10.517  67.502  1.00  0.00    -0.168 C  
BRANCH   6   7
HETATM    7  N   UNL     1     -10.307  11.907  67.429  1.00  0.00    -0.205 N  
HETATM    8  C   UNL     1     -11.493  12.324  67.992  1.00  0.00    -0.321 C  
HETATM    9  H   UNL     1      -9.714  12.586  66.951  1.00  0.00     0.000 HD 
HETATM   10  O   UNL     1     -12.275  11.537  68.523  1.00  0.00    -0.524 OA 
BRANCH   8  11
HETATM   11  C   UNL     1     -11.792  13.826  67.884  1.00  0.00    -0.378 C  
BRANCH  11  12
HETATM   12  N   UNL     1     -11.476  14.313  66.554  1.00  0.00    -0.347 N  
HETATM   13  C   UNL     1     -10.333  15.147  66.266  1.00  0.00    -0.294 C  
HETATM   14  C   UNL     1     -10.816  15.976  65.092  1.00  0.00    -0.411 C  
HETATM   15  C   UNL     1     -11.751  15.026  64.348  1.00  0.00    -0.320 C  
HETATM   16  C   UNL     1     -12.330  14.202  65.471  1.00  0.00    -0.458 C  
HETATM   17  O   UNL     1     -13.356  13.543  65.423  1.00  0.00    -0.548 OA 
ENDBRANCH  11  12
ENDBRANCH   8  11
ENDBRANCH   6   7
ENDBRANCH   5   6
ENDBRANCH   4   5
BRANCH   4  18
HETATM   18  C   UNL     1      -7.941   8.223  67.784  1.00  0.00    -0.122 C  
HETATM   19  C   UNL     1      -9.022   7.269  68.346  1.00  0.00    -0.126 C  
HETATM   20  C   UNL     1      -6.681   7.347  67.656  1.00  0.00    -0.066 C  
ENDBRANCH   4  18
ENDBRANCH   2   4
TORSDOF 7
ENDMDL
MODEL      250
REMARK 921   NORMALIZED FREE ENERGY PREDICTED BY IDOCK:   -2.79 KCAL/MOL
REMARK 922        TOTAL FREE ENERGY PREDICTED BY IDOCK:   -4.94 KCAL/MOL
REMARK 923 INTER-LIGAND FREE ENERGY PREDICTED BY IDOCK:   -4.21 KCAL/MOL
REMARK 924 INTRA-LIGAND FREE ENERGY PREDICTED BY IDOCK:   -0.73 KCAL/MOL
REMARK 927      BINDING AFFINITY PREDICTED BY RF-SCORE:    0.00 PKD
ROOT
HETATM    1  C   UNL     1      -8.675   8.652  71.595  1.00  0.00    -0.270 C  
HETATM    2  C   UNL     1      -9.942   9.154  70.859  1.00  0.00    -0.288 C  
HETATM    3  C   UNL     1      -9.424  10.058  69.727  1.00  0.00    -0.239 C  
ENDROOT
BRANCH   2   4
HETATM    4  N   UNL     1     -10.833   8.017  70.451  1.00  0.00    -0.245 NA 
BRANCH   4   5
HETATM    5  C   UNL     1     -10.074   6.721  70.464  1.00  0.00    -0.183 C  
BRANCH   5   6
HETATM    6  C   UNL     1      -9.719   6.126  69.078  1.00  0.00    -0.135 C  
BRANCH   6   7
HETATM    7  N   UNL     1      -8.816   6.951  68.290  1.00  0.00    -0.123 N  
HETATM    8  C   UNL     1      -9.267   7.660  67.198  1.00  0.00    -0.132 C  
HETATM    9  H   UNL     1      -7.832   7.006  68.551  1.00  0.00     0.000 HD 
HETATM   10  O   UNL     1     -10.429   7.578  66.802  1.00  0.00    -0.305 OA 
BRANCH   8  11
HETATM   11  C   UNL     1      -8.219   8.528  66.487  1.00  0.00    -0.108 C  
BRANCH  11  12
HETATM   12  N   UNL     1      -8.711   8.958  65.192  1.00  0.00    -0.186 N  
HETATM   13  C   UNL     1      -8.300   8.354  63.946  1.00  0.00    -0.057 C  
HETATM   14  C   UNL     1      -8.399   9.509  62.970  1.00  0.00    -0.175 C  
HETATM   15  C   UNL     1      -9.569  10.329  63.507  1.00  0.00    -0.321 C  
HETATM   16  C   UNL     1      -9.459  10.107  64.995  1.00  0.00    -0.271 C  
HETATM   17  O   UNL     1      -9.956  10.804  65.864  1.00  0.00    -0.229 OA 
ENDBRANCH  11  12
ENDBRANCH   8  11
ENDBRANCH   6   7
ENDBRANCH   5   6
ENDBRANCH   4   5
BRANCH   4  18
HETATM   18  C   UNL     1     -12.147   7.892  71.158  1.00  0.00    -0.276 C  
HETATM   19  C   UNL     1     -12.230   8.815  72.398  1.00  0.00    -0.396 C  
HETATM   20  C   UNL     1     -12.496   6.491  71.695  1.00  0.00    -0.271 C  
ENDBRANCH   4  18
ENDBRANCH   2   4
TORSDOF 7
ENDMDL
MODEL      251
REMARK 921   NORMALIZED FREE ENERGY PREDICTED BY IDOCK:   -2.79 KCAL/MOL
REMARK 922        TOTAL FREE ENERGY PREDICTED BY IDOCK:   -4.94 KCAL/MOL
REMARK 923 INTER-LIGAND FREE ENERGY PREDICTED BY IDOCK:   -4.61 KCAL/MOL
REMARK 924 INTRA-LIGAND FREE ENERGY PREDICTED BY IDOCK:   -0.33 KCAL/MOL
REMARK 927      BINDING AFFINITY PREDICTED BY RF-SCORE:    0.00 PKD
ROOT
HETATM    1  C   UNL     1      -6.667   9.401  65.130  1.00  0.00    -0.080 C  
HETATM    2  C   UNL     1      -8.162   9.657  64.819  1.00  0.00    -0.142 C  
HETATM    3  C   UNL     1      -8.827   8.271  64.843  1.00  0.00     0.075 C  
ENDROOT
BRANCH   2   4
HETATM    4  N   UNL     1      -8.747  10.696  65.731  1.00  0.00    -0.177 NA 
BRANCH   4   5
HETATM    5  C   UNL     1     -10.191  10.936  65.398  1.00  0.00    -0.277 C  
BRANCH   5   6
HETATM    6  C   UNL     1     -10.492  12.183  64.529  1.00  0.00    -0.303 C  
BRANCH   6   7
HETATM    7  N   UNL     1      -9.734  13.366  64.904  1.00  0.00    -0.560 N  
HETATM    8  C   UNL     1     -10.351  14.459  65.473  1.00  0.00    -0.362 C  
HETATM    9  H   UNL     1      -8.727  13.388  64.742  1.00  0.00     0.000 HD 
HETATM   10  O   UNL     1     -11.570  14.511  65.630  1.00  0.00    -0.341 OA 
BRANCH   8  11
HETATM   11  C   UNL     1      -9.426  15.619  65.865  1.00  0.00    -0.341 C  
BRANCH  11  12
HETATM   12  N   UNL     1      -9.622  15.978  67.257  1.00  0.00    -0.223 N  
HETATM   13  C   UNL     1      -9.322  15.089  68.355  1.00  0.00    -0.193 C  
HETATM   14  C   UNL     1     -10.331  15.508  69.405  1.00  0.00    -0.258 C  
HETATM   15  C   UNL     1     -10.495  17.007  69.164  1.00  0.00    -0.323 C  
HETATM   16  C   UNL     1     -10.298  17.113  67.672  1.00  0.00    -0.344 C  
HETATM   17  O   UNL     1     -10.654  18.042  66.965  1.00  0.00    -0.366 OA 
ENDBRANCH  11  12
ENDBRANCH   8  11
ENDBRANCH   6   7
ENDBRANCH   5   6
ENDBRANCH   4   5
BRANCH   4  18
HETATM   18  C   UNL     1      -8.545  10.504  67.202  1.00  0.00    -0.127 C  
HETATM   19  C   UNL     1      -9.455  11.436  68.040  1.00  0.00    -0.181 C  
HETATM   20  C   UNL     1      -7.124  10.774  67.731  1.00  0.00    -0.086 C  
ENDBRANCH   4  18
ENDBRANCH   2   4
TORSDOF 7
ENDMDL
MODEL      252
REMARK 921   NORMALIZED FREE ENERGY PREDICTED BY IDOCK:   -2.79 KCAL/MOL
REMARK 922        TOTAL FREE ENERGY PREDICTED BY IDOCK:   -4.94 KCAL/MOL
REMARK 923 INTER-LIGAND FREE ENERGY PREDICTED BY IDOCK:   -4.66 KCAL/MOL
REMARK 924 INTRA-LIGAND FREE ENERGY PREDICTED BY IDOCK:   -0.28 KCAL/MOL
REMARK 927      BINDING AFFINITY PREDICTED BY RF-SCORE:    0.00 PKD
ROOT
HETATM    1  C   UNL     1     -10.080   8.341  66.830  1.00  0.00    -0.373 C  
HETATM    2  C   UNL     1      -9.774   9.839  66.584  1.00  0.00    -0.201 C  
HETATM    3  C   UNL     1      -8.306  10.028  67.002  1.00  0.00    -0.121 C  
ENDROOT
BRANCH   2   4
HETATM    4  N   UNL     1     -10.130  10.255  65.186  1.00  0.00    -0.314 NA 
BRANCH   4   5
HETATM    5  C   UNL     1     -10.783  11.607  65.188  1.00  0.00    -0.296 C  
BRANCH   5   6
HETATM    6  C   UNL     1      -9.886  12.796  65.616  1.00  0.00    -0.179 C  
BRANCH   6   7
HETATM    7  N   UNL     1     -10.373  13.518  66.782  1.00  0.00    -0.261 N  
HETATM    8  C   UNL     1      -9.557  13.755  67.867  1.00  0.00    -0.222 C  
HETATM    9  H   UNL     1     -11.335  13.854  66.796  1.00  0.00     0.000 HD 
HETATM   10  O   UNL     1      -8.409  13.316  67.927  1.00  0.00    -0.139 OA 
BRANCH   8  11
HETATM   11  C   UNL     1     -10.183  14.570  69.007  1.00  0.00    -0.206 C  
BRANCH  11  12
HETATM   12  N   UNL     1      -9.954  15.988  68.803  1.00  0.00    -0.215 N  
HETATM   13  C   UNL     1     -10.939  16.875  68.230  1.00  0.00    -0.298 C  
HETATM   14  C   UNL     1     -10.083  17.914  67.533  1.00  0.00    -0.343 C  
HETATM   15  C   UNL     1      -8.844  18.007  68.420  1.00  0.00    -0.300 C  
HETATM   16  C   UNL     1      -8.719  16.597  68.942  1.00  0.00    -0.238 C  
HETATM   17  O   UNL     1      -7.714  16.094  69.418  1.00  0.00    -0.236 OA 
ENDBRANCH  11  12
ENDBRANCH   8  11
ENDBRANCH   6   7
ENDBRANCH   5   6
ENDBRANCH   4   5
BRANCH   4  18
HETATM   18  C   UNL     1      -9.051  10.167  64.151  1.00  0.00    -0.251 C  
HETATM   19  C   UNL     1      -9.513  10.717  62.780  1.00  0.00    -0.355 C  
HETATM   20  C   UNL     1      -8.524   8.753  63.842  1.00  0.00    -0.110 C  
ENDBRANCH   4  18
ENDBRANCH   2   4
TORSDOF 7
ENDMDL
MODEL      253
REMARK 921   NORMALIZED FREE ENERGY PREDICTED BY IDOCK:   -2.78 KCAL/MOL
REMARK 922        TOTAL FREE ENERGY PREDICTED BY IDOCK:   -4.93 KCAL/MOL
REMARK 923 INTER-LIGAND FREE ENERGY PREDICTED BY IDOCK:   -4.34 KCAL/MOL
REMARK 924 INTRA-LIGAND FREE ENERGY PREDICTED BY IDOCK:   -0.59 KCAL/MOL
REMARK 927      BINDING AFFINITY PREDICTED BY RF-SCORE:    0.00 PKD
ROOT
HETATM    1  C   UNL     1     -11.004  17.152  68.092  1.00  0.00    -0.231 C  
HETATM    2  C   UNL     1     -10.340  15.868  67.537  1.00  0.00    -0.283 C  
HETATM    3  C   UNL     1     -10.352  16.031  66.008  1.00  0.00    -0.366 C  
ENDROOT
BRANCH   2   4
HETATM    4  N   UNL     1      -9.002  15.617  68.173  1.00  0.00    -0.178 NA 
BRANCH   4   5
HETATM    5  C   UNL     1      -8.659  14.157  68.119  1.00  0.00    -0.175 C  
BRANCH   5   6
HETATM    6  C   UNL     1      -9.846  13.172  68.265  1.00  0.00    -0.227 C  
BRANCH   6   7
HETATM    7  N   UNL     1      -9.454  11.817  68.619  1.00  0.00    -0.347 N  
HETATM    8  C   UNL     1      -9.007  10.930  67.664  1.00  0.00    -0.140 C  
HETATM    9  H   UNL     1      -9.511  11.517  69.593  1.00  0.00     0.000 HD 
HETATM   10  O   UNL     1      -8.980  11.219  66.469  1.00  0.00    -0.172 OA 
BRANCH   8  11
HETATM   11  C   UNL     1      -8.579   9.550  68.182  1.00  0.00    -0.120 C  
BRANCH  11  12
HETATM   12  N   UNL     1      -9.644   8.583  67.989  1.00  0.00    -0.147 N  
HETATM   13  C   UNL     1     -10.501   8.123  69.056  1.00  0.00    -0.198 C  
HETATM   14  C   UNL     1     -10.841   6.711  68.623  1.00  0.00    -0.319 C  
HETATM   15  C   UNL     1     -10.867   6.803  67.100  1.00  0.00    -0.462 C  
HETATM   16  C   UNL     1      -9.820   7.854  66.826  1.00  0.00    -0.248 C  
HETATM   17  O   UNL     1      -9.248   8.038  65.763  1.00  0.00    -0.124 OA 
ENDBRANCH  11  12
ENDBRANCH   8  11
ENDBRANCH   6   7
ENDBRANCH   5   6
ENDBRANCH   4   5
BRANCH   4  18
HETATM   18  C   UNL     1      -7.859  16.469  67.715  1.00  0.00    -0.152 C  
HETATM   19  C   UNL     1      -6.620  15.622  67.335  1.00  0.00    -0.194 C  
HETATM   20  C   UNL     1      -7.328  17.494  68.734  1.00  0.00    -0.260 C  
ENDBRANCH   4  18
ENDBRANCH   2   4
TORSDOF 7
ENDMDL
MODEL      254
REMARK 921   NORMALIZED FREE ENERGY PREDICTED BY IDOCK:   -2.78 KCAL/MOL
REMARK 922        TOTAL FREE ENERGY PREDICTED BY IDOCK:   -4.92 KCAL/MOL
REMARK 923 INTER-LIGAND FREE ENERGY PREDICTED BY IDOCK:   -4.46 KCAL/MOL
REMARK 924 INTRA-LIGAND FREE ENERGY PREDICTED BY IDOCK:   -0.46 KCAL/MOL
REMARK 927      BINDING AFFINITY PREDICTED BY RF-SCORE:    0.00 PKD
ROOT
HETATM    1  C   UNL     1      -7.538  13.376  68.187  1.00  0.00    -0.138 C  
HETATM    2  C   UNL     1      -8.753  14.324  68.330  1.00  0.00    -0.179 C  
HETATM    3  C   UNL     1      -8.300  15.662  67.722  1.00  0.00    -0.157 C  
ENDROOT
BRANCH   2   4
HETATM    4  N   UNL     1     -10.001  13.717  67.755  1.00  0.00    -0.230 NA 
BRANCH   4   5
HETATM    5  C   UNL     1     -11.218  14.430  68.268  1.00  0.00    -0.275 C  
BRANCH   5   6
HETATM    6  C   UNL     1     -11.694  14.031  69.688  1.00  0.00    -0.311 C  
BRANCH   6   7
HETATM    7  N   UNL     1     -11.100  12.802  70.191  1.00  0.00    -0.139 N  
HETATM    8  C   UNL     1     -11.536  11.569  69.757  1.00  0.00    -0.326 C  
HETATM    9  H   UNL     1     -10.347  12.854  70.877  1.00  0.00     0.000 HD 
HETATM   10  O   UNL     1     -12.483  11.449  68.981  1.00  0.00    -0.364 OA 
BRANCH   8  11
HETATM   11  C   UNL     1     -10.790  10.357  70.332  1.00  0.00    -0.189 C  
BRANCH  11  12
HETATM   12  N   UNL     1     -11.696   9.237  70.503  1.00  0.00    -0.224 N  
HETATM   13  C   UNL     1     -12.843   9.272  71.379  1.00  0.00    -0.328 C  
HETATM   14  C   UNL     1     -12.972   7.825  71.813  1.00  0.00    -0.351 C  
HETATM   15  C   UNL     1     -12.493   7.044  70.593  1.00  0.00    -0.173 C  
HETATM   16  C   UNL     1     -11.451   7.967  70.011  1.00  0.00     0.054 C  
HETATM   17  O   UNL     1     -10.566   7.650  69.234  1.00  0.00    -0.221 OA 
ENDBRANCH  11  12
ENDBRANCH   8  11
ENDBRANCH   6   7
ENDBRANCH   5   6
ENDBRANCH   4   5
BRANCH   4  18
HETATM   18  C   UNL     1     -10.051  13.539  66.269  1.00  0.00    -0.298 C  
HETATM   19  C   UNL     1     -11.082  14.485  65.606  1.00  0.00    -0.327 C  
HETATM   20  C   UNL     1     -10.438  12.135  65.768  1.00  0.00    -0.287 C  
ENDBRANCH   4  18
ENDBRANCH   2   4
TORSDOF 7
ENDMDL
MODEL      255
REMARK 921   NORMALIZED FREE ENERGY PREDICTED BY IDOCK:   -2.77 KCAL/MOL
REMARK 922        TOTAL FREE ENERGY PREDICTED BY IDOCK:   -4.92 KCAL/MOL
REMARK 923 INTER-LIGAND FREE ENERGY PREDICTED BY IDOCK:   -4.22 KCAL/MOL
REMARK 924 INTRA-LIGAND FREE ENERGY PREDICTED BY IDOCK:   -0.70 KCAL/MOL
REMARK 927      BINDING AFFINITY PREDICTED BY RF-SCORE:    0.00 PKD
ROOT
HETATM    1  C   UNL     1     -10.287   7.962  68.433  1.00  0.00    -0.235 C  
HETATM    2  C   UNL     1      -9.041   8.418  67.635  1.00  0.00    -0.135 C  
HETATM    3  C   UNL     1      -7.839   7.798  68.368  1.00  0.00    -0.121 C  
ENDROOT
BRANCH   2   4
HETATM    4  N   UNL     1      -9.171   8.098  66.174  1.00  0.00    -0.187 NA 
BRANCH   4   5
HETATM    5  C   UNL     1      -9.471   9.341  65.387  1.00  0.00    -0.210 C  
BRANCH   5   6
HETATM    6  C   UNL     1      -9.143  10.685  66.085  1.00  0.00    -0.170 C  
BRANCH   6   7
HETATM    7  N   UNL     1     -10.312  11.414  66.551  1.00  0.00    -0.228 N  
HETATM    8  C   UNL     1     -10.347  11.982  67.805  1.00  0.00    -0.197 C  
HETATM    9  H   UNL     1     -11.122  11.506  65.937  1.00  0.00     0.000 HD 
HETATM   10  O   UNL     1      -9.424  11.847  68.608  1.00  0.00    -0.171 OA 
BRANCH   8  11
HETATM   11  C   UNL     1     -11.623  12.764  68.149  1.00  0.00    -0.336 C  
BRANCH  11  12
HETATM   12  N   UNL     1     -11.484  14.157  67.768  1.00  0.00    -0.306 N  
HETATM   13  C   UNL     1     -11.447  14.603  66.395  1.00  0.00    -0.347 C  
HETATM   14  C   UNL     1     -10.569  15.837  66.472  1.00  0.00    -0.306 C  
HETATM   15  C   UNL     1     -10.885  16.413  67.850  1.00  0.00    -0.328 C  
HETATM   16  C   UNL     1     -11.171  15.171  68.657  1.00  0.00    -0.286 C  
HETATM   17  O   UNL     1     -11.150  15.085  69.874  1.00  0.00    -0.255 OA 
ENDBRANCH  11  12
ENDBRANCH   8  11
ENDBRANCH   6   7
ENDBRANCH   5   6
ENDBRANCH   4   5
BRANCH   4  18
HETATM   18  C   UNL     1      -8.067   7.303  65.548  1.00  0.00    -0.132 C  
HETATM   19  C   UNL     1      -7.726   7.804  64.124  1.00  0.00    -0.125 C  
HETATM   20  C   UNL     1      -8.333   5.796  65.374  1.00  0.00    -0.142 C  
ENDBRANCH   4  18
ENDBRANCH   2   4
TORSDOF 7
ENDMDL
MODEL      256
REMARK 921   NORMALIZED FREE ENERGY PREDICTED BY IDOCK:   -2.76 KCAL/MOL
REMARK 922        TOTAL FREE ENERGY PREDICTED BY IDOCK:   -4.90 KCAL/MOL
REMARK 923 INTER-LIGAND FREE ENERGY PREDICTED BY IDOCK:   -4.31 KCAL/MOL
REMARK 924 INTRA-LIGAND FREE ENERGY PREDICTED BY IDOCK:   -0.59 KCAL/MOL
REMARK 927      BINDING AFFINITY PREDICTED BY RF-SCORE:    0.00 PKD
ROOT
HETATM    1  C   UNL     1     -10.519  14.643  68.432  1.00  0.00    -0.243 C  
HETATM    2  C   UNL     1     -11.414  13.430  68.077  1.00  0.00    -0.304 C  
HETATM    3  C   UNL     1     -12.169  13.840  66.802  1.00  0.00    -0.440 C  
ENDROOT
BRANCH   2   4
HETATM    4  N   UNL     1     -10.619  12.158  68.004  1.00  0.00    -0.204 NA 
BRANCH   4   5
HETATM    5  C   UNL     1     -11.497  10.971  68.276  1.00  0.00    -0.304 C  
BRANCH   5   6
HETATM    6  C   UNL     1     -11.413  10.374  69.704  1.00  0.00    -0.262 C  
BRANCH   6   7
HETATM    7  N   UNL     1     -11.319   8.923  69.736  1.00  0.00    -0.442 N  
HETATM    8  C   UNL     1     -10.141   8.278  69.429  1.00  0.00    -0.198 C  
HETATM    9  H   UNL     1     -12.139   8.373  69.991  1.00  0.00     0.000 HD 
HETATM   10  O   UNL     1      -9.141   8.889  69.054  1.00  0.00    -0.136 OA 
BRANCH   8  11
HETATM   11  C   UNL     1     -10.167   6.748  69.550  1.00  0.00    -0.184 C  
BRANCH  11  12
HETATM   12  N   UNL     1      -9.407   6.317  70.709  1.00  0.00    -0.157 N  
HETATM   13  C   UNL     1      -7.964   6.328  70.759  1.00  0.00    -0.112 C  
HETATM   14  C   UNL     1      -7.656   5.173  71.692  1.00  0.00    -0.101 C  
HETATM   15  C   UNL     1      -8.831   5.181  72.666  1.00  0.00    -0.123 C  
HETATM   16  C   UNL     1      -9.963   5.668  71.798  1.00  0.00    -0.176 C  
HETATM   17  O   UNL     1     -11.154   5.531  72.026  1.00  0.00    -0.239 OA 
ENDBRANCH  11  12
ENDBRANCH   8  11
ENDBRANCH   6   7
ENDBRANCH   5   6
ENDBRANCH   4   5
BRANCH   4  18
HETATM   18  C   UNL     1      -9.775  11.950  66.785  1.00  0.00    -0.204 C  
HETATM   19  C   UNL     1     -10.161  10.658  66.024  1.00  0.00    -0.309 C  
HETATM   20  C   UNL     1      -8.259  11.816  67.026  1.00  0.00    -0.172 C  
ENDBRANCH   4  18
ENDBRANCH   2   4
TORSDOF 7
ENDMDL
MODEL      257
REMARK 921   NORMALIZED FREE ENERGY PREDICTED BY IDOCK:   -2.69 KCAL/MOL
REMARK 922        TOTAL FREE ENERGY PREDICTED BY IDOCK:   -4.79 KCAL/MOL
REMARK 923 INTER-LIGAND FREE ENERGY PREDICTED BY IDOCK:   -4.15 KCAL/MOL
REMARK 924 INTRA-LIGAND FREE ENERGY PREDICTED BY IDOCK:   -0.64 KCAL/MOL
REMARK 927      BINDING AFFINITY PREDICTED BY RF-SCORE:    0.00 PKD
ROOT
HETATM    1  C   UNL     1     -12.204  11.327  69.723  1.00  0.00    -0.343 C  
HETATM    2  C   UNL     1     -11.182  10.505  68.898  1.00  0.00    -0.266 C  
HETATM    3  C   UNL     1     -10.020  11.470  68.611  1.00  0.00    -0.207 C  
ENDROOT
BRANCH   2   4
HETATM    4  N   UNL     1     -10.828   9.216  69.580  1.00  0.00    -0.223 NA 
BRANCH   4   5
HETATM    5  C   UNL     1     -10.050   8.326  68.655  1.00  0.00    -0.197 C  
BRANCH   5   6
HETATM    6  C   UNL     1     -10.485   8.342  67.168  1.00  0.00    -0.316 C  
BRANCH   6   7
HETATM    7  N   UNL     1      -9.945   7.246  66.379  1.00  0.00    -0.445 N  
HETATM    8  C   UNL     1      -8.670   7.301  65.859  1.00  0.00    -0.131 C  
HETATM    9  H   UNL     1     -10.520   6.421  66.207  1.00  0.00     0.000 HD 
HETATM   10  O   UNL     1      -7.959   8.298  65.982  1.00  0.00    -0.092 OA 
BRANCH   8  11
HETATM   11  C   UNL     1      -8.208   6.057  65.088  1.00  0.00    -0.142 C  
BRANCH  11  12
HETATM   12  N   UNL     1      -8.341   4.870  65.913  1.00  0.00    -0.112 N  
HETATM   13  C   UNL     1      -7.261   4.331  66.706  1.00  0.00    -0.072 C  
HETATM   14  C   UNL     1      -7.569   2.847  66.718  1.00  0.00    -0.075 C  
HETATM   15  C   UNL     1      -9.094   2.799  66.686  1.00  0.00    -0.153 C  
HETATM   16  C   UNL     1      -9.435   4.023  65.873  1.00  0.00    -0.180 C  
HETATM   17  O   UNL     1     -10.492   4.234  65.301  1.00  0.00    -0.249 OA 
ENDBRANCH  11  12
ENDBRANCH   8  11
ENDBRANCH   6   7
ENDBRANCH   5   6
ENDBRANCH   4   5
BRANCH   4  18
HETATM   18  C   UNL     1     -10.180   9.311  70.927  1.00  0.00    -0.301 C  
HETATM   19  C   UNL     1      -8.778   8.654  70.945  1.00  0.00    -0.216 C  
HETATM   20  C   UNL     1     -10.935   8.643  72.091  1.00  0.00    -0.434 C  
ENDBRANCH   4  18
ENDBRANCH   2   4
TORSDOF 7
ENDMDL
MODEL      258
REMARK 921   NORMALIZED FREE ENERGY PREDICTED BY IDOCK:   -2.68 KCAL/MOL
REMARK 922        TOTAL FREE ENERGY PREDICTED BY IDOCK:   -4.79 KCAL/MOL
REMARK 923 INTER-LIGAND FREE ENERGY PREDICTED BY IDOCK:   -4.15 KCAL/MOL
REMARK 924 INTRA-LIGAND FREE ENERGY PREDICTED BY IDOCK:   -0.64 KCAL/MOL
REMARK 927      BINDING AFFINITY PREDICTED BY RF-SCORE:    0.00 PKD
ROOT
HETATM    1  C   UNL     1      -6.650  11.665  66.882  1.00  0.00    -0.129 C  
HETATM    2  C   UNL     1      -7.881  11.017  66.202  1.00  0.00    -0.117 C  
HETATM    3  C   UNL     1      -7.361   9.712  65.577  1.00  0.00    -0.106 C  
ENDROOT
BRANCH   2   4
HETATM    4  N   UNL     1      -9.036  10.890  67.153  1.00  0.00    -0.144 NA 
BRANCH   4   5
HETATM    5  C   UNL     1      -8.582  11.110  68.567  1.00  0.00    -0.157 C  
BRANCH   5   6
HETATM    6  C   UNL     1      -8.329   9.833  69.408  1.00  0.00    -0.152 C  
BRANCH   6   7
HETATM    7  N   UNL     1      -9.178   9.718  70.583  1.00  0.00    -0.313 N  
HETATM    8  C   UNL     1     -10.071   8.678  70.720  1.00  0.00    -0.198 C  
HETATM    9  H   UNL     1      -9.113  10.421  71.319  1.00  0.00     0.000 HD 
HETATM   10  O   UNL     1     -10.236   7.840  69.834  1.00  0.00    -0.203 OA 
BRANCH   8  11
HETATM   11  C   UNL     1     -10.869   8.651  72.030  1.00  0.00    -0.360 C  
BRANCH  11  12
HETATM   12  N   UNL     1     -10.239   7.765  72.991  1.00  0.00    -0.305 N  
HETATM   13  C   UNL     1      -9.011   8.087  73.680  1.00  0.00    -0.247 C  
HETATM   14  C   UNL     1      -8.387   6.723  73.898  1.00  0.00    -0.144 C  
HETATM   15  C   UNL     1      -9.592   5.806  74.085  1.00  0.00    -0.160 C  
HETATM   16  C   UNL     1     -10.627   6.452  73.198  1.00  0.00    -0.255 C  
HETATM   17  O   UNL     1     -11.632   5.917  72.760  1.00  0.00    -0.266 OA 
ENDBRANCH  11  12
ENDBRANCH   8  11
ENDBRANCH   6   7
ENDBRANCH   5   6
ENDBRANCH   4   5
BRANCH   4  18
HETATM   18  C   UNL     1     -10.268  11.683  66.841  1.00  0.00    -0.214 C  
HETATM   19  C   UNL     1     -11.478  11.238  67.697  1.00  0.00    -0.341 C  
HETATM   20  C   UNL     1     -10.773  11.605  65.388  1.00  0.00    -0.341 C  
ENDBRANCH   4  18
ENDBRANCH   2   4
TORSDOF 7
ENDMDL
MODEL      259
REMARK 921   NORMALIZED FREE ENERGY PREDICTED BY IDOCK:   -2.68 KCAL/MOL
REMARK 922        TOTAL FREE ENERGY PREDICTED BY IDOCK:   -4.79 KCAL/MOL
REMARK 923 INTER-LIGAND FREE ENERGY PREDICTED BY IDOCK:   -3.47 KCAL/MOL
REMARK 924 INTRA-LIGAND FREE ENERGY PREDICTED BY IDOCK:   -1.32 KCAL/MOL
REMARK 927      BINDING AFFINITY PREDICTED BY RF-SCORE:    0.00 PKD
ROOT
HETATM    1  C   UNL     1      -6.904   5.476  66.665  1.00  0.00    -0.063 C  
HETATM    2  C   UNL     1      -7.217   6.542  67.743  1.00  0.00    -0.090 C  
HETATM    3  C   UNL     1      -6.772   7.882  67.133  1.00  0.00    -0.068 C  
ENDROOT
BRANCH   2   4
HETATM    4  N   UNL     1      -8.643   6.460  68.206  1.00  0.00    -0.115 NA 
BRANCH   4   5
HETATM    5  C   UNL     1      -9.539   6.035  67.079  1.00  0.00    -0.133 C  
BRANCH   5   6
HETATM    6  C   UNL     1     -10.895   6.779  66.969  1.00  0.00    -0.383 C  
BRANCH   6   7
HETATM    7  N   UNL     1     -10.919   8.071  67.636  1.00  0.00    -0.506 N  
HETATM    8  C   UNL     1     -10.404   9.197  67.032  1.00  0.00    -0.263 C  
HETATM    9  H   UNL     1     -11.324   8.145  68.569  1.00  0.00     0.000 HD 
HETATM   10  O   UNL     1      -9.846   9.151  65.936  1.00  0.00    -0.286 OA 
BRANCH   8  11
HETATM   11  C   UNL     1     -10.538  10.503  67.827  1.00  0.00    -0.243 C  
BRANCH  11  12
HETATM   12  N   UNL     1      -9.261  10.882  68.401  1.00  0.00    -0.161 N  
HETATM   13  C   UNL     1      -8.410  11.904  67.838  1.00  0.00    -0.152 C  
HETATM   14  C   UNL     1      -7.023  11.427  68.220  1.00  0.00    -0.072 C  
HETATM   15  C   UNL     1      -7.241  10.739  69.565  1.00  0.00    -0.132 C  
HETATM   16  C   UNL     1      -8.633  10.179  69.415  1.00  0.00    -0.174 C  
HETATM   17  O   UNL     1      -9.121   9.280  70.081  1.00  0.00    -0.184 OA 
ENDBRANCH  11  12
ENDBRANCH   8  11
ENDBRANCH   6   7
ENDBRANCH   5   6
ENDBRANCH   4   5
BRANCH   4  18
HETATM   18  C   UNL     1      -8.912   5.671  69.450  1.00  0.00    -0.114 C  
HETATM   19  C   UNL     1      -7.673   5.605  70.376  1.00  0.00    -0.094 C  
HETATM   20  C   UNL     1      -9.318   4.200  69.244  1.00  0.00    -0.237 C  
ENDBRANCH   4  18
ENDBRANCH   2   4
TORSDOF 7
ENDMDL
MODEL      260
REMARK 921   NORMALIZED FREE ENERGY PREDICTED BY IDOCK:   -2.68 KCAL/MOL
REMARK 922        TOTAL FREE ENERGY PREDICTED BY IDOCK:   -4.78 KCAL/MOL
REMARK 923 INTER-LIGAND FREE ENERGY PREDICTED BY IDOCK:   -4.28 KCAL/MOL
REMARK 924 INTRA-LIGAND FREE ENERGY PREDICTED BY IDOCK:   -0.50 KCAL/MOL
REMARK 927      BINDING AFFINITY PREDICTED BY RF-SCORE:    0.00 PKD
ROOT
HETATM    1  C   UNL     1      -8.072   6.720  72.593  1.00  0.00    -0.104 C  
HETATM    2  C   UNL     1      -9.362   5.934  72.934  1.00  0.00    -0.147 C  
HETATM    3  C   UNL     1     -10.122   6.815  73.939  1.00  0.00    -0.375 C  
ENDROOT
BRANCH   2   4
HETATM    4  N   UNL     1     -10.111   5.535  71.695  1.00  0.00    -0.189 NA 
BRANCH   4   5
HETATM    5  C   UNL     1      -9.671   6.364  70.523  1.00  0.00    -0.168 C  
BRANCH   5   6
HETATM    6  C   UNL     1     -10.775   7.196  69.823  1.00  0.00    -0.239 C  
BRANCH   6   7
HETATM    7  N   UNL     1     -10.303   8.444  69.246  1.00  0.00    -0.213 N  
HETATM    8  C   UNL     1     -10.477   9.644  69.900  1.00  0.00    -0.253 C  
HETATM    9  H   UNL     1      -9.834   8.432  68.340  1.00  0.00     0.000 HD 
HETATM   10  O   UNL     1     -11.092   9.724  70.962  1.00  0.00    -0.325 OA 
BRANCH   8  11
HETATM   11  C   UNL     1      -9.888  10.877  69.201  1.00  0.00    -0.145 C  
BRANCH  11  12
HETATM   12  N   UNL     1      -9.747  10.636  67.777  1.00  0.00    -0.160 N  
HETATM   13  C   UNL     1      -8.531  10.146  67.173  1.00  0.00    -0.125 C  
HETATM   14  C   UNL     1      -8.575  10.767  65.791  1.00  0.00    -0.187 C  
HETATM   15  C   UNL     1     -10.067  10.818  65.471  1.00  0.00    -0.335 C  
HETATM   16  C   UNL     1     -10.678  11.034  66.833  1.00  0.00    -0.274 C  
HETATM   17  O   UNL     1     -11.797  11.464  67.058  1.00  0.00    -0.530 OA 
ENDBRANCH  11  12
ENDBRANCH   8  11
ENDBRANCH   6   7
ENDBRANCH   5   6
ENDBRANCH   4   5
BRANCH   4  18
HETATM   18  C   UNL     1     -10.143   4.077  71.356  1.00  0.00    -0.077 C  
HETATM   19  C   UNL     1      -9.614   3.199  72.517  1.00  0.00    -0.190 C  
HETATM   20  C   UNL     1      -9.307   3.647  70.136  1.00  0.00    -0.243 C  
ENDBRANCH   4  18
ENDBRANCH   2   4
TORSDOF 7
ENDMDL
MODEL      261
REMARK 921   NORMALIZED FREE ENERGY PREDICTED BY IDOCK:   -2.66 KCAL/MOL
REMARK 922        TOTAL FREE ENERGY PREDICTED BY IDOCK:   -4.76 KCAL/MOL
REMARK 923 INTER-LIGAND FREE ENERGY PREDICTED BY IDOCK:   -3.94 KCAL/MOL
REMARK 924 INTRA-LIGAND FREE ENERGY PREDICTED BY IDOCK:   -0.81 KCAL/MOL
REMARK 927      BINDING AFFINITY PREDICTED BY RF-SCORE:    0.00 PKD
ROOT
HETATM    1  C   UNL     1     -11.332   7.132  72.815  1.00  0.00    -0.285 C  
HETATM    2  C   UNL     1     -11.015   7.847  71.479  1.00  0.00    -0.231 C  
HETATM    3  C   UNL     1     -11.348   9.329  71.720  1.00  0.00    -0.437 C  
ENDROOT
BRANCH   2   4
HETATM    4  N   UNL     1      -9.623   7.543  71.004  1.00  0.00    -0.161 NA 
BRANCH   4   5
HETATM    5  C   UNL     1      -8.867   8.812  70.741  1.00  0.00    -0.191 C  
BRANCH   5   6
HETATM    6  C   UNL     1      -8.659   9.186  69.251  1.00  0.00    -0.137 C  
BRANCH   6   7
HETATM    7  N   UNL     1      -9.131  10.517  68.901  1.00  0.00    -0.169 N  
HETATM    8  C   UNL     1      -8.551  11.233  67.878  1.00  0.00    -0.134 C  
HETATM    9  H   UNL     1      -9.905  10.927  69.423  1.00  0.00     0.000 HD 
HETATM   10  O   UNL     1      -7.574  10.813  67.259  1.00  0.00    -0.097 OA 
BRANCH   8  11
HETATM   11  C   UNL     1      -9.178  12.603  67.583  1.00  0.00    -0.191 C  
BRANCH  11  12
HETATM   12  N   UNL     1     -10.284  12.466  66.654  1.00  0.00    -0.222 N  
HETATM   13  C   UNL     1     -10.170  12.735  65.240  1.00  0.00    -0.279 C  
HETATM   14  C   UNL     1     -11.564  13.209  64.880  1.00  0.00    -0.356 C  
HETATM   15  C   UNL     1     -12.465  12.412  65.819  1.00  0.00     0.114 C  
HETATM   16  C   UNL     1     -11.597  12.263  67.044  1.00  0.00    -0.349 C  
HETATM   17  O   UNL     1     -11.983  11.994  68.170  1.00  0.00    -0.465 OA 
ENDBRANCH  11  12
ENDBRANCH   8  11
ENDBRANCH   6   7
ENDBRANCH   5   6
ENDBRANCH   4   5
BRANCH   4  18
HETATM   18  C   UNL     1      -8.818   6.581  71.822  1.00  0.00    -0.138 C  
HETATM   19  C   UNL     1      -7.743   7.300  72.672  1.00  0.00    -0.096 C  
HETATM   20  C   UNL     1      -8.037   5.512  71.035  1.00  0.00    -0.118 C  
ENDBRANCH   4  18
ENDBRANCH   2   4
TORSDOF 7
ENDMDL
MODEL      262
REMARK 921   NORMALIZED FREE ENERGY PREDICTED BY IDOCK:   -2.66 KCAL/MOL
REMARK 922        TOTAL FREE ENERGY PREDICTED BY IDOCK:   -4.76 KCAL/MOL
REMARK 923 INTER-LIGAND FREE ENERGY PREDICTED BY IDOCK:   -4.11 KCAL/MOL
REMARK 924 INTRA-LIGAND FREE ENERGY PREDICTED BY IDOCK:   -0.65 KCAL/MOL
REMARK 927      BINDING AFFINITY PREDICTED BY RF-SCORE:    0.00 PKD
ROOT
HETATM    1  C   UNL     1      -8.033   7.327  73.195  1.00  0.00    -0.120 C  
HETATM    2  C   UNL     1      -8.993   6.119  73.067  1.00  0.00    -0.131 C  
HETATM    3  C   UNL     1     -10.096   6.364  74.110  1.00  0.00    -0.353 C  
ENDROOT
BRANCH   2   4
HETATM    4  N   UNL     1      -9.444   5.918  71.650  1.00  0.00    -0.149 NA 
BRANCH   4   5
HETATM    5  C   UNL     1      -8.889   6.993  70.762  1.00  0.00    -0.149 C  
BRANCH   5   6
HETATM    6  C   UNL     1      -9.591   7.176  69.392  1.00  0.00    -0.153 C  
BRANCH   6   7
HETATM    7  N   UNL     1      -9.064   8.274  68.597  1.00  0.00    -0.140 N  
HETATM    8  C   UNL     1      -9.684   8.675  67.434  1.00  0.00    -0.175 C  
HETATM    9  H   UNL     1      -8.220   8.757  68.906  1.00  0.00     0.000 HD 
HETATM   10  O   UNL     1     -10.666   8.086  66.983  1.00  0.00    -0.328 OA 
BRANCH   8  11
HETATM   11  C   UNL     1      -9.051   9.877  66.719  1.00  0.00    -0.143 C  
BRANCH  11  12
HETATM   12  N   UNL     1      -9.936  11.026  66.778  1.00  0.00    -0.197 N  
HETATM   13  C   UNL     1     -10.206  11.757  67.994  1.00  0.00    -0.193 C  
HETATM   14  C   UNL     1     -11.620  12.257  67.772  1.00  0.00    -0.416 C  
HETATM   15  C   UNL     1     -11.682  12.489  66.265  1.00  0.00    -0.462 C  
HETATM   16  C   UNL     1     -10.761  11.417  65.738  1.00  0.00    -0.251 C  
HETATM   17  O   UNL     1     -10.737  10.988  64.596  1.00  0.00    -0.324 OA 
ENDBRANCH  11  12
ENDBRANCH   8  11
ENDBRANCH   6   7
ENDBRANCH   5   6
ENDBRANCH   4   5
BRANCH   4  18
HETATM   18  C   UNL     1      -9.245   4.557  71.057  1.00  0.00    -0.140 C  
HETATM   19  C   UNL     1      -9.734   3.433  72.003  1.00  0.00    -0.234 C  
HETATM   20  C   UNL     1      -7.793   4.172  70.719  1.00  0.00    -0.052 C  
ENDBRANCH   4  18
ENDBRANCH   2   4
TORSDOF 7
ENDMDL
MODEL      263
REMARK 921   NORMALIZED FREE ENERGY PREDICTED BY IDOCK:   -2.62 KCAL/MOL
REMARK 922        TOTAL FREE ENERGY PREDICTED BY IDOCK:   -4.71 KCAL/MOL
REMARK 923 INTER-LIGAND FREE ENERGY PREDICTED BY IDOCK:   -4.09 KCAL/MOL
REMARK 924 INTRA-LIGAND FREE ENERGY PREDICTED BY IDOCK:   -0.62 KCAL/MOL
REMARK 927      BINDING AFFINITY PREDICTED BY RF-SCORE:    0.00 PKD
ROOT
HETATM    1  C   UNL     1      -8.386  15.998  66.736  1.00  0.00    -0.305 C  
HETATM    2  C   UNL     1      -9.672  15.782  67.571  1.00  0.00    -0.226 C  
HETATM    3  C   UNL     1     -10.592  16.963  67.215  1.00  0.00    -0.270 C  
ENDROOT
BRANCH   2   4
HETATM    4  N   UNL     1     -10.240  14.407  67.368  1.00  0.00    -0.246 NA 
BRANCH   4   5
HETATM    5  C   UNL     1      -9.579  13.423  68.288  1.00  0.00    -0.220 C  
BRANCH   5   6
HETATM    6  C   UNL     1      -9.121  12.089  67.645  1.00  0.00    -0.179 C  
BRANCH   6   7
HETATM    7  N   UNL     1      -8.938  11.003  68.595  1.00  0.00    -0.166 N  
HETATM    8  C   UNL     1      -7.683  10.525  68.900  1.00  0.00    -0.117 C  
HETATM    9  H   UNL     1      -9.755  10.588  69.044  1.00  0.00     0.000 HD 
HETATM   10  O   UNL     1      -6.671  10.946  68.340  1.00  0.00    -0.058 OA 
BRANCH   8  11
HETATM   11  C   UNL     1      -7.631   9.411  69.955  1.00  0.00    -0.109 C  
BRANCH  11  12
HETATM   12  N   UNL     1      -8.735   8.487  69.772  1.00  0.00    -0.131 N  
HETATM   13  C   UNL     1      -8.733   7.435  68.784  1.00  0.00    -0.128 C  
HETATM   14  C   UNL     1     -10.203   7.299  68.442  1.00  0.00    -0.203 C  
HETATM   15  C   UNL     1     -10.905   7.626  69.758  1.00  0.00    -0.222 C  
HETATM   16  C   UNL     1      -9.972   8.637  70.375  1.00  0.00    -0.187 C  
HETATM   17  O   UNL     1     -10.254   9.429  71.259  1.00  0.00    -0.315 OA 
ENDBRANCH  11  12
ENDBRANCH   8  11
ENDBRANCH   6   7
ENDBRANCH   5   6
ENDBRANCH   4   5
BRANCH   4  18
HETATM   18  C   UNL     1     -11.731  14.273  67.399  1.00  0.00    -0.394 C  
HETATM   19  C   UNL     1     -12.234  13.672  68.734  1.00  0.00    -0.204 C  
HETATM   20  C   UNL     1     -12.352  13.375  66.312  1.00  0.00    -0.410 C  
ENDBRANCH   4  18
ENDBRANCH   2   4
TORSDOF 7
ENDMDL
MODEL      264
REMARK 921   NORMALIZED FREE ENERGY PREDICTED BY IDOCK:   -2.62 KCAL/MOL
REMARK 922        TOTAL FREE ENERGY PREDICTED BY IDOCK:   -4.70 KCAL/MOL
REMARK 923 INTER-LIGAND FREE ENERGY PREDICTED BY IDOCK:   -3.96 KCAL/MOL
REMARK 924 INTRA-LIGAND FREE ENERGY PREDICTED BY IDOCK:   -0.74 KCAL/MOL
REMARK 927      BINDING AFFINITY PREDICTED BY RF-SCORE:    0.00 PKD
ROOT
HETATM    1  C   UNL     1      -8.021  15.404  68.516  1.00  0.00    -0.140 C  
HETATM    2  C   UNL     1      -8.463  16.786  67.976  1.00  0.00    -0.205 C  
HETATM    3  C   UNL     1      -7.278  17.295  67.140  1.00  0.00    -0.202 C  
ENDROOT
BRANCH   2   4
HETATM    4  N   UNL     1      -9.790  16.709  67.278  1.00  0.00    -0.250 NA 
BRANCH   4   5
HETATM    5  C   UNL     1     -10.606  15.571  67.820  1.00  0.00    -0.281 C  
BRANCH   5   6
HETATM    6  C   UNL     1     -11.026  14.485  66.796  1.00  0.00    -0.316 C  
BRANCH   6   7
HETATM    7  N   UNL     1     -10.079  13.388  66.673  1.00  0.00    -0.269 N  
HETATM    8  C   UNL     1     -10.131  12.301  67.518  1.00  0.00    -0.201 C  
HETATM    9  H   UNL     1      -9.363  13.423  65.947  1.00  0.00     0.000 HD 
HETATM   10  O   UNL     1     -10.932  12.238  68.450  1.00  0.00    -0.211 OA 
BRANCH   8  11
HETATM   11  C   UNL     1      -9.104  11.193  67.246  1.00  0.00    -0.150 C  
BRANCH  11  12
HETATM   12  N   UNL     1      -7.849  11.488  67.913  1.00  0.00    -0.117 N  
HETATM   13  C   UNL     1      -6.740  12.145  67.262  1.00  0.00    -0.144 C  
HETATM   14  C   UNL     1      -5.541  11.560  67.981  1.00  0.00    -0.043 C  
HETATM   15  C   UNL     1      -6.055  11.328  69.399  1.00  0.00    -0.074 C  
HETATM   16  C   UNL     1      -7.508  11.001  69.163  1.00  0.00    -0.121 C  
HETATM   17  O   UNL     1      -8.251  10.426  69.942  1.00  0.00    -0.110 OA 
ENDBRANCH  11  12
ENDBRANCH   8  11
ENDBRANCH   6   7
ENDBRANCH   5   6
ENDBRANCH   4   5
BRANCH   4  18
HETATM   18  C   UNL     1     -10.593  17.970  67.195  1.00  0.00    -0.325 C  
HETATM   19  C   UNL     1     -10.333  18.739  65.877  1.00  0.00    -0.385 C  
HETATM   20  C   UNL     1     -10.337  19.009  68.304  1.00  0.00    -0.415 C  
ENDBRANCH   4  18
ENDBRANCH   2   4
TORSDOF 7
ENDMDL
MODEL      265
REMARK 921   NORMALIZED FREE ENERGY PREDICTED BY IDOCK:   -2.61 KCAL/MOL
REMARK 922        TOTAL FREE ENERGY PREDICTED BY IDOCK:   -4.69 KCAL/MOL
REMARK 923 INTER-LIGAND FREE ENERGY PREDICTED BY IDOCK:   -4.12 KCAL/MOL
REMARK 924 INTRA-LIGAND FREE ENERGY PREDICTED BY IDOCK:   -0.57 KCAL/MOL
REMARK 927      BINDING AFFINITY PREDICTED BY RF-SCORE:    0.00 PKD
ROOT
HETATM    1  C   UNL     1     -10.389  17.747  67.190  1.00  0.00    -0.354 C  
HETATM    2  C   UNL     1     -10.223  16.219  67.001  1.00  0.00    -0.280 C  
HETATM    3  C   UNL     1     -10.296  15.985  65.483  1.00  0.00    -0.415 C  
ENDROOT
BRANCH   2   4
HETATM    4  N   UNL     1      -8.998  15.704  67.700  1.00  0.00    -0.179 NA 
BRANCH   4   5
HETATM    5  C   UNL     1      -9.300  14.421  68.417  1.00  0.00    -0.206 C  
BRANCH   5   6
HETATM    6  C   UNL     1     -10.796  14.025  68.505  1.00  0.00    -0.254 C  
BRANCH   6   7
HETATM    7  N   UNL     1     -11.309  13.939  69.864  1.00  0.00    -0.456 N  
HETATM    8  C   UNL     1     -11.839  12.766  70.354  1.00  0.00    -0.155 C  
HETATM    9  H   UNL     1     -11.275  14.763  70.464  1.00  0.00     0.000 HD 
HETATM   10  O   UNL     1     -11.962  11.763  69.652  1.00  0.00    -0.306 OA 
BRANCH   8  11
HETATM   11  C   UNL     1     -12.299  12.801  71.818  1.00  0.00     0.379 C  
BRANCH  11  12
HETATM   12  N   UNL     1     -13.209  13.910  72.038  1.00  0.00    -0.383 N  
HETATM   13  C   UNL     1     -14.251  14.277  71.108  1.00  0.00     0.042 C  
HETATM   14  C   UNL     1     -14.367  15.774  71.316  1.00  0.00     0.280 C  
HETATM   15  C   UNL     1     -14.047  15.953  72.797  1.00  0.00    -0.353 C  
HETATM   16  C   UNL     1     -13.052  14.847  73.045  1.00  0.00    -0.505 C  
HETATM   17  O   UNL     1     -12.266  14.783  73.976  1.00  0.00    -0.485 OA 
ENDBRANCH  11  12
ENDBRANCH   8  11
ENDBRANCH   6   7
ENDBRANCH   5   6
ENDBRANCH   4   5
BRANCH   4  18
HETATM   18  C   UNL     1      -7.744  15.599  66.888  1.00  0.00    -0.203 C  
HETATM   19  C   UNL     1      -6.773  14.534  67.454  1.00  0.00    -0.021 C  
HETATM   20  C   UNL     1      -6.894  16.880  66.787  1.00  0.00    -0.267 C  
ENDBRANCH   4  18
ENDBRANCH   2   4
TORSDOF 7
ENDMDL
MODEL      266
REMARK 921   NORMALIZED FREE ENERGY PREDICTED BY IDOCK:   -2.59 KCAL/MOL
REMARK 922        TOTAL FREE ENERGY PREDICTED BY IDOCK:   -4.66 KCAL/MOL
REMARK 923 INTER-LIGAND FREE ENERGY PREDICTED BY IDOCK:   -3.80 KCAL/MOL
REMARK 924 INTRA-LIGAND FREE ENERGY PREDICTED BY IDOCK:   -0.86 KCAL/MOL
REMARK 927      BINDING AFFINITY PREDICTED BY RF-SCORE:    0.00 PKD
ROOT
HETATM    1  C   UNL     1      -8.877   6.093  66.356  1.00  0.00    -0.144 C  
HETATM    2  C   UNL     1      -8.411   6.794  67.656  1.00  0.00    -0.123 C  
HETATM    3  C   UNL     1      -6.918   6.449  67.792  1.00  0.00    -0.075 C  
ENDROOT
BRANCH   2   4
HETATM    4  N   UNL     1      -8.762   8.254  67.654  1.00  0.00    -0.133 NA 
BRANCH   4   5
HETATM    5  C   UNL     1      -7.594   9.077  68.115  1.00  0.00    -0.092 C  
BRANCH   5   6
HETATM    6  C   UNL     1      -7.858  10.024  69.313  1.00  0.00    -0.125 C  
BRANCH   6   7
HETATM    7  N   UNL     1      -8.843   9.524  70.260  1.00  0.00    -0.233 N  
HETATM    8  C   UNL     1      -8.470   9.080  71.510  1.00  0.00    -0.022 C  
HETATM    9  H   UNL     1      -9.827   9.501  69.994  1.00  0.00     0.000 HD 
HETATM   10  O   UNL     1      -7.290   9.025  71.857  1.00  0.00    -0.317 OA 
BRANCH   8  11
HETATM   11  C   UNL     1      -9.614   8.625  72.426  1.00  0.00    -0.235 C  
BRANCH  11  12
HETATM   12  N   UNL     1     -10.410   7.602  71.774  1.00  0.00    -0.195 N  
HETATM   13  C   UNL     1      -9.939   6.256  71.546  1.00  0.00    -0.184 C  
HETATM   14  C   UNL     1     -10.668   5.861  70.276  1.00  0.00    -0.383 C  
HETATM   15  C   UNL     1     -11.999   6.600  70.386  1.00  0.00    -0.342 C  
HETATM   16  C   UNL     1     -11.608   7.854  71.128  1.00  0.00    -0.280 C  
HETATM   17  O   UNL     1     -12.245   8.894  71.165  1.00  0.00    -0.291 OA 
ENDBRANCH  11  12
ENDBRANCH   8  11
ENDBRANCH   6   7
ENDBRANCH   5   6
ENDBRANCH   4   5
BRANCH   4  18
HETATM   18  C   UNL     1      -9.367   8.810  66.402  1.00  0.00    -0.204 C  
HETATM   19  C   UNL     1      -8.295   9.383  65.443  1.00  0.00    -0.143 C  
HETATM   20  C   UNL     1     -10.373   9.961  66.590  1.00  0.00    -0.275 C  
ENDBRANCH   4  18
ENDBRANCH   2   4
TORSDOF 7
ENDMDL
MODEL      267
REMARK 921   NORMALIZED FREE ENERGY PREDICTED BY IDOCK:   -2.58 KCAL/MOL
REMARK 922        TOTAL FREE ENERGY PREDICTED BY IDOCK:   -4.64 KCAL/MOL
REMARK 923 INTER-LIGAND FREE ENERGY PREDICTED BY IDOCK:   -3.97 KCAL/MOL
REMARK 924 INTRA-LIGAND FREE ENERGY PREDICTED BY IDOCK:   -0.68 KCAL/MOL
REMARK 927      BINDING AFFINITY PREDICTED BY RF-SCORE:    0.00 PKD
ROOT
HETATM    1  C   UNL     1      -8.413   6.229  69.383  1.00  0.00    -0.125 C  
HETATM    2  C   UNL     1      -7.893   7.190  68.286  1.00  0.00    -0.122 C  
HETATM    3  C   UNL     1      -6.363   7.199  68.444  1.00  0.00    -0.036 C  
ENDROOT
BRANCH   2   4
HETATM    4  N   UNL     1      -8.424   6.823  66.931  1.00  0.00    -0.113 NA 
BRANCH   4   5
HETATM    5  C   UNL     1      -8.996   8.030  66.244  1.00  0.00    -0.171 C  
BRANCH   5   6
HETATM    6  C   UNL     1      -8.896   9.367  67.021  1.00  0.00    -0.127 C  
BRANCH   6   7
HETATM    7  N   UNL     1     -10.158  10.081  67.139  1.00  0.00    -0.201 N  
HETATM    8  C   UNL     1     -10.212  11.455  67.057  1.00  0.00    -0.213 C  
HETATM    9  H   UNL     1     -11.019   9.554  67.286  1.00  0.00     0.000 HD 
HETATM   10  O   UNL     1      -9.197  12.141  66.945  1.00  0.00    -0.191 OA 
BRANCH   8  11
HETATM   11  C   UNL     1     -11.613  12.075  67.150  1.00  0.00    -0.316 C  
BRANCH  11  12
HETATM   12  N   UNL     1     -11.604  13.217  68.045  1.00  0.00    -0.314 N  
HETATM   13  C   UNL     1     -11.713  13.100  69.480  1.00  0.00    -0.319 C  
HETATM   14  C   UNL     1     -12.410  14.390  69.865  1.00  0.00    -0.365 C  
HETATM   15  C   UNL     1     -11.892  15.394  68.839  1.00  0.00    -0.350 C  
HETATM   16  C   UNL     1     -11.694  14.531  67.619  1.00  0.00    -0.382 C  
HETATM   17  O   UNL     1     -11.611  14.925  66.466  1.00  0.00    -0.339 OA 
ENDBRANCH  11  12
ENDBRANCH   8  11
ENDBRANCH   6   7
ENDBRANCH   5   6
ENDBRANCH   4   5
BRANCH   4  18
HETATM   18  C   UNL     1      -7.511   6.056  66.025  1.00  0.00    -0.085 C  
HETATM   19  C   UNL     1      -7.561   6.581  64.569  1.00  0.00    -0.101 C  
HETATM   20  C   UNL     1      -7.791   4.547  65.901  1.00  0.00    -0.095 C  
ENDBRANCH   4  18
ENDBRANCH   2   4
TORSDOF 7
ENDMDL
MODEL      268
REMARK 921   NORMALIZED FREE ENERGY PREDICTED BY IDOCK:   -2.57 KCAL/MOL
REMARK 922        TOTAL FREE ENERGY PREDICTED BY IDOCK:   -4.63 KCAL/MOL
REMARK 923 INTER-LIGAND FREE ENERGY PREDICTED BY IDOCK:   -3.93 KCAL/MOL
REMARK 924 INTRA-LIGAND FREE ENERGY PREDICTED BY IDOCK:   -0.70 KCAL/MOL
REMARK 927      BINDING AFFINITY PREDICTED BY RF-SCORE:    0.00 PKD
ROOT
HETATM    1  C   UNL     1      -9.476  15.566  68.077  1.00  0.00    -0.194 C  
HETATM    2  C   UNL     1     -10.266  14.389  68.698  1.00  0.00    -0.245 C  
HETATM    3  C   UNL     1     -11.383  15.042  69.530  1.00  0.00    -0.308 C  
ENDROOT
BRANCH   2   4
HETATM    4  N   UNL     1     -10.701  13.401  67.655  1.00  0.00    -0.245 NA 
BRANCH   4   5
HETATM    5  C   UNL     1     -11.792  12.518  68.187  1.00  0.00    -0.317 C  
BRANCH   5   6
HETATM    6  C   UNL     1     -11.593  10.994  67.990  1.00  0.00    -0.249 C  
BRANCH   6   7
HETATM    7  N   UNL     1     -10.204  10.565  68.038  1.00  0.00    -0.160 N  
HETATM    8  C   UNL     1      -9.562  10.095  66.913  1.00  0.00    -0.177 C  
HETATM    9  H   UNL     1      -9.695  10.613  68.921  1.00  0.00     0.000 HD 
HETATM   10  O   UNL     1     -10.147   9.956  65.839  1.00  0.00    -0.271 OA 
BRANCH   8  11
HETATM   11  C   UNL     1      -8.084   9.723  67.093  1.00  0.00    -0.116 C  
BRANCH  11  12
HETATM   12  N   UNL     1      -7.876   9.078  68.376  1.00  0.00    -0.102 N  
HETATM   13  C   UNL     1      -6.985   9.594  69.388  1.00  0.00    -0.056 C  
HETATM   14  C   UNL     1      -6.517   8.335  70.091  1.00  0.00    -0.035 C  
HETATM   15  C   UNL     1      -7.727   7.409  70.003  1.00  0.00    -0.095 C  
HETATM   16  C   UNL     1      -8.343   7.812  68.687  1.00  0.00    -0.129 C  
HETATM   17  O   UNL     1      -9.126   7.149  68.027  1.00  0.00    -0.133 OA 
ENDBRANCH  11  12
ENDBRANCH   8  11
ENDBRANCH   6   7
ENDBRANCH   5   6
ENDBRANCH   4   5
BRANCH   4  18
HETATM   18  C   UNL     1     -11.043  13.943  66.302  1.00  0.00    -0.304 C  
HETATM   19  C   UNL     1     -12.552  13.806  65.984  1.00  0.00    -0.458 C  
HETATM   20  C   UNL     1     -10.335  13.277  65.107  1.00  0.00    -0.336 C  
ENDBRANCH   4  18
ENDBRANCH   2   4
TORSDOF 7
ENDMDL
MODEL      269
REMARK 921   NORMALIZED FREE ENERGY PREDICTED BY IDOCK:   -2.56 KCAL/MOL
REMARK 922        TOTAL FREE ENERGY PREDICTED BY IDOCK:   -4.62 KCAL/MOL
REMARK 923 INTER-LIGAND FREE ENERGY PREDICTED BY IDOCK:   -4.59 KCAL/MOL
REMARK 924 INTRA-LIGAND FREE ENERGY PREDICTED BY IDOCK:   -0.03 KCAL/MOL
REMARK 927      BINDING AFFINITY PREDICTED BY RF-SCORE:    0.00 PKD
ROOT
HETATM    1  C   UNL     1     -11.508  11.982  66.077  1.00  0.00    -0.399 C  
HETATM    2  C   UNL     1     -10.501  11.206  65.194  1.00  0.00    -0.277 C  
HETATM    3  C   UNL     1     -10.294  12.081  63.946  1.00  0.00    -0.433 C  
ENDROOT
BRANCH   2   4
HETATM    4  N   UNL     1      -9.265  10.832  65.961  1.00  0.00    -0.180 NA 
BRANCH   4   5
HETATM    5  C   UNL     1      -9.614   9.949  67.124  1.00  0.00    -0.162 C  
BRANCH   5   6
HETATM    6  C   UNL     1      -9.859  10.668  68.476  1.00  0.00    -0.168 C  
BRANCH   6   7
HETATM    7  N   UNL     1      -9.909   9.775  69.623  1.00  0.00    -0.207 N  
HETATM    8  C   UNL     1     -10.862   9.928  70.605  1.00  0.00    -0.330 C  
HETATM    9  H   UNL     1      -9.226   9.021  69.701  1.00  0.00     0.000 HD 
HETATM   10  O   UNL     1     -11.668  10.858  70.592  1.00  0.00    -0.331 OA 
BRANCH   8  11
HETATM   11  C   UNL     1     -10.832   8.887  71.733  1.00  0.00    -0.365 C  
BRANCH  11  12
HETATM   12  N   UNL     1     -10.368   7.607  71.231  1.00  0.00    -0.199 N  
HETATM   13  C   UNL     1      -8.993   7.174  71.315  1.00  0.00    -0.147 C  
HETATM   14  C   UNL     1      -8.850   6.290  70.091  1.00  0.00    -0.149 C  
HETATM   15  C   UNL     1     -10.235   5.667  69.939  1.00  0.00    -0.320 C  
HETATM   16  C   UNL     1     -11.137   6.763  70.448  1.00  0.00    -0.308 C  
HETATM   17  O   UNL     1     -12.331   6.872  70.225  1.00  0.00    -0.189 OA 
ENDBRANCH  11  12
ENDBRANCH   8  11
ENDBRANCH   6   7
ENDBRANCH   5   6
ENDBRANCH   4   5
BRANCH   4  18
HETATM   18  C   UNL     1      -8.116  10.279  65.176  1.00  0.00    -0.151 C  
HETATM   19  C   UNL     1      -8.541   9.089  64.282  1.00  0.00    -0.171 C  
HETATM   20  C   UNL     1      -6.931   9.740  65.999  1.00  0.00    -0.099 C  
ENDBRANCH   4  18
ENDBRANCH   2   4
TORSDOF 7
ENDMDL
MODEL      270
REMARK 921   NORMALIZED FREE ENERGY PREDICTED BY IDOCK:   -2.53 KCAL/MOL
REMARK 922        TOTAL FREE ENERGY PREDICTED BY IDOCK:   -4.58 KCAL/MOL
REMARK 923 INTER-LIGAND FREE ENERGY PREDICTED BY IDOCK:   -3.83 KCAL/MOL
REMARK 924 INTRA-LIGAND FREE ENERGY PREDICTED BY IDOCK:   -0.75 KCAL/MOL
REMARK 927      BINDING AFFINITY PREDICTED BY RF-SCORE:    0.00 PKD
ROOT
HETATM    1  C   UNL     1     -11.852  14.442  70.771  1.00  0.00    -0.349 C  
HETATM    2  C   UNL     1     -11.670  14.408  69.234  1.00  0.00    -0.317 C  
HETATM    3  C   UNL     1     -11.856  15.863  68.770  1.00  0.00    -0.277 C  
ENDROOT
BRANCH   2   4
HETATM    4  N   UNL     1     -10.384  13.741  68.842  1.00  0.00    -0.186 NA 
BRANCH   4   5
HETATM    5  C   UNL     1     -10.654  12.528  67.999  1.00  0.00    -0.223 C  
BRANCH   5   6
HETATM    6  C   UNL     1     -11.706  11.534  68.553  1.00  0.00    -0.313 C  
BRANCH   6   7
HETATM    7  N   UNL     1     -11.146  10.472  69.374  1.00  0.00    -0.240 N  
HETATM    8  C   UNL     1     -10.603   9.341  68.806  1.00  0.00    -0.193 C  
HETATM    9  H   UNL     1     -11.156  10.567  70.390  1.00  0.00     0.000 HD 
HETATM   10  O   UNL     1     -10.624   9.148  67.591  1.00  0.00    -0.258 OA 
BRANCH   8  11
HETATM   11  C   UNL     1     -10.004   8.323  69.786  1.00  0.00    -0.191 C  
BRANCH  11  12
HETATM   12  N   UNL     1      -8.589   8.137  69.523  1.00  0.00    -0.133 N  
HETATM   13  C   UNL     1      -8.060   7.011  68.791  1.00  0.00    -0.121 C  
HETATM   14  C   UNL     1      -6.688   6.829  69.410  1.00  0.00    -0.050 C  
HETATM   15  C   UNL     1      -6.269   8.251  69.772  1.00  0.00    -0.032 C  
HETATM   16  C   UNL     1      -7.590   8.897  70.108  1.00  0.00    -0.074 C  
HETATM   17  O   UNL     1      -7.746   9.915  70.762  1.00  0.00    -0.293 OA 
ENDBRANCH  11  12
ENDBRANCH   8  11
ENDBRANCH   6   7
ENDBRANCH   5   6
ENDBRANCH   4   5
BRANCH   4  18
HETATM   18  C   UNL     1      -9.322  14.606  68.237  1.00  0.00    -0.199 C  
HETATM   19  C   UNL     1      -8.638  13.926  67.026  1.00  0.00    -0.190 C  
HETATM   20  C   UNL     1      -8.159  15.000  69.167  1.00  0.00    -0.192 C  
ENDBRANCH   4  18
ENDBRANCH   2   4
TORSDOF 7
ENDMDL
MODEL      271
REMARK 921   NORMALIZED FREE ENERGY PREDICTED BY IDOCK:   -2.52 KCAL/MOL
REMARK 922        TOTAL FREE ENERGY PREDICTED BY IDOCK:   -4.56 KCAL/MOL
REMARK 923 INTER-LIGAND FREE ENERGY PREDICTED BY IDOCK:   -4.07 KCAL/MOL
REMARK 924 INTRA-LIGAND FREE ENERGY PREDICTED BY IDOCK:   -0.49 KCAL/MOL
REMARK 927      BINDING AFFINITY PREDICTED BY RF-SCORE:    0.00 PKD
ROOT
HETATM    1  C   UNL     1      -6.748   9.578  66.621  1.00  0.00    -0.072 C  
HETATM    2  C   UNL     1      -7.747   8.611  65.941  1.00  0.00    -0.101 C  
HETATM    3  C   UNL     1      -7.006   8.056  64.714  1.00  0.00    -0.070 C  
ENDROOT
BRANCH   2   4
HETATM    4  N   UNL     1      -8.287   7.599  66.911  1.00  0.00    -0.122 NA 
BRANCH   4   5
HETATM    5  C   UNL     1      -9.756   7.385  66.686  1.00  0.00    -0.194 C  
BRANCH   5   6
HETATM    6  C   UNL     1     -10.706   8.387  67.390  1.00  0.00    -0.155 C  
BRANCH   6   7
HETATM    7  N   UNL     1     -10.382   9.784  67.147  1.00  0.00    -0.237 N  
HETATM    8  C   UNL     1     -10.909  10.786  67.932  1.00  0.00    -0.264 C  
HETATM    9  H   UNL     1      -9.754  10.026  66.381  1.00  0.00     0.000 HD 
HETATM   10  O   UNL     1     -11.722  10.553  68.827  1.00  0.00    -0.239 OA 
BRANCH   8  11
HETATM   11  C   UNL     1     -10.447  12.210  67.597  1.00  0.00    -0.206 C  
BRANCH  11  12
HETATM   12  N   UNL     1     -11.005  12.640  66.329  1.00  0.00    -0.275 N  
HETATM   13  C   UNL     1     -12.199  13.445  66.221  1.00  0.00    -0.398 C  
HETATM   14  C   UNL     1     -12.783  12.994  64.897  1.00  0.00    -0.456 C  
HETATM   15  C   UNL     1     -11.551  12.664  64.058  1.00  0.00    -0.486 C  
HETATM   16  C   UNL     1     -10.581  12.166  65.100  1.00  0.00    -0.286 C  
HETATM   17  O   UNL     1      -9.591  11.484  64.891  1.00  0.00    -0.233 OA 
ENDBRANCH  11  12
ENDBRANCH   8  11
ENDBRANCH   6   7
ENDBRANCH   5   6
ENDBRANCH   4   5
BRANCH   4  18
HETATM   18  C   UNL     1      -7.552   6.300  67.021  1.00  0.00    -0.095 C  
HETATM   19  C   UNL     1      -8.498   5.083  66.882  1.00  0.00    -0.106 C  
HETATM   20  C   UNL     1      -6.801   6.057  68.344  1.00  0.00    -0.074 C  
ENDBRANCH   4  18
ENDBRANCH   2   4
TORSDOF 7
ENDMDL
MODEL      272
REMARK 921   NORMALIZED FREE ENERGY PREDICTED BY IDOCK:   -2.51 KCAL/MOL
REMARK 922        TOTAL FREE ENERGY PREDICTED BY IDOCK:   -4.55 KCAL/MOL
REMARK 923 INTER-LIGAND FREE ENERGY PREDICTED BY IDOCK:   -3.83 KCAL/MOL
REMARK 924 INTRA-LIGAND FREE ENERGY PREDICTED BY IDOCK:   -0.72 KCAL/MOL
REMARK 927      BINDING AFFINITY PREDICTED BY RF-SCORE:    0.00 PKD
ROOT
HETATM    1  C   UNL     1     -10.334  17.941  69.651  1.00  0.00     0.405 C  
HETATM    2  C   UNL     1      -9.833  17.588  68.229  1.00  0.00    -0.319 C  
HETATM    3  C   UNL     1      -9.903  18.904  67.435  1.00  0.00    -0.373 C  
ENDROOT
BRANCH   2   4
HETATM    4  N   UNL     1      -8.500  16.899  68.266  1.00  0.00    -0.221 NA 
BRANCH   4   5
HETATM    5  C   UNL     1      -8.639  15.461  67.857  1.00  0.00    -0.155 C  
BRANCH   5   6
HETATM    6  C   UNL     1     -10.025  14.814  68.101  1.00  0.00    -0.221 C  
BRANCH   6   7
HETATM    7  N   UNL     1     -10.071  13.386  67.825  1.00  0.00    -0.227 N  
HETATM    8  C   UNL     1     -11.131  12.825  67.146  1.00  0.00    -0.277 C  
HETATM    9  H   UNL     1      -9.306  12.790  68.139  1.00  0.00     0.000 HD 
HETATM   10  O   UNL     1     -12.109  13.487  66.803  1.00  0.00    -0.389 OA 
BRANCH   8  11
HETATM   11  C   UNL     1     -11.029  11.316  66.880  1.00  0.00    -0.290 C  
BRANCH  11  12
HETATM   12  N   UNL     1      -9.988  11.042  65.906  1.00  0.00    -0.230 N  
HETATM   13  C   UNL     1     -10.249  10.860  64.497  1.00  0.00    -0.356 C  
HETATM   14  C   UNL     1      -9.152   9.902  64.079  1.00  0.00    -0.300 C  
HETATM   15  C   UNL     1      -7.982  10.285  64.981  1.00  0.00    -0.144 C  
HETATM   16  C   UNL     1      -8.683  10.729  66.241  1.00  0.00    -0.169 C  
HETATM   17  O   UNL     1      -8.181  10.814  67.350  1.00  0.00    -0.114 OA 
ENDBRANCH  11  12
ENDBRANCH   8  11
ENDBRANCH   6   7
ENDBRANCH   5   6
ENDBRANCH   4   5
BRANCH   4  18
HETATM   18  C   UNL     1      -7.366  17.567  67.552  1.00  0.00    -0.177 C  
HETATM   19  C   UNL     1      -6.717  16.640  66.496  1.00  0.00    -0.086 C  
HETATM   20  C   UNL     1      -6.191  18.031  68.433  1.00  0.00    -0.190 C  
ENDBRANCH   4  18
ENDBRANCH   2   4
TORSDOF 7
ENDMDL
MODEL      273
REMARK 921   NORMALIZED FREE ENERGY PREDICTED BY IDOCK:   -2.50 KCAL/MOL
REMARK 922        TOTAL FREE ENERGY PREDICTED BY IDOCK:   -4.54 KCAL/MOL
REMARK 923 INTER-LIGAND FREE ENERGY PREDICTED BY IDOCK:   -3.83 KCAL/MOL
REMARK 924 INTRA-LIGAND FREE ENERGY PREDICTED BY IDOCK:   -0.71 KCAL/MOL
REMARK 927      BINDING AFFINITY PREDICTED BY RF-SCORE:    0.00 PKD
ROOT
HETATM    1  C   UNL     1      -7.401  10.227  69.550  1.00  0.00    -0.132 C  
HETATM    2  C   UNL     1      -7.891  10.741  68.175  1.00  0.00    -0.112 C  
HETATM    3  C   UNL     1      -7.238   9.813  67.137  1.00  0.00    -0.087 C  
ENDROOT
BRANCH   2   4
HETATM    4  N   UNL     1      -9.388  10.851  68.125  1.00  0.00    -0.160 NA 
BRANCH   4   5
HETATM    5  C   UNL     1     -10.019   9.881  69.081  1.00  0.00    -0.198 C  
BRANCH   5   6
HETATM    6  C   UNL     1     -10.598   8.587  68.455  1.00  0.00    -0.111 C  
BRANCH   6   7
HETATM    7  N   UNL     1     -10.249   7.371  69.174  1.00  0.00    -0.191 N  
HETATM    8  C   UNL     1     -11.037   6.898  70.200  1.00  0.00    -0.299 C  
HETATM    9  H   UNL     1      -9.405   6.860  68.913  1.00  0.00     0.000 HD 
HETATM   10  O   UNL     1     -12.028   7.509  70.596  1.00  0.00    -0.241 OA 
BRANCH   8  11
HETATM   11  C   UNL     1     -10.579   5.580  70.840  1.00  0.00    -0.239 C  
BRANCH  11  12
HETATM   12  N   UNL     1     -10.155   5.801  72.210  1.00  0.00    -0.181 N  
HETATM   13  C   UNL     1      -8.916   6.454  72.561  1.00  0.00    -0.136 C  
HETATM   14  C   UNL     1      -8.557   5.795  73.878  1.00  0.00    -0.117 C  
HETATM   15  C   UNL     1      -9.914   5.508  74.514  1.00  0.00    -0.271 C  
HETATM   16  C   UNL     1     -10.781   5.240  73.309  1.00  0.00    -0.277 C  
HETATM   17  O   UNL     1     -11.850   4.650  73.311  1.00  0.00    -0.249 OA 
ENDBRANCH  11  12
ENDBRANCH   8  11
ENDBRANCH   6   7
ENDBRANCH   5   6
ENDBRANCH   4   5
BRANCH   4  18
HETATM   18  C   UNL     1      -9.976  12.221  68.263  1.00  0.00    -0.216 C  
HETATM   19  C   UNL     1     -11.446  12.274  67.780  1.00  0.00    -0.392 C  
HETATM   20  C   UNL     1      -9.271  13.343  67.478  1.00  0.00    -0.219 C  
ENDBRANCH   4  18
ENDBRANCH   2   4
TORSDOF 7
ENDMDL
MODEL      274
REMARK 921   NORMALIZED FREE ENERGY PREDICTED BY IDOCK:   -2.48 KCAL/MOL
REMARK 922        TOTAL FREE ENERGY PREDICTED BY IDOCK:   -4.50 KCAL/MOL
REMARK 923 INTER-LIGAND FREE ENERGY PREDICTED BY IDOCK:   -3.99 KCAL/MOL
REMARK 924 INTRA-LIGAND FREE ENERGY PREDICTED BY IDOCK:   -0.51 KCAL/MOL
REMARK 927      BINDING AFFINITY PREDICTED BY RF-SCORE:    0.00 PKD
ROOT
HETATM    1  C   UNL     1      -8.953   4.923  65.447  1.00  0.00    -0.151 C  
HETATM    2  C   UNL     1      -8.046   5.035  66.696  1.00  0.00    -0.108 C  
HETATM    3  C   UNL     1      -6.685   5.519  66.170  1.00  0.00    -0.057 C  
ENDROOT
BRANCH   2   4
HETATM    4  N   UNL     1      -8.683   5.870  67.770  1.00  0.00    -0.105 NA 
BRANCH   4   5
HETATM    5  C   UNL     1      -9.690   6.812  67.177  1.00  0.00    -0.151 C  
BRANCH   5   6
HETATM    6  C   UNL     1      -9.418   8.323  67.391  1.00  0.00    -0.151 C  
BRANCH   6   7
HETATM    7  N   UNL     1     -10.621   9.129  67.528  1.00  0.00    -0.352 N  
HETATM    8  C   UNL     1     -10.764  10.026  68.564  1.00  0.00    -0.231 C  
HETATM    9  H   UNL     1     -11.372   9.029  66.846  1.00  0.00     0.000 HD 
HETATM   10  O   UNL     1      -9.918  10.140  69.450  1.00  0.00    -0.204 OA 
BRANCH   8  11
HETATM   11  C   UNL     1     -12.061  10.847  68.562  1.00  0.00     0.076 C  
BRANCH  11  12
HETATM   12  N   UNL     1     -12.131  11.690  69.742  1.00  0.00    -0.303 N  
HETATM   13  C   UNL     1     -12.585  11.216  71.028  1.00  0.00    -0.403 C  
HETATM   14  C   UNL     1     -13.200  12.460  71.640  1.00  0.00    -0.367 C  
HETATM   15  C   UNL     1     -12.345  13.592  71.079  1.00  0.00    -0.436 C  
HETATM   16  C   UNL     1     -11.968  13.064  69.717  1.00  0.00    -0.308 C  
HETATM   17  O   UNL     1     -11.573  13.729  68.773  1.00  0.00    -0.280 OA 
ENDBRANCH  11  12
ENDBRANCH   8  11
ENDBRANCH   6   7
ENDBRANCH   5   6
ENDBRANCH   4   5
BRANCH   4  18
HETATM   18  C   UNL     1      -9.238   5.147  68.958  1.00  0.00    -0.117 C  
HETATM   19  C   UNL     1      -8.506   5.530  70.267  1.00  0.00    -0.121 C  
HETATM   20  C   UNL     1      -9.163   3.609  68.910  1.00  0.00    -0.223 C  
ENDBRANCH   4  18
ENDBRANCH   2   4
TORSDOF 7
ENDMDL
MODEL      275
REMARK 921   NORMALIZED FREE ENERGY PREDICTED BY IDOCK:   -2.46 KCAL/MOL
REMARK 922        TOTAL FREE ENERGY PREDICTED BY IDOCK:   -4.47 KCAL/MOL
REMARK 923 INTER-LIGAND FREE ENERGY PREDICTED BY IDOCK:   -4.03 KCAL/MOL
REMARK 924 INTRA-LIGAND FREE ENERGY PREDICTED BY IDOCK:   -0.44 KCAL/MOL
REMARK 927      BINDING AFFINITY PREDICTED BY RF-SCORE:    0.00 PKD
ROOT
HETATM    1  C   UNL     1      -9.359  15.533  68.028  1.00  0.00    -0.193 C  
HETATM    2  C   UNL     1     -10.156  14.209  68.125  1.00  0.00    -0.239 C  
HETATM    3  C   UNL     1     -11.327  14.507  69.076  1.00  0.00    -0.296 C  
ENDROOT
BRANCH   2   4
HETATM    4  N   UNL     1     -10.515  13.678  66.768  1.00  0.00    -0.268 NA 
BRANCH   4   5
HETATM    5  C   UNL     1     -11.285  12.395  66.891  1.00  0.00    -0.305 C  
BRANCH   5   6
HETATM    6  C   UNL     1     -10.530  11.105  66.483  1.00  0.00    -0.255 C  
BRANCH   6   7
HETATM    7  N   UNL     1     -10.196  10.234  67.599  1.00  0.00    -0.193 N  
HETATM    8  C   UNL     1      -8.920   9.740  67.762  1.00  0.00    -0.128 C  
HETATM    9  H   UNL     1     -10.919   9.985  68.274  1.00  0.00     0.000 HD 
HETATM   10  O   UNL     1      -8.028   9.957  66.943  1.00  0.00    -0.108 OA 
BRANCH   8  11
HETATM   11  C   UNL     1      -8.694   8.873  69.009  1.00  0.00    -0.136 C  
BRANCH  11  12
HETATM   12  N   UNL     1      -9.813   7.972  69.211  1.00  0.00    -0.175 N  
HETATM   13  C   UNL     1     -10.544   7.882  70.452  1.00  0.00    -0.228 C  
HETATM   14  C   UNL     1     -10.994   6.435  70.467  1.00  0.00    -0.364 C  
HETATM   15  C   UNL     1     -11.211   6.114  68.991  1.00  0.00    -0.375 C  
HETATM   16  C   UNL     1     -10.166   6.972  68.321  1.00  0.00    -0.182 C  
HETATM   17  O   UNL     1      -9.728   6.820  67.192  1.00  0.00    -0.138 OA 
ENDBRANCH  11  12
ENDBRANCH   8  11
ENDBRANCH   6   7
ENDBRANCH   5   6
ENDBRANCH   4   5
BRANCH   4  18
HETATM   18  C   UNL     1     -11.176  14.627  65.816  1.00  0.00    -0.336 C  
HETATM   19  C   UNL     1     -12.638  14.221  65.510  1.00  0.00    -0.429 C  
HETATM   20  C   UNL     1     -10.516  14.766  64.431  1.00  0.00     0.317 C  
ENDBRANCH   4  18
ENDBRANCH   2   4
TORSDOF 7
ENDMDL
MODEL      276
REMARK 921   NORMALIZED FREE ENERGY PREDICTED BY IDOCK:   -2.45 KCAL/MOL
REMARK 922        TOTAL FREE ENERGY PREDICTED BY IDOCK:   -4.46 KCAL/MOL
REMARK 923 INTER-LIGAND FREE ENERGY PREDICTED BY IDOCK:   -3.81 KCAL/MOL
REMARK 924 INTRA-LIGAND FREE ENERGY PREDICTED BY IDOCK:   -0.65 KCAL/MOL
REMARK 927      BINDING AFFINITY PREDICTED BY RF-SCORE:    0.00 PKD
ROOT
HETATM    1  C   UNL     1     -11.106  15.181  65.493  1.00  0.00    -0.347 C  
HETATM    2  C   UNL     1     -11.629  14.308  66.660  1.00  0.00    -0.383 C  
HETATM    3  C   UNL     1     -12.154  13.021  66.002  1.00  0.00    -0.493 C  
ENDROOT
BRANCH   2   4
HETATM    4  N   UNL     1     -10.592  14.136  67.732  1.00  0.00    -0.241 NA 
BRANCH   4   5
HETATM    5  C   UNL     1      -9.237  14.531  67.222  1.00  0.00    -0.207 C  
BRANCH   5   6
HETATM    6  C   UNL     1      -8.027  13.825  67.885  1.00  0.00    -0.157 C  
BRANCH   6   7
HETATM    7  N   UNL     1      -7.975  12.391  67.652  1.00  0.00    -0.151 N  
HETATM    8  C   UNL     1      -6.887  11.804  67.045  1.00  0.00    -0.137 C  
HETATM    9  H   UNL     1      -8.760  11.808  67.943  1.00  0.00     0.000 HD 
HETATM   10  O   UNL     1      -5.943  12.468  66.616  1.00  0.00    -0.095 OA 
BRANCH   8  11
HETATM   11  C   UNL     1      -6.942  10.277  66.905  1.00  0.00    -0.091 C  
BRANCH  11  12
HETATM   12  N   UNL     1      -7.174   9.901  65.522  1.00  0.00    -0.115 N  
HETATM   13  C   UNL     1      -8.116  10.580  64.664  1.00  0.00    -0.064 C  
HETATM   14  C   UNL     1      -8.567   9.475  63.729  1.00  0.00    -0.222 C  
HETATM   15  C   UNL     1      -7.325   8.598  63.591  1.00  0.00    -0.104 C  
HETATM   16  C   UNL     1      -6.677   8.746  64.944  1.00  0.00    -0.069 C  
HETATM   17  O   UNL     1      -5.851   7.991  65.431  1.00  0.00    -0.037 OA 
ENDBRANCH  11  12
ENDBRANCH   8  11
ENDBRANCH   6   7
ENDBRANCH   5   6
ENDBRANCH   4   5
BRANCH   4  18
HETATM   18  C   UNL     1     -10.880  14.753  69.065  1.00  0.00    -0.245 C  
HETATM   19  C   UNL     1     -11.761  13.838  69.951  1.00  0.00    -0.353 C  
HETATM   20  C   UNL     1     -11.626  16.101  69.041  1.00  0.00    -0.298 C  
ENDBRANCH   4  18
ENDBRANCH   2   4
TORSDOF 7
ENDMDL
MODEL      277
REMARK 921   NORMALIZED FREE ENERGY PREDICTED BY IDOCK:   -2.45 KCAL/MOL
REMARK 922        TOTAL FREE ENERGY PREDICTED BY IDOCK:   -4.45 KCAL/MOL
REMARK 923 INTER-LIGAND FREE ENERGY PREDICTED BY IDOCK:   -3.66 KCAL/MOL
REMARK 924 INTRA-LIGAND FREE ENERGY PREDICTED BY IDOCK:   -0.79 KCAL/MOL
REMARK 927      BINDING AFFINITY PREDICTED BY RF-SCORE:    0.00 PKD
ROOT
HETATM    1  C   UNL     1     -10.441   5.401  70.499  1.00  0.00    -0.335 C  
HETATM    2  C   UNL     1      -9.682   6.662  70.980  1.00  0.00    -0.175 C  
HETATM    3  C   UNL     1      -8.191   6.341  70.781  1.00  0.00    -0.125 C  
ENDROOT
BRANCH   2   4
HETATM    4  N   UNL     1     -10.193   7.905  70.312  1.00  0.00    -0.197 NA 
BRANCH   4   5
HETATM    5  C   UNL     1     -11.073   7.554  69.147  1.00  0.00     0.098 C  
BRANCH   5   6
HETATM    6  C   UNL     1     -10.456   7.759  67.741  1.00  0.00    -0.211 C  
BRANCH   6   7
HETATM    7  N   UNL     1     -10.672   6.647  66.829  1.00  0.00    -0.503 N  
HETATM    8  C   UNL     1      -9.784   5.596  66.762  1.00  0.00    -0.154 C  
HETATM    9  H   UNL     1     -11.496   6.645  66.228  1.00  0.00     0.000 HD 
HETATM   10  O   UNL     1      -8.743   5.579  67.417  1.00  0.00    -0.109 OA 
BRANCH   8  11
HETATM   11  C   UNL     1     -10.159   4.466  65.793  1.00  0.00    -0.245 C  
BRANCH  11  12
HETATM   12  N   UNL     1      -8.965   3.835  65.262  1.00  0.00    -0.127 N  
HETATM   13  C   UNL     1      -8.265   4.319  64.095  1.00  0.00    -0.099 C  
HETATM   14  C   UNL     1      -7.678   3.049  63.511  1.00  0.00    -0.068 C  
HETATM   15  C   UNL     1      -7.388   2.193  64.741  1.00  0.00    -0.062 C  
HETATM   16  C   UNL     1      -8.491   2.605  65.684  1.00  0.00    -0.103 C  
HETATM   17  O   UNL     1      -8.879   1.975  66.655  1.00  0.00    -0.120 OA 
ENDBRANCH  11  12
ENDBRANCH   8  11
ENDBRANCH   6   7
ENDBRANCH   5   6
ENDBRANCH   4   5
BRANCH   4  18
HETATM   18  C   UNL     1     -10.828   8.940  71.189  1.00  0.00    -0.281 C  
HETATM   19  C   UNL     1     -11.923   8.336  72.102  1.00  0.00    -0.429 C  
HETATM   20  C   UNL     1     -11.529  10.104  70.464  1.00  0.00    -0.417 C  
ENDBRANCH   4  18
ENDBRANCH   2   4
TORSDOF 7
ENDMDL
MODEL      278
REMARK 921   NORMALIZED FREE ENERGY PREDICTED BY IDOCK:   -2.44 KCAL/MOL
REMARK 922        TOTAL FREE ENERGY PREDICTED BY IDOCK:   -4.45 KCAL/MOL
REMARK 923 INTER-LIGAND FREE ENERGY PREDICTED BY IDOCK:   -3.91 KCAL/MOL
REMARK 924 INTRA-LIGAND FREE ENERGY PREDICTED BY IDOCK:   -0.54 KCAL/MOL
REMARK 927      BINDING AFFINITY PREDICTED BY RF-SCORE:    0.00 PKD
ROOT
HETATM    1  C   UNL     1      -9.369   8.322  73.087  1.00  0.00    -0.281 C  
HETATM    2  C   UNL     1      -8.929   8.575  71.624  1.00  0.00    -0.219 C  
HETATM    3  C   UNL     1      -7.777   7.589  71.369  1.00  0.00    -0.085 C  
ENDROOT
BRANCH   2   4
HETATM    4  N   UNL     1     -10.091   8.506  70.676  1.00  0.00    -0.188 NA 
BRANCH   4   5
HETATM    5  C   UNL     1      -9.815   9.316  69.443  1.00  0.00    -0.174 C  
BRANCH   5   6
HETATM    6  C   UNL     1      -8.662  10.347  69.549  1.00  0.00    -0.084 C  
BRANCH   6   7
HETATM    7  N   UNL     1      -8.937  11.615  68.891  1.00  0.00    -0.385 N  
HETATM    8  C   UNL     1      -8.189  12.037  67.814  1.00  0.00    -0.151 C  
HETATM    9  H   UNL     1      -9.698  12.202  69.234  1.00  0.00     0.000 HD 
HETATM   10  O   UNL     1      -7.222  11.399  67.402  1.00  0.00    -0.100 OA 
BRANCH   8  11
HETATM   11  C   UNL     1      -8.618  13.370  67.185  1.00  0.00    -0.195 C  
BRANCH  11  12
HETATM   12  N   UNL     1      -8.205  14.482  68.021  1.00  0.00    -0.136 N  
HETATM   13  C   UNL     1      -9.077  15.121  68.978  1.00  0.00    -0.218 C  
HETATM   14  C   UNL     1      -8.563  16.547  68.995  1.00  0.00    -0.208 C  
HETATM   15  C   UNL     1      -7.065  16.387  68.746  1.00  0.00    -0.180 C  
HETATM   16  C   UNL     1      -7.017  15.173  67.853  1.00  0.00    -0.151 C  
HETATM   17  O   UNL     1      -6.090  14.851  67.128  1.00  0.00    -0.243 OA 
ENDBRANCH  11  12
ENDBRANCH   8  11
ENDBRANCH   6   7
ENDBRANCH   5   6
ENDBRANCH   4   5
BRANCH   4  18
HETATM   18  C   UNL     1     -10.613   7.144  70.335  1.00  0.00    -0.224 C  
HETATM   19  C   UNL     1     -10.680   6.914  68.805  1.00  0.00    -0.255 C  
HETATM   20  C   UNL     1     -12.031   6.817  70.837  1.00  0.00    -0.437 C  
ENDBRANCH   4  18
ENDBRANCH   2   4
TORSDOF 7
ENDMDL
MODEL      279
REMARK 921   NORMALIZED FREE ENERGY PREDICTED BY IDOCK:   -2.44 KCAL/MOL
REMARK 922        TOTAL FREE ENERGY PREDICTED BY IDOCK:   -4.44 KCAL/MOL
REMARK 923 INTER-LIGAND FREE ENERGY PREDICTED BY IDOCK:   -3.70 KCAL/MOL
REMARK 924 INTRA-LIGAND FREE ENERGY PREDICTED BY IDOCK:   -0.74 KCAL/MOL
REMARK 927      BINDING AFFINITY PREDICTED BY RF-SCORE:    0.00 PKD
ROOT
HETATM    1  C   UNL     1     -12.321  14.064  72.173  1.00  0.00    -0.125 C  
HETATM    2  C   UNL     1     -12.681  14.270  70.681  1.00  0.00    -0.343 C  
HETATM    3  C   UNL     1     -12.977  15.773  70.538  1.00  0.00    -0.090 C  
ENDROOT
BRANCH   2   4
HETATM    4  N   UNL     1     -11.625  13.707  69.774  1.00  0.00    -0.274 NA 
BRANCH   4   5
HETATM    5  C   UNL     1     -12.137  12.489  69.061  1.00  0.00    -0.135 C  
BRANCH   5   6
HETATM    6  C   UNL     1     -12.136  11.172  69.877  1.00  0.00    -0.344 C  
BRANCH   6   7
HETATM    7  N   UNL     1     -10.938  10.366  69.704  1.00  0.00    -0.258 N  
HETATM    8  C   UNL     1     -10.911   9.038  70.070  1.00  0.00    -0.231 C  
HETATM    9  H   UNL     1     -10.102  10.792  69.304  1.00  0.00     0.000 HD 
HETATM   10  O   UNL     1     -11.869   8.493  70.616  1.00  0.00    -0.227 OA 
BRANCH   8  11
HETATM   11  C   UNL     1      -9.599   8.294  69.787  1.00  0.00    -0.171 C  
BRANCH  11  12
HETATM   12  N   UNL     1      -9.255   8.388  68.380  1.00  0.00    -0.136 N  
HETATM   13  C   UNL     1      -9.579   7.364  67.415  1.00  0.00    -0.148 C  
HETATM   14  C   UNL     1      -8.450   7.486  66.412  1.00  0.00    -0.131 C  
HETATM   15  C   UNL     1      -8.121   8.976  66.426  1.00  0.00    -0.110 C  
HETATM   16  C   UNL     1      -8.415   9.355  67.856  1.00  0.00    -0.116 C  
HETATM   17  O   UNL     1      -8.001  10.345  68.436  1.00  0.00    -0.103 OA 
ENDBRANCH  11  12
ENDBRANCH   8  11
ENDBRANCH   6   7
ENDBRANCH   5   6
ENDBRANCH   4   5
BRANCH   4  18
HETATM   18  C   UNL     1     -10.960  14.659  68.828  1.00  0.00    -0.258 C  
HETATM   19  C   UNL     1     -10.759  14.038  67.424  1.00  0.00    -0.285 C  
HETATM   20  C   UNL     1      -9.558  15.149  69.236  1.00  0.00    -0.218 C  
ENDBRANCH   4  18
ENDBRANCH   2   4
TORSDOF 7
ENDMDL
MODEL      280
REMARK 921   NORMALIZED FREE ENERGY PREDICTED BY IDOCK:   -2.43 KCAL/MOL
REMARK 922        TOTAL FREE ENERGY PREDICTED BY IDOCK:   -4.44 KCAL/MOL
REMARK 923 INTER-LIGAND FREE ENERGY PREDICTED BY IDOCK:   -3.48 KCAL/MOL
REMARK 924 INTRA-LIGAND FREE ENERGY PREDICTED BY IDOCK:   -0.96 KCAL/MOL
REMARK 927      BINDING AFFINITY PREDICTED BY RF-SCORE:    0.00 PKD
ROOT
HETATM    1  C   UNL     1      -8.505  11.194  68.522  1.00  0.00    -0.156 C  
HETATM    2  C   UNL     1      -9.720  10.276  68.242  1.00  0.00    -0.142 C  
HETATM    3  C   UNL     1     -10.571  11.030  67.207  1.00  0.00    -0.287 C  
ENDROOT
BRANCH   2   4
HETATM    4  N   UNL     1      -9.291   8.886  67.870  1.00  0.00    -0.141 NA 
BRANCH   4   5
HETATM    5  C   UNL     1     -10.458   8.093  67.357  1.00  0.00    -0.285 C  
BRANCH   5   6
HETATM    6  C   UNL     1     -10.673   6.701  68.003  1.00  0.00    -0.265 C  
BRANCH   6   7
HETATM    7  N   UNL     1      -9.907   6.486  69.221  1.00  0.00    -0.147 N  
HETATM    8  C   UNL     1      -9.536   5.220  69.617  1.00  0.00    -0.141 C  
HETATM    9  H   UNL     1      -9.639   7.288  69.792  1.00  0.00     0.000 HD 
HETATM   10  O   UNL     1      -9.887   4.215  69.000  1.00  0.00    -0.154 OA 
BRANCH   8  11
HETATM   11  C   UNL     1      -8.688   5.141  70.894  1.00  0.00    -0.130 C  
BRANCH  11  12
HETATM   12  N   UNL     1      -9.520   4.805  72.035  1.00  0.00    -0.137 N  
HETATM   13  C   UNL     1      -9.586   3.480  72.605  1.00  0.00    -0.134 C  
HETATM   14  C   UNL     1     -11.001   3.422  73.145  1.00  0.00    -0.213 C  
HETATM   15  C   UNL     1     -11.279   4.862  73.570  1.00  0.00    -0.375 C  
HETATM   16  C   UNL     1     -10.478   5.652  72.565  1.00  0.00    -0.213 C  
HETATM   17  O   UNL     1     -10.636   6.829  72.287  1.00  0.00    -0.206 OA 
ENDBRANCH  11  12
ENDBRANCH   8  11
ENDBRANCH   6   7
ENDBRANCH   5   6
ENDBRANCH   4   5
BRANCH   4  18
HETATM   18  C   UNL     1      -8.100   8.757  66.971  1.00  0.00    -0.099 C  
HETATM   19  C   UNL     1      -8.496   8.314  65.541  1.00  0.00    -0.177 C  
HETATM   20  C   UNL     1      -7.029   7.740  67.407  1.00  0.00    -0.078 C  
ENDBRANCH   4  18
ENDBRANCH   2   4
TORSDOF 7
ENDMDL
MODEL      281
REMARK 921   NORMALIZED FREE ENERGY PREDICTED BY IDOCK:   -2.41 KCAL/MOL
REMARK 922        TOTAL FREE ENERGY PREDICTED BY IDOCK:   -4.41 KCAL/MOL
REMARK 923 INTER-LIGAND FREE ENERGY PREDICTED BY IDOCK:   -3.46 KCAL/MOL
REMARK 924 INTRA-LIGAND FREE ENERGY PREDICTED BY IDOCK:   -0.95 KCAL/MOL
REMARK 927      BINDING AFFINITY PREDICTED BY RF-SCORE:    0.00 PKD
ROOT
HETATM    1  C   UNL     1      -7.556   2.672  66.461  1.00  0.00    -0.071 C  
HETATM    2  C   UNL     1      -7.209   4.019  65.782  1.00  0.00    -0.072 C  
HETATM    3  C   UNL     1      -5.955   3.738  64.937  1.00  0.00    -0.023 C  
ENDROOT
BRANCH   2   4
HETATM    4  N   UNL     1      -8.390   4.594  65.055  1.00  0.00    -0.122 NA 
BRANCH   4   5
HETATM    5  C   UNL     1      -8.481   6.074  65.286  1.00  0.00    -0.131 C  
BRANCH   5   6
HETATM    6  C   UNL     1      -8.286   6.550  66.748  1.00  0.00    -0.110 C  
BRANCH   6   7
HETATM    7  N   UNL     1      -9.527   6.738  67.483  1.00  0.00    -0.126 N  
HETATM    8  C   UNL     1      -9.868   5.914  68.532  1.00  0.00    -0.135 C  
HETATM    9  H   UNL     1     -10.157   7.495  67.215  1.00  0.00     0.000 HD 
HETATM   10  O   UNL     1      -9.177   4.948  68.853  1.00  0.00    -0.107 OA 
BRANCH   8  11
HETATM   11  C   UNL     1     -11.181   6.255  69.250  1.00  0.00    -0.389 C  
BRANCH  11  12
HETATM   12  N   UNL     1     -10.921   7.062  70.428  1.00  0.00    -0.257 N  
HETATM   13  C   UNL     1     -10.975   6.541  71.773  1.00  0.00    -0.247 C  
HETATM   14  C   UNL     1     -11.409   7.750  72.579  1.00  0.00    -0.429 C  
HETATM   15  C   UNL     1     -10.771   8.920  71.834  1.00  0.00    -0.426 C  
HETATM   16  C   UNL     1     -10.796   8.440  70.404  1.00  0.00    -0.235 C  
HETATM   17  O   UNL     1     -10.702   9.141  69.410  1.00  0.00    -0.226 OA 
ENDBRANCH  11  12
ENDBRANCH   8  11
ENDBRANCH   6   7
ENDBRANCH   5   6
ENDBRANCH   4   5
BRANCH   4  18
HETATM   18  C   UNL     1      -8.529   4.254  63.603  1.00  0.00    -0.105 C  
HETATM   19  C   UNL     1      -8.369   5.498  62.696  1.00  0.00    -0.104 C  
HETATM   20  C   UNL     1      -9.875   3.638  63.179  1.00  0.00    -0.147 C  
ENDBRANCH   4  18
ENDBRANCH   2   4
TORSDOF 7
ENDMDL
MODEL      282
REMARK 921   NORMALIZED FREE ENERGY PREDICTED BY IDOCK:   -2.41 KCAL/MOL
REMARK 922        TOTAL FREE ENERGY PREDICTED BY IDOCK:   -4.40 KCAL/MOL
REMARK 923 INTER-LIGAND FREE ENERGY PREDICTED BY IDOCK:   -3.45 KCAL/MOL
REMARK 924 INTRA-LIGAND FREE ENERGY PREDICTED BY IDOCK:   -0.95 KCAL/MOL
REMARK 927      BINDING AFFINITY PREDICTED BY RF-SCORE:    0.00 PKD
ROOT
HETATM    1  C   UNL     1      -6.669  11.662  66.898  1.00  0.00    -0.124 C  
HETATM    2  C   UNL     1      -7.975  11.181  66.220  1.00  0.00    -0.125 C  
HETATM    3  C   UNL     1      -7.648   9.793  65.643  1.00  0.00    -0.109 C  
ENDROOT
BRANCH   2   4
HETATM    4  N   UNL     1      -9.146  11.257  67.156  1.00  0.00    -0.156 NA 
BRANCH   4   5
HETATM    5  C   UNL     1      -8.678  11.348  68.580  1.00  0.00    -0.149 C  
BRANCH   5   6
HETATM    6  C   UNL     1      -8.979  10.120  69.476  1.00  0.00    -0.188 C  
BRANCH   6   7
HETATM    7  N   UNL     1      -9.469   8.959  68.748  1.00  0.00    -0.144 N  
HETATM    8  C   UNL     1      -8.677   7.847  68.563  1.00  0.00    -0.131 C  
HETATM    9  H   UNL     1     -10.415   8.969  68.368  1.00  0.00     0.000 HD 
HETATM   10  O   UNL     1      -7.508   7.808  68.945  1.00  0.00    -0.090 OA 
BRANCH   8  11
HETATM   11  C   UNL     1      -9.335   6.675  67.820  1.00  0.00    -0.119 C  
BRANCH  11  12
HETATM   12  N   UNL     1      -9.676   5.613  68.748  1.00  0.00    -0.130 N  
HETATM   13  C   UNL     1     -10.739   5.719  69.720  1.00  0.00    -0.348 C  
HETATM   14  C   UNL     1     -10.241   4.844  70.852  1.00  0.00    -0.272 C  
HETATM   15  C   UNL     1      -9.457   3.747  70.136  1.00  0.00    -0.259 C  
HETATM   16  C   UNL     1      -8.903   4.480  68.940  1.00  0.00    -0.100 C  
HETATM   17  O   UNL     1      -7.957   4.126  68.255  1.00  0.00    -0.077 OA 
ENDBRANCH  11  12
ENDBRANCH   8  11
ENDBRANCH   6   7
ENDBRANCH   5   6
ENDBRANCH   4   5
BRANCH   4  18
HETATM   18  C   UNL     1     -10.195  12.283  66.856  1.00  0.00    -0.213 C  
HETATM   19  C   UNL     1     -11.469  12.080  67.712  1.00  0.00    -0.394 C  
HETATM   20  C   UNL     1     -10.709  12.321  65.404  1.00  0.00    -0.320 C  
ENDBRANCH   4  18
ENDBRANCH   2   4
TORSDOF 7
ENDMDL
MODEL      283
REMARK 921   NORMALIZED FREE ENERGY PREDICTED BY IDOCK:   -2.37 KCAL/MOL
REMARK 922        TOTAL FREE ENERGY PREDICTED BY IDOCK:   -4.35 KCAL/MOL
REMARK 923 INTER-LIGAND FREE ENERGY PREDICTED BY IDOCK:   -3.57 KCAL/MOL
REMARK 924 INTRA-LIGAND FREE ENERGY PREDICTED BY IDOCK:   -0.78 KCAL/MOL
REMARK 927      BINDING AFFINITY PREDICTED BY RF-SCORE:    0.00 PKD
ROOT
HETATM    1  C   UNL     1      -7.124   8.132  67.279  1.00  0.00    -0.079 C  
HETATM    2  C   UNL     1      -7.323   8.057  68.813  1.00  0.00    -0.085 C  
HETATM    3  C   UNL     1      -7.510   9.513  69.272  1.00  0.00    -0.078 C  
ENDROOT
BRANCH   2   4
HETATM    4  N   UNL     1      -8.413   7.094  69.183  1.00  0.00    -0.132 NA 
BRANCH   4   5
HETATM    5  C   UNL     1      -9.664   7.389  68.407  1.00  0.00    -0.153 C  
BRANCH   5   6
HETATM    6  C   UNL     1     -10.843   7.987  69.215  1.00  0.00    -0.059 C  
BRANCH   6   7
HETATM    7  N   UNL     1     -11.262   9.306  68.768  1.00  0.00    -0.447 N  
HETATM    8  C   UNL     1     -11.431  10.342  69.660  1.00  0.00    -0.262 C  
HETATM    9  H   UNL     1     -11.434   9.467  67.775  1.00  0.00     0.000 HD 
HETATM   10  O   UNL     1     -11.299  10.186  70.873  1.00  0.00    -0.332 OA 
BRANCH   8  11
HETATM   11  C   UNL     1     -11.828  11.693  69.047  1.00  0.00    -0.328 C  
BRANCH  11  12
HETATM   12  N   UNL     1     -10.840  12.119  68.074  1.00  0.00    -0.213 N  
HETATM   13  C   UNL     1      -9.702  12.943  68.407  1.00  0.00    -0.186 C  
HETATM   14  C   UNL     1      -9.466  13.715  67.124  1.00  0.00    -0.244 C  
HETATM   15  C   UNL     1      -9.879  12.730  66.035  1.00  0.00    -0.258 C  
HETATM   16  C   UNL     1     -10.985  11.956  66.707  1.00  0.00    -0.292 C  
HETATM   17  O   UNL     1     -11.842  11.292  66.145  1.00  0.00    -0.094 OA 
ENDBRANCH  11  12
ENDBRANCH   8  11
ENDBRANCH   6   7
ENDBRANCH   5   6
ENDBRANCH   4   5
BRANCH   4  18
HETATM   18  C   UNL     1      -8.076   5.635  69.150  1.00  0.00    -0.096 C  
HETATM   19  C   UNL     1      -9.234   4.784  68.574  1.00  0.00    -0.165 C  
HETATM   20  C   UNL     1      -7.757   4.983  70.508  1.00  0.00    -0.070 C  
ENDBRANCH   4  18
ENDBRANCH   2   4
TORSDOF 7
ENDMDL
MODEL      284
REMARK 921   NORMALIZED FREE ENERGY PREDICTED BY IDOCK:   -2.37 KCAL/MOL
REMARK 922        TOTAL FREE ENERGY PREDICTED BY IDOCK:   -4.35 KCAL/MOL
REMARK 923 INTER-LIGAND FREE ENERGY PREDICTED BY IDOCK:   -3.47 KCAL/MOL
REMARK 924 INTRA-LIGAND FREE ENERGY PREDICTED BY IDOCK:   -0.88 KCAL/MOL
REMARK 927      BINDING AFFINITY PREDICTED BY RF-SCORE:    0.00 PKD
ROOT
HETATM    1  C   UNL     1      -7.696   4.794  67.112  1.00  0.00    -0.091 C  
HETATM    2  C   UNL     1      -7.458   5.391  68.520  1.00  0.00    -0.076 C  
HETATM    3  C   UNL     1      -6.939   6.817  68.276  1.00  0.00    -0.080 C  
ENDROOT
BRANCH   2   4
HETATM    4  N   UNL     1      -8.675   5.261  69.390  1.00  0.00    -0.100 NA 
BRANCH   4   5
HETATM    5  C   UNL     1      -9.921   5.229  68.552  1.00  0.00    -0.163 C  
BRANCH   5   6
HETATM    6  C   UNL     1     -10.921   6.392  68.773  1.00  0.00    -0.334 C  
BRANCH   6   7
HETATM    7  N   UNL     1     -10.313   7.610  69.285  1.00  0.00    -0.214 N  
HETATM    8  C   UNL     1     -10.224   8.745  68.510  1.00  0.00    -0.195 C  
HETATM    9  H   UNL     1      -9.946   7.624  70.237  1.00  0.00     0.000 HD 
HETATM   10  O   UNL     1     -10.592   8.762  67.336  1.00  0.00    -0.279 OA 
BRANCH   8  11
HETATM   11  C   UNL     1      -9.604   9.972  69.191  1.00  0.00    -0.210 C  
BRANCH  11  12
HETATM   12  N   UNL     1     -10.170  11.194  68.650  1.00  0.00    -0.198 N  
HETATM   13  C   UNL     1     -11.508  11.647  68.946  1.00  0.00    -0.287 C  
HETATM   14  C   UNL     1     -11.893  12.392  67.683  1.00  0.00    -0.363 C  
HETATM   15  C   UNL     1     -10.570  12.982  67.202  1.00  0.00    -0.251 C  
HETATM   16  C   UNL     1      -9.575  11.940  67.647  1.00  0.00    -0.185 C  
HETATM   17  O   UNL     1      -8.443  11.796  67.213  1.00  0.00    -0.147 OA 
ENDBRANCH  11  12
ENDBRANCH   8  11
ENDBRANCH   6   7
ENDBRANCH   5   6
ENDBRANCH   4   5
BRANCH   4  18
HETATM   18  C   UNL     1      -8.671   4.167  70.412  1.00  0.00    -0.078 C  
HETATM   19  C   UNL     1      -7.261   3.931  71.006  1.00  0.00    -0.033 C  
HETATM   20  C   UNL     1      -9.119   2.778  69.918  1.00  0.00    -0.190 C  
ENDBRANCH   4  18
ENDBRANCH   2   4
TORSDOF 7
ENDMDL
MODEL      285
REMARK 921   NORMALIZED FREE ENERGY PREDICTED BY IDOCK:   -2.36 KCAL/MOL
REMARK 922        TOTAL FREE ENERGY PREDICTED BY IDOCK:   -4.34 KCAL/MOL
REMARK 923 INTER-LIGAND FREE ENERGY PREDICTED BY IDOCK:   -5.20 KCAL/MOL
REMARK 924 INTRA-LIGAND FREE ENERGY PREDICTED BY IDOCK:    0.86 KCAL/MOL
REMARK 927      BINDING AFFINITY PREDICTED BY RF-SCORE:    0.00 PKD
ROOT
HETATM    1  C   UNL     1      -9.551  14.455  67.785  1.00  0.00    -0.216 C  
HETATM    2  C   UNL     1     -10.706  13.547  68.276  1.00  0.00    -0.258 C  
HETATM    3  C   UNL     1     -11.884  14.498  68.546  1.00  0.00    -0.355 C  
ENDROOT
BRANCH   2   4
HETATM    4  N   UNL     1     -10.965  12.416  67.323  1.00  0.00    -0.249 NA 
BRANCH   4   5
HETATM    5  C   UNL     1     -11.542  11.236  68.050  1.00  0.00    -0.272 C  
BRANCH   5   6
HETATM    6  C   UNL     1     -10.909   9.859  67.726  1.00  0.00    -0.264 C  
BRANCH   6   7
HETATM    7  N   UNL     1     -10.462   9.121  68.896  1.00  0.00    -0.222 N  
HETATM    8  C   UNL     1      -9.348   8.312  68.848  1.00  0.00    -0.147 C  
HETATM    9  H   UNL     1     -10.983   9.203  69.769  1.00  0.00     0.000 HD 
HETATM   10  O   UNL     1      -8.721   8.128  67.805  1.00  0.00    -0.130 OA 
BRANCH   8  11
HETATM   11  C   UNL     1      -8.960   7.629  70.167  1.00  0.00    -0.146 C  
BRANCH  11  12
HETATM   12  N   UNL     1     -10.133   7.425  70.997  1.00  0.00    -0.191 N  
HETATM   13  C   UNL     1     -10.468   8.270  72.119  1.00  0.00    -0.301 C  
HETATM   14  C   UNL     1     -11.187   7.314  73.050  1.00  0.00    -0.309 C  
HETATM   15  C   UNL     1     -11.891   6.352  72.097  1.00  0.00    -0.361 C  
HETATM   16  C   UNL     1     -10.935   6.298  70.932  1.00  0.00    -0.286 C  
HETATM   17  O   UNL     1     -10.891   5.427  70.078  1.00  0.00    -0.293 OA 
ENDBRANCH  11  12
ENDBRANCH   8  11
ENDBRANCH   6   7
ENDBRANCH   5   6
ENDBRANCH   4   5
BRANCH   4  18
HETATM   18  C   UNL     1     -11.742  12.732  66.082  1.00  0.00    -0.403 C  
HETATM   19  C   UNL     1     -10.941  12.411  64.797  1.00  0.00    -0.340 C  
HETATM   20  C   UNL     1     -12.174  14.201  65.911  1.00  0.00    -0.458 C  
ENDBRANCH   4  18
ENDBRANCH   2   4
TORSDOF 7
ENDMDL
MODEL      286
REMARK 921   NORMALIZED FREE ENERGY PREDICTED BY IDOCK:   -2.36 KCAL/MOL
REMARK 922        TOTAL FREE ENERGY PREDICTED BY IDOCK:   -4.34 KCAL/MOL
REMARK 923 INTER-LIGAND FREE ENERGY PREDICTED BY IDOCK:   -3.32 KCAL/MOL
REMARK 924 INTRA-LIGAND FREE ENERGY PREDICTED BY IDOCK:   -1.01 KCAL/MOL
REMARK 927      BINDING AFFINITY PREDICTED BY RF-SCORE:    0.00 PKD
ROOT
HETATM    1  C   UNL     1      -8.995   8.995  65.576  1.00  0.00    -0.252 C  
HETATM    2  C   UNL     1      -9.474   8.333  66.891  1.00  0.00    -0.186 C  
HETATM    3  C   UNL     1     -10.580   7.350  66.473  1.00  0.00     0.088 C  
ENDROOT
BRANCH   2   4
HETATM    4  N   UNL     1      -8.327   7.758  67.671  1.00  0.00    -0.121 NA 
BRANCH   4   5
HETATM    5  C   UNL     1      -8.156   8.488  68.972  1.00  0.00    -0.115 C  
BRANCH   5   6
HETATM    6  C   UNL     1      -9.189   9.604  69.268  1.00  0.00    -0.183 C  
BRANCH   6   7
HETATM    7  N   UNL     1      -9.864   9.465  70.549  1.00  0.00    -0.253 N  
HETATM    8  C   UNL     1     -10.934   8.612  70.703  1.00  0.00    -0.240 C  
HETATM    9  H   UNL     1      -9.538  10.009  71.348  1.00  0.00     0.000 HD 
HETATM   10  O   UNL     1     -11.407   7.982  69.757  1.00  0.00    -0.062 OA 
BRANCH   8  11
HETATM   11  C   UNL     1     -11.521   8.525  72.118  1.00  0.00    -0.376 C  
BRANCH  11  12
HETATM   12  N   UNL     1     -10.817   7.526  72.900  1.00  0.00    -0.341 N  
HETATM   13  C   UNL     1      -9.591   7.796  73.613  1.00  0.00    -0.217 C  
HETATM   14  C   UNL     1      -8.886   6.455  73.580  1.00  0.00    -0.131 C  
HETATM   15  C   UNL     1     -10.033   5.449  73.625  1.00  0.00    -0.189 C  
HETATM   16  C   UNL     1     -11.125   6.176  72.882  1.00  0.00    -0.247 C  
HETATM   17  O   UNL     1     -12.111   5.666  72.374  1.00  0.00    -0.204 OA 
ENDBRANCH  11  12
ENDBRANCH   8  11
ENDBRANCH   6   7
ENDBRANCH   5   6
ENDBRANCH   4   5
BRANCH   4  18
HETATM   18  C   UNL     1      -8.312   6.273  67.867  1.00  0.00    -0.118 C  
HETATM   19  C   UNL     1      -7.957   5.882  69.322  1.00  0.00    -0.099 C  
HETATM   20  C   UNL     1      -7.310   5.487  67.001  1.00  0.00    -0.080 C  
ENDBRANCH   4  18
ENDBRANCH   2   4
TORSDOF 7
ENDMDL
MODEL      287
REMARK 921   NORMALIZED FREE ENERGY PREDICTED BY IDOCK:   -2.33 KCAL/MOL
REMARK 922        TOTAL FREE ENERGY PREDICTED BY IDOCK:   -4.29 KCAL/MOL
REMARK 923 INTER-LIGAND FREE ENERGY PREDICTED BY IDOCK:   -3.89 KCAL/MOL
REMARK 924 INTRA-LIGAND FREE ENERGY PREDICTED BY IDOCK:   -0.40 KCAL/MOL
REMARK 927      BINDING AFFINITY PREDICTED BY RF-SCORE:    0.00 PKD
ROOT
HETATM    1  C   UNL     1      -6.527  12.066  67.121  1.00  0.00    -0.142 C  
HETATM    2  C   UNL     1      -8.016  11.657  67.006  1.00  0.00    -0.164 C  
HETATM    3  C   UNL     1      -8.011  10.302  66.279  1.00  0.00    -0.124 C  
ENDROOT
BRANCH   2   4
HETATM    4  N   UNL     1      -8.707  11.698  68.338  1.00  0.00    -0.162 NA 
BRANCH   4   5
HETATM    5  C   UNL     1      -9.341  13.041  68.562  1.00  0.00    -0.078 C  
BRANCH   5   6
HETATM    6  C   UNL     1      -9.152  14.081  67.428  1.00  0.00    -0.209 C  
BRANCH   6   7
HETATM    7  N   UNL     1      -9.438  15.451  67.826  1.00  0.00    -0.204 N  
HETATM    8  C   UNL     1      -8.460  16.255  68.368  1.00  0.00    -0.195 C  
HETATM    9  H   UNL     1     -10.380  15.822  67.701  1.00  0.00     0.000 HD 
HETATM   10  O   UNL     1      -7.326  15.838  68.599  1.00  0.00    -0.126 OA 
BRANCH   8  11
HETATM   11  C   UNL     1      -8.885  17.693  68.697  1.00  0.00    -0.259 C  
BRANCH  11  12
HETATM   12  N   UNL     1      -8.139  18.641  67.890  1.00  0.00    -0.259 N  
HETATM   13  C   UNL     1      -8.487  18.969  66.528  1.00  0.00    -0.314 C  
HETATM   14  C   UNL     1      -7.142  19.297  65.912  1.00  0.00    -0.304 C  
HETATM   15  C   UNL     1      -6.362  19.914  67.069  1.00  0.00    -0.205 C  
HETATM   16  C   UNL     1      -6.915  19.171  68.260  1.00  0.00    -0.261 C  
HETATM   17  O   UNL     1      -6.386  19.074  69.355  1.00  0.00    -0.266 OA 
ENDBRANCH  11  12
ENDBRANCH   8  11
ENDBRANCH   6   7
ENDBRANCH   5   6
ENDBRANCH   4   5
BRANCH   4  18
HETATM   18  C   UNL     1      -9.656  10.583  68.650  1.00  0.00    -0.171 C  
HETATM   19  C   UNL     1     -10.888  11.073  69.449  1.00  0.00    -0.278 C  
HETATM   20  C   UNL     1      -9.086   9.425  69.492  1.00  0.00    -0.169 C  
ENDBRANCH   4  18
ENDBRANCH   2   4
TORSDOF 7
ENDMDL
MODEL      288
REMARK 921   NORMALIZED FREE ENERGY PREDICTED BY IDOCK:   -2.33 KCAL/MOL
REMARK 922        TOTAL FREE ENERGY PREDICTED BY IDOCK:   -4.29 KCAL/MOL
REMARK 923 INTER-LIGAND FREE ENERGY PREDICTED BY IDOCK:   -3.70 KCAL/MOL
REMARK 924 INTRA-LIGAND FREE ENERGY PREDICTED BY IDOCK:   -0.59 KCAL/MOL
REMARK 927      BINDING AFFINITY PREDICTED BY RF-SCORE:    0.00 PKD
ROOT
HETATM    1  C   UNL     1      -9.422  14.453  68.480  1.00  0.00    -0.212 C  
HETATM    2  C   UNL     1     -10.501  13.474  67.957  1.00  0.00    -0.242 C  
HETATM    3  C   UNL     1     -11.832  14.236  68.069  1.00  0.00    -0.379 C  
ENDROOT
BRANCH   2   4
HETATM    4  N   UNL     1     -10.151  12.935  66.600  1.00  0.00    -0.241 NA 
BRANCH   4   5
HETATM    5  C   UNL     1      -9.468  11.604  66.721  1.00  0.00    -0.186 C  
BRANCH   5   6
HETATM    6  C   UNL     1      -7.925  11.614  66.580  1.00  0.00    -0.098 C  
BRANCH   6   7
HETATM    7  N   UNL     1      -7.234  10.786  67.557  1.00  0.00    -0.088 N  
HETATM    8  C   UNL     1      -7.014   9.446  67.328  1.00  0.00    -0.085 C  
HETATM    9  H   UNL     1      -6.906  11.206  68.427  1.00  0.00     0.000 HD 
HETATM   10  O   UNL     1      -7.444   8.876  66.326  1.00  0.00    -0.089 OA 
BRANCH   8  11
HETATM   11  C   UNL     1      -6.231   8.702  68.419  1.00  0.00    -0.054 C  
BRANCH  11  12
HETATM   12  N   UNL     1      -7.119   8.286  69.488  1.00  0.00    -0.053 N  
HETATM   13  C   UNL     1      -7.860   7.047  69.468  1.00  0.00    -0.119 C  
HETATM   14  C   UNL     1      -9.104   7.392  70.262  1.00  0.00    -0.151 C  
HETATM   15  C   UNL     1      -8.601   8.402  71.289  1.00  0.00    -0.198 C  
HETATM   16  C   UNL     1      -7.505   9.110  70.532  1.00  0.00    -0.116 C  
HETATM   17  O   UNL     1      -7.033  10.202  70.805  1.00  0.00    -0.329 OA 
ENDBRANCH  11  12
ENDBRANCH   8  11
ENDBRANCH   6   7
ENDBRANCH   5   6
ENDBRANCH   4   5
BRANCH   4  18
HETATM   18  C   UNL     1     -11.243  12.903  65.576  1.00  0.00    -0.288 C  
HETATM   19  C   UNL     1     -10.982  11.840  64.481  1.00  0.00    -0.382 C  
HETATM   20  C   UNL     1     -11.478  14.210  64.796  1.00  0.00    -0.384 C  
ENDBRANCH   4  18
ENDBRANCH   2   4
TORSDOF 7
ENDMDL
MODEL      289
REMARK 921   NORMALIZED FREE ENERGY PREDICTED BY IDOCK:   -2.31 KCAL/MOL
REMARK 922        TOTAL FREE ENERGY PREDICTED BY IDOCK:   -4.26 KCAL/MOL
REMARK 923 INTER-LIGAND FREE ENERGY PREDICTED BY IDOCK:   -3.56 KCAL/MOL
REMARK 924 INTRA-LIGAND FREE ENERGY PREDICTED BY IDOCK:   -0.71 KCAL/MOL
REMARK 927      BINDING AFFINITY PREDICTED BY RF-SCORE:    0.00 PKD
ROOT
HETATM    1  C   UNL     1     -10.347   4.038  64.693  1.00  0.00    -0.220 C  
HETATM    2  C   UNL     1      -9.622   4.773  65.846  1.00  0.00    -0.180 C  
HETATM    3  C   UNL     1      -8.985   3.664  66.701  1.00  0.00    -0.149 C  
ENDROOT
BRANCH   2   4
HETATM    4  N   UNL     1      -8.694   5.835  65.329  1.00  0.00    -0.133 NA 
BRANCH   4   5
HETATM    5  C   UNL     1      -8.559   6.948  66.327  1.00  0.00    -0.136 C  
BRANCH   5   6
HETATM    6  C   UNL     1      -9.878   7.633  66.766  1.00  0.00    -0.237 C  
BRANCH   6   7
HETATM    7  N   UNL     1      -9.687   8.824  67.580  1.00  0.00    -0.162 N  
HETATM    8  C   UNL     1     -10.137   8.879  68.881  1.00  0.00    -0.197 C  
HETATM    9  H   UNL     1      -9.211   9.633  67.180  1.00  0.00     0.000 HD 
HETATM   10  O   UNL     1     -10.773   7.957  69.390  1.00  0.00    -0.228 OA 
BRANCH   8  11
HETATM   11  C   UNL     1      -9.826  10.176  69.641  1.00  0.00    -0.225 C  
BRANCH  11  12
HETATM   12  N   UNL     1     -10.371  11.321  68.935  1.00  0.00    -0.205 N  
HETATM   13  C   UNL     1     -11.779  11.489  68.665  1.00  0.00    -0.326 C  
HETATM   14  C   UNL     1     -11.775  12.273  67.368  1.00  0.00    -0.405 C  
HETATM   15  C   UNL     1     -10.525  13.141  67.481  1.00  0.00    -0.229 C  
HETATM   16  C   UNL     1      -9.596  12.260  68.277  1.00  0.00    -0.212 C  
HETATM   17  O   UNL     1      -8.382  12.370  68.343  1.00  0.00    -0.167 OA 
ENDBRANCH  11  12
ENDBRANCH   8  11
ENDBRANCH   6   7
ENDBRANCH   5   6
ENDBRANCH   4   5
BRANCH   4  18
HETATM   18  C   UNL     1      -7.358   5.386  64.822  1.00  0.00    -0.067 C  
HETATM   19  C   UNL     1      -6.195   6.180  65.464  1.00  0.00    -0.037 C  
HETATM   20  C   UNL     1      -7.129   5.524  63.305  1.00  0.00    -0.043 C  
ENDBRANCH   4  18
ENDBRANCH   2   4
TORSDOF 7
ENDMDL
MODEL      290
REMARK 921   NORMALIZED FREE ENERGY PREDICTED BY IDOCK:   -2.29 KCAL/MOL
REMARK 922        TOTAL FREE ENERGY PREDICTED BY IDOCK:   -4.24 KCAL/MOL
REMARK 923 INTER-LIGAND FREE ENERGY PREDICTED BY IDOCK:   -3.50 KCAL/MOL
REMARK 924 INTRA-LIGAND FREE ENERGY PREDICTED BY IDOCK:   -0.74 KCAL/MOL
REMARK 927      BINDING AFFINITY PREDICTED BY RF-SCORE:    0.00 PKD
ROOT
HETATM    1  C   UNL     1      -6.916   5.443  66.668  1.00  0.00    -0.064 C  
HETATM    2  C   UNL     1      -7.194   6.366  67.879  1.00  0.00    -0.087 C  
HETATM    3  C   UNL     1      -6.881   7.790  67.388  1.00  0.00    -0.069 C  
ENDROOT
BRANCH   2   4
HETATM    4  N   UNL     1      -8.567   6.141  68.444  1.00  0.00    -0.113 NA 
BRANCH   4   5
HETATM    5  C   UNL     1      -9.548   5.854  67.344  1.00  0.00    -0.113 C  
BRANCH   5   6
HETATM    6  C   UNL     1     -10.949   6.499  67.496  1.00  0.00    -0.359 C  
BRANCH   6   7
HETATM    7  N   UNL     1     -10.991   7.619  68.423  1.00  0.00    -0.424 N  
HETATM    8  C   UNL     1     -10.648   8.892  68.022  1.00  0.00    -0.168 C  
HETATM    9  H   UNL     1     -11.278   7.459  69.389  1.00  0.00     0.000 HD 
HETATM   10  O   UNL     1     -10.233   9.128  66.888  1.00  0.00    -0.237 OA 
BRANCH   8  11
HETATM   11  C   UNL     1     -10.783   9.987  69.088  1.00  0.00    -0.220 C  
BRANCH  11  12
HETATM   12  N   UNL     1     -10.541   9.442  70.411  1.00  0.00    -0.240 N  
HETATM   13  C   UNL     1      -9.245   9.452  71.048  1.00  0.00    -0.110 C  
HETATM   14  C   UNL     1      -9.291   8.208  71.912  1.00  0.00    -0.251 C  
HETATM   15  C   UNL     1     -10.759   8.111  72.317  1.00  0.00    -0.381 C  
HETATM   16  C   UNL     1     -11.462   8.682  71.111  1.00  0.00    -0.280 C  
HETATM   17  O   UNL     1     -12.635   8.517  70.818  1.00  0.00    -0.032 OA 
ENDBRANCH  11  12
ENDBRANCH   8  11
ENDBRANCH   6   7
ENDBRANCH   5   6
ENDBRANCH   4   5
BRANCH   4  18
HETATM   18  C   UNL     1      -8.691   5.154  69.563  1.00  0.00    -0.099 C  
HETATM   19  C   UNL     1      -7.369   5.002  70.354  1.00  0.00    -0.055 C  
HETATM   20  C   UNL     1      -9.066   3.716  69.159  1.00  0.00    -0.200 C  
ENDBRANCH   4  18
ENDBRANCH   2   4
TORSDOF 7
ENDMDL
MODEL      291
REMARK 921   NORMALIZED FREE ENERGY PREDICTED BY IDOCK:   -2.29 KCAL/MOL
REMARK 922        TOTAL FREE ENERGY PREDICTED BY IDOCK:   -4.24 KCAL/MOL
REMARK 923 INTER-LIGAND FREE ENERGY PREDICTED BY IDOCK:   -3.34 KCAL/MOL
REMARK 924 INTRA-LIGAND FREE ENERGY PREDICTED BY IDOCK:   -0.90 KCAL/MOL
REMARK 927      BINDING AFFINITY PREDICTED BY RF-SCORE:    0.00 PKD
ROOT
HETATM    1  C   UNL     1     -11.640  10.194  70.243  1.00  0.00    -0.379 C  
HETATM    2  C   UNL     1     -10.105   9.999  70.301  1.00  0.00    -0.168 C  
HETATM    3  C   UNL     1      -9.878   8.849  71.296  1.00  0.00    -0.361 C  
ENDROOT
BRANCH   2   4
HETATM    4  N   UNL     1      -9.517   9.823  68.931  1.00  0.00    -0.155 NA 
BRANCH   4   5
HETATM    5  C   UNL     1     -10.590   9.494  67.934  1.00  0.00    -0.244 C  
BRANCH   5   6
HETATM    6  C   UNL     1     -10.751   7.994  67.576  1.00  0.00    -0.168 C  
BRANCH   6   7
HETATM    7  N   UNL     1      -9.590   7.179  67.898  1.00  0.00    -0.132 N  
HETATM    8  C   UNL     1      -9.664   6.168  68.831  1.00  0.00    -0.130 C  
HETATM    9  H   UNL     1      -8.704   7.360  67.425  1.00  0.00     0.000 HD 
HETATM   10  O   UNL     1     -10.689   5.951  69.476  1.00  0.00    -0.277 OA 
BRANCH   8  11
HETATM   11  C   UNL     1      -8.379   5.355  69.039  1.00  0.00    -0.100 C  
BRANCH  11  12
HETATM   12  N   UNL     1      -8.449   4.100  68.314  1.00  0.00    -0.092 N  
HETATM   13  C   UNL     1      -8.211   3.990  66.894  1.00  0.00    -0.100 C  
HETATM   14  C   UNL     1      -9.096   2.824  66.500  1.00  0.00    -0.144 C  
HETATM   15  C   UNL     1      -9.070   1.925  67.733  1.00  0.00    -0.197 C  
HETATM   16  C   UNL     1      -8.943   2.925  68.855  1.00  0.00    -0.130 C  
HETATM   17  O   UNL     1      -9.210   2.726  70.029  1.00  0.00    -0.111 OA 
ENDBRANCH  11  12
ENDBRANCH   8  11
ENDBRANCH   6   7
ENDBRANCH   5   6
ENDBRANCH   4   5
BRANCH   4  18
HETATM   18  C   UNL     1      -8.616  10.910  68.430  1.00  0.00    -0.146 C  
HETATM   19  C   UNL     1      -9.409  12.164  67.987  1.00  0.00    -0.197 C  
HETATM   20  C   UNL     1      -7.741  10.557  67.213  1.00  0.00    -0.106 C  
ENDBRANCH   4  18
ENDBRANCH   2   4
TORSDOF 7
ENDMDL
MODEL      292
REMARK 921   NORMALIZED FREE ENERGY PREDICTED BY IDOCK:   -2.29 KCAL/MOL
REMARK 922        TOTAL FREE ENERGY PREDICTED BY IDOCK:   -4.24 KCAL/MOL
REMARK 923 INTER-LIGAND FREE ENERGY PREDICTED BY IDOCK:   -3.52 KCAL/MOL
REMARK 924 INTRA-LIGAND FREE ENERGY PREDICTED BY IDOCK:   -0.72 KCAL/MOL
REMARK 927      BINDING AFFINITY PREDICTED BY RF-SCORE:    0.00 PKD
ROOT
HETATM    1  C   UNL     1     -10.581   7.800  72.845  1.00  0.00    -0.428 C  
HETATM    2  C   UNL     1     -10.973   7.488  71.380  1.00  0.00    -0.231 C  
HETATM    3  C   UNL     1     -12.507   7.375  71.385  1.00  0.00    -0.402 C  
ENDROOT
BRANCH   2   4
HETATM    4  N   UNL     1     -10.378   8.482  70.425  1.00  0.00    -0.198 NA 
BRANCH   4   5
HETATM    5  C   UNL     1      -9.494   7.790  69.428  1.00  0.00    -0.156 C  
BRANCH   5   6
HETATM    6  C   UNL     1      -9.060   6.347  69.788  1.00  0.00    -0.141 C  
BRANCH   6   7
HETATM    7  N   UNL     1      -9.494   5.340  68.833  1.00  0.00    -0.121 N  
HETATM    8  C   UNL     1      -8.798   4.161  68.673  1.00  0.00    -0.104 C  
HETATM    9  H   UNL     1     -10.328   5.509  68.271  1.00  0.00     0.000 HD 
HETATM   10  O   UNL     1      -7.751   3.935  69.277  1.00  0.00    -0.053 OA 
BRANCH   8  11
HETATM   11  C   UNL     1      -9.394   3.166  67.667  1.00  0.00    -0.200 C  
BRANCH  11  12
HETATM   12  N   UNL     1      -9.285   3.684  66.315  1.00  0.00    -0.161 N  
HETATM   13  C   UNL     1     -10.393   4.269  65.599  1.00  0.00    -0.172 C  
HETATM   14  C   UNL     1     -10.069   3.935  64.157  1.00  0.00    -0.207 C  
HETATM   15  C   UNL     1      -8.543   3.966  64.119  1.00  0.00    -0.098 C  
HETATM   16  C   UNL     1      -8.180   3.492  65.504  1.00  0.00    -0.097 C  
HETATM   17  O   UNL     1      -7.100   3.039  65.848  1.00  0.00    -0.059 OA 
ENDBRANCH  11  12
ENDBRANCH   8  11
ENDBRANCH   6   7
ENDBRANCH   5   6
ENDBRANCH   4   5
BRANCH   4  18
HETATM   18  C   UNL     1     -11.321   9.435  69.757  1.00  0.00    -0.042 C  
HETATM   19  C   UNL     1     -10.873   9.781  68.316  1.00  0.00    -0.256 C  
HETATM   20  C   UNL     1     -11.501  10.801  70.444  1.00  0.00    -0.397 C  
ENDBRANCH   4  18
ENDBRANCH   2   4
TORSDOF 7
ENDMDL
MODEL      293
REMARK 921   NORMALIZED FREE ENERGY PREDICTED BY IDOCK:   -2.27 KCAL/MOL
REMARK 922        TOTAL FREE ENERGY PREDICTED BY IDOCK:   -4.21 KCAL/MOL
REMARK 923 INTER-LIGAND FREE ENERGY PREDICTED BY IDOCK:   -4.04 KCAL/MOL
REMARK 924 INTRA-LIGAND FREE ENERGY PREDICTED BY IDOCK:   -0.17 KCAL/MOL
REMARK 927      BINDING AFFINITY PREDICTED BY RF-SCORE:    0.00 PKD
ROOT
HETATM    1  C   UNL     1     -10.393  14.439  68.338  1.00  0.00    -0.244 C  
HETATM    2  C   UNL     1      -9.608  14.670  67.024  1.00  0.00    -0.240 C  
HETATM    3  C   UNL     1      -8.127  14.705  67.435  1.00  0.00    -0.216 C  
ENDROOT
BRANCH   2   4
HETATM    4  N   UNL     1      -9.986  13.669  65.970  1.00  0.00    -0.303 NA 
BRANCH   4   5
HETATM    5  C   UNL     1     -10.328  12.348  66.595  1.00  0.00    -0.226 C  
BRANCH   5   6
HETATM    6  C   UNL     1      -9.414  11.156  66.213  1.00  0.00    -0.196 C  
BRANCH   6   7
HETATM    7  N   UNL     1      -9.685   9.937  66.959  1.00  0.00    -0.174 N  
HETATM    8  C   UNL     1      -9.007   9.647  68.123  1.00  0.00    -0.123 C  
HETATM    9  H   UNL     1     -10.389   9.285  66.614  1.00  0.00     0.000 HD 
HETATM   10  O   UNL     1      -8.104  10.367  68.548  1.00  0.00    -0.106 OA 
BRANCH   8  11
HETATM   11  C   UNL     1      -9.425   8.353  68.835  1.00  0.00    -0.147 C  
BRANCH  11  12
HETATM   12  N   UNL     1      -8.936   7.195  68.112  1.00  0.00    -0.128 N  
HETATM   13  C   UNL     1      -8.733   7.180  66.682  1.00  0.00    -0.128 C  
HETATM   14  C   UNL     1      -8.992   5.729  66.327  1.00  0.00    -0.149 C  
HETATM   15  C   UNL     1      -8.500   4.969  67.555  1.00  0.00    -0.105 C  
HETATM   16  C   UNL     1      -8.805   5.936  68.672  1.00  0.00    -0.111 C  
HETATM   17  O   UNL     1      -8.899   5.658  69.857  1.00  0.00    -0.126 OA 
ENDBRANCH  11  12
ENDBRANCH   8  11
ENDBRANCH   6   7
ENDBRANCH   5   6
ENDBRANCH   4   5
BRANCH   4  18
HETATM   18  C   UNL     1     -11.018  14.089  64.969  1.00  0.00    -0.375 C  
HETATM   19  C   UNL     1     -11.067  15.626  64.794  1.00  0.00    -0.426 C  
HETATM   20  C   UNL     1     -12.471  13.690  65.289  1.00  0.00    -0.517 C  
ENDBRANCH   4  18
ENDBRANCH   2   4
TORSDOF 7
ENDMDL
MODEL      294
REMARK 921   NORMALIZED FREE ENERGY PREDICTED BY IDOCK:   -2.25 KCAL/MOL
REMARK 922        TOTAL FREE ENERGY PREDICTED BY IDOCK:   -4.18 KCAL/MOL
REMARK 923 INTER-LIGAND FREE ENERGY PREDICTED BY IDOCK:   -3.96 KCAL/MOL
REMARK 924 INTRA-LIGAND FREE ENERGY PREDICTED BY IDOCK:   -0.22 KCAL/MOL
REMARK 927      BINDING AFFINITY PREDICTED BY RF-SCORE:    0.00 PKD
ROOT
HETATM    1  C   UNL     1      -7.980   6.879  69.362  1.00  0.00    -0.115 C  
HETATM    2  C   UNL     1      -7.687   7.549  67.997  1.00  0.00    -0.116 C  
HETATM    3  C   UNL     1      -6.207   7.250  67.706  1.00  0.00    -0.046 C  
ENDROOT
BRANCH   2   4
HETATM    4  N   UNL     1      -8.674   7.125  66.949  1.00  0.00    -0.122 NA 
BRANCH   4   5
HETATM    5  C   UNL     1      -9.361   8.322  66.357  1.00  0.00    -0.213 C  
BRANCH   5   6
HETATM    6  C   UNL     1      -9.156   9.664  67.104  1.00  0.00    -0.134 C  
BRANCH   6   7
HETATM    7  N   UNL     1     -10.300  10.561  67.040  1.00  0.00    -0.226 N  
HETATM    8  C   UNL     1     -10.360  11.699  67.814  1.00  0.00    -0.182 C  
HETATM    9  H   UNL     1     -11.072  10.343  66.410  1.00  0.00     0.000 HD 
HETATM   10  O   UNL     1      -9.487  11.974  68.636  1.00  0.00    -0.163 OA 
BRANCH   8  11
HETATM   11  C   UNL     1     -11.600  12.580  67.611  1.00  0.00    -0.355 C  
BRANCH  11  12
HETATM   12  N   UNL     1     -11.670  13.050  66.240  1.00  0.00    -0.367 N  
HETATM   13  C   UNL     1     -11.801  12.166  65.105  1.00  0.00    -0.298 C  
HETATM   14  C   UNL     1     -11.085  12.929  64.008  1.00  0.00    -0.455 C  
HETATM   15  C   UNL     1     -11.360  14.390  64.353  1.00  0.00    -0.263 C  
HETATM   16  C   UNL     1     -11.420  14.357  65.859  1.00  0.00    -0.341 C  
HETATM   17  O   UNL     1     -11.291  15.314  66.605  1.00  0.00    -0.285 OA 
ENDBRANCH  11  12
ENDBRANCH   8  11
ENDBRANCH   6   7
ENDBRANCH   5   6
ENDBRANCH   4   5
BRANCH   4  18
HETATM   18  C   UNL     1      -8.183   6.192  65.886  1.00  0.00    -0.131 C  
HETATM   19  C   UNL     1      -8.168   6.858  64.489  1.00  0.00    -0.002 C  
HETATM   20  C   UNL     1      -8.999   4.900  65.689  1.00  0.00    -0.146 C  
ENDBRANCH   4  18
ENDBRANCH   2   4
TORSDOF 7
ENDMDL
MODEL      295
REMARK 921   NORMALIZED FREE ENERGY PREDICTED BY IDOCK:   -2.23 KCAL/MOL
REMARK 922        TOTAL FREE ENERGY PREDICTED BY IDOCK:   -4.15 KCAL/MOL
REMARK 923 INTER-LIGAND FREE ENERGY PREDICTED BY IDOCK:   -4.62 KCAL/MOL
REMARK 924 INTRA-LIGAND FREE ENERGY PREDICTED BY IDOCK:    0.47 KCAL/MOL
REMARK 927      BINDING AFFINITY PREDICTED BY RF-SCORE:    0.00 PKD
ROOT
HETATM    1  C   UNL     1     -12.513   9.630  71.322  1.00  0.00    -0.445 C  
HETATM    2  C   UNL     1     -11.249   8.734  71.306  1.00  0.00    -0.284 C  
HETATM    3  C   UNL     1     -10.062   9.707  71.213  1.00  0.00    -0.026 C  
ENDROOT
BRANCH   2   4
HETATM    4  N   UNL     1     -11.237   7.772  72.458  1.00  0.00    -0.335 NA 
BRANCH   4   5
HETATM    5  C   UNL     1     -11.705   6.415  72.016  1.00  0.00    -0.329 C  
BRANCH   5   6
HETATM    6  C   UNL     1     -10.870   5.736  70.901  1.00  0.00    -0.256 C  
BRANCH   6   7
HETATM    7  N   UNL     1     -11.152   6.232  69.563  1.00  0.00    -0.377 N  
HETATM    8  C   UNL     1     -10.383   5.852  68.484  1.00  0.00    -0.214 C  
HETATM    9  H   UNL     1     -11.933   6.872  69.420  1.00  0.00     0.000 HD 
HETATM   10  O   UNL     1      -9.392   5.135  68.611  1.00  0.00    -0.115 OA 
BRANCH   8  11
HETATM   11  C   UNL     1     -10.821   6.410  67.123  1.00  0.00    -0.393 C  
BRANCH  11  12
HETATM   12  N   UNL     1      -9.911   7.452  66.685  1.00  0.00    -0.215 N  
HETATM   13  C   UNL     1      -8.748   7.197  65.868  1.00  0.00    -0.130 C  
HETATM   14  C   UNL     1      -7.788   8.284  66.311  1.00  0.00    -0.098 C  
HETATM   15  C   UNL     1      -8.708   9.453  66.652  1.00  0.00    -0.143 C  
HETATM   16  C   UNL     1      -9.942   8.751  67.161  1.00  0.00    -0.230 C  
HETATM   17  O   UNL     1     -10.816   9.248  67.853  1.00  0.00    -0.216 OA 
ENDBRANCH  11  12
ENDBRANCH   8  11
ENDBRANCH   6   7
ENDBRANCH   5   6
ENDBRANCH   4   5
BRANCH   4  18
HETATM   18  C   UNL     1      -9.977   7.685  73.262  1.00  0.00    -0.320 C  
HETATM   19  C   UNL     1      -8.761   7.277  72.395  1.00  0.00    -0.138 C  
HETATM   20  C   UNL     1      -9.982   6.671  74.421  1.00  0.00    -0.359 C  
ENDBRANCH   4  18
ENDBRANCH   2   4
TORSDOF 7
ENDMDL
MODEL      296
REMARK 921   NORMALIZED FREE ENERGY PREDICTED BY IDOCK:   -2.23 KCAL/MOL
REMARK 922        TOTAL FREE ENERGY PREDICTED BY IDOCK:   -4.15 KCAL/MOL
REMARK 923 INTER-LIGAND FREE ENERGY PREDICTED BY IDOCK:   -3.47 KCAL/MOL
REMARK 924 INTRA-LIGAND FREE ENERGY PREDICTED BY IDOCK:   -0.68 KCAL/MOL
REMARK 927      BINDING AFFINITY PREDICTED BY RF-SCORE:    0.00 PKD
ROOT
HETATM    1  C   UNL     1      -8.630   5.293  64.832  1.00  0.00    -0.145 C  
HETATM    2  C   UNL     1      -7.493   5.815  65.744  1.00  0.00    -0.077 C  
HETATM    3  C   UNL     1      -6.410   6.338  64.786  1.00  0.00    -0.034 C  
ENDROOT
BRANCH   2   4
HETATM    4  N   UNL     1      -8.006   6.787  66.768  1.00  0.00    -0.107 NA 
BRANCH   4   5
HETATM    5  C   UNL     1      -9.254   7.461  66.275  1.00  0.00    -0.135 C  
BRANCH   5   6
HETATM    6  C   UNL     1      -9.099   8.937  65.826  1.00  0.00    -0.221 C  
BRANCH   6   7
HETATM    7  N   UNL     1     -10.071   9.843  66.419  1.00  0.00    -0.240 N  
HETATM    8  C   UNL     1      -9.711  10.723  67.416  1.00  0.00    -0.171 C  
HETATM    9  H   UNL     1     -11.036   9.826  66.090  1.00  0.00     0.000 HD 
HETATM   10  O   UNL     1      -8.577  10.739  67.893  1.00  0.00    -0.122 OA 
BRANCH   8  11
HETATM   11  C   UNL     1     -10.823  11.655  67.917  1.00  0.00    -0.210 C  
BRANCH  11  12
HETATM   12  N   UNL     1     -10.695  12.968  67.313  1.00  0.00    -0.248 N  
HETATM   13  C   UNL     1     -10.459  14.172  68.074  1.00  0.00    -0.240 C  
HETATM   14  C   UNL     1     -11.146  15.233  67.238  1.00  0.00    -0.325 C  
HETATM   15  C   UNL     1     -10.959  14.734  65.807  1.00  0.00    -0.334 C  
HETATM   16  C   UNL     1     -10.983  13.237  65.986  1.00  0.00    -0.279 C  
HETATM   17  O   UNL     1     -11.200  12.413  65.112  1.00  0.00    -0.298 OA 
ENDBRANCH  11  12
ENDBRANCH   8  11
ENDBRANCH   6   7
ENDBRANCH   5   6
ENDBRANCH   4   5
BRANCH   4  18
HETATM   18  C   UNL     1      -8.170   6.281  68.167  1.00  0.00    -0.115 C  
HETATM   19  C   UNL     1      -6.985   6.690  69.076  1.00  0.00    -0.086 C  
HETATM   20  C   UNL     1      -8.269   4.752  68.327  1.00  0.00    -0.088 C  
ENDBRANCH   4  18
ENDBRANCH   2   4
TORSDOF 7
ENDMDL
MODEL      297
REMARK 921   NORMALIZED FREE ENERGY PREDICTED BY IDOCK:   -2.22 KCAL/MOL
REMARK 922        TOTAL FREE ENERGY PREDICTED BY IDOCK:   -4.14 KCAL/MOL
REMARK 923 INTER-LIGAND FREE ENERGY PREDICTED BY IDOCK:   -3.71 KCAL/MOL
REMARK 924 INTRA-LIGAND FREE ENERGY PREDICTED BY IDOCK:   -0.44 KCAL/MOL
REMARK 927      BINDING AFFINITY PREDICTED BY RF-SCORE:    0.00 PKD
ROOT
HETATM    1  C   UNL     1     -12.313  10.628  69.507  1.00  0.00    -0.154 C  
HETATM    2  C   UNL     1     -10.857  10.440  69.999  1.00  0.00    -0.289 C  
HETATM    3  C   UNL     1     -10.969   9.642  71.309  1.00  0.00    -0.399 C  
ENDROOT
BRANCH   2   4
HETATM    4  N   UNL     1      -9.983   9.850  68.930  1.00  0.00    -0.173 NA 
BRANCH   4   5
HETATM    5  C   UNL     1     -10.770   8.908  68.065  1.00  0.00    -0.108 C  
BRANCH   5   6
HETATM    6  C   UNL     1     -10.444   7.402  68.226  1.00  0.00    -0.189 C  
BRANCH   6   7
HETATM    7  N   UNL     1      -9.749   7.073  69.461  1.00  0.00    -0.159 N  
HETATM    8  C   UNL     1      -9.545   5.763  69.838  1.00  0.00    -0.159 C  
HETATM    9  H   UNL     1      -9.407   7.825  70.059  1.00  0.00     0.000 HD 
HETATM   10  O   UNL     1      -9.992   4.820  69.187  1.00  0.00    -0.191 OA 
BRANCH   8  11
HETATM   11  C   UNL     1      -8.755   5.558  71.138  1.00  0.00    -0.130 C  
BRANCH  11  12
HETATM   12  N   UNL     1      -9.658   5.310  72.246  1.00  0.00    -0.151 N  
HETATM   13  C   UNL     1      -9.984   6.305  73.241  1.00  0.00    -0.180 C  
HETATM   14  C   UNL     1     -10.243   5.464  74.476  1.00  0.00    -0.293 C  
HETATM   15  C   UNL     1     -10.840   4.178  73.912  1.00  0.00    -0.321 C  
HETATM   16  C   UNL     1     -10.138   4.056  72.583  1.00  0.00    -0.164 C  
HETATM   17  O   UNL     1     -10.031   3.039  71.918  1.00  0.00    -0.170 OA 
ENDBRANCH  11  12
ENDBRANCH   8  11
ENDBRANCH   6   7
ENDBRANCH   5   6
ENDBRANCH   4   5
BRANCH   4  18
HETATM   18  C   UNL     1      -9.173  10.804  68.108  1.00  0.00    -0.151 C  
HETATM   19  C   UNL     1     -10.027  11.974  67.563  1.00  0.00    -0.199 C  
HETATM   20  C   UNL     1      -8.490  10.211  66.860  1.00  0.00    -0.126 C  
ENDBRANCH   4  18
ENDBRANCH   2   4
TORSDOF 7
ENDMDL
MODEL      298
REMARK 921   NORMALIZED FREE ENERGY PREDICTED BY IDOCK:   -2.22 KCAL/MOL
REMARK 922        TOTAL FREE ENERGY PREDICTED BY IDOCK:   -4.14 KCAL/MOL
REMARK 923 INTER-LIGAND FREE ENERGY PREDICTED BY IDOCK:   -3.12 KCAL/MOL
REMARK 924 INTRA-LIGAND FREE ENERGY PREDICTED BY IDOCK:   -1.02 KCAL/MOL
REMARK 927      BINDING AFFINITY PREDICTED BY RF-SCORE:    0.00 PKD
ROOT
HETATM    1  C   UNL     1      -7.116   8.127  67.286  1.00  0.00    -0.079 C  
HETATM    2  C   UNL     1      -7.221   8.052  68.829  1.00  0.00    -0.083 C  
HETATM    3  C   UNL     1      -7.417   9.505  69.294  1.00  0.00    -0.078 C  
ENDROOT
BRANCH   2   4
HETATM    4  N   UNL     1      -8.263   7.064  69.266  1.00  0.00    -0.124 NA 
BRANCH   4   5
HETATM    5  C   UNL     1      -9.571   7.339  68.582  1.00  0.00    -0.141 C  
BRANCH   5   6
HETATM    6  C   UNL     1     -10.700   7.913  69.475  1.00  0.00    -0.192 C  
BRANCH   6   7
HETATM    7  N   UNL     1     -10.391   7.912  70.896  1.00  0.00    -0.200 N  
HETATM    8  C   UNL     1     -11.272   7.390  71.818  1.00  0.00    -0.246 C  
HETATM    9  H   UNL     1      -9.506   8.306  71.217  1.00  0.00     0.000 HD 
HETATM   10  O   UNL     1     -12.379   6.963  71.492  1.00  0.00    -0.343 OA 
BRANCH   8  11
HETATM   11  C   UNL     1     -10.800   7.408  73.278  1.00  0.00    -0.368 C  
BRANCH  11  12
HETATM   12  N   UNL     1      -9.545   6.694  73.415  1.00  0.00    -0.154 N  
HETATM   13  C   UNL     1      -9.463   5.288  73.733  1.00  0.00    -0.133 C  
HETATM   14  C   UNL     1      -8.155   5.196  74.495  1.00  0.00    -0.101 C  
HETATM   15  C   UNL     1      -7.288   6.269  73.842  1.00  0.00    -0.086 C  
HETATM   16  C   UNL     1      -8.307   7.313  73.457  1.00  0.00    -0.129 C  
HETATM   17  O   UNL     1      -8.076   8.485  73.208  1.00  0.00    -0.369 OA 
ENDBRANCH  11  12
ENDBRANCH   8  11
ENDBRANCH   6   7
ENDBRANCH   5   6
ENDBRANCH   4   5
BRANCH   4  18
HETATM   18  C   UNL     1      -7.900   5.613  69.195  1.00  0.00    -0.089 C  
HETATM   19  C   UNL     1      -9.079   4.742  68.696  1.00  0.00    -0.149 C  
HETATM   20  C   UNL     1      -7.471   4.957  70.521  1.00  0.00    -0.058 C  
ENDBRANCH   4  18
ENDBRANCH   2   4
TORSDOF 7
ENDMDL
MODEL      299
REMARK 921   NORMALIZED FREE ENERGY PREDICTED BY IDOCK:   -2.21 KCAL/MOL
REMARK 922        TOTAL FREE ENERGY PREDICTED BY IDOCK:   -4.13 KCAL/MOL
REMARK 923 INTER-LIGAND FREE ENERGY PREDICTED BY IDOCK:   -3.53 KCAL/MOL
REMARK 924 INTRA-LIGAND FREE ENERGY PREDICTED BY IDOCK:   -0.60 KCAL/MOL
REMARK 927      BINDING AFFINITY PREDICTED BY RF-SCORE:    0.00 PKD
ROOT
HETATM    1  C   UNL     1      -5.472   3.745  64.096  1.00  0.00    -0.013 C  
HETATM    2  C   UNL     1      -6.537   4.832  63.810  1.00  0.00    -0.041 C  
HETATM    3  C   UNL     1      -7.461   4.226  62.740  1.00  0.00    -0.049 C  
ENDROOT
BRANCH   2   4
HETATM    4  N   UNL     1      -7.196   5.307  65.072  1.00  0.00    -0.065 NA 
BRANCH   4   5
HETATM    5  C   UNL     1      -7.063   6.795  65.209  1.00  0.00    -0.067 C  
BRANCH   5   6
HETATM    6  C   UNL     1      -7.326   7.624  63.926  1.00  0.00    -0.092 C  
BRANCH   6   7
HETATM    7  N   UNL     1      -8.541   8.422  63.973  1.00  0.00    -0.397 N  
HETATM    8  C   UNL     1      -8.520   9.772  63.701  1.00  0.00    -0.184 C  
HETATM    9  H   UNL     1      -9.426   7.973  64.211  1.00  0.00     0.000 HD 
HETATM   10  O   UNL     1      -7.472  10.374  63.472  1.00  0.00    -0.126 OA 
BRANCH   8  11
HETATM   11  C   UNL     1      -9.880  10.482  63.738  1.00  0.00    -0.300 C  
BRANCH  11  12
HETATM   12  N   UNL     1     -10.027  11.234  64.971  1.00  0.00    -0.258 N  
HETATM   13  C   UNL     1     -10.112  10.615  66.272  1.00  0.00    -0.235 C  
HETATM   14  C   UNL     1     -10.981  11.587  67.045  1.00  0.00    -0.347 C  
HETATM   15  C   UNL     1     -10.613  12.943  66.450  1.00  0.00    -0.285 C  
HETATM   16  C   UNL     1     -10.302  12.590  65.017  1.00  0.00    -0.299 C  
HETATM   17  O   UNL     1     -10.280  13.365  64.075  1.00  0.00    -0.336 OA 
ENDBRANCH  11  12
ENDBRANCH   8  11
ENDBRANCH   6   7
ENDBRANCH   5   6
ENDBRANCH   4   5
BRANCH   4  18
HETATM   18  C   UNL     1      -8.603   4.855  65.319  1.00  0.00    -0.142 C  
HETATM   19  C   UNL     1      -9.333   5.760  66.341  1.00  0.00    -0.168 C  
HETATM   20  C   UNL     1      -8.768   3.430  65.879  1.00  0.00    -0.124 C  
ENDBRANCH   4  18
ENDBRANCH   2   4
TORSDOF 7
ENDMDL
MODEL      300
REMARK 921   NORMALIZED FREE ENERGY PREDICTED BY IDOCK:   -2.21 KCAL/MOL
REMARK 922        TOTAL FREE ENERGY PREDICTED BY IDOCK:   -4.12 KCAL/MOL
REMARK 923 INTER-LIGAND FREE ENERGY PREDICTED BY IDOCK:   -3.75 KCAL/MOL
REMARK 924 INTRA-LIGAND FREE ENERGY PREDICTED BY IDOCK:   -0.37 KCAL/MOL
REMARK 927      BINDING AFFINITY PREDICTED BY RF-SCORE:    0.00 PKD
ROOT
HETATM    1  C   UNL     1     -12.927  10.659  71.586  1.00  0.00    -0.582 C  
HETATM    2  C   UNL     1     -12.029  10.375  70.357  1.00  0.00    -0.320 C  
HETATM    3  C   UNL     1     -12.104  11.646  69.494  1.00  0.00    -0.336 C  
ENDROOT
BRANCH   2   4
HETATM    4  N   UNL     1     -10.656   9.924  70.766  1.00  0.00    -0.291 NA 
BRANCH   4   5
HETATM    5  C   UNL     1     -10.732   9.030  71.969  1.00  0.00    -0.263 C  
BRANCH   5   6
HETATM    6  C   UNL     1     -11.162   7.565  71.704  1.00  0.00    -0.243 C  
BRANCH   6   7
HETATM    7  N   UNL     1     -10.057   6.620  71.662  1.00  0.00    -0.185 N  
HETATM    8  C   UNL     1     -10.055   5.488  72.448  1.00  0.00    -0.179 C  
HETATM    9  H   UNL     1      -9.269   6.798  71.039  1.00  0.00     0.000 HD 
HETATM   10  O   UNL     1     -10.949   5.259  73.262  1.00  0.00    -0.267 OA 
BRANCH   8  11
HETATM   11  C   UNL     1      -8.852   4.553  72.269  1.00  0.00    -0.121 C  
BRANCH  11  12
HETATM   12  N   UNL     1      -7.670   5.120  72.892  1.00  0.00    -0.096 N  
HETATM   13  C   UNL     1      -7.567   5.375  74.310  1.00  0.00    -0.092 C  
HETATM   14  C   UNL     1      -6.635   6.570  74.363  1.00  0.00    -0.081 C  
HETATM   15  C   UNL     1      -5.705   6.348  73.174  1.00  0.00    -0.038 C  
HETATM   16  C   UNL     1      -6.609   5.657  72.185  1.00  0.00    -0.058 C  
HETATM   17  O   UNL     1      -6.426   5.574  70.981  1.00  0.00    -0.033 OA 
ENDBRANCH  11  12
ENDBRANCH   8  11
ENDBRANCH   6   7
ENDBRANCH   5   6
ENDBRANCH   4   5
BRANCH   4  18
HETATM   18  C   UNL     1      -9.784   9.338  69.699  1.00  0.00    -0.182 C  
HETATM   19  C   UNL     1      -8.907  10.412  69.011  1.00  0.00    -0.176 C  
HETATM   20  C   UNL     1     -10.514   8.635  68.539  1.00  0.00    -0.209 C  
ENDBRANCH   4  18
ENDBRANCH   2   4
TORSDOF 7
ENDMDL
MODEL      301
REMARK 921   NORMALIZED FREE ENERGY PREDICTED BY IDOCK:   -2.21 KCAL/MOL
REMARK 922        TOTAL FREE ENERGY PREDICTED BY IDOCK:   -4.12 KCAL/MOL
REMARK 923 INTER-LIGAND FREE ENERGY PREDICTED BY IDOCK:   -3.29 KCAL/MOL
REMARK 924 INTRA-LIGAND FREE ENERGY PREDICTED BY IDOCK:   -0.83 KCAL/MOL
REMARK 927      BINDING AFFINITY PREDICTED BY RF-SCORE:    0.00 PKD
ROOT
HETATM    1  C   UNL     1      -8.637  11.712  66.566  1.00  0.00    -0.164 C  
HETATM    2  C   UNL     1      -7.599  10.620  66.210  1.00  0.00    -0.137 C  
HETATM    3  C   UNL     1      -6.800  10.381  67.502  1.00  0.00    -0.075 C  
ENDROOT
BRANCH   2   4
HETATM    4  N   UNL     1      -8.250   9.416  65.594  1.00  0.00    -0.117 NA 
BRANCH   4   5
HETATM    5  C   UNL     1      -9.729   9.428  65.849  1.00  0.00    -0.285 C  
BRANCH   5   6
HETATM    6  C   UNL     1     -10.264   8.339  66.814  1.00  0.00    -0.304 C  
BRANCH   6   7
HETATM    7  N   UNL     1      -9.288   7.879  67.790  1.00  0.00    -0.140 N  
HETATM    8  C   UNL     1      -9.567   7.891  69.139  1.00  0.00    -0.153 C  
HETATM    9  H   UNL     1      -8.381   7.541  67.469  1.00  0.00     0.000 HD 
HETATM   10  O   UNL     1     -10.620   8.348  69.582  1.00  0.00    -0.224 OA 
BRANCH   8  11
HETATM   11  C   UNL     1      -8.468   7.333  70.053  1.00  0.00    -0.139 C  
BRANCH  11  12
HETATM   12  N   UNL     1      -8.836   6.018  70.545  1.00  0.00    -0.144 N  
HETATM   13  C   UNL     1      -8.615   4.802  69.797  1.00  0.00    -0.081 C  
HETATM   14  C   UNL     1      -9.755   3.917  70.263  1.00  0.00    -0.245 C  
HETATM   15  C   UNL     1      -9.964   4.341  71.714  1.00  0.00    -0.254 C  
HETATM   16  C   UNL     1      -9.608   5.806  71.673  1.00  0.00    -0.153 C  
HETATM   17  O   UNL     1      -9.929   6.646  72.498  1.00  0.00    -0.169 OA 
ENDBRANCH  11  12
ENDBRANCH   8  11
ENDBRANCH   6   7
ENDBRANCH   5   6
ENDBRANCH   4   5
BRANCH   4  18
HETATM   18  C   UNL     1      -7.942   9.133  64.156  1.00  0.00    -0.140 C  
HETATM   19  C   UNL     1      -8.936   9.837  63.200  1.00  0.00    -0.270 C  
HETATM   20  C   UNL     1      -7.982   7.653  63.733  1.00  0.00    -0.090 C  
ENDBRANCH   4  18
ENDBRANCH   2   4
TORSDOF 7
ENDMDL
MODEL      302
REMARK 921   NORMALIZED FREE ENERGY PREDICTED BY IDOCK:   -2.20 KCAL/MOL
REMARK 922        TOTAL FREE ENERGY PREDICTED BY IDOCK:   -4.11 KCAL/MOL
REMARK 923 INTER-LIGAND FREE ENERGY PREDICTED BY IDOCK:   -3.75 KCAL/MOL
REMARK 924 INTRA-LIGAND FREE ENERGY PREDICTED BY IDOCK:   -0.36 KCAL/MOL
REMARK 927      BINDING AFFINITY PREDICTED BY RF-SCORE:    0.00 PKD
ROOT
HETATM    1  C   UNL     1      -8.306   4.702  69.256  1.00  0.00    -0.084 C  
HETATM    2  C   UNL     1      -7.867   5.414  67.954  1.00  0.00    -0.092 C  
HETATM    3  C   UNL     1      -6.512   4.787  67.583  1.00  0.00    -0.045 C  
ENDROOT
BRANCH   2   4
HETATM    4  N   UNL     1      -8.938   5.359  66.904  1.00  0.00    -0.110 NA 
BRANCH   4   5
HETATM    5  C   UNL     1      -9.378   6.744  66.525  1.00  0.00    -0.161 C  
BRANCH   5   6
HETATM    6  C   UNL     1     -10.781   7.174  67.023  1.00  0.00    -0.350 C  
BRANCH   6   7
HETATM    7  N   UNL     1     -10.784   7.761  68.354  1.00  0.00    -0.402 N  
HETATM    8  C   UNL     1     -10.365   9.056  68.564  1.00  0.00    -0.203 C  
HETATM    9  H   UNL     1     -11.103   7.203  69.147  1.00  0.00     0.000 HD 
HETATM   10  O   UNL     1      -9.911   9.750  67.655  1.00  0.00    -0.159 OA 
BRANCH   8  11
HETATM   11  C   UNL     1     -10.467   9.566  70.008  1.00  0.00    -0.247 C  
BRANCH  11  12
HETATM   12  N   UNL     1     -10.694   8.461  70.922  1.00  0.00    -0.217 N  
HETATM   13  C   UNL     1      -9.665   7.521  71.299  1.00  0.00    -0.164 C  
HETATM   14  C   UNL     1     -10.454   6.251  71.551  1.00  0.00    -0.266 C  
HETATM   15  C   UNL     1     -11.786   6.762  72.093  1.00  0.00    -0.326 C  
HETATM   16  C   UNL     1     -11.946   8.072  71.364  1.00  0.00    -0.298 C  
HETATM   17  O   UNL     1     -12.990   8.686  71.210  1.00  0.00    -0.285 OA 
ENDBRANCH  11  12
ENDBRANCH   8  11
ENDBRANCH   6   7
ENDBRANCH   5   6
ENDBRANCH   4   5
BRANCH   4  18
HETATM   18  C   UNL     1      -8.667   4.518  65.695  1.00  0.00    -0.124 C  
HETATM   19  C   UNL     1      -8.419   5.378  64.432  1.00  0.00    -0.106 C  
HETATM   20  C   UNL     1      -9.786   3.542  65.284  1.00  0.00    -0.111 C  
ENDBRANCH   4  18
ENDBRANCH   2   4
TORSDOF 7
ENDMDL
MODEL      303
REMARK 921   NORMALIZED FREE ENERGY PREDICTED BY IDOCK:   -2.18 KCAL/MOL
REMARK 922        TOTAL FREE ENERGY PREDICTED BY IDOCK:   -4.08 KCAL/MOL
REMARK 923 INTER-LIGAND FREE ENERGY PREDICTED BY IDOCK:   -4.43 KCAL/MOL
REMARK 924 INTRA-LIGAND FREE ENERGY PREDICTED BY IDOCK:    0.34 KCAL/MOL
REMARK 927      BINDING AFFINITY PREDICTED BY RF-SCORE:    0.00 PKD
ROOT
HETATM    1  C   UNL     1     -10.494   6.558  67.962  1.00  0.00    -0.265 C  
HETATM    2  C   UNL     1      -9.207   6.949  68.729  1.00  0.00    -0.131 C  
HETATM    3  C   UNL     1      -8.096   6.067  68.136  1.00  0.00    -0.110 C  
ENDROOT
BRANCH   2   4
HETATM    4  N   UNL     1      -8.973   8.432  68.697  1.00  0.00    -0.140 NA 
BRANCH   4   5
HETATM    5  C   UNL     1      -8.389   8.845  67.377  1.00  0.00    -0.108 C  
BRANCH   5   6
HETATM    6  C   UNL     1      -9.282   8.609  66.132  1.00  0.00    -0.213 C  
BRANCH   6   7
HETATM    7  N   UNL     1     -10.256   9.662  65.892  1.00  0.00    -0.221 N  
HETATM    8  C   UNL     1     -10.033  10.638  64.945  1.00  0.00    -0.318 C  
HETATM    9  H   UNL     1     -11.120   9.680  66.434  1.00  0.00     0.000 HD 
HETATM   10  O   UNL     1      -8.982  10.701  64.309  1.00  0.00    -0.195 OA 
BRANCH   8  11
HETATM   11  C   UNL     1     -11.164  11.660  64.760  1.00  0.00    -0.234 C  
BRANCH  11  12
HETATM   12  N   UNL     1     -11.038  12.737  65.723  1.00  0.00    -0.279 N  
HETATM   13  C   UNL     1     -10.181  13.882  65.524  1.00  0.00    -0.331 C  
HETATM   14  C   UNL     1      -9.786  14.250  66.941  1.00  0.00    -0.264 C  
HETATM   15  C   UNL     1     -11.018  13.877  67.761  1.00  0.00    -0.271 C  
HETATM   16  C   UNL     1     -11.557  12.688  67.005  1.00  0.00    -0.365 C  
HETATM   17  O   UNL     1     -12.327  11.848  67.442  1.00  0.00    -0.297 OA 
ENDBRANCH  11  12
ENDBRANCH   8  11
ENDBRANCH   6   7
ENDBRANCH   5   6
ENDBRANCH   4   5
BRANCH   4  18
HETATM   18  C   UNL     1     -10.118   9.313  69.092  1.00  0.00    -0.199 C  
HETATM   19  C   UNL     1      -9.762  10.815  68.978  1.00  0.00    -0.201 C  
HETATM   20  C   UNL     1     -10.634   9.147  70.533  1.00  0.00    -0.287 C  
ENDBRANCH   4  18
ENDBRANCH   2   4
TORSDOF 7
ENDMDL
MODEL      304
REMARK 921   NORMALIZED FREE ENERGY PREDICTED BY IDOCK:   -2.18 KCAL/MOL
REMARK 922        TOTAL FREE ENERGY PREDICTED BY IDOCK:   -4.08 KCAL/MOL
REMARK 923 INTER-LIGAND FREE ENERGY PREDICTED BY IDOCK:   -4.11 KCAL/MOL
REMARK 924 INTRA-LIGAND FREE ENERGY PREDICTED BY IDOCK:    0.03 KCAL/MOL
REMARK 927      BINDING AFFINITY PREDICTED BY RF-SCORE:    0.00 PKD
ROOT
HETATM    1  C   UNL     1      -6.600  11.503  66.695  1.00  0.00    -0.081 C  
HETATM    2  C   UNL     1      -6.260  11.136  68.161  1.00  0.00    -0.049 C  
HETATM    3  C   UNL     1      -6.385  12.450  68.949  1.00  0.00    -0.085 C  
ENDROOT
BRANCH   2   4
HETATM    4  N   UNL     1      -7.087   9.982  68.649  1.00  0.00    -0.076 NA 
BRANCH   4   5
HETATM    5  C   UNL     1      -8.322  10.476  69.345  1.00  0.00    -0.106 C  
BRANCH   5   6
HETATM    6  C   UNL     1      -9.473  10.961  68.427  1.00  0.00    -0.178 C  
BRANCH   6   7
HETATM    7  N   UNL     1     -10.228  12.083  68.964  1.00  0.00    -0.420 N  
HETATM    8  C   UNL     1     -11.595  12.015  69.120  1.00  0.00    -0.312 C  
HETATM    9  H   UNL     1      -9.736  12.936  69.230  1.00  0.00     0.000 HD 
HETATM   10  O   UNL     1     -12.244  11.035  68.756  1.00  0.00    -0.546 OA 
BRANCH   8  11
HETATM   11  C   UNL     1     -12.258  13.251  69.743  1.00  0.00    -0.222 C  
BRANCH  11  12
HETATM   12  N   UNL     1     -11.466  14.438  69.482  1.00  0.00    -0.274 N  
HETATM   13  C   UNL     1     -10.920  15.273  70.526  1.00  0.00    -0.288 C  
HETATM   14  C   UNL     1     -10.902  16.643  69.879  1.00  0.00    -0.206 C  
HETATM   15  C   UNL     1     -10.635  16.338  68.408  1.00  0.00    -0.301 C  
HETATM   16  C   UNL     1     -11.321  15.007  68.228  1.00  0.00    -0.318 C  
HETATM   17  O   UNL     1     -11.667  14.514  67.167  1.00  0.00    -0.377 OA 
ENDBRANCH  11  12
ENDBRANCH   8  11
ENDBRANCH   6   7
ENDBRANCH   5   6
ENDBRANCH   4   5
BRANCH   4  18
HETATM   18  C   UNL     1      -7.406   8.904  67.660  1.00  0.00    -0.085 C  
HETATM   19  C   UNL     1      -8.299   7.797  68.273  1.00  0.00    -0.125 C  
HETATM   20  C   UNL     1      -6.201   8.146  67.072  1.00  0.00    -0.055 C  
ENDBRANCH   4  18
ENDBRANCH   2   4
TORSDOF 7
ENDMDL
MODEL      305
REMARK 921   NORMALIZED FREE ENERGY PREDICTED BY IDOCK:   -2.17 KCAL/MOL
REMARK 922        TOTAL FREE ENERGY PREDICTED BY IDOCK:   -4.07 KCAL/MOL
REMARK 923 INTER-LIGAND FREE ENERGY PREDICTED BY IDOCK:   -3.44 KCAL/MOL
REMARK 924 INTRA-LIGAND FREE ENERGY PREDICTED BY IDOCK:   -0.63 KCAL/MOL
REMARK 927      BINDING AFFINITY PREDICTED BY RF-SCORE:    0.00 PKD
ROOT
HETATM    1  C   UNL     1      -5.740  17.714  67.249  1.00  0.00    -0.157 C  
HETATM    2  C   UNL     1      -7.053  18.445  66.874  1.00  0.00    -0.200 C  
HETATM    3  C   UNL     1      -6.735  19.216  65.582  1.00  0.00    -0.313 C  
ENDROOT
BRANCH   2   4
HETATM    4  N   UNL     1      -8.218  17.500  66.820  1.00  0.00    -0.231 NA 
BRANCH   4   5
HETATM    5  C   UNL     1      -7.769  16.093  67.093  1.00  0.00    -0.194 C  
BRANCH   5   6
HETATM    6  C   UNL     1      -8.459  15.376  68.280  1.00  0.00    -0.159 C  
BRANCH   6   7
HETATM    7  N   UNL     1      -8.375  13.924  68.227  1.00  0.00    -0.158 N  
HETATM    8  C   UNL     1      -9.494  13.138  68.396  1.00  0.00    -0.166 C  
HETATM    9  H   UNL     1      -7.472  13.481  68.063  1.00  0.00     0.000 HD 
HETATM   10  O   UNL     1     -10.595  13.619  68.661  1.00  0.00    -0.244 OA 
BRANCH   8  11
HETATM   11  C   UNL     1      -9.272  11.625  68.267  1.00  0.00    -0.187 C  
BRANCH  11  12
HETATM   12  N   UNL     1      -8.332  11.338  67.199  1.00  0.00    -0.145 N  
HETATM   13  C   UNL     1      -8.690  11.362  65.801  1.00  0.00    -0.062 C  
HETATM   14  C   UNL     1      -7.758  10.328  65.203  1.00  0.00    -0.136 C  
HETATM   15  C   UNL     1      -6.500  10.444  66.060  1.00  0.00    -0.119 C  
HETATM   16  C   UNL     1      -7.065  10.820  67.407  1.00  0.00    -0.091 C  
HETATM   17  O   UNL     1      -6.498  10.704  68.481  1.00  0.00    -0.054 OA 
ENDBRANCH  11  12
ENDBRANCH   8  11
ENDBRANCH   6   7
ENDBRANCH   5   6
ENDBRANCH   4   5
BRANCH   4  18
HETATM   18  C   UNL     1      -9.426  17.858  67.628  1.00  0.00    -0.260 C  
HETATM   19  C   UNL     1     -10.731  17.755  66.801  1.00  0.00    -0.142 C  
HETATM   20  C   UNL     1      -9.451  19.283  68.212  1.00  0.00    -0.421 C  
ENDBRANCH   4  18
ENDBRANCH   2   4
TORSDOF 7
ENDMDL
MODEL      306
REMARK 921   NORMALIZED FREE ENERGY PREDICTED BY IDOCK:   -2.17 KCAL/MOL
REMARK 922        TOTAL FREE ENERGY PREDICTED BY IDOCK:   -4.06 KCAL/MOL
REMARK 923 INTER-LIGAND FREE ENERGY PREDICTED BY IDOCK:   -3.42 KCAL/MOL
REMARK 924 INTRA-LIGAND FREE ENERGY PREDICTED BY IDOCK:   -0.64 KCAL/MOL
REMARK 927      BINDING AFFINITY PREDICTED BY RF-SCORE:    0.00 PKD
ROOT
HETATM    1  C   UNL     1      -9.230   3.202  65.705  1.00  0.00    -0.138 C  
HETATM    2  C   UNL     1      -9.140   4.236  66.854  1.00  0.00    -0.135 C  
HETATM    3  C   UNL     1      -9.336   3.428  68.147  1.00  0.00    -0.240 C  
ENDROOT
BRANCH   2   4
HETATM    4  N   UNL     1      -7.886   5.058  66.763  1.00  0.00    -0.099 NA 
BRANCH   4   5
HETATM    5  C   UNL     1      -8.014   6.307  67.586  1.00  0.00    -0.113 C  
BRANCH   5   6
HETATM    6  C   UNL     1      -9.322   7.116  67.398  1.00  0.00    -0.127 C  
BRANCH   6   7
HETATM    7  N   UNL     1      -9.339   8.389  68.103  1.00  0.00    -0.134 N  
HETATM    8  C   UNL     1     -10.102   8.567  69.236  1.00  0.00    -0.202 C  
HETATM    9  H   UNL     1      -8.777   9.163  67.751  1.00  0.00     0.000 HD 
HETATM   10  O   UNL     1     -10.848   7.687  69.665  1.00  0.00    -0.242 OA 
BRANCH   8  11
HETATM   11  C   UNL     1      -9.990   9.943  69.907  1.00  0.00    -0.252 C  
BRANCH  11  12
HETATM   12  N   UNL     1     -10.420  10.988  68.997  1.00  0.00    -0.212 N  
HETATM   13  C   UNL     1      -9.505  11.877  68.320  1.00  0.00    -0.197 C  
HETATM   14  C   UNL     1     -10.323  13.144  68.172  1.00  0.00    -0.247 C  
HETATM   15  C   UNL     1     -11.749  12.629  67.999  1.00  0.00    -0.402 C  
HETATM   16  C   UNL     1     -11.739  11.375  68.837  1.00  0.00    -0.343 C  
HETATM   17  O   UNL     1     -12.721  10.798  69.276  1.00  0.00    -0.254 OA 
ENDBRANCH  11  12
ENDBRANCH   8  11
ENDBRANCH   6   7
ENDBRANCH   5   6
ENDBRANCH   4   5
BRANCH   4  18
HETATM   18  C   UNL     1      -6.590   4.356  67.025  1.00  0.00    -0.046 C  
HETATM   19  C   UNL     1      -5.843   4.950  68.244  1.00  0.00    -0.021 C  
HETATM   20  C   UNL     1      -5.556   4.395  65.883  1.00  0.00    -0.017 C  
ENDBRANCH   4  18
ENDBRANCH   2   4
TORSDOF 7
ENDMDL
MODEL      307
REMARK 921   NORMALIZED FREE ENERGY PREDICTED BY IDOCK:   -2.14 KCAL/MOL
REMARK 922        TOTAL FREE ENERGY PREDICTED BY IDOCK:   -4.03 KCAL/MOL
REMARK 923 INTER-LIGAND FREE ENERGY PREDICTED BY IDOCK:   -4.32 KCAL/MOL
REMARK 924 INTRA-LIGAND FREE ENERGY PREDICTED BY IDOCK:    0.29 KCAL/MOL
REMARK 927      BINDING AFFINITY PREDICTED BY RF-SCORE:    0.00 PKD
ROOT
HETATM    1  C   UNL     1     -10.348  19.935  68.332  1.00  0.00    -0.507 C  
HETATM    2  C   UNL     1      -9.440  18.833  67.734  1.00  0.00    -0.301 C  
HETATM    3  C   UNL     1      -8.721  19.496  66.548  1.00  0.00    -0.388 C  
ENDROOT
BRANCH   2   4
HETATM    4  N   UNL     1      -8.565  18.207  68.782  1.00  0.00    -0.257 NA 
BRANCH   4   5
HETATM    5  C   UNL     1      -8.939  16.768  68.990  1.00  0.00    -0.188 C  
BRANCH   5   6
HETATM    6  C   UNL     1     -10.248  16.298  68.306  1.00  0.00    -0.253 C  
BRANCH   6   7
HETATM    7  N   UNL     1     -10.123  15.042  67.583  1.00  0.00    -0.230 N  
HETATM    8  C   UNL     1     -10.302  14.983  66.218  1.00  0.00    -0.296 C  
HETATM    9  H   UNL     1      -9.899  14.189  68.096  1.00  0.00     0.000 HD 
HETATM   10  O   UNL     1     -10.636  15.968  65.562  1.00  0.00    -0.371 OA 
BRANCH   8  11
HETATM   11  C   UNL     1     -10.093  13.604  65.576  1.00  0.00    -0.275 C  
BRANCH  11  12
HETATM   12  N   UNL     1      -9.434  12.706  66.506  1.00  0.00    -0.246 N  
HETATM   13  C   UNL     1     -10.079  11.551  67.085  1.00  0.00    -0.197 C  
HETATM   14  C   UNL     1      -9.395  11.430  68.432  1.00  0.00    -0.194 C  
HETATM   15  C   UNL     1      -7.978  11.926  68.158  1.00  0.00    -0.151 C  
HETATM   16  C   UNL     1      -8.205  12.965  67.089  1.00  0.00    -0.139 C  
HETATM   17  O   UNL     1      -7.434  13.861  66.782  1.00  0.00     0.310 OA 
ENDBRANCH  11  12
ENDBRANCH   8  11
ENDBRANCH   6   7
ENDBRANCH   5   6
ENDBRANCH   4   5
BRANCH   4  18
HETATM   18  C   UNL     1      -7.086  18.374  68.624  1.00  0.00    -0.279 C  
HETATM   19  C   UNL     1      -6.554  17.672  67.350  1.00  0.00    -0.178 C  
HETATM   20  C   UNL     1      -6.216  17.813  69.765  1.00  0.00    -0.174 C  
ENDBRANCH   4  18
ENDBRANCH   2   4
TORSDOF 7
ENDMDL
MODEL      308
REMARK 921   NORMALIZED FREE ENERGY PREDICTED BY IDOCK:   -2.14 KCAL/MOL
REMARK 922        TOTAL FREE ENERGY PREDICTED BY IDOCK:   -4.02 KCAL/MOL
REMARK 923 INTER-LIGAND FREE ENERGY PREDICTED BY IDOCK:   -3.22 KCAL/MOL
REMARK 924 INTRA-LIGAND FREE ENERGY PREDICTED BY IDOCK:   -0.80 KCAL/MOL
REMARK 927      BINDING AFFINITY PREDICTED BY RF-SCORE:    0.00 PKD
ROOT
HETATM    1  C   UNL     1      -9.576   4.582  64.830  1.00  0.00    -0.103 C  
HETATM    2  C   UNL     1      -8.280   5.389  65.087  1.00  0.00    -0.138 C  
HETATM    3  C   UNL     1      -7.888   5.977  63.721  1.00  0.00    -0.112 C  
ENDROOT
BRANCH   2   4
HETATM    4  N   UNL     1      -8.451   6.369  66.212  1.00  0.00    -0.126 NA 
BRANCH   4   5
HETATM    5  C   UNL     1      -9.902   6.514  66.568  1.00  0.00    -0.111 C  
BRANCH   5   6
HETATM    6  C   UNL     1     -10.427   7.965  66.714  1.00  0.00    -0.247 C  
BRANCH   6   7
HETATM    7  N   UNL     1     -10.813   8.324  68.069  1.00  0.00    -0.467 N  
HETATM    8  C   UNL     1      -9.955   9.014  68.897  1.00  0.00    -0.189 C  
HETATM    9  H   UNL     1     -11.736   8.060  68.414  1.00  0.00     0.000 HD 
HETATM   10  O   UNL     1      -8.808   9.301  68.554  1.00  0.00    -0.128 OA 
BRANCH   8  11
HETATM   11  C   UNL     1     -10.507   9.371  70.284  1.00  0.00    -0.251 C  
BRANCH  11  12
HETATM   12  N   UNL     1     -11.162   8.222  70.881  1.00  0.00    -0.262 N  
HETATM   13  C   UNL     1     -12.566   8.196  71.217  1.00  0.00    -0.229 C  
HETATM   14  C   UNL     1     -12.603   7.260  72.409  1.00  0.00     0.058 C  
HETATM   15  C   UNL     1     -11.482   6.266  72.116  1.00  0.00    -0.354 C  
HETATM   16  C   UNL     1     -10.485   7.120  71.373  1.00  0.00    -0.204 C  
HETATM   17  O   UNL     1      -9.300   6.871  71.219  1.00  0.00    -0.164 OA 
ENDBRANCH  11  12
ENDBRANCH   8  11
ENDBRANCH   6   7
ENDBRANCH   5   6
ENDBRANCH   4   5
BRANCH   4  18
HETATM   18  C   UNL     1      -7.603   6.165  67.429  1.00  0.00    -0.090 C  
HETATM   19  C   UNL     1      -6.096   6.097  67.083  1.00  0.00    -0.022 C  
HETATM   20  C   UNL     1      -7.873   4.880  68.235  1.00  0.00    -0.082 C  
ENDBRANCH   4  18
ENDBRANCH   2   4
TORSDOF 7
ENDMDL
MODEL      309
REMARK 921   NORMALIZED FREE ENERGY PREDICTED BY IDOCK:   -2.14 KCAL/MOL
REMARK 922        TOTAL FREE ENERGY PREDICTED BY IDOCK:   -4.02 KCAL/MOL
REMARK 923 INTER-LIGAND FREE ENERGY PREDICTED BY IDOCK:   -3.31 KCAL/MOL
REMARK 924 INTRA-LIGAND FREE ENERGY PREDICTED BY IDOCK:   -0.70 KCAL/MOL
REMARK 927      BINDING AFFINITY PREDICTED BY RF-SCORE:    0.00 PKD
ROOT
HETATM    1  C   UNL     1     -10.425   5.371  66.607  1.00  0.00    -0.356 C  
HETATM    2  C   UNL     1     -10.525   6.378  67.779  1.00  0.00    -0.226 C  
HETATM    3  C   UNL     1     -10.713   5.519  69.040  1.00  0.00    -0.231 C  
ENDROOT
BRANCH   2   4
HETATM    4  N   UNL     1      -9.368   7.334  67.788  1.00  0.00    -0.128 NA 
BRANCH   4   5
HETATM    5  C   UNL     1      -8.069   6.591  67.677  1.00  0.00    -0.118 C  
BRANCH   5   6
HETATM    6  C   UNL     1      -7.186   6.567  68.951  1.00  0.00    -0.084 C  
BRANCH   6   7
HETATM    7  N   UNL     1      -7.841   7.097  70.137  1.00  0.00    -0.106 N  
HETATM    8  C   UNL     1      -7.640   6.530  71.377  1.00  0.00    -0.094 C  
HETATM    9  H   UNL     1      -8.460   7.903  70.050  1.00  0.00     0.000 HD 
HETATM   10  O   UNL     1      -6.956   5.519  71.528  1.00  0.00    -0.063 OA 
BRANCH   8  11
HETATM   11  C   UNL     1      -8.353   7.218  72.549  1.00  0.00    -0.107 C  
BRANCH  11  12
HETATM   12  N   UNL     1      -9.284   6.304  73.184  1.00  0.00    -0.129 N  
HETATM   13  C   UNL     1      -8.867   5.196  74.011  1.00  0.00    -0.117 C  
HETATM   14  C   UNL     1      -9.971   4.182  73.786  1.00  0.00    -0.172 C  
HETATM   15  C   UNL     1     -11.212   5.047  73.580  1.00  0.00    -0.341 C  
HETATM   16  C   UNL     1     -10.640   6.271  72.909  1.00  0.00    -0.233 C  
HETATM   17  O   UNL     1     -11.266   7.091  72.257  1.00  0.00    -0.246 OA 
ENDBRANCH  11  12
ENDBRANCH   8  11
ENDBRANCH   6   7
ENDBRANCH   5   6
ENDBRANCH   4   5
BRANCH   4  18
HETATM   18  C   UNL     1      -9.426   8.486  66.832  1.00  0.00    -0.183 C  
HETATM   19  C   UNL     1      -8.156   9.368  66.906  1.00  0.00    -0.109 C  
HETATM   20  C   UNL     1     -10.593   9.472  67.030  1.00  0.00    -0.271 C  
ENDBRANCH   4  18
ENDBRANCH   2   4
TORSDOF 7
ENDMDL
MODEL      310
REMARK 921   NORMALIZED FREE ENERGY PREDICTED BY IDOCK:   -2.13 KCAL/MOL
REMARK 922        TOTAL FREE ENERGY PREDICTED BY IDOCK:   -4.01 KCAL/MOL
REMARK 923 INTER-LIGAND FREE ENERGY PREDICTED BY IDOCK:   -3.25 KCAL/MOL
REMARK 924 INTRA-LIGAND FREE ENERGY PREDICTED BY IDOCK:   -0.77 KCAL/MOL
REMARK 927      BINDING AFFINITY PREDICTED BY RF-SCORE:    0.00 PKD
ROOT
HETATM    1  C   UNL     1      -8.791  11.497  68.378  1.00  0.00    -0.163 C  
HETATM    2  C   UNL     1      -9.928  10.461  68.550  1.00  0.00    -0.167 C  
HETATM    3  C   UNL     1     -10.585  10.344  67.164  1.00  0.00    -0.319 C  
ENDROOT
BRANCH   2   4
HETATM    4  N   UNL     1      -9.427   9.185  69.162  1.00  0.00    -0.154 NA 
BRANCH   4   5
HETATM    5  C   UNL     1     -10.576   8.308  69.568  1.00  0.00    -0.213 C  
BRANCH   5   6
HETATM    6  C   UNL     1     -11.022   8.410  71.049  1.00  0.00    -0.246 C  
BRANCH   6   7
HETATM    7  N   UNL     1     -11.001   7.144  71.764  1.00  0.00    -0.226 N  
HETATM    8  C   UNL     1     -10.328   7.009  72.959  1.00  0.00    -0.260 C  
HETATM    9  H   UNL     1     -11.494   6.341  71.374  1.00  0.00     0.000 HD 
HETATM   10  O   UNL     1      -9.665   7.927  73.440  1.00  0.00    -0.293 OA 
BRANCH   8  11
HETATM   11  C   UNL     1     -10.430   5.633  73.631  1.00  0.00    -0.263 C  
BRANCH  11  12
HETATM   12  N   UNL     1      -9.216   4.869  73.408  1.00  0.00    -0.123 N  
HETATM   13  C   UNL     1      -8.163   4.751  74.388  1.00  0.00    -0.098 C  
HETATM   14  C   UNL     1      -6.925   4.596  73.527  1.00  0.00    -0.070 C  
HETATM   15  C   UNL     1      -7.435   3.837  72.305  1.00  0.00    -0.061 C  
HETATM   16  C   UNL     1      -8.849   4.347  72.180  1.00  0.00    -0.117 C  
HETATM   17  O   UNL     1      -9.548   4.290  71.180  1.00  0.00    -0.154 OA 
ENDBRANCH  11  12
ENDBRANCH   8  11
ENDBRANCH   6   7
ENDBRANCH   5   6
ENDBRANCH   4   5
BRANCH   4  18
HETATM   18  C   UNL     1      -8.394   8.419  68.395  1.00  0.00    -0.131 C  
HETATM   19  C   UNL     1      -8.609   6.889  68.499  1.00  0.00    -0.123 C  
HETATM   20  C   UNL     1      -6.932   8.634  68.828  1.00  0.00    -0.063 C  
ENDBRANCH   4  18
ENDBRANCH   2   4
TORSDOF 7
ENDMDL
MODEL      311
REMARK 921   NORMALIZED FREE ENERGY PREDICTED BY IDOCK:   -2.11 KCAL/MOL
REMARK 922        TOTAL FREE ENERGY PREDICTED BY IDOCK:   -3.98 KCAL/MOL
REMARK 923 INTER-LIGAND FREE ENERGY PREDICTED BY IDOCK:   -4.44 KCAL/MOL
REMARK 924 INTRA-LIGAND FREE ENERGY PREDICTED BY IDOCK:    0.45 KCAL/MOL
REMARK 927      BINDING AFFINITY PREDICTED BY RF-SCORE:    0.00 PKD
ROOT
HETATM    1  C   UNL     1      -7.918   6.227  69.432  1.00  0.00    -0.109 C  
HETATM    2  C   UNL     1      -8.211   7.410  68.478  1.00  0.00    -0.125 C  
HETATM    3  C   UNL     1      -6.866   8.133  68.299  1.00  0.00    -0.069 C  
ENDROOT
BRANCH   2   4
HETATM    4  N   UNL     1      -8.897   6.953  67.223  1.00  0.00    -0.118 NA 
BRANCH   4   5
HETATM    5  C   UNL     1     -10.304   7.472  67.171  1.00  0.00    -0.313 C  
BRANCH   5   6
HETATM    6  C   UNL     1     -10.484   8.984  67.462  1.00  0.00    -0.272 C  
BRANCH   6   7
HETATM    7  N   UNL     1     -10.920   9.281  68.818  1.00  0.00    -0.443 N  
HETATM    8  C   UNL     1     -11.793  10.314  69.077  1.00  0.00     0.075 C  
HETATM    9  H   UNL     1     -10.572   8.713  69.591  1.00  0.00     0.000 HD 
HETATM   10  O   UNL     1     -12.190  11.069  68.190  1.00  0.00    -0.578 OA 
BRANCH   8  11
HETATM   11  C   UNL     1     -12.207  10.486  70.545  1.00  0.00    -0.344 C  
BRANCH  11  12
HETATM   12  N   UNL     1     -11.784   9.341  71.329  1.00  0.00    -0.319 N  
HETATM   13  C   UNL     1     -10.428   9.153  71.789  1.00  0.00    -0.291 C  
HETATM   14  C   UNL     1     -10.297   7.643  71.824  1.00  0.00    -0.233 C  
HETATM   15  C   UNL     1     -11.702   7.173  72.194  1.00  0.00    -0.322 C  
HETATM   16  C   UNL     1     -12.570   8.223  71.547  1.00  0.00    -0.309 C  
HETATM   17  O   UNL     1     -13.756   8.110  71.282  1.00  0.00    -0.250 OA 
ENDBRANCH  11  12
ENDBRANCH   8  11
ENDBRANCH   6   7
ENDBRANCH   5   6
ENDBRANCH   4   5
BRANCH   4  18
HETATM   18  C   UNL     1      -8.178   7.183  65.930  1.00  0.00    -0.132 C  
HETATM   19  C   UNL     1      -8.605   8.509  65.255  1.00  0.00    -0.192 C  
HETATM   20  C   UNL     1      -8.383   6.112  64.841  1.00  0.00    -0.092 C  
ENDBRANCH   4  18
ENDBRANCH   2   4
TORSDOF 7
ENDMDL
MODEL      312
REMARK 921   NORMALIZED FREE ENERGY PREDICTED BY IDOCK:   -2.11 KCAL/MOL
REMARK 922        TOTAL FREE ENERGY PREDICTED BY IDOCK:   -3.98 KCAL/MOL
REMARK 923 INTER-LIGAND FREE ENERGY PREDICTED BY IDOCK:   -3.16 KCAL/MOL
REMARK 924 INTRA-LIGAND FREE ENERGY PREDICTED BY IDOCK:   -0.82 KCAL/MOL
REMARK 927      BINDING AFFINITY PREDICTED BY RF-SCORE:    0.00 PKD
ROOT
HETATM    1  C   UNL     1      -9.136  12.525  68.070  1.00  0.00    -0.200 C  
HETATM    2  C   UNL     1      -8.728  11.684  66.836  1.00  0.00    -0.185 C  
HETATM    3  C   UNL     1      -7.277  11.249  67.100  1.00  0.00    -0.126 C  
ENDROOT
BRANCH   2   4
HETATM    4  N   UNL     1      -9.716  10.586  66.564  1.00  0.00    -0.185 NA 
BRANCH   4   5
HETATM    5  C   UNL     1     -10.861  10.655  67.532  1.00  0.00    -0.296 C  
BRANCH   5   6
HETATM    6  C   UNL     1     -11.056   9.420  68.448  1.00  0.00     0.071 C  
BRANCH   6   7
HETATM    7  N   UNL     1      -9.853   9.009  69.153  1.00  0.00    -0.171 N  
HETATM    8  C   UNL     1      -9.902   8.589  70.465  1.00  0.00    -0.180 C  
HETATM    9  H   UNL     1      -8.955   9.031  68.669  1.00  0.00     0.000 HD 
HETATM   10  O   UNL     1     -10.947   8.604  71.115  1.00  0.00    -0.236 OA 
BRANCH   8  11
HETATM   11  C   UNL     1      -8.567   8.137  71.072  1.00  0.00    -0.137 C  
BRANCH  11  12
HETATM   12  N   UNL     1      -8.270   6.771  70.685  1.00  0.00    -0.119 N  
HETATM   13  C   UNL     1      -7.440   6.430  69.554  1.00  0.00    -0.093 C  
HETATM   14  C   UNL     1      -8.022   5.105  69.103  1.00  0.00    -0.081 C  
HETATM   15  C   UNL     1      -8.495   4.463  70.405  1.00  0.00    -0.098 C  
HETATM   16  C   UNL     1      -8.901   5.663  71.223  1.00  0.00    -0.135 C  
HETATM   17  O   UNL     1      -9.639   5.652  72.195  1.00  0.00    -0.149 OA 
ENDBRANCH  11  12
ENDBRANCH   8  11
ENDBRANCH   6   7
ENDBRANCH   5   6
ENDBRANCH   4   5
BRANCH   4  18
HETATM   18  C   UNL     1     -10.195  10.433  65.154  1.00  0.00    -0.256 C  
HETATM   19  C   UNL     1      -9.207   9.613  64.289  1.00  0.00    -0.235 C  
HETATM   20  C   UNL     1     -10.406  11.739  64.365  1.00  0.00    -0.353 C  
ENDBRANCH   4  18
ENDBRANCH   2   4
TORSDOF 7
ENDMDL
MODEL      313
REMARK 921   NORMALIZED FREE ENERGY PREDICTED BY IDOCK:   -2.08 KCAL/MOL
REMARK 922        TOTAL FREE ENERGY PREDICTED BY IDOCK:   -3.95 KCAL/MOL
REMARK 923 INTER-LIGAND FREE ENERGY PREDICTED BY IDOCK:   -3.16 KCAL/MOL
REMARK 924 INTRA-LIGAND FREE ENERGY PREDICTED BY IDOCK:   -0.79 KCAL/MOL
REMARK 927      BINDING AFFINITY PREDICTED BY RF-SCORE:    0.00 PKD
ROOT
HETATM    1  C   UNL     1     -10.836   5.500  66.747  1.00  0.00    -0.252 C  
HETATM    2  C   UNL     1      -9.616   4.964  67.536  1.00  0.00    -0.151 C  
HETATM    3  C   UNL     1      -8.970   3.911  66.621  1.00  0.00    -0.141 C  
ENDROOT
BRANCH   2   4
HETATM    4  N   UNL     1      -8.727   6.080  68.005  1.00  0.00    -0.113 NA 
BRANCH   4   5
HETATM    5  C   UNL     1      -8.894   7.290  67.132  1.00  0.00    -0.125 C  
BRANCH   5   6
HETATM    6  C   UNL     1      -7.853   8.421  67.328  1.00  0.00    -0.098 C  
BRANCH   6   7
HETATM    7  N   UNL     1      -8.221   9.682  66.703  1.00  0.00    -0.119 N  
HETATM    8  C   UNL     1      -7.698  10.877  67.146  1.00  0.00    -0.123 C  
HETATM    9  H   UNL     1      -8.878   9.681  65.924  1.00  0.00     0.000 HD 
HETATM   10  O   UNL     1      -6.952  10.940  68.123  1.00  0.00    -0.067 OA 
BRANCH   8  11
HETATM   11  C   UNL     1      -8.133  12.126  66.366  1.00  0.00     0.215 C  
BRANCH  11  12
HETATM   12  N   UNL     1      -9.461  12.543  66.775  1.00  0.00    -0.225 N  
HETATM   13  C   UNL     1      -9.709  13.400  67.910  1.00  0.00    -0.226 C  
HETATM   14  C   UNL     1     -11.072  12.937  68.384  1.00  0.00    -0.293 C  
HETATM   15  C   UNL     1     -11.775  12.522  67.094  1.00  0.00    -0.425 C  
HETATM   16  C   UNL     1     -10.629  12.010  66.257  1.00  0.00    -0.252 C  
HETATM   17  O   UNL     1     -10.721  11.275  65.287  1.00  0.00    -0.281 OA 
ENDBRANCH  11  12
ENDBRANCH   8  11
ENDBRANCH   6   7
ENDBRANCH   5   6
ENDBRANCH   4   5
BRANCH   4  18
HETATM   18  C   UNL     1      -8.788   6.436  69.458  1.00  0.00    -0.136 C  
HETATM   19  C   UNL     1      -7.491   6.046  70.207  1.00  0.00    -0.090 C  
HETATM   20  C   UNL     1      -9.917   5.775  70.270  1.00  0.00    -0.258 C  
ENDBRANCH   4  18
ENDBRANCH   2   4
TORSDOF 7
ENDMDL
MODEL      314
REMARK 921   NORMALIZED FREE ENERGY PREDICTED BY IDOCK:   -2.08 KCAL/MOL
REMARK 922        TOTAL FREE ENERGY PREDICTED BY IDOCK:   -3.94 KCAL/MOL
REMARK 923 INTER-LIGAND FREE ENERGY PREDICTED BY IDOCK:   -3.16 KCAL/MOL
REMARK 924 INTRA-LIGAND FREE ENERGY PREDICTED BY IDOCK:   -0.79 KCAL/MOL
REMARK 927      BINDING AFFINITY PREDICTED BY RF-SCORE:    0.00 PKD
ROOT
HETATM    1  C   UNL     1      -8.459   6.126  72.899  1.00  0.00    -0.119 C  
HETATM    2  C   UNL     1      -9.260   4.862  73.296  1.00  0.00    -0.117 C  
HETATM    3  C   UNL     1     -10.115   5.283  74.503  1.00  0.00    -0.286 C  
ENDROOT
BRANCH   2   4
HETATM    4  N   UNL     1      -9.998   4.282  72.124  1.00  0.00    -0.173 NA 
BRANCH   4   5
HETATM    5  C   UNL     1      -9.866   5.175  70.924  1.00  0.00    -0.199 C  
BRANCH   5   6
HETATM    6  C   UNL     1     -11.147   5.934  70.494  1.00  0.00    -0.277 C  
BRANCH   6   7
HETATM    7  N   UNL     1     -10.926   6.937  69.464  1.00  0.00    -0.321 N  
HETATM    8  C   UNL     1     -10.759   8.266  69.786  1.00  0.00    -0.221 C  
HETATM    9  H   UNL     1     -10.894   6.651  68.485  1.00  0.00     0.000 HD 
HETATM   10  O   UNL     1     -10.852   8.673  70.943  1.00  0.00    -0.222 OA 
BRANCH   8  11
HETATM   11  C   UNL     1     -10.485   9.209  68.607  1.00  0.00    -0.207 C  
BRANCH  11  12
HETATM   12  N   UNL     1      -9.310   8.778  67.873  1.00  0.00    -0.141 N  
HETATM   13  C   UNL     1      -7.976   9.247  68.167  1.00  0.00    -0.099 C  
HETATM   14  C   UNL     1      -7.300   9.193  66.811  1.00  0.00    -0.086 C  
HETATM   15  C   UNL     1      -7.965   8.000  66.130  1.00  0.00    -0.103 C  
HETATM   16  C   UNL     1      -9.359   8.041  66.703  1.00  0.00    -0.197 C  
HETATM   17  O   UNL     1     -10.347   7.505  66.227  1.00  0.00     0.006 OA 
ENDBRANCH  11  12
ENDBRANCH   8  11
ENDBRANCH   6   7
ENDBRANCH   5   6
ENDBRANCH   4   5
BRANCH   4  18
HETATM   18  C   UNL     1      -9.717   2.852  71.779  1.00  0.00    -0.154 C  
HETATM   19  C   UNL     1      -8.883   2.144  72.874  1.00  0.00    -0.073 C  
HETATM   20  C   UNL     1      -8.930   2.612  70.478  1.00  0.00    -0.164 C  
ENDBRANCH   4  18
ENDBRANCH   2   4
TORSDOF 7
ENDMDL
MODEL      315
REMARK 921   NORMALIZED FREE ENERGY PREDICTED BY IDOCK:   -2.08 KCAL/MOL
REMARK 922        TOTAL FREE ENERGY PREDICTED BY IDOCK:   -3.93 KCAL/MOL
REMARK 923 INTER-LIGAND FREE ENERGY PREDICTED BY IDOCK:   -2.73 KCAL/MOL
REMARK 924 INTRA-LIGAND FREE ENERGY PREDICTED BY IDOCK:   -1.20 KCAL/MOL
REMARK 927      BINDING AFFINITY PREDICTED BY RF-SCORE:    0.00 PKD
ROOT
HETATM    1  C   UNL     1      -9.064   6.114  66.342  1.00  0.00    -0.158 C  
HETATM    2  C   UNL     1      -8.929   6.464  67.844  1.00  0.00    -0.114 C  
HETATM    3  C   UNL     1      -7.499   6.049  68.231  1.00  0.00    -0.086 C  
ENDROOT
BRANCH   2   4
HETATM    4  N   UNL     1      -9.308   7.891  68.116  1.00  0.00    -0.142 NA 
BRANCH   4   5
HETATM    5  C   UNL     1     -10.483   8.294  67.273  1.00  0.00    -0.303 C  
BRANCH   5   6
HETATM    6  C   UNL     1     -10.269   9.519  66.348  1.00  0.00    -0.232 C  
BRANCH   6   7
HETATM    7  N   UNL     1      -8.919   9.637  65.820  1.00  0.00    -0.158 N  
HETATM    8  C   UNL     1      -8.694   9.939  64.495  1.00  0.00    -0.198 C  
HETATM    9  H   UNL     1      -8.123   9.493  66.442  1.00  0.00     0.000 HD 
HETATM   10  O   UNL     1      -9.616  10.059  63.689  1.00  0.00    -0.273 OA 
BRANCH   8  11
HETATM   11  C   UNL     1      -7.223  10.080  64.082  1.00  0.00    -0.132 C  
BRANCH  11  12
HETATM   12  N   UNL     1      -6.582   8.779  64.030  1.00  0.00    -0.079 N  
HETATM   13  C   UNL     1      -6.560   7.953  62.846  1.00  0.00    -0.080 C  
HETATM   14  C   UNL     1      -6.534   6.551  63.421  1.00  0.00    -0.037 C  
HETATM   15  C   UNL     1      -5.739   6.712  64.714  1.00  0.00    -0.031 C  
HETATM   16  C   UNL     1      -6.109   8.109  65.145  1.00  0.00    -0.045 C  
HETATM   17  O   UNL     1      -5.992   8.568  66.269  1.00  0.00    -0.043 OA 
ENDBRANCH  11  12
ENDBRANCH   8  11
ENDBRANCH   6   7
ENDBRANCH   5   6
ENDBRANCH   4   5
BRANCH   4  18
HETATM   18  C   UNL     1      -9.497   8.285  69.548  1.00  0.00    -0.162 C  
HETATM   19  C   UNL     1     -10.977   8.180  69.990  1.00  0.00    -0.199 C  
HETATM   20  C   UNL     1      -9.087   9.724  69.914  1.00  0.00    -0.257 C  
ENDBRANCH   4  18
ENDBRANCH   2   4
TORSDOF 7
ENDMDL
MODEL      316
REMARK 921   NORMALIZED FREE ENERGY PREDICTED BY IDOCK:   -2.08 KCAL/MOL
REMARK 922        TOTAL FREE ENERGY PREDICTED BY IDOCK:   -3.93 KCAL/MOL
REMARK 923 INTER-LIGAND FREE ENERGY PREDICTED BY IDOCK:   -3.42 KCAL/MOL
REMARK 924 INTRA-LIGAND FREE ENERGY PREDICTED BY IDOCK:   -0.52 KCAL/MOL
REMARK 927      BINDING AFFINITY PREDICTED BY RF-SCORE:    0.00 PKD
ROOT
HETATM    1  C   UNL     1     -10.172   3.828  64.408  1.00  0.00    -0.227 C  
HETATM    2  C   UNL     1      -9.227   3.518  65.595  1.00  0.00    -0.158 C  
HETATM    3  C   UNL     1      -9.125   1.985  65.645  1.00  0.00    -0.072 C  
ENDROOT
BRANCH   2   4
HETATM    4  N   UNL     1      -7.933   4.272  65.484  1.00  0.00    -0.094 NA 
BRANCH   4   5
HETATM    5  C   UNL     1      -7.957   5.492  66.358  1.00  0.00    -0.105 C  
BRANCH   5   6
HETATM    6  C   UNL     1      -9.206   5.660  67.261  1.00  0.00    -0.110 C  
BRANCH   6   7
HETATM    7  N   UNL     1      -9.048   6.648  68.316  1.00  0.00    -0.125 N  
HETATM    8  C   UNL     1      -9.765   6.561  69.489  1.00  0.00    -0.151 C  
HETATM    9  H   UNL     1      -8.395   7.421  68.185  1.00  0.00     0.000 HD 
HETATM   10  O   UNL     1     -10.611   5.687  69.672  1.00  0.00    -0.282 OA 
BRANCH   8  11
HETATM   11  C   UNL     1      -9.465   7.642  70.537  1.00  0.00    -0.164 C  
BRANCH  11  12
HETATM   12  N   UNL     1     -10.653   8.431  70.806  1.00  0.00    -0.203 N  
HETATM   13  C   UNL     1     -10.900   9.721  70.206  1.00  0.00    -0.301 C  
HETATM   14  C   UNL     1     -11.712  10.431  71.271  1.00  0.00    -0.320 C  
HETATM   15  C   UNL     1     -12.511   9.304  71.920  1.00  0.00    -0.457 C  
HETATM   16  C   UNL     1     -11.564   8.135  71.805  1.00  0.00    -0.291 C  
HETATM   17  O   UNL     1     -11.609   7.107  72.462  1.00  0.00    -0.275 OA 
ENDBRANCH  11  12
ENDBRANCH   8  11
ENDBRANCH   6   7
ENDBRANCH   5   6
ENDBRANCH   4   5
BRANCH   4  18
HETATM   18  C   UNL     1      -6.670   3.489  65.666  1.00  0.00    -0.045 C  
HETATM   19  C   UNL     1      -5.938   3.864  66.978  1.00  0.00    -0.024 C  
HETATM   20  C   UNL     1      -5.604   3.659  64.567  1.00  0.00    -0.013 C  
ENDBRANCH   4  18
ENDBRANCH   2   4
TORSDOF 7
ENDMDL
MODEL      317
REMARK 921   NORMALIZED FREE ENERGY PREDICTED BY IDOCK:   -2.01 KCAL/MOL
REMARK 922        TOTAL FREE ENERGY PREDICTED BY IDOCK:   -3.85 KCAL/MOL
REMARK 923 INTER-LIGAND FREE ENERGY PREDICTED BY IDOCK:   -3.09 KCAL/MOL
REMARK 924 INTRA-LIGAND FREE ENERGY PREDICTED BY IDOCK:   -0.76 KCAL/MOL
REMARK 927      BINDING AFFINITY PREDICTED BY RF-SCORE:    0.00 PKD
ROOT
HETATM    1  C   UNL     1      -6.436   4.338  64.705  1.00  0.00    -0.039 C  
HETATM    2  C   UNL     1      -7.502   5.307  65.272  1.00  0.00    -0.077 C  
HETATM    3  C   UNL     1      -8.808   4.947  64.544  1.00  0.00    -0.129 C  
ENDROOT
BRANCH   2   4
HETATM    4  N   UNL     1      -7.541   5.273  66.772  1.00  0.00    -0.088 NA 
BRANCH   4   5
HETATM    5  C   UNL     1      -7.414   6.658  67.335  1.00  0.00    -0.096 C  
BRANCH   5   6
HETATM    6  C   UNL     1      -7.885   7.814  66.416  1.00  0.00    -0.094 C  
BRANCH   6   7
HETATM    7  N   UNL     1      -8.371   8.983  67.132  1.00  0.00    -0.110 N  
HETATM    8  C   UNL     1      -9.720   9.232  67.260  1.00  0.00    -0.167 C  
HETATM    9  H   UNL     1      -7.701   9.630  67.547  1.00  0.00     0.000 HD 
HETATM   10  O   UNL     1     -10.568   8.519  66.725  1.00  0.00    -0.283 OA 
BRANCH   8  11
HETATM   11  C   UNL     1     -10.095  10.473  68.082  1.00  0.00    -0.158 C  
BRANCH  11  12
HETATM   12  N   UNL     1     -10.431  11.580  67.206  1.00  0.00    -0.205 N  
HETATM   13  C   UNL     1     -11.783  12.037  66.990  1.00  0.00    -0.267 C  
HETATM   14  C   UNL     1     -11.730  12.566  65.570  1.00  0.00    -0.457 C  
HETATM   15  C   UNL     1     -10.310  13.109  65.445  1.00  0.00    -0.313 C  
HETATM   16  C   UNL     1      -9.531  12.176  66.339  1.00  0.00    -0.233 C  
HETATM   17  O   UNL     1      -8.325  11.997  66.313  1.00  0.00    -0.027 OA 
ENDBRANCH  11  12
ENDBRANCH   8  11
ENDBRANCH   6   7
ENDBRANCH   5   6
ENDBRANCH   4   5
BRANCH   4  18
HETATM   18  C   UNL     1      -8.670   4.521  67.409  1.00  0.00    -0.104 C  
HETATM   19  C   UNL     1      -9.479   5.407  68.387  1.00  0.00    -0.153 C  
HETATM   20  C   UNL     1      -8.277   3.286  68.241  1.00  0.00    -0.088 C  
ENDBRANCH   4  18
ENDBRANCH   2   4
TORSDOF 7
ENDMDL
MODEL      318
REMARK 921   NORMALIZED FREE ENERGY PREDICTED BY IDOCK:   -2.00 KCAL/MOL
REMARK 922        TOTAL FREE ENERGY PREDICTED BY IDOCK:   -3.83 KCAL/MOL
REMARK 923 INTER-LIGAND FREE ENERGY PREDICTED BY IDOCK:   -3.19 KCAL/MOL
REMARK 924 INTRA-LIGAND FREE ENERGY PREDICTED BY IDOCK:   -0.64 KCAL/MOL
REMARK 927      BINDING AFFINITY PREDICTED BY RF-SCORE:    0.00 PKD
ROOT
HETATM    1  C   UNL     1      -6.290   4.972  63.561  1.00  0.00    -0.026 C  
HETATM    2  C   UNL     1      -7.608   5.757  63.773  1.00  0.00    -0.080 C  
HETATM    3  C   UNL     1      -8.349   5.678  62.428  1.00  0.00    -0.104 C  
ENDROOT
BRANCH   2   4
HETATM    4  N   UNL     1      -8.356   5.267  64.979  1.00  0.00    -0.140 NA 
BRANCH   4   5
HETATM    5  C   UNL     1      -8.910   6.423  65.760  1.00  0.00    -0.099 C  
BRANCH   5   6
HETATM    6  C   UNL     1      -7.869   7.335  66.458  1.00  0.00    -0.109 C  
BRANCH   6   7
HETATM    7  N   UNL     1      -7.933   8.729  66.049  1.00  0.00    -0.104 N  
HETATM    8  C   UNL     1      -8.480   9.690  66.872  1.00  0.00    -0.120 C  
HETATM    9  H   UNL     1      -7.566   9.001  65.137  1.00  0.00     0.000 HD 
HETATM   10  O   UNL     1      -8.994   9.406  67.953  1.00  0.00    -0.124 OA 
BRANCH   8  11
HETATM   11  C   UNL     1      -8.439  11.128  66.337  1.00  0.00    -0.167 C  
BRANCH  11  12
HETATM   12  N   UNL     1      -9.547  11.900  66.870  1.00  0.00    -0.196 N  
HETATM   13  C   UNL     1      -9.499  12.581  68.142  1.00  0.00    -0.214 C  
HETATM   14  C   UNL     1     -10.946  12.541  68.593  1.00  0.00    -0.291 C  
HETATM   15  C   UNL     1     -11.729  12.621  67.285  1.00  0.00    -0.435 C  
HETATM   16  C   UNL     1     -10.819  11.899  66.324  1.00  0.00    -0.282 C  
HETATM   17  O   UNL     1     -11.144  11.419  65.250  1.00  0.00    -0.230 OA 
ENDBRANCH  11  12
ENDBRANCH   8  11
ENDBRANCH   6   7
ENDBRANCH   5   6
ENDBRANCH   4   5
BRANCH   4  18
HETATM   18  C   UNL     1      -9.391   4.207  64.756  1.00  0.00    -0.164 C  
HETATM   19  C   UNL     1     -10.698   4.498  65.533  1.00  0.00    -0.170 C  
HETATM   20  C   UNL     1      -8.999   2.779  65.181  1.00  0.00    -0.135 C  
ENDBRANCH   4  18
ENDBRANCH   2   4
TORSDOF 7
ENDMDL
MODEL      319
REMARK 921   NORMALIZED FREE ENERGY PREDICTED BY IDOCK:   -1.99 KCAL/MOL
REMARK 922        TOTAL FREE ENERGY PREDICTED BY IDOCK:   -3.81 KCAL/MOL
REMARK 923 INTER-LIGAND FREE ENERGY PREDICTED BY IDOCK:   -4.28 KCAL/MOL
REMARK 924 INTRA-LIGAND FREE ENERGY PREDICTED BY IDOCK:    0.47 KCAL/MOL
REMARK 927      BINDING AFFINITY PREDICTED BY RF-SCORE:    0.00 PKD
ROOT
HETATM    1  C   UNL     1      -7.034  16.518  68.084  1.00  0.00    -0.149 C  
HETATM    2  C   UNL     1      -7.775  17.604  67.266  1.00  0.00    -0.204 C  
HETATM    3  C   UNL     1      -6.951  17.777  65.979  1.00  0.00    -0.335 C  
ENDROOT
BRANCH   2   4
HETATM    4  N   UNL     1      -9.228  17.270  67.091  1.00  0.00    -0.231 NA 
BRANCH   4   5
HETATM    5  C   UNL     1      -9.420  15.784  67.001  1.00  0.00    -0.223 C  
BRANCH   5   6
HETATM    6  C   UNL     1     -10.635  15.303  66.167  1.00  0.00    -0.313 C  
BRANCH   6   7
HETATM    7  N   UNL     1     -10.679  13.865  65.956  1.00  0.00    -0.284 N  
HETATM    8  C   UNL     1      -9.542  13.093  66.058  1.00  0.00    -0.157 C  
HETATM    9  H   UNL     1     -11.568  13.419  65.729  1.00  0.00     0.000 HD 
HETATM   10  O   UNL     1      -8.435  13.588  66.266  1.00  0.00     0.341 OA 
BRANCH   8  11
HETATM   11  C   UNL     1      -9.739  11.584  65.861  1.00  0.00    -0.232 C  
BRANCH  11  12
HETATM   12  N   UNL     1      -9.991  10.934  67.133  1.00  0.00    -0.184 N  
HETATM   13  C   UNL     1      -9.844  11.599  68.406  1.00  0.00    -0.202 C  
HETATM   14  C   UNL     1      -9.446  10.464  69.329  1.00  0.00    -0.214 C  
HETATM   15  C   UNL     1     -10.185   9.260  68.750  1.00  0.00    -0.223 C  
HETATM   16  C   UNL     1     -10.199   9.573  67.275  1.00  0.00    -0.234 C  
HETATM   17  O   UNL     1     -10.379   8.771  66.373  1.00  0.00    -0.271 OA 
ENDBRANCH  11  12
ENDBRANCH   8  11
ENDBRANCH   6   7
ENDBRANCH   5   6
ENDBRANCH   4   5
BRANCH   4  18
HETATM   18  C   UNL     1     -10.192  17.893  68.053  1.00  0.00    -0.376 C  
HETATM   19  C   UNL     1      -9.672  19.242  68.607  1.00  0.00    -0.494 C  
HETATM   20  C   UNL     1     -10.527  17.064  69.307  1.00  0.00    -0.293 C  
ENDBRANCH   4  18
ENDBRANCH   2   4
TORSDOF 7
ENDMDL
MODEL      320
REMARK 921   NORMALIZED FREE ENERGY PREDICTED BY IDOCK:   -1.97 KCAL/MOL
REMARK 922        TOTAL FREE ENERGY PREDICTED BY IDOCK:   -3.79 KCAL/MOL
REMARK 923 INTER-LIGAND FREE ENERGY PREDICTED BY IDOCK:   -3.48 KCAL/MOL
REMARK 924 INTRA-LIGAND FREE ENERGY PREDICTED BY IDOCK:   -0.31 KCAL/MOL
REMARK 927      BINDING AFFINITY PREDICTED BY RF-SCORE:    0.00 PKD
ROOT
HETATM    1  C   UNL     1      -8.934   9.946  69.046  1.00  0.00    -0.160 C  
HETATM    2  C   UNL     1     -10.458   9.941  69.317  1.00  0.00    -0.221 C  
HETATM    3  C   UNL     1     -11.110  10.346  67.984  1.00  0.00    -0.359 C  
ENDROOT
BRANCH   2   4
HETATM    4  N   UNL     1     -10.911   8.640  69.915  1.00  0.00    -0.231 NA 
BRANCH   4   5
HETATM    5  C   UNL     1      -9.749   7.706  70.086  1.00  0.00    -0.179 C  
BRANCH   5   6
HETATM    6  C   UNL     1      -9.596   6.603  69.008  1.00  0.00    -0.133 C  
BRANCH   6   7
HETATM    7  N   UNL     1      -8.912   5.407  69.475  1.00  0.00    -0.104 N  
HETATM    8  C   UNL     1      -9.468   4.599  70.443  1.00  0.00    -0.171 C  
HETATM    9  H   UNL     1      -8.005   5.162  69.078  1.00  0.00     0.000 HD 
HETATM   10  O   UNL     1     -10.527   4.884  71.000  1.00  0.00    -0.189 OA 
BRANCH   8  11
HETATM   11  C   UNL     1      -8.664   3.344  70.807  1.00  0.00    -0.075 C  
BRANCH  11  12
HETATM   12  N   UNL     1      -8.955   2.931  72.168  1.00  0.00    -0.084 N  
HETATM   13  C   UNL     1     -10.030   2.030  72.510  1.00  0.00    -0.135 C  
HETATM   14  C   UNL     1     -10.422   2.495  73.899  1.00  0.00    -0.225 C  
HETATM   15  C   UNL     1      -9.103   2.975  74.498  1.00  0.00    -0.095 C  
HETATM   16  C   UNL     1      -8.375   3.503  73.287  1.00  0.00    -0.079 C  
HETATM   17  O   UNL     1      -7.434   4.280  73.297  1.00  0.00    -0.073 OA 
ENDBRANCH  11  12
ENDBRANCH   8  11
ENDBRANCH   6   7
ENDBRANCH   5   6
ENDBRANCH   4   5
BRANCH   4  18
HETATM   18  C   UNL     1     -11.746   8.714  71.156  1.00  0.00    -0.288 C  
HETATM   19  C   UNL     1     -10.905   8.489  72.436  1.00  0.00    -0.378 C  
HETATM   20  C   UNL     1     -12.892   7.690  71.262  1.00  0.00    -0.297 C  
ENDBRANCH   4  18
ENDBRANCH   2   4
TORSDOF 7
ENDMDL
MODEL      321
REMARK 921   NORMALIZED FREE ENERGY PREDICTED BY IDOCK:   -1.97 KCAL/MOL
REMARK 922        TOTAL FREE ENERGY PREDICTED BY IDOCK:   -3.79 KCAL/MOL
REMARK 923 INTER-LIGAND FREE ENERGY PREDICTED BY IDOCK:   -2.76 KCAL/MOL
REMARK 924 INTRA-LIGAND FREE ENERGY PREDICTED BY IDOCK:   -1.03 KCAL/MOL
REMARK 927      BINDING AFFINITY PREDICTED BY RF-SCORE:    0.00 PKD
ROOT
HETATM    1  C   UNL     1      -6.774   4.864  65.446  1.00  0.00    -0.052 C  
HETATM    2  C   UNL     1      -7.997   5.732  65.062  1.00  0.00    -0.121 C  
HETATM    3  C   UNL     1      -9.221   4.971  65.596  1.00  0.00    -0.161 C  
ENDROOT
BRANCH   2   4
HETATM    4  N   UNL     1      -7.836   7.151  65.526  1.00  0.00    -0.108 NA 
BRANCH   4   5
HETATM    5  C   UNL     1      -6.719   7.256  66.523  1.00  0.00    -0.060 C  
BRANCH   5   6
HETATM    6  C   UNL     1      -6.102   8.666  66.709  1.00  0.00    -0.058 C  
BRANCH   6   7
HETATM    7  N   UNL     1      -6.744   9.465  67.741  1.00  0.00    -0.067 N  
HETATM    8  C   UNL     1      -7.080  10.782  67.518  1.00  0.00    -0.089 C  
HETATM    9  H   UNL     1      -6.949   9.042  68.647  1.00  0.00     0.000 HD 
HETATM   10  O   UNL     1      -6.797  11.358  66.469  1.00  0.00    -0.130 OA 
BRANCH   8  11
HETATM   11  C   UNL     1      -7.796  11.493  68.675  1.00  0.00    -0.137 C  
BRANCH  11  12
HETATM   12  N   UNL     1      -9.160  11.821  68.303  1.00  0.00    -0.184 N  
HETATM   13  C   UNL     1     -10.169  10.824  68.033  1.00  0.00    -0.178 C  
HETATM   14  C   UNL     1     -11.053  11.516  67.015  1.00  0.00    -0.365 C  
HETATM   15  C   UNL     1     -10.983  12.985  67.423  1.00  0.00    -0.284 C  
HETATM   16  C   UNL     1      -9.583  13.097  67.974  1.00  0.00    -0.220 C  
HETATM   17  O   UNL     1      -8.948  14.129  68.118  1.00  0.00    -0.174 OA 
ENDBRANCH  11  12
ENDBRANCH   8  11
ENDBRANCH   6   7
ENDBRANCH   5   6
ENDBRANCH   4   5
BRANCH   4  18
HETATM   18  C   UNL     1      -7.732   8.208  64.470  1.00  0.00    -0.121 C  
HETATM   19  C   UNL     1      -8.942   9.174  64.493  1.00  0.00    -0.129 C  
HETATM   20  C   UNL     1      -7.667   7.706  63.015  1.00  0.00    -0.124 C  
ENDBRANCH   4  18
ENDBRANCH   2   4
TORSDOF 7
ENDMDL
MODEL      322
REMARK 921   NORMALIZED FREE ENERGY PREDICTED BY IDOCK:   -1.97 KCAL/MOL
REMARK 922        TOTAL FREE ENERGY PREDICTED BY IDOCK:   -3.78 KCAL/MOL
REMARK 923 INTER-LIGAND FREE ENERGY PREDICTED BY IDOCK:   -3.19 KCAL/MOL
REMARK 924 INTRA-LIGAND FREE ENERGY PREDICTED BY IDOCK:   -0.60 KCAL/MOL
REMARK 927      BINDING AFFINITY PREDICTED BY RF-SCORE:    0.00 PKD
ROOT
HETATM    1  C   UNL     1      -8.878   9.767  68.855  1.00  0.00    -0.140 C  
HETATM    2  C   UNL     1     -10.392   9.566  69.108  1.00  0.00    -0.207 C  
HETATM    3  C   UNL     1     -11.100  10.496  68.108  1.00  0.00    -0.346 C  
ENDROOT
BRANCH   2   4
HETATM    4  N   UNL     1     -10.775   8.115  69.058  1.00  0.00    -0.140 NA 
BRANCH   4   5
HETATM    5  C   UNL     1      -9.642   7.290  68.519  1.00  0.00    -0.140 C  
BRANCH   5   6
HETATM    6  C   UNL     1      -9.790   6.803  67.056  1.00  0.00    -0.167 C  
BRANCH   6   7
HETATM    7  N   UNL     1      -9.738   5.357  66.903  1.00  0.00    -0.140 N  
HETATM    8  C   UNL     1      -8.867   4.764  66.014  1.00  0.00    -0.123 C  
HETATM    9  H   UNL     1     -10.357   4.771  67.463  1.00  0.00     0.000 HD 
HETATM   10  O   UNL     1      -8.146   5.426  65.269  1.00  0.00    -0.110 OA 
BRANCH   8  11
HETATM   11  C   UNL     1      -8.882   3.229  65.989  1.00  0.00    -0.138 C  
BRANCH  11  12
HETATM   12  N   UNL     1      -8.805   2.743  64.624  1.00  0.00    -0.109 N  
HETATM   13  C   UNL     1      -7.588   2.249  64.025  1.00  0.00    -0.060 C  
HETATM   14  C   UNL     1      -7.771   2.601  62.562  1.00  0.00    -0.058 C  
HETATM   15  C   UNL     1      -9.278   2.475  62.353  1.00  0.00    -0.080 C  
HETATM   16  C   UNL     1      -9.823   2.887  63.697  1.00  0.00    -0.138 C  
HETATM   17  O   UNL     1     -10.962   3.261  63.926  1.00  0.00    -0.252 OA 
ENDBRANCH  11  12
ENDBRANCH   8  11
ENDBRANCH   6   7
ENDBRANCH   5   6
ENDBRANCH   4   5
BRANCH   4  18
HETATM   18  C   UNL     1     -11.347   7.516  70.305  1.00  0.00    -0.199 C  
HETATM   19  C   UNL     1     -11.354   8.522  71.483  1.00  0.00    -0.348 C  
HETATM   20  C   UNL     1     -10.616   6.279  70.859  1.00  0.00    -0.293 C  
ENDBRANCH   4  18
ENDBRANCH   2   4
TORSDOF 7
ENDMDL
MODEL      323
REMARK 921   NORMALIZED FREE ENERGY PREDICTED BY IDOCK:   -1.91 KCAL/MOL
REMARK 922        TOTAL FREE ENERGY PREDICTED BY IDOCK:   -3.70 KCAL/MOL
REMARK 923 INTER-LIGAND FREE ENERGY PREDICTED BY IDOCK:   -2.99 KCAL/MOL
REMARK 924 INTRA-LIGAND FREE ENERGY PREDICTED BY IDOCK:   -0.71 KCAL/MOL
REMARK 927      BINDING AFFINITY PREDICTED BY RF-SCORE:    0.00 PKD
ROOT
HETATM    1  C   UNL     1      -5.549   3.729  64.214  1.00  0.00    -0.013 C  
HETATM    2  C   UNL     1      -6.863   4.359  64.737  1.00  0.00    -0.046 C  
HETATM    3  C   UNL     1      -7.961   3.860  63.783  1.00  0.00    -0.088 C  
ENDROOT
BRANCH   2   4
HETATM    4  N   UNL     1      -7.068   4.079  66.198  1.00  0.00    -0.066 NA 
BRANCH   4   5
HETATM    5  C   UNL     1      -7.140   5.362  66.975  1.00  0.00    -0.070 C  
BRANCH   5   6
HETATM    6  C   UNL     1      -7.654   6.601  66.199  1.00  0.00    -0.086 C  
BRANCH   6   7
HETATM    7  N   UNL     1      -8.929   7.113  66.674  1.00  0.00    -0.140 N  
HETATM    8  C   UNL     1      -9.061   8.416  67.102  1.00  0.00    -0.138 C  
HETATM    9  H   UNL     1      -9.742   6.496  66.692  1.00  0.00     0.000 HD 
HETATM   10  O   UNL     1      -8.100   9.182  67.162  1.00  0.00    -0.108 OA 
BRANCH   8  11
HETATM   11  C   UNL     1     -10.472   8.839  67.531  1.00  0.00    -0.271 C  
BRANCH  11  12
HETATM   12  N   UNL     1     -10.572   8.882  68.978  1.00  0.00    -0.214 N  
HETATM   13  C   UNL     1     -10.403   7.721  69.820  1.00  0.00    -0.221 C  
HETATM   14  C   UNL     1     -11.300   8.036  71.001  1.00  0.00    -0.294 C  
HETATM   15  C   UNL     1     -11.208   9.554  71.122  1.00  0.00    -0.446 C  
HETATM   16  C   UNL     1     -11.031   9.979  69.686  1.00  0.00    -0.264 C  
HETATM   17  O   UNL     1     -11.238  11.095  69.237  1.00  0.00    -0.225 OA 
ENDBRANCH  11  12
ENDBRANCH   8  11
ENDBRANCH   6   7
ENDBRANCH   5   6
ENDBRANCH   4   5
BRANCH   4  18
HETATM   18  C   UNL     1      -8.183   3.150  66.565  1.00  0.00    -0.090 C  
HETATM   19  C   UNL     1      -8.827   3.522  67.923  1.00  0.00    -0.147 C  
HETATM   20  C   UNL     1      -7.806   1.664  66.711  1.00  0.00    -0.066 C  
ENDBRANCH   4  18
ENDBRANCH   2   4
TORSDOF 7
ENDMDL
MODEL      324
REMARK 921   NORMALIZED FREE ENERGY PREDICTED BY IDOCK:   -1.91 KCAL/MOL
REMARK 922        TOTAL FREE ENERGY PREDICTED BY IDOCK:   -3.70 KCAL/MOL
REMARK 923 INTER-LIGAND FREE ENERGY PREDICTED BY IDOCK:   -2.85 KCAL/MOL
REMARK 924 INTRA-LIGAND FREE ENERGY PREDICTED BY IDOCK:   -0.85 KCAL/MOL
REMARK 927      BINDING AFFINITY PREDICTED BY RF-SCORE:    0.00 PKD
ROOT
HETATM    1  C   UNL     1      -6.817   9.511  64.663  1.00  0.00    -0.101 C  
HETATM    2  C   UNL     1      -8.203   9.181  64.058  1.00  0.00    -0.168 C  
HETATM    3  C   UNL     1      -8.014   7.855  63.304  1.00  0.00    -0.125 C  
ENDROOT
BRANCH   2   4
HETATM    4  N   UNL     1      -9.283   9.209  65.101  1.00  0.00    -0.196 NA 
BRANCH   4   5
HETATM    5  C   UNL     1      -8.822   8.527  66.356  1.00  0.00    -0.150 C  
BRANCH   5   6
HETATM    6  C   UNL     1      -9.683   7.331  66.837  1.00  0.00    -0.194 C  
BRANCH   6   7
HETATM    7  N   UNL     1      -8.999   6.048  66.786  1.00  0.00    -0.119 N  
HETATM    8  C   UNL     1      -9.622   4.926  66.286  1.00  0.00    -0.174 C  
HETATM    9  H   UNL     1      -8.040   5.978  67.128  1.00  0.00     0.000 HD 
HETATM   10  O   UNL     1     -10.797   4.941  65.923  1.00  0.00    -0.289 OA 
BRANCH   8  11
HETATM   11  C   UNL     1      -8.769   3.650  66.246  1.00  0.00    -0.120 C  
BRANCH  11  12
HETATM   12  N   UNL     1      -8.332   3.374  64.890  1.00  0.00    -0.093 N  
HETATM   13  C   UNL     1      -7.326   4.154  64.208  1.00  0.00    -0.070 C  
HETATM   14  C   UNL     1      -7.751   4.044  62.757  1.00  0.00    -0.061 C  
HETATM   15  C   UNL     1      -8.366   2.650  62.671  1.00  0.00    -0.074 C  
HETATM   16  C   UNL     1      -8.963   2.479  64.045  1.00  0.00    -0.102 C  
HETATM   17  O   UNL     1      -9.833   1.680  64.356  1.00  0.00    -0.098 OA 
ENDBRANCH  11  12
ENDBRANCH   8  11
ENDBRANCH   6   7
ENDBRANCH   5   6
ENDBRANCH   4   5
BRANCH   4  18
HETATM   18  C   UNL     1      -9.913  10.535  65.396  1.00  0.00    -0.289 C  
HETATM   19  C   UNL     1      -9.727  11.539  64.232  1.00  0.00    -0.229 C  
HETATM   20  C   UNL     1      -9.380  11.278  66.635  1.00  0.00    -0.196 C  
ENDBRANCH   4  18
ENDBRANCH   2   4
TORSDOF 7
ENDMDL
MODEL      325
REMARK 921   NORMALIZED FREE ENERGY PREDICTED BY IDOCK:   -1.90 KCAL/MOL
REMARK 922        TOTAL FREE ENERGY PREDICTED BY IDOCK:   -3.69 KCAL/MOL
REMARK 923 INTER-LIGAND FREE ENERGY PREDICTED BY IDOCK:   -4.69 KCAL/MOL
REMARK 924 INTRA-LIGAND FREE ENERGY PREDICTED BY IDOCK:    1.01 KCAL/MOL
REMARK 927      BINDING AFFINITY PREDICTED BY RF-SCORE:    0.00 PKD
ROOT
HETATM    1  C   UNL     1     -12.848   9.913  71.407  1.00  0.00    -0.505 C  
HETATM    2  C   UNL     1     -11.767   8.863  71.052  1.00  0.00    -0.289 C  
HETATM    3  C   UNL     1     -10.488   9.671  70.776  1.00  0.00    -0.375 C  
ENDROOT
BRANCH   2   4
HETATM    4  N   UNL     1     -11.670   7.792  72.100  1.00  0.00    -0.303 NA 
BRANCH   4   5
HETATM    5  C   UNL     1     -11.896   6.438  71.493  1.00  0.00    -0.298 C  
BRANCH   5   6
HETATM    6  C   UNL     1     -10.738   5.876  70.629  1.00  0.00    -0.285 C  
BRANCH   6   7
HETATM    7  N   UNL     1     -10.914   6.074  69.199  1.00  0.00    -0.357 N  
HETATM    8  C   UNL     1     -10.105   5.434  68.285  1.00  0.00    -0.167 C  
HETATM    9  H   UNL     1     -11.648   6.699  68.866  1.00  0.00     0.000 HD 
HETATM   10  O   UNL     1      -9.165   4.722  68.633  1.00  0.00    -0.111 OA 
BRANCH   8  11
HETATM   11  C   UNL     1     -10.431   5.695  66.808  1.00  0.00    -0.291 C  
BRANCH  11  12
HETATM   12  N   UNL     1      -9.229   6.055  66.079  1.00  0.00    -0.145 N  
HETATM   13  C   UNL     1      -8.677   7.389  66.069  1.00  0.00    -0.153 C  
HETATM   14  C   UNL     1      -8.020   7.466  64.705  1.00  0.00    -0.127 C  
HETATM   15  C   UNL     1      -7.549   6.035  64.457  1.00  0.00    -0.092 C  
HETATM   16  C   UNL     1      -8.605   5.224  65.164  1.00  0.00    -0.151 C  
HETATM   17  O   UNL     1      -8.849   4.043  64.976  1.00  0.00    -0.120 OA 
ENDBRANCH  11  12
ENDBRANCH   8  11
ENDBRANCH   6   7
ENDBRANCH   5   6
ENDBRANCH   4   5
BRANCH   4  18
HETATM   18  C   UNL     1     -10.457   7.806  72.978  1.00  0.00    -0.369 C  
HETATM   19  C   UNL     1      -9.151   7.608  72.170  1.00  0.00    -0.180 C  
HETATM   20  C   UNL     1     -10.402   6.723  74.072  1.00  0.00    -0.377 C  
ENDBRANCH   4  18
ENDBRANCH   2   4
TORSDOF 7
ENDMDL
MODEL      326
REMARK 921   NORMALIZED FREE ENERGY PREDICTED BY IDOCK:   -1.86 KCAL/MOL
REMARK 922        TOTAL FREE ENERGY PREDICTED BY IDOCK:   -3.63 KCAL/MOL
REMARK 923 INTER-LIGAND FREE ENERGY PREDICTED BY IDOCK:   -2.88 KCAL/MOL
REMARK 924 INTRA-LIGAND FREE ENERGY PREDICTED BY IDOCK:   -0.75 KCAL/MOL
REMARK 927      BINDING AFFINITY PREDICTED BY RF-SCORE:    0.00 PKD
ROOT
HETATM    1  C   UNL     1      -7.406  10.366  69.613  1.00  0.00    -0.156 C  
HETATM    2  C   UNL     1      -7.980  10.875  68.268  1.00  0.00    -0.121 C  
HETATM    3  C   UNL     1      -7.338   9.987  67.189  1.00  0.00    -0.091 C  
ENDROOT
BRANCH   2   4
HETATM    4  N   UNL     1      -9.481  10.922  68.289  1.00  0.00    -0.161 NA 
BRANCH   4   5
HETATM    5  C   UNL     1     -10.022  10.015  69.357  1.00  0.00    -0.223 C  
BRANCH   5   6
HETATM    6  C   UNL     1     -10.338   8.562  68.921  1.00  0.00    -0.210 C  
BRANCH   6   7
HETATM    7  N   UNL     1      -9.636   7.546  69.689  1.00  0.00    -0.160 N  
HETATM    8  C   UNL     1      -8.653   6.769  69.116  1.00  0.00    -0.131 C  
HETATM    9  H   UNL     1      -9.877   7.405  70.671  1.00  0.00     0.000 HD 
HETATM   10  O   UNL     1      -8.369   6.854  67.922  1.00  0.00    -0.119 OA 
BRANCH   8  11
HETATM   11  C   UNL     1      -7.961   5.770  70.053  1.00  0.00    -0.099 C  
BRANCH  11  12
HETATM   12  N   UNL     1      -8.234   4.408  69.633  1.00  0.00    -0.060 N  
HETATM   13  C   UNL     1      -9.498   3.747  69.859  1.00  0.00    -0.197 C  
HETATM   14  C   UNL     1      -9.091   2.293  69.996  1.00  0.00    -0.176 C  
HETATM   15  C   UNL     1      -7.891   2.170  69.061  1.00  0.00    -0.052 C  
HETATM   16  C   UNL     1      -7.265   3.538  69.162  1.00  0.00    -0.049 C  
HETATM   17  O   UNL     1      -6.118   3.827  68.864  1.00  0.00    -0.026 OA 
ENDBRANCH  11  12
ENDBRANCH   8  11
ENDBRANCH   6   7
ENDBRANCH   5   6
ENDBRANCH   4   5
BRANCH   4  18
HETATM   18  C   UNL     1     -10.121  12.275  68.340  1.00  0.00    -0.215 C  
HETATM   19  C   UNL     1     -11.605  12.233  67.901  1.00  0.00    -0.416 C  
HETATM   20  C   UNL     1      -9.485  13.358  67.448  1.00  0.00    -0.222 C  
ENDBRANCH   4  18
ENDBRANCH   2   4
TORSDOF 7
ENDMDL
MODEL      327
REMARK 921   NORMALIZED FREE ENERGY PREDICTED BY IDOCK:   -1.77 KCAL/MOL
REMARK 922        TOTAL FREE ENERGY PREDICTED BY IDOCK:   -3.50 KCAL/MOL
REMARK 923 INTER-LIGAND FREE ENERGY PREDICTED BY IDOCK:   -3.37 KCAL/MOL
REMARK 924 INTRA-LIGAND FREE ENERGY PREDICTED BY IDOCK:   -0.13 KCAL/MOL
REMARK 927      BINDING AFFINITY PREDICTED BY RF-SCORE:    0.00 PKD
ROOT
HETATM    1  C   UNL     1     -11.729   9.846  71.196  1.00  0.00    -0.478 C  
HETATM    2  C   UNL     1     -10.533   8.876  71.038  1.00  0.00    -0.248 C  
HETATM    3  C   UNL     1      -9.555   9.586  70.088  1.00  0.00    -0.290 C  
ENDROOT
BRANCH   2   4
HETATM    4  N   UNL     1      -9.984   8.453  72.370  1.00  0.00    -0.304 NA 
BRANCH   4   5
HETATM    5  C   UNL     1     -10.988   7.619  73.113  1.00  0.00    -0.353 C  
BRANCH   5   6
HETATM    6  C   UNL     1     -11.722   6.536  72.284  1.00  0.00    -0.281 C  
BRANCH   6   7
HETATM    7  N   UNL     1     -10.960   6.037  71.150  1.00  0.00    -0.276 N  
HETATM    8  C   UNL     1     -10.228   4.873  71.238  1.00  0.00    -0.178 C  
HETATM    9  H   UNL     1     -10.966   6.559  70.274  1.00  0.00     0.000 HD 
HETATM   10  O   UNL     1     -10.134   4.240  72.289  1.00  0.00    -0.172 OA 
BRANCH   8  11
HETATM   11  C   UNL     1      -9.511   4.437  69.953  1.00  0.00    -0.183 C  
BRANCH  11  12
HETATM   12  N   UNL     1      -8.124   4.864  69.975  1.00  0.00    -0.072 N  
HETATM   13  C   UNL     1      -7.117   4.247  70.806  1.00  0.00    -0.037 C  
HETATM   14  C   UNL     1      -6.170   5.396  71.087  1.00  0.00    -0.033 C  
HETATM   15  C   UNL     1      -6.240   6.234  69.813  1.00  0.00    -0.027 C  
HETATM   16  C   UNL     1      -7.665   6.020  69.368  1.00  0.00    -0.098 C  
HETATM   17  O   UNL     1      -8.290   6.729  68.596  1.00  0.00    -0.119 OA 
ENDBRANCH  11  12
ENDBRANCH   8  11
ENDBRANCH   6   7
ENDBRANCH   5   6
ENDBRANCH   4   5
BRANCH   4  18
HETATM   18  C   UNL     1      -8.628   7.818  72.379  1.00  0.00    -0.132 C  
HETATM   19  C   UNL     1      -8.411   6.925  73.625  1.00  0.00    -0.151 C  
HETATM   20  C   UNL     1      -7.429   8.785  72.384  1.00  0.00     0.066 C  
ENDBRANCH   4  18
ENDBRANCH   2   4
TORSDOF 7
ENDMDL
MODEL      328
REMARK 921   NORMALIZED FREE ENERGY PREDICTED BY IDOCK:   -1.76 KCAL/MOL
REMARK 922        TOTAL FREE ENERGY PREDICTED BY IDOCK:   -3.49 KCAL/MOL
REMARK 923 INTER-LIGAND FREE ENERGY PREDICTED BY IDOCK:   -3.56 KCAL/MOL
REMARK 924 INTRA-LIGAND FREE ENERGY PREDICTED BY IDOCK:    0.07 KCAL/MOL
REMARK 927      BINDING AFFINITY PREDICTED BY RF-SCORE:    0.00 PKD
ROOT
HETATM    1  C   UNL     1     -11.717   9.754  71.198  1.00  0.00    -0.465 C  
HETATM    2  C   UNL     1     -10.453   8.869  71.073  1.00  0.00    -0.248 C  
HETATM    3  C   UNL     1      -9.465   9.687  70.224  1.00  0.00    -0.300 C  
ENDROOT
BRANCH   2   4
HETATM    4  N   UNL     1      -9.961   8.412  72.416  1.00  0.00    -0.304 NA 
BRANCH   4   5
HETATM    5  C   UNL     1     -10.976   7.522  73.073  1.00  0.00    -0.390 C  
BRANCH   5   6
HETATM    6  C   UNL     1     -11.581   6.406  72.185  1.00  0.00    -0.313 C  
BRANCH   6   7
HETATM    7  N   UNL     1     -10.670   5.305  71.910  1.00  0.00    -0.214 N  
HETATM    8  C   UNL     1     -10.639   4.187  72.714  1.00  0.00    -0.148 C  
HETATM    9  H   UNL     1     -10.041   5.363  71.109  1.00  0.00     0.000 HD 
HETATM   10  O   UNL     1     -11.329   4.094  73.728  1.00  0.00    -0.219 OA 
BRANCH   8  11
HETATM   11  C   UNL     1      -9.666   3.081  72.282  1.00  0.00    -0.154 C  
BRANCH  11  12
HETATM   12  N   UNL     1      -8.312   3.408  72.690  1.00  0.00    -0.080 N  
HETATM   13  C   UNL     1      -7.823   3.225  74.036  1.00  0.00    -0.066 C  
HETATM   14  C   UNL     1      -6.791   4.327  74.166  1.00  0.00    -0.060 C  
HETATM   15  C   UNL     1      -6.224   4.452  72.755  1.00  0.00    -0.017 C  
HETATM   16  C   UNL     1      -7.418   4.110  71.899  1.00  0.00    -0.065 C  
HETATM   17  O   UNL     1      -7.559   4.387  70.719  1.00  0.00    -0.051 OA 
ENDBRANCH  11  12
ENDBRANCH   8  11
ENDBRANCH   6   7
ENDBRANCH   5   6
ENDBRANCH   4   5
BRANCH   4  18
HETATM   18  C   UNL     1      -8.588   7.819  72.475  1.00  0.00    -0.136 C  
HETATM   19  C   UNL     1      -8.107   7.608  73.931  1.00  0.00    -0.216 C  
HETATM   20  C   UNL     1      -7.466   8.642  71.814  1.00  0.00    -0.114 C  
ENDBRANCH   4  18
ENDBRANCH   2   4
TORSDOF 7
ENDMDL
MODEL      329
REMARK 921   NORMALIZED FREE ENERGY PREDICTED BY IDOCK:   -1.76 KCAL/MOL
REMARK 922        TOTAL FREE ENERGY PREDICTED BY IDOCK:   -3.48 KCAL/MOL
REMARK 923 INTER-LIGAND FREE ENERGY PREDICTED BY IDOCK:   -2.73 KCAL/MOL
REMARK 924 INTRA-LIGAND FREE ENERGY PREDICTED BY IDOCK:   -0.76 KCAL/MOL
REMARK 927      BINDING AFFINITY PREDICTED BY RF-SCORE:    0.00 PKD
ROOT
HETATM    1  C   UNL     1      -8.646   7.990  73.912  1.00  0.00    -0.324 C  
HETATM    2  C   UNL     1      -9.266   7.166  72.757  1.00  0.00    -0.139 C  
HETATM    3  C   UNL     1     -10.493   6.468  73.368  1.00  0.00    -0.295 C  
ENDROOT
BRANCH   2   4
HETATM    4  N   UNL     1      -9.515   8.015  71.544  1.00  0.00    -0.153 NA 
BRANCH   4   5
HETATM    5  C   UNL     1      -8.644   7.572  70.404  1.00  0.00    -0.143 C  
BRANCH   5   6
HETATM    6  C   UNL     1      -7.611   6.462  70.726  1.00  0.00    -0.096 C  
BRANCH   6   7
HETATM    7  N   UNL     1      -7.297   5.599  69.599  1.00  0.00    -0.065 N  
HETATM    8  C   UNL     1      -6.374   5.974  68.647  1.00  0.00    -0.040 C  
HETATM    9  H   UNL     1      -7.768   4.698  69.511  1.00  0.00     0.000 HD 
HETATM   10  O   UNL     1      -5.825   7.075  68.671  1.00  0.00    -0.018 OA 
BRANCH   8  11
HETATM   11  C   UNL     1      -6.101   4.948  67.539  1.00  0.00    -0.030 C  
BRANCH  11  12
HETATM   12  N   UNL     1      -7.345   4.518  66.928  1.00  0.00    -0.079 N  
HETATM   13  C   UNL     1      -8.261   5.422  66.273  1.00  0.00    -0.110 C  
HETATM   14  C   UNL     1      -9.605   4.761  66.509  1.00  0.00    -0.181 C  
HETATM   15  C   UNL     1      -9.273   3.271  66.503  1.00  0.00    -0.169 C  
HETATM   16  C   UNL     1      -7.881   3.251  67.081  1.00  0.00    -0.079 C  
HETATM   17  O   UNL     1      -7.322   2.285  67.576  1.00  0.00    -0.054 OA 
ENDBRANCH  11  12
ENDBRANCH   8  11
ENDBRANCH   6   7
ENDBRANCH   5   6
ENDBRANCH   4   5
BRANCH   4  18
HETATM   18  C   UNL     1     -10.938   8.190  71.113  1.00  0.00    -0.237 C  
HETATM   19  C   UNL     1     -11.213   7.541  69.734  1.00  0.00    -0.072 C  
HETATM   20  C   UNL     1     -11.425   9.643  70.960  1.00  0.00    -0.444 C  
ENDBRANCH   4  18
ENDBRANCH   2   4
TORSDOF 7
ENDMDL
MODEL      330
REMARK 921   NORMALIZED FREE ENERGY PREDICTED BY IDOCK:   -1.71 KCAL/MOL
REMARK 922        TOTAL FREE ENERGY PREDICTED BY IDOCK:   -3.42 KCAL/MOL
REMARK 923 INTER-LIGAND FREE ENERGY PREDICTED BY IDOCK:   -2.73 KCAL/MOL
REMARK 924 INTRA-LIGAND FREE ENERGY PREDICTED BY IDOCK:   -0.69 KCAL/MOL
REMARK 927      BINDING AFFINITY PREDICTED BY RF-SCORE:    0.00 PKD
ROOT
HETATM    1  C   UNL     1      -6.728   9.599  64.676  1.00  0.00    -0.101 C  
HETATM    2  C   UNL     1      -8.212   9.494  64.250  1.00  0.00    -0.157 C  
HETATM    3  C   UNL     1      -8.327   8.157  63.499  1.00  0.00     0.013 C  
ENDROOT
BRANCH   2   4
HETATM    4  N   UNL     1      -9.139   9.688  65.415  1.00  0.00    -0.199 NA 
BRANCH   4   5
HETATM    5  C   UNL     1      -8.690   8.864  66.588  1.00  0.00    -0.127 C  
BRANCH   5   6
HETATM    6  C   UNL     1      -9.595   7.663  66.963  1.00  0.00    -0.175 C  
BRANCH   6   7
HETATM    7  N   UNL     1      -8.950   6.367  66.821  1.00  0.00    -0.126 N  
HETATM    8  C   UNL     1      -9.662   5.254  66.430  1.00  0.00    -0.169 C  
HETATM    9  H   UNL     1      -7.953   6.280  67.015  1.00  0.00     0.000 HD 
HETATM   10  O   UNL     1     -10.878   5.290  66.246  1.00  0.00    -0.285 OA 
BRANCH   8  11
HETATM   11  C   UNL     1      -8.849   3.962  66.273  1.00  0.00    -0.124 C  
BRANCH  11  12
HETATM   12  N   UNL     1      -8.424   3.469  67.570  1.00  0.00    -0.094 N  
HETATM   13  C   UNL     1      -9.330   2.896  68.537  1.00  0.00    -0.187 C  
HETATM   14  C   UNL     1      -8.678   3.257  69.857  1.00  0.00    -0.134 C  
HETATM   15  C   UNL     1      -7.186   3.227  69.536  1.00  0.00    -0.045 C  
HETATM   16  C   UNL     1      -7.160   3.676  68.096  1.00  0.00    -0.051 C  
HETATM   17  O   UNL     1      -6.193   4.123  67.500  1.00  0.00    -0.034 OA 
ENDBRANCH  11  12
ENDBRANCH   8  11
ENDBRANCH   6   7
ENDBRANCH   5   6
ENDBRANCH   4   5
BRANCH   4  18
HETATM   18  C   UNL     1      -9.444  11.098  65.818  1.00  0.00    -0.221 C  
HETATM   19  C   UNL     1      -9.442  11.277  67.355  1.00  0.00    -0.175 C  
HETATM   20  C   UNL     1     -10.809  11.650  65.366  1.00  0.00    -0.336 C  
ENDBRANCH   4  18
ENDBRANCH   2   4
TORSDOF 7
ENDMDL
MODEL      331
REMARK 921   NORMALIZED FREE ENERGY PREDICTED BY IDOCK:   -1.70 KCAL/MOL
REMARK 922        TOTAL FREE ENERGY PREDICTED BY IDOCK:   -3.41 KCAL/MOL
REMARK 923 INTER-LIGAND FREE ENERGY PREDICTED BY IDOCK:   -2.70 KCAL/MOL
REMARK 924 INTRA-LIGAND FREE ENERGY PREDICTED BY IDOCK:   -0.71 KCAL/MOL
REMARK 927      BINDING AFFINITY PREDICTED BY RF-SCORE:    0.00 PKD
ROOT
HETATM    1  C   UNL     1      -5.539   4.558  64.233  1.00  0.00    -0.014 C  
HETATM    2  C   UNL     1      -6.710   5.238  63.483  1.00  0.00    -0.037 C  
HETATM    3  C   UNL     1      -7.707   4.109  63.174  1.00  0.00    -0.066 C  
ENDROOT
BRANCH   2   4
HETATM    4  N   UNL     1      -7.248   6.414  64.247  1.00  0.00    -0.060 NA 
BRANCH   4   5
HETATM    5  C   UNL     1      -6.852   6.330  65.692  1.00  0.00    -0.052 C  
BRANCH   5   6
HETATM    6  C   UNL     1      -7.085   7.607  66.539  1.00  0.00    -0.075 C  
BRANCH   6   7
HETATM    7  N   UNL     1      -8.437   7.734  67.061  1.00  0.00    -0.123 N  
HETATM    8  C   UNL     1      -9.058   8.961  67.143  1.00  0.00    -0.138 C  
HETATM    9  H   UNL     1      -8.934   6.900  67.373  1.00  0.00     0.000 HD 
HETATM   10  O   UNL     1      -8.481  10.005  66.842  1.00  0.00    -0.124 OA 
BRANCH   8  11
HETATM   11  C   UNL     1     -10.501   8.946  67.667  1.00  0.00    -0.255 C  
BRANCH  11  12
HETATM   12  N   UNL     1     -10.677   7.883  68.639  1.00  0.00    -0.101 N  
HETATM   13  C   UNL     1     -10.375   8.035  70.043  1.00  0.00    -0.218 C  
HETATM   14  C   UNL     1      -9.966   6.632  70.447  1.00  0.00    -0.193 C  
HETATM   15  C   UNL     1     -10.826   5.740  69.556  1.00  0.00    -0.410 C  
HETATM   16  C   UNL     1     -10.953   6.569  68.303  1.00  0.00    -0.281 C  
HETATM   17  O   UNL     1     -11.263   6.156  67.197  1.00  0.00    -0.291 OA 
ENDBRANCH  11  12
ENDBRANCH   8  11
ENDBRANCH   6   7
ENDBRANCH   5   6
ENDBRANCH   4   5
BRANCH   4  18
HETATM   18  C   UNL     1      -6.981   7.775  63.682  1.00  0.00    -0.068 C  
HETATM   19  C   UNL     1      -8.257   8.416  63.083  1.00  0.00    -0.127 C  
HETATM   20  C   UNL     1      -5.945   7.844  62.544  1.00  0.00    -0.069 C  
ENDBRANCH   4  18
ENDBRANCH   2   4
TORSDOF 7
ENDMDL
MODEL      332
REMARK 921   NORMALIZED FREE ENERGY PREDICTED BY IDOCK:   -1.70 KCAL/MOL
REMARK 922        TOTAL FREE ENERGY PREDICTED BY IDOCK:   -3.41 KCAL/MOL
REMARK 923 INTER-LIGAND FREE ENERGY PREDICTED BY IDOCK:   -3.61 KCAL/MOL
REMARK 924 INTRA-LIGAND FREE ENERGY PREDICTED BY IDOCK:    0.21 KCAL/MOL
REMARK 927      BINDING AFFINITY PREDICTED BY RF-SCORE:    0.00 PKD
ROOT
HETATM    1  C   UNL     1      -8.885  14.022  68.223  1.00  0.00    -0.184 C  
HETATM    2  C   UNL     1      -8.334  13.170  67.053  1.00  0.00    -0.085 C  
HETATM    3  C   UNL     1      -6.831  13.012  67.336  1.00  0.00    -0.126 C  
ENDROOT
BRANCH   2   4
HETATM    4  N   UNL     1      -9.118  11.902  66.874  1.00  0.00    -0.190 NA 
BRANCH   4   5
HETATM    5  C   UNL     1      -8.277  10.709  67.222  1.00  0.00    -0.116 C  
BRANCH   5   6
HETATM    6  C   UNL     1      -7.876  10.568  68.713  1.00  0.00    -0.116 C  
BRANCH   6   7
HETATM    7  N   UNL     1      -8.043   9.226  69.248  1.00  0.00    -0.102 N  
HETATM    8  C   UNL     1      -7.867   8.966  70.589  1.00  0.00    -0.115 C  
HETATM    9  H   UNL     1      -8.294   8.463  68.619  1.00  0.00     0.000 HD 
HETATM   10  O   UNL     1      -7.500   9.835  71.379  1.00  0.00    -0.207 OA 
BRANCH   8  11
HETATM   11  C   UNL     1      -8.121   7.517  71.028  1.00  0.00    -0.100 C  
BRANCH  11  12
HETATM   12  N   UNL     1      -9.509   7.156  70.807  1.00  0.00    -0.164 N  
HETATM   13  C   UNL     1      -9.969   6.456  69.630  1.00  0.00    -0.164 C  
HETATM   14  C   UNL     1     -11.383   6.976  69.467  1.00  0.00    -0.138 C  
HETATM   15  C   UNL     1     -11.842   7.215  70.903  1.00  0.00    -0.379 C  
HETATM   16  C   UNL     1     -10.557   7.613  71.587  1.00  0.00    -0.202 C  
HETATM   17  O   UNL     1     -10.463   8.212  72.645  1.00  0.00    -0.301 OA 
ENDBRANCH  11  12
ENDBRANCH   8  11
ENDBRANCH   6   7
ENDBRANCH   5   6
ENDBRANCH   4   5
BRANCH   4  18
HETATM   18  C   UNL     1     -10.465  11.835  67.525  1.00  0.00    -0.202 C  
HETATM   19  C   UNL     1     -11.096  10.425  67.412  1.00  0.00    -0.297 C  
HETATM   20  C   UNL     1     -11.538  12.784  66.961  1.00  0.00    -0.422 C  
ENDBRANCH   4  18
ENDBRANCH   2   4
TORSDOF 7
ENDMDL
MODEL      333
REMARK 921   NORMALIZED FREE ENERGY PREDICTED BY IDOCK:   -1.66 KCAL/MOL
REMARK 922        TOTAL FREE ENERGY PREDICTED BY IDOCK:   -3.36 KCAL/MOL
REMARK 923 INTER-LIGAND FREE ENERGY PREDICTED BY IDOCK:   -2.63 KCAL/MOL
REMARK 924 INTRA-LIGAND FREE ENERGY PREDICTED BY IDOCK:   -0.73 KCAL/MOL
REMARK 927      BINDING AFFINITY PREDICTED BY RF-SCORE:    0.00 PKD
ROOT
HETATM    1  C   UNL     1      -6.647   9.548  64.468  1.00  0.00    -0.095 C  
HETATM    2  C   UNL     1      -7.917   9.258  63.630  1.00  0.00    -0.141 C  
HETATM    3  C   UNL     1      -7.860   7.755  63.311  1.00  0.00    -0.129 C  
ENDROOT
BRANCH   2   4
HETATM    4  N   UNL     1      -9.158   9.750  64.317  1.00  0.00    -0.246 NA 
BRANCH   4   5
HETATM    5  C   UNL     1      -9.039   9.581  65.804  1.00  0.00    -0.196 C  
BRANCH   5   6
HETATM    6  C   UNL     1      -9.959   8.511  66.444  1.00  0.00    -0.244 C  
BRANCH   6   7
HETATM    7  N   UNL     1      -9.257   7.546  67.277  1.00  0.00    -0.129 N  
HETATM    8  C   UNL     1      -9.515   6.197  67.179  1.00  0.00    -0.119 C  
HETATM    9  H   UNL     1      -8.562   7.876  67.947  1.00  0.00     0.000 HD 
HETATM   10  O   UNL     1     -10.389   5.753  66.435  1.00  0.00    -0.196 OA 
BRANCH   8  11
HETATM   11  C   UNL     1      -8.669   5.288  68.081  1.00  0.00    -0.102 C  
BRANCH  11  12
HETATM   12  N   UNL     1      -7.957   4.304  67.287  1.00  0.00    -0.096 N  
HETATM   13  C   UNL     1      -6.885   4.642  66.381  1.00  0.00    -0.058 C  
HETATM   14  C   UNL     1      -7.008   3.576  65.311  1.00  0.00    -0.060 C  
HETATM   15  C   UNL     1      -7.509   2.357  66.079  1.00  0.00    -0.067 C  
HETATM   16  C   UNL     1      -8.354   2.984  67.159  1.00  0.00    -0.090 C  
HETATM   17  O   UNL     1      -9.218   2.422  67.812  1.00  0.00    -0.171 OA 
ENDBRANCH  11  12
ENDBRANCH   8  11
ENDBRANCH   6   7
ENDBRANCH   5   6
ENDBRANCH   4   5
BRANCH   4  18
HETATM   18  C   UNL     1      -9.641  11.121  63.955  1.00  0.00    -0.254 C  
HETATM   19  C   UNL     1     -10.980  11.467  64.649  1.00  0.00    -0.353 C  
HETATM   20  C   UNL     1      -9.905  11.372  62.459  1.00  0.00     0.122 C  
ENDBRANCH   4  18
ENDBRANCH   2   4
TORSDOF 7
ENDMDL
MODEL      334
REMARK 921   NORMALIZED FREE ENERGY PREDICTED BY IDOCK:   -1.64 KCAL/MOL
REMARK 922        TOTAL FREE ENERGY PREDICTED BY IDOCK:   -3.32 KCAL/MOL
REMARK 923 INTER-LIGAND FREE ENERGY PREDICTED BY IDOCK:   -2.80 KCAL/MOL
REMARK 924 INTRA-LIGAND FREE ENERGY PREDICTED BY IDOCK:   -0.53 KCAL/MOL
REMARK 927      BINDING AFFINITY PREDICTED BY RF-SCORE:    0.00 PKD
ROOT
HETATM    1  C   UNL     1      -7.212   4.585  65.661  1.00  0.00    -0.072 C  
HETATM    2  C   UNL     1      -8.346   5.333  64.919  1.00  0.00    -0.144 C  
HETATM    3  C   UNL     1      -9.565   5.255  65.854  1.00  0.00    -0.142 C  
ENDROOT
BRANCH   2   4
HETATM    4  N   UNL     1      -7.917   6.708  64.493  1.00  0.00    -0.118 NA 
BRANCH   4   5
HETATM    5  C   UNL     1      -7.071   7.348  65.554  1.00  0.00    -0.061 C  
BRANCH   5   6
HETATM    6  C   UNL     1      -7.684   8.584  66.261  1.00  0.00    -0.094 C  
BRANCH   6   7
HETATM    7  N   UNL     1      -7.584   8.548  67.712  1.00  0.00    -0.097 N  
HETATM    8  C   UNL     1      -8.709   8.461  68.503  1.00  0.00    -0.136 C  
HETATM    9  H   UNL     1      -6.665   8.588  68.152  1.00  0.00     0.000 HD 
HETATM   10  O   UNL     1      -9.843   8.475  68.026  1.00  0.00    -0.157 OA 
BRANCH   8  11
HETATM   11  C   UNL     1      -8.458   8.382  70.015  1.00  0.00    -0.125 C  
BRANCH  11  12
HETATM   12  N   UNL     1      -9.351   7.417  70.629  1.00  0.00    -0.161 N  
HETATM   13  C   UNL     1      -9.283   5.998  70.370  1.00  0.00    -0.156 C  
HETATM   14  C   UNL     1     -10.725   5.562  70.538  1.00  0.00    -0.310 C  
HETATM   15  C   UNL     1     -11.257   6.500  71.618  1.00  0.00    -0.315 C  
HETATM   16  C   UNL     1     -10.476   7.763  71.357  1.00  0.00    -0.208 C  
HETATM   17  O   UNL     1     -10.774   8.884  71.737  1.00  0.00    -0.314 OA 
ENDBRANCH  11  12
ENDBRANCH   8  11
ENDBRANCH   6   7
ENDBRANCH   5   6
ENDBRANCH   4   5
BRANCH   4  18
HETATM   18  C   UNL     1      -7.294   6.839  63.138  1.00  0.00    -0.075 C  
HETATM   19  C   UNL     1      -5.895   6.179  63.075  1.00  0.00    -0.022 C  
HETATM   20  C   UNL     1      -7.066   8.276  62.633  1.00  0.00    -0.091 C  
ENDBRANCH   4  18
ENDBRANCH   2   4
TORSDOF 7
ENDMDL
MODEL      335
REMARK 921   NORMALIZED FREE ENERGY PREDICTED BY IDOCK:   -1.61 KCAL/MOL
REMARK 922        TOTAL FREE ENERGY PREDICTED BY IDOCK:   -3.28 KCAL/MOL
REMARK 923 INTER-LIGAND FREE ENERGY PREDICTED BY IDOCK:   -2.99 KCAL/MOL
REMARK 924 INTRA-LIGAND FREE ENERGY PREDICTED BY IDOCK:   -0.29 KCAL/MOL
REMARK 927      BINDING AFFINITY PREDICTED BY RF-SCORE:    0.00 PKD
ROOT
HETATM    1  C   UNL     1      -6.826  10.072  67.853  1.00  0.00    -0.075 C  
HETATM    2  C   UNL     1      -8.230   9.966  67.208  1.00  0.00    -0.121 C  
HETATM    3  C   UNL     1      -8.222  10.976  66.048  1.00  0.00    -0.129 C  
ENDROOT
BRANCH   2   4
HETATM    4  N   UNL     1      -8.574   8.547  66.858  1.00  0.00    -0.115 NA 
BRANCH   4   5
HETATM    5  C   UNL     1     -10.040   8.296  67.056  1.00  0.00    -0.283 C  
BRANCH   5   6
HETATM    6  C   UNL     1     -10.410   7.168  68.053  1.00  0.00    -0.194 C  
BRANCH   6   7
HETATM    7  N   UNL     1      -9.428   6.962  69.107  1.00  0.00    -0.142 N  
HETATM    8  C   UNL     1      -9.309   5.746  69.743  1.00  0.00    -0.147 C  
HETATM    9  H   UNL     1      -8.817   7.732  69.380  1.00  0.00     0.000 HD 
HETATM   10  O   UNL     1     -10.063   4.805  69.497  1.00  0.00    -0.226 OA 
BRANCH   8  11
HETATM   11  C   UNL     1      -8.201   5.651  70.800  1.00  0.00    -0.118 C  
BRANCH  11  12
HETATM   12  N   UNL     1      -8.651   6.213  72.060  1.00  0.00    -0.132 N  
HETATM   13  C   UNL     1      -9.588   5.548  72.935  1.00  0.00    -0.147 C  
HETATM   14  C   UNL     1     -10.301   6.708  73.600  1.00  0.00    -0.343 C  
HETATM   15  C   UNL     1      -9.222   7.784  73.692  1.00  0.00    -0.344 C  
HETATM   16  C   UNL     1      -8.397   7.514  72.458  1.00  0.00    -0.112 C  
HETATM   17  O   UNL     1      -7.631   8.298  71.921  1.00  0.00    -0.092 OA 
ENDBRANCH  11  12
ENDBRANCH   8  11
ENDBRANCH   6   7
ENDBRANCH   5   6
ENDBRANCH   4   5
BRANCH   4  18
HETATM   18  C   UNL     1      -8.103   8.039  65.530  1.00  0.00    -0.128 C  
HETATM   19  C   UNL     1      -8.497   6.559  65.301  1.00  0.00    -0.091 C  
HETATM   20  C   UNL     1      -6.581   8.074  65.293  1.00  0.00    -0.051 C  
ENDBRANCH   4  18
ENDBRANCH   2   4
TORSDOF 7
ENDMDL
MODEL      336
REMARK 921   NORMALIZED FREE ENERGY PREDICTED BY IDOCK:   -1.61 KCAL/MOL
REMARK 922        TOTAL FREE ENERGY PREDICTED BY IDOCK:   -3.27 KCAL/MOL
REMARK 923 INTER-LIGAND FREE ENERGY PREDICTED BY IDOCK:   -2.66 KCAL/MOL
REMARK 924 INTRA-LIGAND FREE ENERGY PREDICTED BY IDOCK:   -0.61 KCAL/MOL
REMARK 927      BINDING AFFINITY PREDICTED BY RF-SCORE:    0.00 PKD
ROOT
HETATM    1  C   UNL     1      -8.105   2.773  66.785  1.00  0.00    -0.081 C  
HETATM    2  C   UNL     1      -7.514   3.558  65.588  1.00  0.00    -0.077 C  
HETATM    3  C   UNL     1      -6.776   2.510  64.738  1.00  0.00    -0.039 C  
ENDROOT
BRANCH   2   4
HETATM    4  N   UNL     1      -8.563   4.371  64.886  1.00  0.00    -0.125 NA 
BRANCH   4   5
HETATM    5  C   UNL     1      -8.140   5.809  64.792  1.00  0.00    -0.132 C  
BRANCH   5   6
HETATM    6  C   UNL     1      -7.220   6.324  65.927  1.00  0.00    -0.075 C  
BRANCH   6   7
HETATM    7  N   UNL     1      -7.935   6.851  67.079  1.00  0.00    -0.114 N  
HETATM    8  C   UNL     1      -7.314   7.680  67.987  1.00  0.00    -0.099 C  
HETATM    9  H   UNL     1      -8.914   6.601  67.218  1.00  0.00     0.000 HD 
HETATM   10  O   UNL     1      -6.119   7.960  67.903  1.00  0.00    -0.043 OA 
BRANCH   8  11
HETATM   11  C   UNL     1      -8.198   8.202  69.128  1.00  0.00    -0.123 C  
BRANCH  11  12
HETATM   12  N   UNL     1      -9.077   7.153  69.610  1.00  0.00    -0.141 N  
HETATM   13  C   UNL     1      -8.632   5.805  69.876  1.00  0.00    -0.127 C  
HETATM   14  C   UNL     1      -9.872   4.984  69.583  1.00  0.00    -0.290 C  
HETATM   15  C   UNL     1     -11.016   5.908  69.993  1.00  0.00    -0.430 C  
HETATM   16  C   UNL     1     -10.455   7.271  69.672  1.00  0.00    -0.231 C  
HETATM   17  O   UNL     1     -11.101   8.294  69.515  1.00  0.00    -0.112 OA 
ENDBRANCH  11  12
ENDBRANCH   8  11
ENDBRANCH   6   7
ENDBRANCH   5   6
ENDBRANCH   4   5
BRANCH   4  18
HETATM   18  C   UNL     1      -9.059   3.856  63.571  1.00  0.00    -0.119 C  
HETATM   19  C   UNL     1      -9.111   4.966  62.493  1.00  0.00    -0.066 C  
HETATM   20  C   UNL     1     -10.476   3.252  63.571  1.00  0.00    -0.239 C  
ENDBRANCH   4  18
ENDBRANCH   2   4
TORSDOF 7
ENDMDL
MODEL      337
REMARK 921   NORMALIZED FREE ENERGY PREDICTED BY IDOCK:   -1.56 KCAL/MOL
REMARK 922        TOTAL FREE ENERGY PREDICTED BY IDOCK:   -3.21 KCAL/MOL
REMARK 923 INTER-LIGAND FREE ENERGY PREDICTED BY IDOCK:   -2.13 KCAL/MOL
REMARK 924 INTRA-LIGAND FREE ENERGY PREDICTED BY IDOCK:   -1.08 KCAL/MOL
REMARK 927      BINDING AFFINITY PREDICTED BY RF-SCORE:    0.00 PKD
ROOT
HETATM    1  C   UNL     1      -6.982   5.267  65.516  1.00  0.00    -0.065 C  
HETATM    2  C   UNL     1      -8.236   6.133  65.241  1.00  0.00    -0.142 C  
HETATM    3  C   UNL     1      -9.351   5.522  66.106  1.00  0.00    -0.169 C  
ENDROOT
BRANCH   2   4
HETATM    4  N   UNL     1      -7.956   7.594  65.445  1.00  0.00    -0.116 NA 
BRANCH   4   5
HETATM    5  C   UNL     1      -6.789   7.783  66.370  1.00  0.00    -0.062 C  
BRANCH   5   6
HETATM    6  C   UNL     1      -7.125   8.277  67.800  1.00  0.00    -0.083 C  
BRANCH   6   7
HETATM    7  N   UNL     1      -6.841   7.307  68.846  1.00  0.00    -0.069 N  
HETATM    8  C   UNL     1      -7.851   6.762  69.608  1.00  0.00    -0.115 C  
HETATM    9  H   UNL     1      -5.876   7.026  69.019  1.00  0.00     0.000 HD 
HETATM   10  O   UNL     1      -9.023   7.114  69.484  1.00  0.00    -0.140 OA 
BRANCH   8  11
HETATM   11  C   UNL     1      -7.416   5.715  70.643  1.00  0.00    -0.085 C  
BRANCH  11  12
HETATM   12  N   UNL     1      -7.776   4.382  70.199  1.00  0.00    -0.049 N  
HETATM   13  C   UNL     1      -7.184   3.743  69.047  1.00  0.00    -0.050 C  
HETATM   14  C   UNL     1      -8.305   2.853  68.549  1.00  0.00    -0.085 C  
HETATM   15  C   UNL     1      -9.033   2.449  69.828  1.00  0.00    -0.157 C  
HETATM   16  C   UNL     1      -8.851   3.668  70.698  1.00  0.00    -0.080 C  
HETATM   17  O   UNL     1      -9.521   3.958  71.675  1.00  0.00    -0.131 OA 
ENDBRANCH  11  12
ENDBRANCH   8  11
ENDBRANCH   6   7
ENDBRANCH   5   6
ENDBRANCH   4   5
BRANCH   4  18
HETATM   18  C   UNL     1      -7.829   8.443  64.218  1.00  0.00    -0.143 C  
HETATM   19  C   UNL     1      -8.861   9.597  64.200  1.00  0.00    -0.257 C  
HETATM   20  C   UNL     1      -8.033   7.722  62.873  1.00  0.00    -0.130 C  
ENDBRANCH   4  18
ENDBRANCH   2   4
TORSDOF 7
ENDMDL
MODEL      338
REMARK 921   NORMALIZED FREE ENERGY PREDICTED BY IDOCK:   -1.54 KCAL/MOL
REMARK 922        TOTAL FREE ENERGY PREDICTED BY IDOCK:   -3.18 KCAL/MOL
REMARK 923 INTER-LIGAND FREE ENERGY PREDICTED BY IDOCK:   -2.80 KCAL/MOL
REMARK 924 INTRA-LIGAND FREE ENERGY PREDICTED BY IDOCK:   -0.38 KCAL/MOL
REMARK 927      BINDING AFFINITY PREDICTED BY RF-SCORE:    0.00 PKD
ROOT
HETATM    1  C   UNL     1      -5.821   5.613  65.724  1.00  0.00    -0.024 C  
HETATM    2  C   UNL     1      -7.145   5.308  66.465  1.00  0.00    -0.069 C  
HETATM    3  C   UNL     1      -7.961   6.610  66.397  1.00  0.00    -0.106 C  
ENDROOT
BRANCH   2   4
HETATM    4  N   UNL     1      -7.810   4.074  65.927  1.00  0.00    -0.090 NA 
BRANCH   4   5
HETATM    5  C   UNL     1      -8.719   3.472  66.959  1.00  0.00    -0.119 C  
BRANCH   5   6
HETATM    6  C   UNL     1      -8.071   3.139  68.327  1.00  0.00    -0.069 C  
BRANCH   6   7
HETATM    7  N   UNL     1      -8.051   4.253  69.261  1.00  0.00    -0.063 N  
HETATM    8  C   UNL     1      -9.190   4.644  69.930  1.00  0.00    -0.125 C  
HETATM    9  H   UNL     1      -7.178   4.754  69.425  1.00  0.00     0.000 HD 
HETATM   10  O   UNL     1     -10.282   4.116  69.722  1.00  0.00    -0.010 OA 
BRANCH   8  11
HETATM   11  C   UNL     1      -9.018   5.802  70.923  1.00  0.00    -0.145 C  
BRANCH  11  12
HETATM   12  N   UNL     1     -10.281   6.486  71.130  1.00  0.00    -0.191 N  
HETATM   13  C   UNL     1     -10.748   7.559  70.284  1.00  0.00    -0.238 C  
HETATM   14  C   UNL     1     -11.571   8.400  71.241  1.00  0.00    -0.326 C  
HETATM   15  C   UNL     1     -12.155   7.371  72.205  1.00  0.00    -0.289 C  
HETATM   16  C   UNL     1     -11.067   6.328  72.258  1.00  0.00    -0.271 C  
HETATM   17  O   UNL     1     -10.920   5.487  73.129  1.00  0.00    -0.257 OA 
ENDBRANCH  11  12
ENDBRANCH   8  11
ENDBRANCH   6   7
ENDBRANCH   5   6
ENDBRANCH   4   5
BRANCH   4  18
HETATM   18  C   UNL     1      -8.488   4.189  64.596  1.00  0.00    -0.110 C  
HETATM   19  C   UNL     1     -10.020   3.998  64.706  1.00  0.00    -0.210 C  
HETATM   20  C   UNL     1      -8.048   3.175  63.523  1.00  0.00    -0.085 C  
ENDBRANCH   4  18
ENDBRANCH   2   4
TORSDOF 7
ENDMDL
MODEL      339
REMARK 921   NORMALIZED FREE ENERGY PREDICTED BY IDOCK:   -1.54 KCAL/MOL
REMARK 922        TOTAL FREE ENERGY PREDICTED BY IDOCK:   -3.17 KCAL/MOL
REMARK 923 INTER-LIGAND FREE ENERGY PREDICTED BY IDOCK:   -3.68 KCAL/MOL
REMARK 924 INTRA-LIGAND FREE ENERGY PREDICTED BY IDOCK:    0.51 KCAL/MOL
REMARK 927      BINDING AFFINITY PREDICTED BY RF-SCORE:    0.00 PKD
ROOT
HETATM    1  C   UNL     1      -7.290   4.678  64.689  1.00  0.00    -0.071 C  
HETATM    2  C   UNL     1      -8.368   3.876  65.458  1.00  0.00    -0.105 C  
HETATM    3  C   UNL     1      -7.811   2.447  65.569  1.00  0.00    -0.078 C  
ENDROOT
BRANCH   2   4
HETATM    4  N   UNL     1      -8.746   4.549  66.746  1.00  0.00    -0.111 NA 
BRANCH   4   5
HETATM    5  C   UNL     1     -10.239   4.640  66.875  1.00  0.00    -0.155 C  
BRANCH   5   6
HETATM    6  C   UNL     1     -10.854   6.052  66.698  1.00  0.00    -0.213 C  
BRANCH   6   7
HETATM    7  N   UNL     1     -11.295   6.667  67.940  1.00  0.00    -0.616 N  
HETATM    8  C   UNL     1     -10.422   7.376  68.735  1.00  0.00    -0.199 C  
HETATM    9  H   UNL     1     -12.269   6.572  68.227  1.00  0.00     0.000 HD 
HETATM   10  O   UNL     1      -9.224   7.467  68.469  1.00  0.00    -0.143 OA 
BRANCH   8  11
HETATM   11  C   UNL     1     -11.031   8.014  69.992  1.00  0.00    -0.202 C  
BRANCH  11  12
HETATM   12  N   UNL     1     -10.574   7.325  71.184  1.00  0.00    -0.222 N  
HETATM   13  C   UNL     1     -10.950   5.969  71.509  1.00  0.00    -0.277 C  
HETATM   14  C   UNL     1     -10.931   5.975  73.025  1.00  0.00    -0.289 C  
HETATM   15  C   UNL     1      -9.816   6.961  73.362  1.00  0.00    -0.247 C  
HETATM   16  C   UNL     1      -9.905   7.946  72.224  1.00  0.00    -0.215 C  
HETATM   17  O   UNL     1      -9.452   9.079  72.218  1.00  0.00    -0.315 OA 
ENDBRANCH  11  12
ENDBRANCH   8  11
ENDBRANCH   6   7
ENDBRANCH   5   6
ENDBRANCH   4   5
BRANCH   4  18
HETATM   18  C   UNL     1      -8.116   4.026  68.000  1.00  0.00    -0.088 C  
HETATM   19  C   UNL     1      -6.570   4.108  67.951  1.00  0.00    -0.042 C  
HETATM   20  C   UNL     1      -8.414   2.555  68.344  1.00  0.00    -0.093 C  
ENDBRANCH   4  18
ENDBRANCH   2   4
TORSDOF 7
ENDMDL
MODEL      340
REMARK 921   NORMALIZED FREE ENERGY PREDICTED BY IDOCK:   -1.46 KCAL/MOL
REMARK 922        TOTAL FREE ENERGY PREDICTED BY IDOCK:   -3.07 KCAL/MOL
REMARK 923 INTER-LIGAND FREE ENERGY PREDICTED BY IDOCK:   -2.72 KCAL/MOL
REMARK 924 INTRA-LIGAND FREE ENERGY PREDICTED BY IDOCK:   -0.35 KCAL/MOL
REMARK 927      BINDING AFFINITY PREDICTED BY RF-SCORE:    0.00 PKD
ROOT
HETATM    1  C   UNL     1      -9.322  10.760  68.132  1.00  0.00    -0.155 C  
HETATM    2  C   UNL     1     -10.694  10.803  68.847  1.00  0.00    -0.222 C  
HETATM    3  C   UNL     1     -11.633  11.547  67.882  1.00  0.00    -0.352 C  
ENDROOT
BRANCH   2   4
HETATM    4  N   UNL     1     -11.134   9.436  69.286  1.00  0.00    -0.114 NA 
BRANCH   4   5
HETATM    5  C   UNL     1     -10.398   8.375  68.521  1.00  0.00    -0.200 C  
BRANCH   5   6
HETATM    6  C   UNL     1     -11.270   7.431  67.654  1.00  0.00     0.244 C  
BRANCH   6   7
HETATM    7  N   UNL     1     -10.665   6.134  67.396  1.00  0.00    -0.285 N  
HETATM    8  C   UNL     1     -10.469   5.223  68.411  1.00  0.00    -0.073 C  
HETATM    9  H   UNL     1     -10.381   5.894  66.446  1.00  0.00     0.000 HD 
HETATM   10  O   UNL     1     -10.733   5.487  69.583  1.00  0.00    -0.322 OA 
BRANCH   8  11
HETATM   11  C   UNL     1      -9.867   3.875  67.991  1.00  0.00     0.020 C  
BRANCH  11  12
HETATM   12  N   UNL     1      -9.012   3.352  69.041  1.00  0.00    -0.113 N  
HETATM   13  C   UNL     1      -9.469   2.418  70.043  1.00  0.00    -0.065 C  
HETATM   14  C   UNL     1      -8.605   2.766  71.238  1.00  0.00    -0.103 C  
HETATM   15  C   UNL     1      -7.287   3.207  70.607  1.00  0.00    -0.037 C  
HETATM   16  C   UNL     1      -7.745   3.836  69.316  1.00  0.00    -0.052 C  
HETATM   17  O   UNL     1      -7.105   4.617  68.631  1.00  0.00    -0.051 OA 
ENDBRANCH  11  12
ENDBRANCH   8  11
ENDBRANCH   6   7
ENDBRANCH   5   6
ENDBRANCH   4   5
BRANCH   4  18
HETATM   18  C   UNL     1     -11.129   9.157  70.757  1.00  0.00    -0.275 C  
HETATM   19  C   UNL     1     -10.056   8.111  71.147  1.00  0.00    -0.222 C  
HETATM   20  C   UNL     1     -12.440   8.603  71.346  1.00  0.00    -0.337 C  
ENDBRANCH   4  18
ENDBRANCH   2   4
TORSDOF 7
ENDMDL
MODEL      341
REMARK 921   NORMALIZED FREE ENERGY PREDICTED BY IDOCK:   -1.46 KCAL/MOL
REMARK 922        TOTAL FREE ENERGY PREDICTED BY IDOCK:   -3.07 KCAL/MOL
REMARK 923 INTER-LIGAND FREE ENERGY PREDICTED BY IDOCK:   -2.84 KCAL/MOL
REMARK 924 INTRA-LIGAND FREE ENERGY PREDICTED BY IDOCK:   -0.23 KCAL/MOL
REMARK 927      BINDING AFFINITY PREDICTED BY RF-SCORE:    0.00 PKD
ROOT
HETATM    1  C   UNL     1      -8.786  14.147  68.483  1.00  0.00    -0.173 C  
HETATM    2  C   UNL     1      -8.396  13.226  67.301  1.00  0.00    -0.177 C  
HETATM    3  C   UNL     1      -6.903  12.916  67.502  1.00  0.00    -0.155 C  
ENDROOT
BRANCH   2   4
HETATM    4  N   UNL     1      -9.315  12.044  67.193  1.00  0.00    -0.182 NA 
BRANCH   4   5
HETATM    5  C   UNL     1      -8.717  10.847  67.872  1.00  0.00    -0.131 C  
BRANCH   5   6
HETATM    6  C   UNL     1      -8.872  10.790  69.413  1.00  0.00     0.047 C  
BRANCH   6   7
HETATM    7  N   UNL     1      -9.272   9.487  69.923  1.00  0.00    -0.203 N  
HETATM    8  C   UNL     1      -8.391   8.693  70.622  1.00  0.00    -0.143 C  
HETATM    9  H   UNL     1     -10.223   9.156  69.758  1.00  0.00     0.000 HD 
HETATM   10  O   UNL     1      -7.216   9.016  70.793  1.00  0.00    -0.074 OA 
BRANCH   8  11
HETATM   11  C   UNL     1      -8.958   7.365  71.144  1.00  0.00    -0.143 C  
BRANCH  11  12
HETATM   12  N   UNL     1      -8.494   6.259  70.328  1.00  0.00    -0.132 N  
HETATM   13  C   UNL     1      -7.426   5.373  70.726  1.00  0.00    -0.080 C  
HETATM   14  C   UNL     1      -6.816   4.972  69.398  1.00  0.00    -0.053 C  
HETATM   15  C   UNL     1      -8.010   4.962  68.447  1.00  0.00    -0.085 C  
HETATM   16  C   UNL     1      -8.878   6.058  69.013  1.00  0.00    -0.121 C  
HETATM   17  O   UNL     1      -9.769   6.646  68.422  1.00  0.00    -0.126 OA 
ENDBRANCH  11  12
ENDBRANCH   8  11
ENDBRANCH   6   7
ENDBRANCH   5   6
ENDBRANCH   4   5
BRANCH   4  18
HETATM   18  C   UNL     1     -10.743  12.250  67.596  1.00  0.00    -0.220 C  
HETATM   19  C   UNL     1     -11.533  10.920  67.638  1.00  0.00    -0.281 C  
HETATM   20  C   UNL     1     -11.578  13.167  66.684  1.00  0.00    -0.403 C  
ENDBRANCH   4  18
ENDBRANCH   2   4
TORSDOF 7
ENDMDL
MODEL      342
REMARK 921   NORMALIZED FREE ENERGY PREDICTED BY IDOCK:   -1.39 KCAL/MOL
REMARK 922        TOTAL FREE ENERGY PREDICTED BY IDOCK:   -2.97 KCAL/MOL
REMARK 923 INTER-LIGAND FREE ENERGY PREDICTED BY IDOCK:   -2.15 KCAL/MOL
REMARK 924 INTRA-LIGAND FREE ENERGY PREDICTED BY IDOCK:   -0.82 KCAL/MOL
REMARK 927      BINDING AFFINITY PREDICTED BY RF-SCORE:    0.00 PKD
ROOT
HETATM    1  C   UNL     1      -8.067   2.937  66.738  1.00  0.00    -0.084 C  
HETATM    2  C   UNL     1      -7.775   3.887  65.551  1.00  0.00    -0.085 C  
HETATM    3  C   UNL     1      -6.592   3.251  64.801  1.00  0.00    -0.039 C  
ENDROOT
BRANCH   2   4
HETATM    4  N   UNL     1      -9.010   4.160  64.742  1.00  0.00    -0.133 NA 
BRANCH   4   5
HETATM    5  C   UNL     1      -9.147   5.630  64.469  1.00  0.00     0.370 C  
BRANCH   5   6
HETATM    6  C   UNL     1      -8.581   6.581  65.554  1.00  0.00    -0.102 C  
BRANCH   6   7
HETATM    7  N   UNL     1      -9.559   6.997  66.547  1.00  0.00    -0.283 N  
HETATM    8  C   UNL     1     -10.017   8.296  66.598  1.00  0.00    -0.278 C  
HETATM    9  H   UNL     1      -9.912   6.315  67.219  1.00  0.00     0.000 HD 
HETATM   10  O   UNL     1      -9.577   9.171  65.854  1.00  0.00    -0.253 OA 
BRANCH   8  11
HETATM   11  C   UNL     1     -11.083   8.587  67.663  1.00  0.00     0.401 C  
BRANCH  11  12
HETATM   12  N   UNL     1     -10.597   8.223  68.981  1.00  0.00    -0.191 N  
HETATM   13  C   UNL     1      -9.711   9.058  69.757  1.00  0.00    -0.175 C  
HETATM   14  C   UNL     1      -8.921   8.044  70.560  1.00  0.00    -0.152 C  
HETATM   15  C   UNL     1      -9.923   6.917  70.796  1.00  0.00    -0.201 C  
HETATM   16  C   UNL     1     -10.762   6.969  69.543  1.00  0.00    -0.241 C  
HETATM   17  O   UNL     1     -11.471   6.072  69.116  1.00  0.00    -0.316 OA 
ENDBRANCH  11  12
ENDBRANCH   8  11
ENDBRANCH   6   7
ENDBRANCH   5   6
ENDBRANCH   4   5
BRANCH   4  18
HETATM   18  C   UNL     1      -9.205   3.349  63.499  1.00  0.00    -0.098 C  
HETATM   19  C   UNL     1      -9.792   4.192  62.340  1.00  0.00    -0.148 C  
HETATM   20  C   UNL     1     -10.158   2.144  63.620  1.00  0.00    -0.142 C  
ENDBRANCH   4  18
ENDBRANCH   2   4
TORSDOF 7
ENDMDL
MODEL      343
REMARK 921   NORMALIZED FREE ENERGY PREDICTED BY IDOCK:   -1.39 KCAL/MOL
REMARK 922        TOTAL FREE ENERGY PREDICTED BY IDOCK:   -2.96 KCAL/MOL
REMARK 923 INTER-LIGAND FREE ENERGY PREDICTED BY IDOCK:   -2.75 KCAL/MOL
REMARK 924 INTRA-LIGAND FREE ENERGY PREDICTED BY IDOCK:   -0.21 KCAL/MOL
REMARK 927      BINDING AFFINITY PREDICTED BY RF-SCORE:    0.00 PKD
ROOT
HETATM    1  C   UNL     1      -7.142  10.335  65.327  1.00  0.00    -0.130 C  
HETATM    2  C   UNL     1      -6.444   9.795  66.599  1.00  0.00    -0.070 C  
HETATM    3  C   UNL     1      -6.460  10.964  67.599  1.00  0.00    -0.056 C  
ENDROOT
BRANCH   2   4
HETATM    4  N   UNL     1      -7.061   8.508  67.066  1.00  0.00    -0.074 NA 
BRANCH   4   5
HETATM    5  C   UNL     1      -8.445   8.354  66.505  1.00  0.00    -0.113 C  
BRANCH   5   6
HETATM    6  C   UNL     1      -8.953   6.899  66.334  1.00  0.00    -0.153 C  
BRANCH   6   7
HETATM    7  N   UNL     1      -9.624   6.362  67.507  1.00  0.00    -0.119 N  
HETATM    8  C   UNL     1     -10.569   7.098  68.187  1.00  0.00    -0.192 C  
HETATM    9  H   UNL     1      -9.391   5.424  67.832  1.00  0.00     0.000 HD 
HETATM   10  O   UNL     1     -10.841   8.257  67.877  1.00  0.00    -0.117 OA 
BRANCH   8  11
HETATM   11  C   UNL     1     -11.235   6.393  69.378  1.00  0.00    -0.394 C  
BRANCH  11  12
HETATM   12  N   UNL     1     -11.341   7.297  70.508  1.00  0.00    -0.279 N  
HETATM   13  C   UNL     1     -12.501   8.119  70.760  1.00  0.00     0.121 C  
HETATM   14  C   UNL     1     -11.905   9.329  71.451  1.00  0.00    -0.428 C  
HETATM   15  C   UNL     1     -10.727   8.750  72.230  1.00  0.00    -0.322 C  
HETATM   16  C   UNL     1     -10.282   7.617  71.340  1.00  0.00    -0.185 C  
HETATM   17  O   UNL     1      -9.191   7.071  71.365  1.00  0.00    -0.151 OA 
ENDBRANCH  11  12
ENDBRANCH   8  11
ENDBRANCH   6   7
ENDBRANCH   5   6
ENDBRANCH   4   5
BRANCH   4  18
HETATM   18  C   UNL     1      -6.253   7.260  66.888  1.00  0.00    -0.043 C  
HETATM   19  C   UNL     1      -5.504   6.864  68.184  1.00  0.00    -0.019 C  
HETATM   20  C   UNL     1      -5.155   7.313  65.809  1.00  0.00    -0.024 C  
ENDBRANCH   4  18
ENDBRANCH   2   4
TORSDOF 7
ENDMDL
MODEL      344
REMARK 921   NORMALIZED FREE ENERGY PREDICTED BY IDOCK:   -1.38 KCAL/MOL
REMARK 922        TOTAL FREE ENERGY PREDICTED BY IDOCK:   -2.95 KCAL/MOL
REMARK 923 INTER-LIGAND FREE ENERGY PREDICTED BY IDOCK:   -2.20 KCAL/MOL
REMARK 924 INTRA-LIGAND FREE ENERGY PREDICTED BY IDOCK:   -0.76 KCAL/MOL
REMARK 927      BINDING AFFINITY PREDICTED BY RF-SCORE:    0.00 PKD
ROOT
HETATM    1  C   UNL     1      -7.908   3.017  66.794  1.00  0.00    -0.076 C  
HETATM    2  C   UNL     1      -7.207   4.003  65.828  1.00  0.00    -0.072 C  
HETATM    3  C   UNL     1      -6.268   3.137  64.972  1.00  0.00    -0.023 C  
ENDROOT
BRANCH   2   4
HETATM    4  N   UNL     1      -8.199   4.850  65.084  1.00  0.00    -0.119 NA 
BRANCH   4   5
HETATM    5  C   UNL     1      -7.666   6.239  64.889  1.00  0.00    -0.099 C  
BRANCH   5   6
HETATM    6  C   UNL     1      -6.605   6.712  65.915  1.00  0.00    -0.044 C  
BRANCH   6   7
HETATM    7  N   UNL     1      -7.139   7.547  66.980  1.00  0.00    -0.082 N  
HETATM    8  C   UNL     1      -6.798   8.878  67.082  1.00  0.00    -0.074 C  
HETATM    9  H   UNL     1      -7.778   7.140  67.663  1.00  0.00     0.000 HD 
HETATM   10  O   UNL     1      -5.982   9.402  66.324  1.00  0.00    -0.057 OA 
BRANCH   8  11
HETATM   11  C   UNL     1      -7.471   9.654  68.223  1.00  0.00    -0.077 C  
BRANCH  11  12
HETATM   12  N   UNL     1      -8.723  10.233  67.773  1.00  0.00    -0.122 N  
HETATM   13  C   UNL     1      -9.920   9.458  67.550  1.00  0.00    -0.199 C  
HETATM   14  C   UNL     1     -10.613  10.229  66.444  1.00  0.00    -0.177 C  
HETATM   15  C   UNL     1     -10.231  11.679  66.729  1.00  0.00    -0.248 C  
HETATM   16  C   UNL     1      -8.851  11.535  67.321  1.00  0.00    -0.160 C  
HETATM   17  O   UNL     1      -8.009  12.415  67.402  1.00  0.00    -0.159 OA 
ENDBRANCH  11  12
ENDBRANCH   8  11
ENDBRANCH   6   7
ENDBRANCH   5   6
ENDBRANCH   4   5
BRANCH   4  18
HETATM   18  C   UNL     1      -8.755   4.290  63.811  1.00  0.00    -0.125 C  
HETATM   19  C   UNL     1      -8.749   5.332  62.666  1.00  0.00    -0.059 C  
HETATM   20  C   UNL     1     -10.211   3.790  63.870  1.00  0.00    -0.225 C  
ENDBRANCH   4  18
ENDBRANCH   2   4
TORSDOF 7
ENDMDL
MODEL      345
REMARK 921   NORMALIZED FREE ENERGY PREDICTED BY IDOCK:   -1.37 KCAL/MOL
REMARK 922        TOTAL FREE ENERGY PREDICTED BY IDOCK:   -2.94 KCAL/MOL
REMARK 923 INTER-LIGAND FREE ENERGY PREDICTED BY IDOCK:   -2.80 KCAL/MOL
REMARK 924 INTRA-LIGAND FREE ENERGY PREDICTED BY IDOCK:   -0.14 KCAL/MOL
REMARK 927      BINDING AFFINITY PREDICTED BY RF-SCORE:    0.00 PKD
ROOT
HETATM    1  C   UNL     1     -10.346   7.529  72.516  1.00  0.00    -0.291 C  
HETATM    2  C   UNL     1      -9.908   7.390  71.037  1.00  0.00    -0.179 C  
HETATM    3  C   UNL     1     -10.059   8.797  70.434  1.00  0.00    -0.223 C  
ENDROOT
BRANCH   2   4
HETATM    4  N   UNL     1      -8.553   6.754  70.918  1.00  0.00    -0.136 NA 
BRANCH   4   5
HETATM    5  C   UNL     1      -7.750   7.421  69.841  1.00  0.00    -0.099 C  
BRANCH   5   6
HETATM    6  C   UNL     1      -8.338   7.351  68.409  1.00  0.00    -0.125 C  
BRANCH   6   7
HETATM    7  N   UNL     1      -8.182   8.576  67.641  1.00  0.00    -0.117 N  
HETATM    8  C   UNL     1      -7.310   8.647  66.577  1.00  0.00    -0.081 C  
HETATM    9  H   UNL     1      -8.729   9.399  67.895  1.00  0.00     0.000 HD 
HETATM   10  O   UNL     1      -6.581   7.705  66.269  1.00  0.00    -0.048 OA 
BRANCH   8  11
HETATM   11  C   UNL     1      -7.281   9.984  65.825  1.00  0.00    -0.117 C  
BRANCH  11  12
HETATM   12  N   UNL     1      -8.028   9.886  64.585  1.00  0.00    -0.135 N  
HETATM   13  C   UNL     1      -7.401   9.786  63.288  1.00  0.00    -0.123 C  
HETATM   14  C   UNL     1      -8.409  10.464  62.380  1.00  0.00    -0.214 C  
HETATM   15  C   UNL     1      -9.751  10.131  63.027  1.00  0.00    -0.094 C  
HETATM   16  C   UNL     1      -9.395  10.080  64.492  1.00  0.00    -0.286 C  
HETATM   17  O   UNL     1     -10.177  10.175  65.425  1.00  0.00    -0.298 OA 
ENDBRANCH  11  12
ENDBRANCH   8  11
ENDBRANCH   6   7
ENDBRANCH   5   6
ENDBRANCH   4   5
BRANCH   4  18
HETATM   18  C   UNL     1      -7.760   6.596  72.179  1.00  0.00    -0.096 C  
HETATM   19  C   UNL     1      -6.322   7.152  72.034  1.00  0.00    -0.044 C  
HETATM   20  C   UNL     1      -7.567   5.153  72.681  1.00  0.00    -0.097 C  
ENDBRANCH   4  18
ENDBRANCH   2   4
TORSDOF 7
ENDMDL
MODEL      346
REMARK 921   NORMALIZED FREE ENERGY PREDICTED BY IDOCK:   -1.29 KCAL/MOL
REMARK 922        TOTAL FREE ENERGY PREDICTED BY IDOCK:   -2.83 KCAL/MOL
REMARK 923 INTER-LIGAND FREE ENERGY PREDICTED BY IDOCK:   -2.58 KCAL/MOL
REMARK 924 INTRA-LIGAND FREE ENERGY PREDICTED BY IDOCK:   -0.25 KCAL/MOL
REMARK 927      BINDING AFFINITY PREDICTED BY RF-SCORE:    0.00 PKD
ROOT
HETATM    1  C   UNL     1      -6.024   4.844  66.083  1.00  0.00    -0.023 C  
HETATM    2  C   UNL     1      -7.458   5.348  66.375  1.00  0.00    -0.087 C  
HETATM    3  C   UNL     1      -7.520   6.766  65.782  1.00  0.00    -0.085 C  
ENDROOT
BRANCH   2   4
HETATM    4  N   UNL     1      -8.496   4.376  65.894  1.00  0.00    -0.113 NA 
BRANCH   4   5
HETATM    5  C   UNL     1      -9.870   4.832  66.293  1.00  0.00    -0.220 C  
BRANCH   5   6
HETATM    6  C   UNL     1     -10.250   4.628  67.782  1.00  0.00     0.038 C  
BRANCH   6   7
HETATM    7  N   UNL     1      -9.765   5.675  68.668  1.00  0.00    -0.130 N  
HETATM    8  C   UNL     1     -10.319   6.936  68.653  1.00  0.00    -0.186 C  
HETATM    9  H   UNL     1      -9.000   5.471  69.311  1.00  0.00     0.000 HD 
HETATM   10  O   UNL     1     -11.199   7.252  67.853  1.00  0.00     0.006 OA 
BRANCH   8  11
HETATM   11  C   UNL     1      -9.745   7.929  69.673  1.00  0.00    -0.173 C  
BRANCH  11  12
HETATM   12  N   UNL     1     -10.078   7.519  71.025  1.00  0.00    -0.187 N  
HETATM   13  C   UNL     1      -9.440   6.410  71.696  1.00  0.00    -0.153 C  
HETATM   14  C   UNL     1     -10.536   5.905  72.613  1.00  0.00    -0.255 C  
HETATM   15  C   UNL     1     -11.304   7.171  72.981  1.00  0.00    -0.208 C  
HETATM   16  C   UNL     1     -11.163   8.005  71.732  1.00  0.00    -0.266 C  
HETATM   17  O   UNL     1     -11.870   8.948  71.415  1.00  0.00    -0.283 OA 
ENDBRANCH  11  12
ENDBRANCH   8  11
ENDBRANCH   6   7
ENDBRANCH   5   6
ENDBRANCH   4   5
BRANCH   4  18
HETATM   18  C   UNL     1      -8.445   3.982  64.450  1.00  0.00    -0.105 C  
HETATM   19  C   UNL     1      -9.755   4.335  63.704  1.00  0.00    -0.067 C  
HETATM   20  C   UNL     1      -8.230   2.484  64.165  1.00  0.00    -0.082 C  
ENDBRANCH   4  18
ENDBRANCH   2   4
TORSDOF 7
ENDMDL
MODEL      347
REMARK 921   NORMALIZED FREE ENERGY PREDICTED BY IDOCK:   -1.04 KCAL/MOL
REMARK 922        TOTAL FREE ENERGY PREDICTED BY IDOCK:   -2.48 KCAL/MOL
REMARK 923 INTER-LIGAND FREE ENERGY PREDICTED BY IDOCK:   -3.11 KCAL/MOL
REMARK 924 INTRA-LIGAND FREE ENERGY PREDICTED BY IDOCK:    0.63 KCAL/MOL
REMARK 927      BINDING AFFINITY PREDICTED BY RF-SCORE:    0.00 PKD
ROOT
HETATM    1  C   UNL     1      -7.224   4.982  65.772  1.00  0.00    -0.072 C  
HETATM    2  C   UNL     1      -8.719   4.862  66.157  1.00  0.00    -0.117 C  
HETATM    3  C   UNL     1      -8.893   3.423  66.670  1.00  0.00    -0.143 C  
ENDROOT
BRANCH   2   4
HETATM    4  N   UNL     1      -9.141   5.960  67.089  1.00  0.00    -0.113 NA 
BRANCH   4   5
HETATM    5  C   UNL     1     -10.628   6.157  67.032  1.00  0.00    -0.315 C  
BRANCH   5   6
HETATM    6  C   UNL     1     -11.140   7.583  67.362  1.00  0.00     0.075 C  
BRANCH   6   7
HETATM    7  N   UNL     1     -10.212   8.644  67.005  1.00  0.00    -0.266 N  
HETATM    8  C   UNL     1     -10.295   9.891  67.586  1.00  0.00    -0.225 C  
HETATM    9  H   UNL     1      -9.486   8.463  66.311  1.00  0.00     0.000 HD 
HETATM   10  O   UNL     1     -11.190  10.182  68.379  1.00  0.00    -0.244 OA 
BRANCH   8  11
HETATM   11  C   UNL     1      -9.224  10.902  67.154  1.00  0.00    -0.148 C  
BRANCH  11  12
HETATM   12  N   UNL     1      -9.048  10.871  65.714  1.00  0.00    -0.190 N  
HETATM   13  C   UNL     1      -9.908  11.579  64.795  1.00  0.00    -0.249 C  
HETATM   14  C   UNL     1      -9.868  10.700  63.560  1.00  0.00    -0.384 C  
HETATM   15  C   UNL     1      -8.457  10.119  63.584  1.00  0.00    -0.184 C  
HETATM   16  C   UNL     1      -8.179  10.014  65.062  1.00  0.00    -0.148 C  
HETATM   17  O   UNL     1      -7.328   9.312  65.585  1.00  0.00    -0.091 OA 
ENDBRANCH  11  12
ENDBRANCH   8  11
ENDBRANCH   6   7
ENDBRANCH   5   6
ENDBRANCH   4   5
BRANCH   4  18
HETATM   18  C   UNL     1      -8.650   5.883  68.502  1.00  0.00    -0.110 C  
HETATM   19  C   UNL     1      -7.195   6.394  68.640  1.00  0.00    -0.085 C  
HETATM   20  C   UNL     1      -8.628   4.479  69.135  1.00  0.00    -0.103 C  
ENDBRANCH   4  18
ENDBRANCH   2   4
TORSDOF 7
ENDMDL
MODEL      348
REMARK 921   NORMALIZED FREE ENERGY PREDICTED BY IDOCK:   -0.65 KCAL/MOL
REMARK 922        TOTAL FREE ENERGY PREDICTED BY IDOCK:   -1.93 KCAL/MOL
REMARK 923 INTER-LIGAND FREE ENERGY PREDICTED BY IDOCK:   -1.89 KCAL/MOL
REMARK 924 INTRA-LIGAND FREE ENERGY PREDICTED BY IDOCK:   -0.04 KCAL/MOL
REMARK 927      BINDING AFFINITY PREDICTED BY RF-SCORE:    0.00 PKD
ROOT
HETATM    1  C   UNL     1      -6.504  17.307  70.930  1.00  0.00     1.869 C  
HETATM    2  C   UNL     1      -6.549  18.057  69.577  1.00  0.00    -0.138 C  
HETATM    3  C   UNL     1      -5.176  17.813  68.929  1.00  0.00    -0.161 C  
ENDROOT
BRANCH   2   4
HETATM    4  N   UNL     1      -7.750  17.664  68.766  1.00  0.00    -0.266 NA 
BRANCH   4   5
HETATM    5  C   UNL     1      -8.346  16.389  69.289  1.00  0.00    -0.101 C  
BRANCH   5   6
HETATM    6  C   UNL     1      -9.045  15.484  68.243  1.00  0.00    -0.186 C  
BRANCH   6   7
HETATM    7  N   UNL     1      -9.045  14.071  68.586  1.00  0.00    -0.320 N  
HETATM    8  C   UNL     1      -8.079  13.218  68.098  1.00  0.00    -0.159 C  
HETATM    9  H   UNL     1      -9.773  13.704  69.198  1.00  0.00     0.000 HD 
HETATM   10  O   UNL     1      -7.217  13.594  67.305  1.00  0.00    -0.138 OA 
BRANCH   8  11
HETATM   11  C   UNL     1      -8.169  11.762  68.579  1.00  0.00    -0.134 C  
BRANCH  11  12
HETATM   12  N   UNL     1      -9.149  11.030  67.798  1.00  0.00    -0.145 N  
HETATM   13  C   UNL     1     -10.383  10.523  68.350  1.00  0.00    -0.176 C  
HETATM   14  C   UNL     1     -10.639   9.288  67.509  1.00  0.00    -0.329 C  
HETATM   15  C   UNL     1     -10.070   9.664  66.143  1.00  0.00    -0.328 C  
HETATM   16  C   UNL     1      -8.921  10.567  66.514  1.00  0.00    -0.157 C  
HETATM   17  O   UNL     1      -7.972  10.852  65.800  1.00  0.00    -0.150 OA 
ENDBRANCH  11  12
ENDBRANCH   8  11
ENDBRANCH   6   7
ENDBRANCH   5   6
ENDBRANCH   4   5
BRANCH   4  18
HETATM   18  C   UNL     1      -8.798  18.712  68.546  1.00  0.00    -0.331 C  
HETATM   19  C   UNL     1     -10.204  18.227  68.978  1.00  0.00    -0.217 C  
HETATM   20  C   UNL     1      -8.984  19.189  67.094  1.00  0.00    -0.320 C  
ENDBRANCH   4  18
ENDBRANCH   2   4
TORSDOF 7
ENDMDL
MODEL      349
REMARK 921   NORMALIZED FREE ENERGY PREDICTED BY IDOCK:   -0.58 KCAL/MOL
REMARK 922        TOTAL FREE ENERGY PREDICTED BY IDOCK:   -1.82 KCAL/MOL
REMARK 923 INTER-LIGAND FREE ENERGY PREDICTED BY IDOCK:   -2.63 KCAL/MOL
REMARK 924 INTRA-LIGAND FREE ENERGY PREDICTED BY IDOCK:    0.81 KCAL/MOL
REMARK 927      BINDING AFFINITY PREDICTED BY RF-SCORE:    0.00 PKD
ROOT
HETATM    1  C   UNL     1     -12.159  14.325  71.466  1.00  0.00    -0.317 C  
HETATM    2  C   UNL     1     -12.403  14.170  69.945  1.00  0.00    -0.327 C  
HETATM    3  C   UNL     1     -13.140  15.450  69.518  1.00  0.00     0.682 C  
ENDROOT
BRANCH   2   4
HETATM    4  N   UNL     1     -11.134  13.851  69.210  1.00  0.00    -0.242 NA 
BRANCH   4   5
HETATM    5  C   UNL     1     -11.305  12.618  68.371  1.00  0.00    -0.290 C  
BRANCH   5   6
HETATM    6  C   UNL     1     -10.576  11.345  68.873  1.00  0.00    -0.202 C  
BRANCH   6   7
HETATM    7  N   UNL     1     -10.230  10.405  67.819  1.00  0.00    -0.183 N  
HETATM    8  C   UNL     1      -9.918   9.094  68.106  1.00  0.00    -0.176 C  
HETATM    9  H   UNL     1     -10.218  10.721  66.849  1.00  0.00     0.000 HD 
HETATM   10  O   UNL     1      -9.855   8.677  69.262  1.00  0.00    -0.180 OA 
BRANCH   8  11
HETATM   11  C   UNL     1      -9.621   8.198  66.896  1.00  0.00    -0.208 C  
BRANCH  11  12
HETATM   12  N   UNL     1      -8.824   8.914  65.918  1.00  0.00    -0.167 N  
HETATM   13  C   UNL     1      -9.114   8.910  64.503  1.00  0.00     0.171 C  
HETATM   14  C   UNL     1      -7.739   9.062  63.883  1.00  0.00    -0.125 C  
HETATM   15  C   UNL     1      -6.989   9.929  64.891  1.00  0.00    -0.131 C  
HETATM   16  C   UNL     1      -7.603   9.501  66.200  1.00  0.00    -0.100 C  
HETATM   17  O   UNL     1      -7.117   9.663  67.308  1.00  0.00    -0.084 OA 
ENDBRANCH  11  12
ENDBRANCH   8  11
ENDBRANCH   6   7
ENDBRANCH   5   6
ENDBRANCH   4   5
BRANCH   4  18
HETATM   18  C   UNL     1     -10.498  14.962  68.432  1.00  0.00    -0.243 C  
HETATM   19  C   UNL     1      -8.964  14.788  68.317  1.00  0.00    -0.181 C  
HETATM   20  C   UNL     1     -10.684  16.380  69.002  1.00  0.00    -0.322 C  
ENDBRANCH   4  18
ENDBRANCH   2   4
TORSDOF 7
ENDMDL
MODEL      350
REMARK 921   NORMALIZED FREE ENERGY PREDICTED BY IDOCK:   -0.50 KCAL/MOL
REMARK 922        TOTAL FREE ENERGY PREDICTED BY IDOCK:   -1.71 KCAL/MOL
REMARK 923 INTER-LIGAND FREE ENERGY PREDICTED BY IDOCK:   -3.14 KCAL/MOL
REMARK 924 INTRA-LIGAND FREE ENERGY PREDICTED BY IDOCK:    1.42 KCAL/MOL
REMARK 927      BINDING AFFINITY PREDICTED BY RF-SCORE:    0.00 PKD
ROOT
HETATM    1  C   UNL     1      -9.840   8.750  68.921  1.00  0.00    -0.183 C  
HETATM    2  C   UNL     1     -10.189   9.913  69.883  1.00  0.00    -0.257 C  
HETATM    3  C   UNL     1     -10.211  11.175  69.005  1.00  0.00    -0.194 C  
ENDROOT
BRANCH   2   4
HETATM    4  N   UNL     1     -11.433   9.625  70.672  1.00  0.00    -0.286 NA 
BRANCH   4   5
HETATM    5  C   UNL     1     -11.220   8.450  71.582  1.00  0.00    -0.278 C  
BRANCH   5   6
HETATM    6  C   UNL     1      -9.857   7.724  71.450  1.00  0.00    -0.167 C  
BRANCH   6   7
HETATM    7  N   UNL     1      -9.959   6.274  71.398  1.00  0.00    -0.184 N  
HETATM    8  C   UNL     1      -8.855   5.473  71.592  1.00  0.00    -0.136 C  
HETATM    9  H   UNL     1     -10.865   5.842  71.213  1.00  0.00     0.000 HD 
HETATM   10  O   UNL     1      -7.730   5.942  71.754  1.00  0.00    -0.098 OA 
BRANCH   8  11
HETATM   11  C   UNL     1      -9.114   3.960  71.558  1.00  0.00    -0.113 C  
BRANCH  11  12
HETATM   12  N   UNL     1      -8.238   3.317  70.596  1.00  0.00    -0.055 N  
HETATM   13  C   UNL     1      -8.549   3.210  69.190  1.00  0.00    -0.072 C  
HETATM   14  C   UNL     1      -7.861   1.917  68.797  1.00  0.00    -0.051 C  
HETATM   15  C   UNL     1      -6.630   1.882  69.698  1.00  0.00    -0.029 C  
HETATM   16  C   UNL     1      -7.127   2.570  70.945  1.00  0.00    -0.033 C  
HETATM   17  O   UNL     1      -6.626   2.495  72.055  1.00  0.00    -0.014 OA 
ENDBRANCH  11  12
ENDBRANCH   8  11
ENDBRANCH   6   7
ENDBRANCH   5   6
ENDBRANCH   4   5
BRANCH   4  18
HETATM   18  C   UNL     1     -12.064  10.774  71.395  1.00  0.00    -0.195 C  
HETATM   19  C   UNL     1     -13.512  10.456  71.840  1.00  0.00    -0.384 C  
HETATM   20  C   UNL     1     -12.184  12.089  70.602  1.00  0.00    -0.409 C  
ENDBRANCH   4  18
ENDBRANCH   2   4
TORSDOF 7
ENDMDL
MODEL      351
REMARK 921   NORMALIZED FREE ENERGY PREDICTED BY IDOCK:   -0.47 KCAL/MOL
REMARK 922        TOTAL FREE ENERGY PREDICTED BY IDOCK:   -1.67 KCAL/MOL
REMARK 923 INTER-LIGAND FREE ENERGY PREDICTED BY IDOCK:   -3.39 KCAL/MOL
REMARK 924 INTRA-LIGAND FREE ENERGY PREDICTED BY IDOCK:    1.71 KCAL/MOL
REMARK 927      BINDING AFFINITY PREDICTED BY RF-SCORE:    0.00 PKD
ROOT
HETATM    1  C   UNL     1      -8.881  14.008  68.480  1.00  0.00    -0.160 C  
HETATM    2  C   UNL     1      -8.695  13.124  67.223  1.00  0.00    -0.210 C  
HETATM    3  C   UNL     1      -7.237  12.636  67.280  1.00  0.00    -0.106 C  
ENDROOT
BRANCH   2   4
HETATM    4  N   UNL     1      -9.752  12.062  67.131  1.00  0.00    -0.195 NA 
BRANCH   4   5
HETATM    5  C   UNL     1      -9.204  10.733  67.564  1.00  0.00    -0.143 C  
BRANCH   5   6
HETATM    6  C   UNL     1      -9.285  10.423  69.080  1.00  0.00    -0.191 C  
BRANCH   6   7
HETATM    7  N   UNL     1      -9.969   9.179  69.397  1.00  0.00    -0.185 N  
HETATM    8  C   UNL     1      -9.271   8.067  69.815  1.00  0.00    -0.149 C  
HETATM    9  H   UNL     1     -10.984   9.128  69.307  1.00  0.00     0.000 HD 
HETATM   10  O   UNL     1      -8.042   8.055  69.879  1.00  0.00    -0.112 OA 
BRANCH   8  11
HETATM   11  C   UNL     1     -10.121   6.837  70.162  1.00  0.00    -0.178 C  
BRANCH  11  12
HETATM   12  N   UNL     1      -9.962   6.489  71.562  1.00  0.00    -0.176 N  
HETATM   13  C   UNL     1     -11.053   6.494  72.508  1.00  0.00    -0.260 C  
HETATM   14  C   UNL     1     -10.360   6.842  73.811  1.00  0.00    -0.409 C  
HETATM   15  C   UNL     1      -8.982   6.202  73.662  1.00  0.00    -0.128 C  
HETATM   16  C   UNL     1      -8.736   6.315  72.179  1.00  0.00    -0.133 C  
HETATM   17  O   UNL     1      -7.651   6.246  71.624  1.00  0.00    -0.093 OA 
ENDBRANCH  11  12
ENDBRANCH   8  11
ENDBRANCH   6   7
ENDBRANCH   5   6
ENDBRANCH   4   5
BRANCH   4  18
HETATM   18  C   UNL     1     -11.069  12.352  67.781  1.00  0.00    -0.247 C  
HETATM   19  C   UNL     1     -11.927  11.075  67.953  1.00  0.00     0.104 C  
HETATM   20  C   UNL     1     -11.989  13.338  67.037  1.00  0.00    -0.419 C  
ENDBRANCH   4  18
ENDBRANCH   2   4
TORSDOF 7
ENDMDL
MODEL      352
REMARK 921   NORMALIZED FREE ENERGY PREDICTED BY IDOCK:    0.57 KCAL/MOL
REMARK 922        TOTAL FREE ENERGY PREDICTED BY IDOCK:   -0.21 KCAL/MOL
REMARK 923 INTER-LIGAND FREE ENERGY PREDICTED BY IDOCK:   -2.54 KCAL/MOL
REMARK 924 INTRA-LIGAND FREE ENERGY PREDICTED BY IDOCK:    2.33 KCAL/MOL
REMARK 927      BINDING AFFINITY PREDICTED BY RF-SCORE:    0.00 PKD
ROOT
HETATM    1  C   UNL     1      -7.322  10.579  69.894  1.00  0.00    -0.116 C  
HETATM    2  C   UNL     1      -7.447  11.180  68.473  1.00  0.00    -0.112 C  
HETATM    3  C   UNL     1      -6.102  10.888  67.787  1.00  0.00    -0.046 C  
ENDROOT
BRANCH   2   4
HETATM    4  N   UNL     1      -8.678  10.687  67.769  1.00  0.00    -0.128 NA 
BRANCH   4   5
HETATM    5  C   UNL     1      -9.203   9.446  68.431  1.00  0.00    -0.127 C  
BRANCH   5   6
HETATM    6  C   UNL     1      -9.955   9.654  69.770  1.00  0.00    -0.227 C  
BRANCH   6   7
HETATM    7  N   UNL     1      -9.332   8.997  70.909  1.00  0.00    -0.241 N  
HETATM    8  C   UNL     1      -8.571   7.860  70.750  1.00  0.00    -0.132 C  
HETATM    9  H   UNL     1      -9.462   9.386  71.844  1.00  0.00     0.000 HD 
HETATM   10  O   UNL     1      -8.436   7.315  69.655  1.00  0.00    -0.131 OA 
BRANCH   8  11
HETATM   11  C   UNL     1      -7.933   7.299  72.028  1.00  0.00    -0.091 C  
BRANCH  11  12
HETATM   12  N   UNL     1      -7.965   5.848  72.017  1.00  0.00    -0.107 N  
HETATM   13  C   UNL     1      -9.166   5.084  71.776  1.00  0.00    -0.141 C  
HETATM   14  C   UNL     1      -8.924   3.824  72.583  1.00  0.00    -0.119 C  
HETATM   15  C   UNL     1      -7.412   3.630  72.494  1.00  0.00    -0.055 C  
HETATM   16  C   UNL     1      -6.912   5.051  72.430  1.00  0.00    -0.071 C  
HETATM   17  O   UNL     1      -5.777   5.425  72.679  1.00  0.00    -0.021 OA 
ENDBRANCH  11  12
ENDBRANCH   8  11
ENDBRANCH   6   7
ENDBRANCH   5   6
ENDBRANCH   4   5
BRANCH   4  18
HETATM   18  C   UNL     1      -9.769  11.682  67.523  1.00  0.00    -0.177 C  
HETATM   19  C   UNL     1     -10.411  11.509  66.125  1.00  0.00    -0.287 C  
HETATM   20  C   UNL     1      -9.357  13.166  67.577  1.00  0.00    -0.207 C  
ENDBRANCH   4  18
ENDBRANCH   2   4
TORSDOF 7
ENDMDL
MODEL      353
REMARK 921   NORMALIZED FREE ENERGY PREDICTED BY IDOCK:    2.33 KCAL/MOL
REMARK 922        TOTAL FREE ENERGY PREDICTED BY IDOCK:    2.28 KCAL/MOL
REMARK 923 INTER-LIGAND FREE ENERGY PREDICTED BY IDOCK:   -0.08 KCAL/MOL
REMARK 924 INTRA-LIGAND FREE ENERGY PREDICTED BY IDOCK:    2.36 KCAL/MOL
REMARK 927      BINDING AFFINITY PREDICTED BY RF-SCORE:    0.00 PKD
ROOT
HETATM    1  C   UNL     1      -9.431  13.801  68.215  1.00  0.00    -0.214 C  
HETATM    2  C   UNL     1      -8.004  14.399  68.175  1.00  0.00    -0.136 C  
HETATM    3  C   UNL     1      -7.226  13.531  67.173  1.00  0.00     0.164 C  
ENDROOT
BRANCH   2   4
HETATM    4  N   UNL     1      -8.030  15.876  67.902  1.00  0.00    -0.135 NA 
BRANCH   4   5
HETATM    5  C   UNL     1      -9.129  16.537  68.681  1.00  0.00    -0.239 C  
BRANCH   5   6
HETATM    6  C   UNL     1     -10.479  16.714  67.940  1.00  0.00    -0.322 C  
BRANCH   6   7
HETATM    7  N   UNL     1     -11.077  15.467  67.488  1.00  0.00    -0.320 N  
HETATM    8  C   UNL     1     -12.326  15.078  67.918  1.00  0.00     0.381 C  
HETATM    9  H   UNL     1     -10.561  14.870  66.842  1.00  0.00     0.000 HD 
HETATM   10  O   UNL     1     -12.963  15.728  68.746  1.00  0.00     0.954 OA 
BRANCH   8  11
HETATM   11  C   UNL     1     -12.857  13.765  67.325  1.00  0.00     1.007 C  
BRANCH  11  12
HETATM   12  N   UNL     1     -12.473  13.645  65.931  1.00  0.00    -0.461 N  
HETATM   13  C   UNL     1     -12.867  14.594  64.916  1.00  0.00     0.121 C  
HETATM   14  C   UNL     1     -12.941  13.733  63.670  1.00  0.00     0.887 C  
HETATM   15  C   UNL     1     -11.851  12.689  63.894  1.00  0.00    -0.544 C  
HETATM   16  C   UNL     1     -11.871  12.522  65.392  1.00  0.00    -0.428 C  
HETATM   17  O   UNL     1     -11.419  11.574  66.015  1.00  0.00    -0.274 OA 
ENDBRANCH  11  12
ENDBRANCH   8  11
ENDBRANCH   6   7
ENDBRANCH   5   6
ENDBRANCH   4   5
BRANCH   4  18
HETATM   18  C   UNL     1      -6.736  16.617  68.038  1.00  0.00    -0.143 C  
HETATM   19  C   UNL     1      -5.511  15.684  67.879  1.00  0.00    -0.146 C  
HETATM   20  C   UNL     1      -6.504  17.332  69.383  1.00  0.00    -0.235 C  
ENDBRANCH   4  18
ENDBRANCH   2   4
TORSDOF 7
ENDMDL
MODEL      354
REMARK 921   NORMALIZED FREE ENERGY PREDICTED BY IDOCK:   14.64 KCAL/MOL
REMARK 922        TOTAL FREE ENERGY PREDICTED BY IDOCK:   19.62 KCAL/MOL
REMARK 923 INTER-LIGAND FREE ENERGY PREDICTED BY IDOCK:   13.54 KCAL/MOL
REMARK 924 INTRA-LIGAND FREE ENERGY PREDICTED BY IDOCK:    6.08 KCAL/MOL
REMARK 927      BINDING AFFINITY PREDICTED BY RF-SCORE:    0.00 PKD
ROOT
HETATM    1  C   UNL     1      -8.113  19.924  67.813  1.00  0.00    -0.329 C  
HETATM    2  C   UNL     1      -8.948  19.441  66.601  1.00  0.00    -0.346 C  
HETATM    3  C   UNL     1      -9.268  20.710  65.794  1.00  0.00     0.433 C  
ENDROOT
BRANCH   2   4
HETATM    4  N   UNL     1      -8.258  18.333  65.859  1.00  0.00    -0.508 NA 
BRANCH   4   5
HETATM    5  C   UNL     1      -6.938  18.012  66.499  1.00  0.00    -0.220 C  
BRANCH   5   6
HETATM    6  C   UNL     1      -6.837  18.276  68.023  1.00  0.00    -0.212 C  
BRANCH   6   7
HETATM    7  N   UNL     1      -5.953  17.360  68.727  1.00  0.00    -0.164 N  
HETATM    8  C   UNL     1      -6.164  15.999  68.698  1.00  0.00    -0.115 C  
HETATM    9  H   UNL     1      -5.162  17.733  69.252  1.00  0.00     0.000 HD 
HETATM   10  O   UNL     1      -7.139  15.503  68.134  1.00  0.00    -0.109 OA 
BRANCH   8  11
HETATM   11  C   UNL     1      -5.128  15.146  69.443  1.00  0.00    -0.092 C  
BRANCH  11  12
HETATM   12  N   UNL     1      -5.779  14.297  70.423  1.00  0.00    -0.130 N  
HETATM   13  C   UNL     1      -5.136  13.849  71.636  1.00  0.00    -0.169 C  
HETATM   14  C   UNL     1      -5.796  12.507  71.883  1.00  0.00     1.160 C  
HETATM   15  C   UNL     1      -7.212  12.703  71.349  1.00  0.00     6.067 C  
HETATM   16  C   UNL     1      -6.994  13.668  70.211  1.00  0.00     0.658 C  
HETATM   17  O   UNL     1      -7.760  13.869  69.283  1.00  0.00     0.031 OA 
ENDBRANCH  11  12
ENDBRANCH   8  11
ENDBRANCH   6   7
ENDBRANCH   5   6
ENDBRANCH   4   5
BRANCH   4  18
HETATM   18  C   UNL     1      -9.053  17.094  65.588  1.00  0.00     0.408 C  
HETATM   19  C   UNL     1      -8.301  15.812  66.023  1.00  0.00     0.243 C  
HETATM   20  C   UNL     1      -9.429  16.839  64.116  1.00  0.00     6.933 C  
ENDBRANCH   4  18
ENDBRANCH   2   4
TORSDOF 7
ENDMDL
MODEL      355
REMARK 921   NORMALIZED FREE ENERGY PREDICTED BY IDOCK:   20.54 KCAL/MOL
REMARK 922        TOTAL FREE ENERGY PREDICTED BY IDOCK:   27.94 KCAL/MOL
REMARK 923 INTER-LIGAND FREE ENERGY PREDICTED BY IDOCK:   25.13 KCAL/MOL
REMARK 924 INTRA-LIGAND FREE ENERGY PREDICTED BY IDOCK:    2.82 KCAL/MOL
REMARK 927      BINDING AFFINITY PREDICTED BY RF-SCORE:    0.00 PKD
ROOT
HETATM    1  C   UNL     1      -7.844  21.048  68.774  1.00  0.00     1.485 C  
HETATM    2  C   UNL     1      -9.044  20.483  67.976  1.00  0.00     0.046 C  
HETATM    3  C   UNL     1      -9.099  21.312  66.681  1.00  0.00     0.902 C  
ENDROOT
BRANCH   2   4
HETATM    4  N   UNL     1      -8.949  18.994  67.813  1.00  0.00    -0.289 NA 
BRANCH   4   5
HETATM    5  C   UNL     1     -10.090  18.480  66.983  1.00  0.00    -0.360 C  
BRANCH   5   6
HETATM    6  C   UNL     1     -10.488  17.000  67.212  1.00  0.00    -0.301 C  
BRANCH   6   7
HETATM    7  N   UNL     1     -10.998  16.722  68.546  1.00  0.00    -0.339 N  
HETATM    8  C   UNL     1     -10.674  15.557  69.205  1.00  0.00    -0.245 C  
HETATM    9  H   UNL     1     -11.608  17.401  69.001  1.00  0.00     0.000 HD 
HETATM   10  O   UNL     1      -9.996  14.676  68.677  1.00  0.00    -0.223 OA 
BRANCH   8  11
HETATM   11  C   UNL     1     -11.240  15.413  70.625  1.00  0.00    -0.342 C  
BRANCH  11  12
HETATM   12  N   UNL     1     -10.205  14.975  71.543  1.00  0.00     1.149 N  
HETATM   13  C   UNL     1     -10.447  14.710  72.941  1.00  0.00     3.821 C  
HETATM   14  C   UNL     1      -9.116  15.056  73.578  1.00  0.00     9.929 C  
HETATM   15  C   UNL     1      -8.099  14.677  72.505  1.00  0.00     6.871 C  
HETATM   16  C   UNL     1      -8.857  14.961  71.233  1.00  0.00     3.648 C  
HETATM   17  O   UNL     1      -8.367  15.129  70.127  1.00  0.00     0.157 OA 
ENDBRANCH  11  12
ENDBRANCH   8  11
ENDBRANCH   6   7
ENDBRANCH   5   6
ENDBRANCH   4   5
BRANCH   4  18
HETATM   18  C   UNL     1      -7.638  18.440  67.348  1.00  0.00    -0.218 C  
HETATM   19  C   UNL     1      -7.821  17.251  66.373  1.00  0.00    -0.345 C  
HETATM   20  C   UNL     1      -6.705  17.897  68.447  1.00  0.00    -0.219 C  
ENDBRANCH   4  18
ENDBRANCH   2   4
TORSDOF 7
ENDMDL
