MODEL        1
REMARK 921   NORMALIZED FREE ENERGY PREDICTED BY IDOCK:   -5.33 KCAL/MOL
REMARK 922        TOTAL FREE ENERGY PREDICTED BY IDOCK:   -6.50 KCAL/MOL
REMARK 923 INTER-LIGAND FREE ENERGY PREDICTED BY IDOCK:   -6.26 KCAL/MOL
REMARK 924 INTRA-LIGAND FREE ENERGY PREDICTED BY IDOCK:   -0.24 KCAL/MOL
REMARK 927      BINDING AFFINITY PREDICTED BY RF-SCORE:    0.00 PKD
ROOT
HETATM    1  C   UNL     1     -12.945  10.840  71.683  1.00  0.00    -0.581 C  
HETATM    2  C   UNL     1     -12.163   9.811  70.878  1.00  0.00    -0.390 C  
ENDROOT
BRANCH   2   3
HETATM    3  C   UNL     1     -11.147  10.498  69.966  1.00  0.00    -0.308 C  
BRANCH   3   4
HETATM    4  N   UNL     1     -11.610  10.517  68.573  1.00  0.00    -0.584 NA 
HETATM    5  H   UNL     1     -12.487  10.006  68.468  1.00  0.00     0.000 HD 
BRANCH   4   6
HETATM    6  C   UNL     1     -11.725  11.892  68.045  1.00  0.00    -0.312 C  
HETATM    7  C   UNL     1     -10.592  12.817  68.566  1.00  0.00    -0.270 C  
HETATM    8  C   UNL     1     -10.829  14.276  68.149  1.00  0.00    -0.253 C  
HETATM    9  C   UNL     1     -11.165  14.366  66.705  1.00  0.00    -0.339 A  
HETATM   10  C   UNL     1     -11.587  13.283  65.964  1.00  0.00    -0.349 A  
HETATM   11  S   UNL     1     -11.875  13.763  64.356  1.00  0.00    -0.430 SA 
HETATM   12  C   UNL     1     -11.721  11.884  66.481  1.00  0.00    -0.247 C  
HETATM   13  C   UNL     1     -11.414  15.373  64.774  1.00  0.00    -0.336 A  
HETATM   14  N   UNL     1     -11.413  16.365  63.869  1.00  0.00    -1.618 NA 
HETATM   15  N   UNL     1     -11.089  15.560  66.028  1.00  0.00    -0.245 NA 
HETATM   16  H1  UNL     1     -11.141  17.316  64.115  1.00  0.00     0.000 HD 
HETATM   17  H2  UNL     1     -11.692  16.162  62.909  1.00  0.00     0.000 HD 
ENDBRANCH   4   6
ENDBRANCH   3   4
ENDBRANCH   2   3
TORSDOF 3
ENDMDL
MODEL        2
REMARK 921   NORMALIZED FREE ENERGY PREDICTED BY IDOCK:   -5.28 KCAL/MOL
REMARK 922        TOTAL FREE ENERGY PREDICTED BY IDOCK:   -6.44 KCAL/MOL
REMARK 923 INTER-LIGAND FREE ENERGY PREDICTED BY IDOCK:   -6.23 KCAL/MOL
REMARK 924 INTRA-LIGAND FREE ENERGY PREDICTED BY IDOCK:   -0.21 KCAL/MOL
REMARK 927      BINDING AFFINITY PREDICTED BY RF-SCORE:    0.00 PKD
ROOT
HETATM    1  C   UNL     1     -12.908  15.395  73.344  1.00  0.00    -0.662 C  
HETATM    2  C   UNL     1     -11.918  16.108  72.433  1.00  0.00    -0.649 C  
ENDROOT
BRANCH   2   3
HETATM    3  C   UNL     1     -12.164  15.734  70.972  1.00  0.00    -0.418 C  
BRANCH   3   4
HETATM    4  N   UNL     1     -10.908  15.701  70.213  1.00  0.00    -0.330 NA 
HETATM    5  H   UNL     1     -10.111  15.525  70.825  1.00  0.00     0.000 HD 
BRANCH   4   6
HETATM    6  C   UNL     1     -10.955  14.729  69.101  1.00  0.00    -0.267 C  
HETATM    7  C   UNL     1     -11.853  13.506  69.431  1.00  0.00    -0.389 C  
HETATM    8  C   UNL     1     -11.748  12.430  68.340  1.00  0.00    -0.386 C  
HETATM    9  C   UNL     1     -11.892  13.030  66.989  1.00  0.00    -0.377 A  
HETATM   10  C   UNL     1     -11.741  14.378  66.747  1.00  0.00    -0.397 A  
HETATM   11  S   UNL     1     -11.979  14.695  65.091  1.00  0.00    -0.297 SA 
HETATM   12  C   UNL     1     -11.462  15.415  67.790  1.00  0.00    -0.284 C  
HETATM   13  C   UNL     1     -12.266  13.013  64.829  1.00  0.00    -0.435 A  
HETATM   14  N   UNL     1     -12.548  12.526  63.610  1.00  0.00    -0.742 NA 
HETATM   15  N   UNL     1     -12.170  12.252  65.890  1.00  0.00    -0.600 NA 
HETATM   16  H1  UNL     1     -12.718  11.533  63.455  1.00  0.00     0.000 HD 
HETATM   17  H2  UNL     1     -12.594  13.167  62.818  1.00  0.00     0.000 HD 
ENDBRANCH   4   6
ENDBRANCH   3   4
ENDBRANCH   2   3
TORSDOF 3
ENDMDL
MODEL        3
REMARK 921   NORMALIZED FREE ENERGY PREDICTED BY IDOCK:   -5.23 KCAL/MOL
REMARK 922        TOTAL FREE ENERGY PREDICTED BY IDOCK:   -6.39 KCAL/MOL
REMARK 923 INTER-LIGAND FREE ENERGY PREDICTED BY IDOCK:   -6.25 KCAL/MOL
REMARK 924 INTRA-LIGAND FREE ENERGY PREDICTED BY IDOCK:   -0.13 KCAL/MOL
REMARK 927      BINDING AFFINITY PREDICTED BY RF-SCORE:    0.00 PKD
ROOT
HETATM    1  C   UNL     1     -13.007  15.565  73.288  1.00  0.00    -0.654 C  
HETATM    2  C   UNL     1     -11.908  15.874  72.279  1.00  0.00    -0.617 C  
ENDROOT
BRANCH   2   3
HETATM    3  C   UNL     1     -11.839  14.786  71.208  1.00  0.00    -0.335 C  
BRANCH   3   4
HETATM    4  N   UNL     1     -10.667  14.966  70.343  1.00  0.00    -0.502 NA 
HETATM    5  H   UNL     1     -10.021  14.181  70.426  1.00  0.00     0.000 HD 
BRANCH   4   6
HETATM    6  C   UNL     1     -11.047  15.199  68.934  1.00  0.00    -0.270 C  
HETATM    7  C   UNL     1      -9.917  15.897  68.130  1.00  0.00    -0.222 C  
HETATM    8  C   UNL     1     -10.394  16.287  66.724  1.00  0.00    -0.296 C  
HETATM    9  C   UNL     1     -11.090  15.151  66.066  1.00  0.00    -0.312 A  
HETATM   10  C   UNL     1     -11.574  14.064  66.762  1.00  0.00    -0.386 A  
HETATM   11  S   UNL     1     -12.304  12.969  65.682  1.00  0.00    -0.384 SA 
HETATM   12  C   UNL     1     -11.434  13.854  68.238  1.00  0.00    -0.346 C  
HETATM   13  C   UNL     1     -11.915  14.027  64.375  1.00  0.00    -0.454 A  
HETATM   14  N   UNL     1     -12.239  13.731  63.106  1.00  0.00    -1.066 NA 
HETATM   15  N   UNL     1     -11.305  15.136  64.709  1.00  0.00    -0.407 NA 
HETATM   16  H1  UNL     1     -12.009  14.356  62.334  1.00  0.00     0.000 HD 
HETATM   17  H2  UNL     1     -12.729  12.858  62.910  1.00  0.00     0.000 HD 
ENDBRANCH   4   6
ENDBRANCH   3   4
ENDBRANCH   2   3
TORSDOF 3
ENDMDL
MODEL        4
REMARK 921   NORMALIZED FREE ENERGY PREDICTED BY IDOCK:   -5.21 KCAL/MOL
REMARK 922        TOTAL FREE ENERGY PREDICTED BY IDOCK:   -6.36 KCAL/MOL
REMARK 923 INTER-LIGAND FREE ENERGY PREDICTED BY IDOCK:   -6.03 KCAL/MOL
REMARK 924 INTRA-LIGAND FREE ENERGY PREDICTED BY IDOCK:   -0.34 KCAL/MOL
REMARK 927      BINDING AFFINITY PREDICTED BY RF-SCORE:    0.00 PKD
ROOT
HETATM    1  C   UNL     1     -12.411   9.427  71.342  1.00  0.00    -0.439 C  
HETATM    2  C   UNL     1     -12.938  10.845  71.516  1.00  0.00    -0.556 C  
ENDROOT
BRANCH   2   3
HETATM    3  C   UNL     1     -12.214  11.808  70.575  1.00  0.00    -0.347 C  
BRANCH   3   4
HETATM    4  N   UNL     1     -11.005  11.194  70.014  1.00  0.00    -0.471 NA 
HETATM    5  H   UNL     1     -11.006  10.184  70.151  1.00  0.00     0.000 HD 
BRANCH   4   6
HETATM    6  C   UNL     1     -10.815  11.542  68.590  1.00  0.00    -0.212 C  
HETATM    7  C   UNL     1     -10.848  10.290  67.672  1.00  0.00    -0.363 C  
HETATM    8  C   UNL     1     -10.476  10.651  66.227  1.00  0.00    -0.268 C  
HETATM    9  C   UNL     1     -11.229  11.846  65.768  1.00  0.00    -0.312 A  
HETATM   10  C   UNL     1     -11.853  12.718  66.635  1.00  0.00    -0.393 A  
HETATM   11  S   UNL     1     -12.613  13.960  65.753  1.00  0.00    -0.443 SA 
HETATM   12  C   UNL     1     -11.901  12.566  68.123  1.00  0.00    -0.371 C  
HETATM   13  C   UNL     1     -12.052  13.239  64.289  1.00  0.00    -0.416 A  
HETATM   14  N   UNL     1     -12.330  13.770  63.087  1.00  0.00    -1.106 NA 
HETATM   15  N   UNL     1     -11.326  12.159  64.433  1.00  0.00    -0.328 NA 
HETATM   16  H1  UNL     1     -11.999  13.344  62.222  1.00  0.00     0.000 HD 
HETATM   17  H2  UNL     1     -12.888  14.623  63.039  1.00  0.00     0.000 HD 
ENDBRANCH   4   6
ENDBRANCH   3   4
ENDBRANCH   2   3
TORSDOF 3
ENDMDL
MODEL        5
REMARK 921   NORMALIZED FREE ENERGY PREDICTED BY IDOCK:   -5.17 KCAL/MOL
REMARK 922        TOTAL FREE ENERGY PREDICTED BY IDOCK:   -6.31 KCAL/MOL
REMARK 923 INTER-LIGAND FREE ENERGY PREDICTED BY IDOCK:   -6.07 KCAL/MOL
REMARK 924 INTRA-LIGAND FREE ENERGY PREDICTED BY IDOCK:   -0.24 KCAL/MOL
REMARK 927      BINDING AFFINITY PREDICTED BY RF-SCORE:    0.00 PKD
ROOT
HETATM    1  C   UNL     1     -12.877  10.293  71.459  1.00  0.00    -0.557 C  
HETATM    2  C   UNL     1     -12.077  11.287  70.628  1.00  0.00    -0.480 C  
ENDROOT
BRANCH   2   3
HETATM    3  C   UNL     1     -11.243  10.560  69.574  1.00  0.00    -0.271 C  
BRANCH   3   4
HETATM    4  N   UNL     1     -10.034  11.321  69.235  1.00  0.00    -0.428 NA 
HETATM    5  H   UNL     1      -9.200  10.737  69.295  1.00  0.00     0.000 HD 
BRANCH   4   6
HETATM    6  C   UNL     1     -10.139  11.970  67.912  1.00  0.00    -0.195 C  
HETATM    7  C   UNL     1     -11.268  11.352  67.044  1.00  0.00    -0.350 C  
HETATM    8  C   UNL     1     -11.245  11.918  65.616  1.00  0.00    -0.360 C  
HETATM    9  C   UNL     1     -11.141  13.399  65.635  1.00  0.00    -0.285 A  
HETATM   10  C   UNL     1     -10.729  14.108  66.743  1.00  0.00    -0.286 A  
HETATM   11  S   UNL     1     -10.735  15.774  66.394  1.00  0.00    -0.235 SA 
HETATM   12  C   UNL     1     -10.378  13.508  68.069  1.00  0.00    -0.241 C  
HETATM   13  C   UNL     1     -11.288  15.420  64.798  1.00  0.00    -0.376 A  
HETATM   14  N   UNL     1     -11.525  16.390  63.901  1.00  0.00    -1.618 NA 
HETATM   15  N   UNL     1     -11.438  14.149  64.522  1.00  0.00    -0.382 NA 
HETATM   16  H1  UNL     1     -11.852  16.180  62.958  1.00  0.00     0.000 HD 
HETATM   17  H2  UNL     1     -11.375  17.362  64.169  1.00  0.00     0.000 HD 
ENDBRANCH   4   6
ENDBRANCH   3   4
ENDBRANCH   2   3
TORSDOF 3
ENDMDL
MODEL        6
REMARK 921   NORMALIZED FREE ENERGY PREDICTED BY IDOCK:   -5.14 KCAL/MOL
REMARK 922        TOTAL FREE ENERGY PREDICTED BY IDOCK:   -6.28 KCAL/MOL
REMARK 923 INTER-LIGAND FREE ENERGY PREDICTED BY IDOCK:   -6.10 KCAL/MOL
REMARK 924 INTRA-LIGAND FREE ENERGY PREDICTED BY IDOCK:   -0.18 KCAL/MOL
REMARK 927      BINDING AFFINITY PREDICTED BY RF-SCORE:    0.00 PKD
ROOT
HETATM    1  C   UNL     1     -13.631  13.903  72.271  1.00  0.00    -0.642 C  
HETATM    2  C   UNL     1     -13.202  14.853  71.160  1.00  0.00    -0.476 C  
ENDROOT
BRANCH   2   3
HETATM    3  C   UNL     1     -12.257  14.150  70.185  1.00  0.00    -0.351 C  
BRANCH   3   4
HETATM    4  N   UNL     1     -12.484  14.600  68.807  1.00  0.00    -0.567 NA 
HETATM    5  H   UNL     1     -12.326  15.604  68.715  1.00  0.00     0.000 HD 
BRANCH   4   6
HETATM    6  C   UNL     1     -11.674  13.839  67.834  1.00  0.00    -0.360 C  
HETATM    7  C   UNL     1     -11.431  12.376  68.290  1.00  0.00    -0.360 C  
HETATM    8  C   UNL     1     -10.445  11.658  67.357  1.00  0.00    -0.239 C  
HETATM    9  C   UNL     1     -10.814  11.870  65.934  1.00  0.00    -0.297 A  
HETATM   10  C   UNL     1     -11.663  12.874  65.520  1.00  0.00    -0.383 A  
HETATM   11  S   UNL     1     -11.852  12.806  63.830  1.00  0.00    -0.539 SA 
HETATM   12  C   UNL     1     -12.355  13.845  66.426  1.00  0.00    -0.468 C  
HETATM   13  C   UNL     1     -10.792  11.446  63.783  1.00  0.00    -0.395 A  
HETATM   14  N   UNL     1     -10.480  10.832  62.630  1.00  0.00    -0.724 NA 
HETATM   15  N   UNL     1     -10.302  11.071  64.938  1.00  0.00    -0.305 NA 
HETATM   16  H1  UNL     1      -9.853  10.028  62.603  1.00  0.00     0.000 HD 
HETATM   17  H2  UNL     1     -10.880  11.180  61.759  1.00  0.00     0.000 HD 
ENDBRANCH   4   6
ENDBRANCH   3   4
ENDBRANCH   2   3
TORSDOF 3
ENDMDL
MODEL        7
REMARK 921   NORMALIZED FREE ENERGY PREDICTED BY IDOCK:   -5.10 KCAL/MOL
REMARK 922        TOTAL FREE ENERGY PREDICTED BY IDOCK:   -6.23 KCAL/MOL
REMARK 923 INTER-LIGAND FREE ENERGY PREDICTED BY IDOCK:   -6.01 KCAL/MOL
REMARK 924 INTRA-LIGAND FREE ENERGY PREDICTED BY IDOCK:   -0.22 KCAL/MOL
REMARK 927      BINDING AFFINITY PREDICTED BY RF-SCORE:    0.00 PKD
ROOT
HETATM    1  C   UNL     1     -12.114  13.043  64.461  1.00  0.00    -0.468 C  
HETATM    2  C   UNL     1     -12.596  13.903  65.622  1.00  0.00    -0.553 C  
ENDROOT
BRANCH   2   3
HETATM    3  C   UNL     1     -11.441  14.224  66.570  1.00  0.00    -0.360 C  
BRANCH   3   4
HETATM    4  N   UNL     1     -11.390  13.272  67.687  1.00  0.00    -0.280 NA 
HETATM    5  H   UNL     1     -10.651  12.583  67.552  1.00  0.00     0.000 HD 
BRANCH   4   6
HETATM    6  C   UNL     1     -11.255  13.953  68.991  1.00  0.00    -0.274 C  
HETATM    7  C   UNL     1     -11.149  15.495  68.840  1.00  0.00    -0.282 C  
HETATM    8  C   UNL     1     -10.834  16.165  70.184  1.00  0.00    -0.328 C  
HETATM    9  C   UNL     1     -11.727  15.651  71.255  1.00  0.00    -0.422 A  
HETATM   10  C   UNL     1     -12.442  14.479  71.136  1.00  0.00    -0.341 A  
HETATM   11  S   UNL     1     -13.349  14.214  72.552  1.00  0.00    -0.544 SA 
HETATM   12  C   UNL     1     -12.458  13.598  69.926  1.00  0.00    -0.226 C  
HETATM   13  C   UNL     1     -12.721  15.681  73.208  1.00  0.00    -0.510 A  
HETATM   14  N   UNL     1     -13.071  16.115  74.430  1.00  0.00    -0.889 NA 
HETATM   15  N   UNL     1     -11.872  16.322  72.446  1.00  0.00    -0.533 NA 
HETATM   16  H1  UNL     1     -12.699  16.982  74.817  1.00  0.00     0.000 HD 
HETATM   17  H2  UNL     1     -13.725  15.563  74.984  1.00  0.00     0.000 HD 
ENDBRANCH   4   6
ENDBRANCH   3   4
ENDBRANCH   2   3
TORSDOF 3
ENDMDL
MODEL        8
REMARK 921   NORMALIZED FREE ENERGY PREDICTED BY IDOCK:   -5.06 KCAL/MOL
REMARK 922        TOTAL FREE ENERGY PREDICTED BY IDOCK:   -6.19 KCAL/MOL
REMARK 923 INTER-LIGAND FREE ENERGY PREDICTED BY IDOCK:   -6.00 KCAL/MOL
REMARK 924 INTRA-LIGAND FREE ENERGY PREDICTED BY IDOCK:   -0.19 KCAL/MOL
REMARK 927      BINDING AFFINITY PREDICTED BY RF-SCORE:    0.00 PKD
ROOT
HETATM    1  C   UNL     1     -11.204  12.108  64.768  1.00  0.00    -0.373 C  
HETATM    2  C   UNL     1     -11.990  12.549  65.996  1.00  0.00    -0.456 C  
ENDROOT
BRANCH   2   3
HETATM    3  C   UNL     1     -11.116  12.480  67.249  1.00  0.00    -0.274 C  
BRANCH   3   4
HETATM    4  N   UNL     1     -11.611  11.465  68.186  1.00  0.00    -0.436 NA 
HETATM    5  H   UNL     1     -10.852  10.874  68.525  1.00  0.00     0.000 HD 
BRANCH   4   6
HETATM    6  C   UNL     1     -12.366  12.063  69.306  1.00  0.00     0.080 C  
HETATM    7  C   UNL     1     -12.219  11.244  70.617  1.00  0.00    -0.489 C  
HETATM    8  C   UNL     1     -13.147  11.781  71.715  1.00  0.00    -0.480 C  
HETATM    9  C   UNL     1     -13.037  13.259  71.826  1.00  0.00    -0.379 A  
HETATM   10  C   UNL     1     -12.493  14.047  70.834  1.00  0.00    -0.369 A  
HETATM   11  S   UNL     1     -12.533  15.680  71.311  1.00  0.00    -0.457 SA 
HETATM   12  C   UNL     1     -11.908  13.538  69.554  1.00  0.00    -0.392 C  
HETATM   13  C   UNL     1     -13.269  15.209  72.800  1.00  0.00    -0.477 A  
HETATM   14  N   UNL     1     -13.600  16.108  73.740  1.00  0.00    -0.848 NA 
HETATM   15  N   UNL     1     -13.498  13.927  72.935  1.00  0.00    -0.650 NA 
HETATM   16  H1  UNL     1     -14.034  15.829  74.620  1.00  0.00     0.000 HD 
HETATM   17  H2  UNL     1     -13.411  17.096  73.571  1.00  0.00     0.000 HD 
ENDBRANCH   4   6
ENDBRANCH   3   4
ENDBRANCH   2   3
TORSDOF 3
ENDMDL
MODEL        9
REMARK 921   NORMALIZED FREE ENERGY PREDICTED BY IDOCK:   -5.04 KCAL/MOL
REMARK 922        TOTAL FREE ENERGY PREDICTED BY IDOCK:   -6.16 KCAL/MOL
REMARK 923 INTER-LIGAND FREE ENERGY PREDICTED BY IDOCK:   -5.98 KCAL/MOL
REMARK 924 INTRA-LIGAND FREE ENERGY PREDICTED BY IDOCK:   -0.18 KCAL/MOL
REMARK 927      BINDING AFFINITY PREDICTED BY RF-SCORE:    0.00 PKD
ROOT
HETATM    1  C   UNL     1     -10.753   9.403  71.157  1.00  0.00    -0.417 C  
HETATM    2  C   UNL     1     -12.134  10.027  71.005  1.00  0.00    -0.469 C  
ENDROOT
BRANCH   2   3
HETATM    3  C   UNL     1     -12.026  11.442  70.436  1.00  0.00    -0.374 C  
BRANCH   3   4
HETATM    4  N   UNL     1     -10.802  11.604  69.643  1.00  0.00    -0.458 NA 
HETATM    5  H   UNL     1     -10.621  10.779  69.071  1.00  0.00     0.000 HD 
BRANCH   4   6
HETATM    6  C   UNL     1     -10.832  12.830  68.819  1.00  0.00    -0.234 C  
HETATM    7  C   UNL     1      -9.408  13.307  68.426  1.00  0.00    -0.157 C  
HETATM    8  C   UNL     1      -9.452  14.672  67.725  1.00  0.00    -0.205 C  
HETATM    9  C   UNL     1     -10.488  14.687  66.660  1.00  0.00    -0.278 A  
HETATM   10  C   UNL     1     -11.506  13.760  66.591  1.00  0.00    -0.345 A  
HETATM   11  S   UNL     1     -12.493  14.090  65.244  1.00  0.00    -0.458 SA 
HETATM   12  C   UNL     1     -11.686  12.607  67.529  1.00  0.00    -0.429 C  
HETATM   13  C   UNL     1     -11.486  15.438  64.859  1.00  0.00    -0.311 A  
HETATM   14  N   UNL     1     -11.728  16.219  63.793  1.00  0.00    -1.488 NA 
HETATM   15  N   UNL     1     -10.492  15.654  65.683  1.00  0.00    -0.357 NA 
HETATM   16  H1  UNL     1     -11.132  17.015  63.566  1.00  0.00     0.000 HD 
HETATM   17  H2  UNL     1     -12.527  16.010  63.196  1.00  0.00     0.000 HD 
ENDBRANCH   4   6
ENDBRANCH   3   4
ENDBRANCH   2   3
TORSDOF 3
ENDMDL
MODEL       10
REMARK 921   NORMALIZED FREE ENERGY PREDICTED BY IDOCK:   -5.02 KCAL/MOL
REMARK 922        TOTAL FREE ENERGY PREDICTED BY IDOCK:   -6.14 KCAL/MOL
REMARK 923 INTER-LIGAND FREE ENERGY PREDICTED BY IDOCK:   -5.96 KCAL/MOL
REMARK 924 INTRA-LIGAND FREE ENERGY PREDICTED BY IDOCK:   -0.18 KCAL/MOL
REMARK 927      BINDING AFFINITY PREDICTED BY RF-SCORE:    0.00 PKD
ROOT
HETATM    1  C   UNL     1     -10.681  11.445  64.849  1.00  0.00    -0.350 C  
HETATM    2  C   UNL     1     -10.217  11.241  66.285  1.00  0.00    -0.280 C  
ENDROOT
BRANCH   2   3
HETATM    3  C   UNL     1     -11.189  11.899  67.264  1.00  0.00    -0.317 C  
BRANCH   3   4
HETATM    4  N   UNL     1     -11.605  10.959  68.311  1.00  0.00    -0.523 NA 
HETATM    5  H   UNL     1     -10.806  10.455  68.695  1.00  0.00     0.000 HD 
BRANCH   4   6
HETATM    6  C   UNL     1     -12.381  11.624  69.378  1.00  0.00    -0.068 C  
HETATM    7  C   UNL     1     -12.204  10.926  70.754  1.00  0.00    -0.483 C  
HETATM    8  C   UNL     1     -13.151  11.522  71.806  1.00  0.00    -0.503 C  
HETATM    9  C   UNL     1     -13.094  13.006  71.789  1.00  0.00    -0.373 A  
HETATM   10  C   UNL     1     -12.579  13.725  70.731  1.00  0.00    -0.340 A  
HETATM   11  S   UNL     1     -12.679  15.391  71.067  1.00  0.00    -0.473 SA 
HETATM   12  C   UNL     1     -11.976  13.130  69.497  1.00  0.00    -0.354 C  
HETATM   13  C   UNL     1     -13.397  15.023  72.592  1.00  0.00    -0.457 A  
HETATM   14  N   UNL     1     -13.760  15.987  73.454  1.00  0.00    -0.807 NA 
HETATM   15  N   UNL     1     -13.579  13.750  72.838  1.00  0.00    -0.632 NA 
HETATM   16  H1  UNL     1     -14.184  15.769  74.355  1.00  0.00     0.000 HD 
HETATM   17  H2  UNL     1     -13.607  16.963  73.199  1.00  0.00     0.000 HD 
ENDBRANCH   4   6
ENDBRANCH   3   4
ENDBRANCH   2   3
TORSDOF 3
ENDMDL
MODEL       11
REMARK 921   NORMALIZED FREE ENERGY PREDICTED BY IDOCK:   -4.99 KCAL/MOL
REMARK 922        TOTAL FREE ENERGY PREDICTED BY IDOCK:   -6.10 KCAL/MOL
REMARK 923 INTER-LIGAND FREE ENERGY PREDICTED BY IDOCK:   -5.87 KCAL/MOL
REMARK 924 INTRA-LIGAND FREE ENERGY PREDICTED BY IDOCK:   -0.22 KCAL/MOL
REMARK 927      BINDING AFFINITY PREDICTED BY RF-SCORE:    0.00 PKD
ROOT
HETATM    1  C   UNL     1     -12.623  15.135  74.002  1.00  0.00    -0.652 C  
HETATM    2  C   UNL     1     -12.059  16.369  73.310  1.00  0.00    -0.553 C  
ENDROOT
BRANCH   2   3
HETATM    3  C   UNL     1     -11.954  16.140  71.802  1.00  0.00    -0.489 C  
BRANCH   3   4
HETATM    4  N   UNL     1     -11.235  14.896  71.502  1.00  0.00    -0.556 NA 
HETATM    5  H   UNL     1     -11.700  14.091  71.919  1.00  0.00     0.000 HD 
BRANCH   4   6
HETATM    6  C   UNL     1     -11.033  14.707  70.051  1.00  0.00    -0.112 C  
HETATM    7  C   UNL     1     -12.144  13.828  69.415  1.00  0.00    -0.377 C  
HETATM    8  C   UNL     1     -11.822  13.499  67.950  1.00  0.00    -0.397 C  
HETATM    9  C   UNL     1     -11.420  14.722  67.209  1.00  0.00    -0.366 A  
HETATM   10  C   UNL     1     -11.018  15.881  67.836  1.00  0.00    -0.327 A  
HETATM   11  S   UNL     1     -10.638  17.063  66.671  1.00  0.00    -0.112 SA 
HETATM   12  C   UNL     1     -10.971  16.087  69.318  1.00  0.00    -0.306 C  
HETATM   13  C   UNL     1     -11.042  15.939  65.426  1.00  0.00    -0.195 A  
HETATM   14  N   UNL     1     -10.958  16.265  64.126  1.00  0.00    -1.087 NA 
HETATM   15  N   UNL     1     -11.412  14.751  65.834  1.00  0.00    -0.344 NA 
HETATM   16  H1  UNL     1     -11.197  15.600  63.390  1.00  0.00     0.000 HD 
HETATM   17  H2  UNL     1     -10.648  17.201  63.868  1.00  0.00     0.000 HD 
ENDBRANCH   4   6
ENDBRANCH   3   4
ENDBRANCH   2   3
TORSDOF 3
ENDMDL
MODEL       12
REMARK 921   NORMALIZED FREE ENERGY PREDICTED BY IDOCK:   -4.95 KCAL/MOL
REMARK 922        TOTAL FREE ENERGY PREDICTED BY IDOCK:   -6.05 KCAL/MOL
REMARK 923 INTER-LIGAND FREE ENERGY PREDICTED BY IDOCK:   -5.89 KCAL/MOL
REMARK 924 INTRA-LIGAND FREE ENERGY PREDICTED BY IDOCK:   -0.16 KCAL/MOL
REMARK 927      BINDING AFFINITY PREDICTED BY RF-SCORE:    0.00 PKD
ROOT
HETATM    1  C   UNL     1     -13.208   9.562  71.987  1.00  0.00    -0.539 C  
HETATM    2  C   UNL     1     -11.698   9.576  71.785  1.00  0.00    -0.411 C  
ENDROOT
BRANCH   2   3
HETATM    3  C   UNL     1     -11.352   9.851  70.322  1.00  0.00    -0.291 C  
BRANCH   3   4
HETATM    4  N   UNL     1     -10.807  11.203  70.150  1.00  0.00    -0.415 NA 
HETATM    5  H   UNL     1      -9.796  11.180  70.019  1.00  0.00     0.000 HD 
BRANCH   4   6
HETATM    6  C   UNL     1     -11.473  11.935  69.052  1.00  0.00    -0.297 C  
HETATM    7  C   UNL     1     -11.273  13.470  69.166  1.00  0.00    -0.310 C  
HETATM    8  C   UNL     1     -12.114  14.219  68.122  1.00  0.00    -0.275 C  
HETATM    9  C   UNL     1     -11.951  13.613  66.776  1.00  0.00    -0.414 A  
HETATM   10  C   UNL     1     -11.443  12.347  66.580  1.00  0.00    -0.371 A  
HETATM   11  S   UNL     1     -11.402  11.996  64.915  1.00  0.00    -0.285 SA 
HETATM   12  C   UNL     1     -10.954  11.438  67.664  1.00  0.00    -0.303 C  
HETATM   13  C   UNL     1     -12.061  13.557  64.588  1.00  0.00    -0.409 A  
HETATM   14  N   UNL     1     -12.305  13.973  63.334  1.00  0.00    -1.154 NA 
HETATM   15  N   UNL     1     -12.322  14.292  65.639  1.00  0.00    -0.420 NA 
HETATM   16  H1  UNL     1     -12.694  14.896  63.141  1.00  0.00     0.000 HD 
HETATM   17  H2  UNL     1     -12.096  13.349  62.555  1.00  0.00     0.000 HD 
ENDBRANCH   4   6
ENDBRANCH   3   4
ENDBRANCH   2   3
TORSDOF 3
ENDMDL
MODEL       13
REMARK 921   NORMALIZED FREE ENERGY PREDICTED BY IDOCK:   -4.94 KCAL/MOL
REMARK 922        TOTAL FREE ENERGY PREDICTED BY IDOCK:   -6.05 KCAL/MOL
REMARK 923 INTER-LIGAND FREE ENERGY PREDICTED BY IDOCK:   -5.86 KCAL/MOL
REMARK 924 INTRA-LIGAND FREE ENERGY PREDICTED BY IDOCK:   -0.18 KCAL/MOL
REMARK 927      BINDING AFFINITY PREDICTED BY RF-SCORE:    0.00 PKD
ROOT
HETATM    1  C   UNL     1      -9.491  20.112  66.616  1.00  0.00    -0.517 C  
HETATM    2  C   UNL     1     -10.504  18.984  66.749  1.00  0.00    -0.510 C  
ENDROOT
BRANCH   2   3
HETATM    3  C   UNL     1      -9.846  17.632  66.474  1.00  0.00    -0.319 C  
BRANCH   3   4
HETATM    4  N   UNL     1     -10.443  16.977  65.304  1.00  0.00    -0.665 NA 
HETATM    5  H   UNL     1      -9.761  16.864  64.555  1.00  0.00     0.000 HD 
BRANCH   4   6
HETATM    6  C   UNL     1     -11.076  15.689  65.652  1.00  0.00    -0.194 C  
HETATM    7  C   UNL     1     -10.527  14.516  64.796  1.00  0.00    -0.365 C  
HETATM    8  C   UNL     1     -11.318  13.225  65.048  1.00  0.00    -0.326 C  
HETATM    9  C   UNL     1     -11.482  12.980  66.504  1.00  0.00    -0.340 A  
HETATM   10  C   UNL     1     -11.300  13.961  67.455  1.00  0.00    -0.326 A  
HETATM   11  S   UNL     1     -11.571  13.315  69.006  1.00  0.00    -0.330 SA 
HETATM   12  C   UNL     1     -10.879  15.369  67.170  1.00  0.00    -0.321 C  
HETATM   13  C   UNL     1     -11.905  11.781  68.290  1.00  0.00    -0.271 A  
HETATM   14  N   UNL     1     -12.223  10.709  69.033  1.00  0.00    -0.769 NA 
HETATM   15  N   UNL     1     -11.848  11.744  66.982  1.00  0.00    -0.607 NA 
HETATM   16  H1  UNL     1     -12.420   9.802  68.609  1.00  0.00     0.000 HD 
HETATM   17  H2  UNL     1     -12.268  10.803  70.047  1.00  0.00     0.000 HD 
ENDBRANCH   4   6
ENDBRANCH   3   4
ENDBRANCH   2   3
TORSDOF 3
ENDMDL
MODEL       14
REMARK 921   NORMALIZED FREE ENERGY PREDICTED BY IDOCK:   -4.93 KCAL/MOL
REMARK 922        TOTAL FREE ENERGY PREDICTED BY IDOCK:   -6.03 KCAL/MOL
REMARK 923 INTER-LIGAND FREE ENERGY PREDICTED BY IDOCK:   -5.74 KCAL/MOL
REMARK 924 INTRA-LIGAND FREE ENERGY PREDICTED BY IDOCK:   -0.28 KCAL/MOL
REMARK 927      BINDING AFFINITY PREDICTED BY RF-SCORE:    0.00 PKD
ROOT
HETATM    1  C   UNL     1     -10.260  11.498  63.490  1.00  0.00    -0.462 C  
HETATM    2  C   UNL     1     -11.695  12.001  63.588  1.00  0.00    -0.587 C  
ENDROOT
BRANCH   2   3
HETATM    3  C   UNL     1     -11.740  13.373  64.260  1.00  0.00    -0.412 C  
BRANCH   3   4
HETATM    4  N   UNL     1     -10.391  13.924  64.436  1.00  0.00    -0.673 NA 
HETATM    5  H   UNL     1     -10.156  14.572  63.685  1.00  0.00     0.000 HD 
BRANCH   4   6
HETATM    6  C   UNL     1     -10.217  14.553  65.762  1.00  0.00    -0.335 C  
HETATM    7  C   UNL     1     -10.281  16.102  65.688  1.00  0.00    -0.390 C  
HETATM    8  C   UNL     1      -9.923  16.738  67.039  1.00  0.00    -0.269 C  
HETATM    9  C   UNL     1     -10.665  16.082  68.146  1.00  0.00    -0.311 A  
HETATM   10  C   UNL     1     -11.265  14.848  68.019  1.00  0.00    -0.308 A  
HETATM   11  S   UNL     1     -12.019  14.422  69.485  1.00  0.00    -0.330 SA 
HETATM   12  C   UNL     1     -11.294  14.029  66.767  1.00  0.00    -0.346 C  
HETATM   13  C   UNL     1     -11.489  15.915  70.171  1.00  0.00    -0.361 A  
HETATM   14  N   UNL     1     -11.777  16.251  71.438  1.00  0.00    -0.621 NA 
HETATM   15  N   UNL     1     -10.777  16.678  69.381  1.00  0.00    -0.336 NA 
HETATM   16  H1  UNL     1     -11.464  17.134  71.843  1.00  0.00     0.000 HD 
HETATM   17  H2  UNL     1     -12.322  15.608  72.011  1.00  0.00     0.000 HD 
ENDBRANCH   4   6
ENDBRANCH   3   4
ENDBRANCH   2   3
TORSDOF 3
ENDMDL
MODEL       15
REMARK 921   NORMALIZED FREE ENERGY PREDICTED BY IDOCK:   -4.89 KCAL/MOL
REMARK 922        TOTAL FREE ENERGY PREDICTED BY IDOCK:   -5.99 KCAL/MOL
REMARK 923 INTER-LIGAND FREE ENERGY PREDICTED BY IDOCK:   -5.58 KCAL/MOL
REMARK 924 INTRA-LIGAND FREE ENERGY PREDICTED BY IDOCK:   -0.41 KCAL/MOL
REMARK 927      BINDING AFFINITY PREDICTED BY RF-SCORE:    0.00 PKD
ROOT
HETATM    1  C   UNL     1     -10.596  19.775  66.172  1.00  0.00    -0.569 C  
HETATM    2  C   UNL     1      -9.291  19.904  66.946  1.00  0.00    -0.493 C  
ENDROOT
BRANCH   2   3
HETATM    3  C   UNL     1      -9.278  18.954  68.143  1.00  0.00    -0.320 C  
BRANCH   3   4
HETATM    4  N   UNL     1      -8.497  17.745  67.853  1.00  0.00    -0.240 NA 
HETATM    5  H   UNL     1      -7.780  17.589  68.561  1.00  0.00     0.000 HD 
BRANCH   4   6
HETATM    6  C   UNL     1      -9.357  16.554  67.690  1.00  0.00    -0.212 C  
HETATM    7  C   UNL     1     -10.728  16.720  68.399  1.00  0.00    -0.362 C  
HETATM    8  C   UNL     1     -11.532  15.413  68.368  1.00  0.00    -0.365 C  
HETATM    9  C   UNL     1     -11.543  14.830  67.001  1.00  0.00    -0.339 A  
HETATM   10  C   UNL     1     -10.645  15.197  66.022  1.00  0.00    -0.322 A  
HETATM   11  S   UNL     1     -10.964  14.325  64.595  1.00  0.00    -0.324 SA 
HETATM   12  C   UNL     1      -9.583  16.240  66.175  1.00  0.00    -0.362 C  
HETATM   13  C   UNL     1     -12.273  13.532  65.392  1.00  0.00    -0.447 A  
HETATM   14  N   UNL     1     -13.033  12.620  64.766  1.00  0.00    -0.867 NA 
HETATM   15  N   UNL     1     -12.456  13.866  66.645  1.00  0.00    -0.358 NA 
HETATM   16  H1  UNL     1     -13.806  12.151  65.237  1.00  0.00     0.000 HD 
HETATM   17  H2  UNL     1     -12.832  12.389  63.793  1.00  0.00     0.000 HD 
ENDBRANCH   4   6
ENDBRANCH   3   4
ENDBRANCH   2   3
TORSDOF 3
ENDMDL
MODEL       16
REMARK 921   NORMALIZED FREE ENERGY PREDICTED BY IDOCK:   -4.86 KCAL/MOL
REMARK 922        TOTAL FREE ENERGY PREDICTED BY IDOCK:   -5.95 KCAL/MOL
REMARK 923 INTER-LIGAND FREE ENERGY PREDICTED BY IDOCK:   -5.71 KCAL/MOL
REMARK 924 INTRA-LIGAND FREE ENERGY PREDICTED BY IDOCK:   -0.23 KCAL/MOL
REMARK 927      BINDING AFFINITY PREDICTED BY RF-SCORE:    0.00 PKD
ROOT
HETATM    1  C   UNL     1     -12.862  15.412  73.554  1.00  0.00    -0.683 C  
HETATM    2  C   UNL     1     -12.743  15.137  72.061  1.00  0.00    -0.418 C  
ENDROOT
BRANCH   2   3
HETATM    3  C   UNL     1     -11.326  15.428  71.570  1.00  0.00    -0.396 C  
BRANCH   3   4
HETATM    4  N   UNL     1     -10.983  14.593  70.412  1.00  0.00    -0.486 NA 
HETATM    5  H   UNL     1     -11.771  14.010  70.130  1.00  0.00     0.000 HD 
BRANCH   4   6
HETATM    6  C   UNL     1     -10.479  15.396  69.278  1.00  0.00    -0.251 C  
HETATM    7  C   UNL     1     -11.253  15.106  67.964  1.00  0.00    -0.329 C  
HETATM    8  C   UNL     1     -10.603  15.815  66.768  1.00  0.00    -0.309 C  
HETATM    9  C   UNL     1     -10.319  17.238  67.085  1.00  0.00    -0.321 A  
HETATM   10  C   UNL     1     -10.280  17.726  68.374  1.00  0.00    -0.384 A  
HETATM   11  S   UNL     1      -9.930  19.392  68.348  1.00  0.00    -0.457 SA 
HETATM   12  C   UNL     1     -10.554  16.923  69.607  1.00  0.00    -0.172 C  
HETATM   13  C   UNL     1      -9.861  19.332  66.624  1.00  0.00    -0.367 A  
HETATM   14  N   UNL     1      -9.601  20.425  65.889  1.00  0.00    -0.640 NA 
HETATM   15  N   UNL     1     -10.059  18.152  66.092  1.00  0.00    -0.503 NA 
HETATM   16  H1  UNL     1      -9.560  20.390  64.871  1.00  0.00     0.000 HD 
HETATM   17  H2  UNL     1      -9.439  21.314  66.362  1.00  0.00     0.000 HD 
ENDBRANCH   4   6
ENDBRANCH   3   4
ENDBRANCH   2   3
TORSDOF 3
ENDMDL
MODEL       17
REMARK 921   NORMALIZED FREE ENERGY PREDICTED BY IDOCK:   -4.85 KCAL/MOL
REMARK 922        TOTAL FREE ENERGY PREDICTED BY IDOCK:   -5.93 KCAL/MOL
REMARK 923 INTER-LIGAND FREE ENERGY PREDICTED BY IDOCK:   -5.68 KCAL/MOL
REMARK 924 INTRA-LIGAND FREE ENERGY PREDICTED BY IDOCK:   -0.25 KCAL/MOL
REMARK 927      BINDING AFFINITY PREDICTED BY RF-SCORE:    0.00 PKD
ROOT
HETATM    1  C   UNL     1     -10.374   7.652  69.851  1.00  0.00    -0.225 C  
HETATM    2  C   UNL     1     -10.397   8.674  68.722  1.00  0.00    -0.228 C  
ENDROOT
BRANCH   2   3
HETATM    3  C   UNL     1     -10.600  10.084  69.275  1.00  0.00    -0.227 C  
BRANCH   3   4
HETATM    4  N   UNL     1     -11.784  10.721  68.686  1.00  0.00    -0.573 NA 
HETATM    5  H   UNL     1     -12.389  10.032  68.238  1.00  0.00     0.000 HD 
BRANCH   4   6
HETATM    6  C   UNL     1     -12.531  11.527  69.674  1.00  0.00    -0.025 C  
HETATM    7  C   UNL     1     -12.459  10.919  71.101  1.00  0.00    -0.511 C  
HETATM    8  C   UNL     1     -13.381  11.670  72.072  1.00  0.00    -0.405 C  
HETATM    9  C   UNL     1     -13.193  13.138  71.953  1.00  0.00    -0.431 A  
HETATM   10  C   UNL     1     -12.584  13.731  70.867  1.00  0.00    -0.356 A  
HETATM   11  S   UNL     1     -12.546  15.419  71.080  1.00  0.00    -0.456 SA 
HETATM   12  C   UNL     1     -11.998  12.997  69.701  1.00  0.00    -0.367 C  
HETATM   13  C   UNL     1     -13.340  15.227  72.600  1.00  0.00    -0.478 A  
HETATM   14  N   UNL     1     -13.643  16.280  73.377  1.00  0.00    -0.740 NA 
HETATM   15  N   UNL     1     -13.642  13.996  72.928  1.00  0.00    -0.662 NA 
HETATM   16  H1  UNL     1     -14.112  16.167  74.275  1.00  0.00     0.000 HD 
HETATM   17  H2  UNL     1     -13.397  17.218  73.060  1.00  0.00     0.000 HD 
ENDBRANCH   4   6
ENDBRANCH   3   4
ENDBRANCH   2   3
TORSDOF 3
ENDMDL
MODEL       18
REMARK 921   NORMALIZED FREE ENERGY PREDICTED BY IDOCK:   -4.84 KCAL/MOL
REMARK 922        TOTAL FREE ENERGY PREDICTED BY IDOCK:   -5.93 KCAL/MOL
REMARK 923 INTER-LIGAND FREE ENERGY PREDICTED BY IDOCK:   -5.68 KCAL/MOL
REMARK 924 INTRA-LIGAND FREE ENERGY PREDICTED BY IDOCK:   -0.25 KCAL/MOL
REMARK 927      BINDING AFFINITY PREDICTED BY RF-SCORE:    0.00 PKD
ROOT
HETATM    1  C   UNL     1     -13.197  15.108  71.437  1.00  0.00    -0.528 C  
HETATM    2  C   UNL     1     -11.746  15.511  71.210  1.00  0.00    -0.457 C  
ENDROOT
BRANCH   2   3
HETATM    3  C   UNL     1     -11.235  14.957  69.880  1.00  0.00    -0.275 C  
BRANCH   3   4
HETATM    4  N   UNL     1     -11.606  13.547  69.714  1.00  0.00    -0.424 NA 
HETATM    5  H   UNL     1     -12.410  13.305  70.294  1.00  0.00     0.000 HD 
BRANCH   4   6
HETATM    6  C   UNL     1     -11.843  13.197  68.298  1.00  0.00    -0.349 C  
HETATM    7  C   UNL     1     -11.899  14.452  67.386  1.00  0.00    -0.430 C  
HETATM    8  C   UNL     1     -12.320  14.083  65.957  1.00  0.00    -0.504 C  
HETATM    9  C   UNL     1     -11.540  12.920  65.459  1.00  0.00    -0.358 A  
HETATM   10  C   UNL     1     -10.845  12.071  66.293  1.00  0.00    -0.279 A  
HETATM   11  S   UNL     1     -10.076  10.863  65.373  1.00  0.00    -0.289 SA 
HETATM   12  C   UNL     1     -10.739  12.219  67.779  1.00  0.00    -0.246 C  
HETATM   13  C   UNL     1     -10.727  11.568  63.938  1.00  0.00    -0.395 A  
HETATM   14  N   UNL     1     -10.480  11.052  62.723  1.00  0.00    -0.786 NA 
HETATM   15  N   UNL     1     -11.489  12.617  64.119  1.00  0.00    -0.357 NA 
HETATM   16  H1  UNL     1     -10.866  11.468  61.875  1.00  0.00     0.000 HD 
HETATM   17  H2  UNL     1      -9.892  10.223  62.646  1.00  0.00     0.000 HD 
ENDBRANCH   4   6
ENDBRANCH   3   4
ENDBRANCH   2   3
TORSDOF 3
ENDMDL
MODEL       19
REMARK 921   NORMALIZED FREE ENERGY PREDICTED BY IDOCK:   -4.83 KCAL/MOL
REMARK 922        TOTAL FREE ENERGY PREDICTED BY IDOCK:   -5.91 KCAL/MOL
REMARK 923 INTER-LIGAND FREE ENERGY PREDICTED BY IDOCK:   -5.76 KCAL/MOL
REMARK 924 INTRA-LIGAND FREE ENERGY PREDICTED BY IDOCK:   -0.15 KCAL/MOL
REMARK 927      BINDING AFFINITY PREDICTED BY RF-SCORE:    0.00 PKD
ROOT
HETATM    1  C   UNL     1     -10.270  10.736  64.286  1.00  0.00    -0.422 C  
HETATM    2  C   UNL     1     -10.726  11.811  63.308  1.00  0.00    -0.414 C  
ENDROOT
BRANCH   2   3
HETATM    3  C   UNL     1     -12.182  12.196  63.571  1.00  0.00    -0.567 C  
BRANCH   3   4
HETATM    4  N   UNL     1     -12.384  13.642  63.422  1.00  0.00    -1.042 NA 
HETATM    5  H   UNL     1     -13.321  13.851  63.080  1.00  0.00     0.000 HD 
BRANCH   4   6
HETATM    6  C   UNL     1     -12.094  14.375  64.672  1.00  0.00    -0.471 C  
HETATM    7  C   UNL     1     -12.144  13.450  65.918  1.00  0.00    -0.486 C  
HETATM    8  C   UNL     1     -12.016  14.260  67.217  1.00  0.00    -0.439 C  
HETATM    9  C   UNL     1     -10.887  15.220  67.133  1.00  0.00    -0.322 A  
HETATM   10  C   UNL     1     -10.310  15.598  65.939  1.00  0.00    -0.350 A  
HETATM   11  S   UNL     1      -9.051  16.705  66.234  1.00  0.00    -0.290 SA 
HETATM   12  C   UNL     1     -10.698  15.074  64.591  1.00  0.00    -0.243 C  
HETATM   13  C   UNL     1      -9.372  16.592  67.925  1.00  0.00    -0.221 A  
HETATM   14  N   UNL     1      -8.659  17.286  68.828  1.00  0.00    -0.261 NA 
HETATM   15  N   UNL     1     -10.363  15.806  68.261  1.00  0.00    -0.235 NA 
HETATM   16  H1  UNL     1      -8.848  17.219  69.827  1.00  0.00     0.000 HD 
HETATM   17  H2  UNL     1      -7.908  17.895  68.504  1.00  0.00     0.000 HD 
ENDBRANCH   4   6
ENDBRANCH   3   4
ENDBRANCH   2   3
TORSDOF 3
ENDMDL
MODEL       20
REMARK 921   NORMALIZED FREE ENERGY PREDICTED BY IDOCK:   -4.78 KCAL/MOL
REMARK 922        TOTAL FREE ENERGY PREDICTED BY IDOCK:   -5.85 KCAL/MOL
REMARK 923 INTER-LIGAND FREE ENERGY PREDICTED BY IDOCK:   -5.61 KCAL/MOL
REMARK 924 INTRA-LIGAND FREE ENERGY PREDICTED BY IDOCK:   -0.24 KCAL/MOL
REMARK 927      BINDING AFFINITY PREDICTED BY RF-SCORE:    0.00 PKD
ROOT
HETATM    1  C   UNL     1     -11.692   9.429  71.545  1.00  0.00    -0.465 C  
HETATM    2  C   UNL     1     -10.199   9.299  71.271  1.00  0.00    -0.383 C  
ENDROOT
BRANCH   2   3
HETATM    3  C   UNL     1      -9.852   9.868  69.896  1.00  0.00    -0.245 C  
BRANCH   3   4
HETATM    4  N   UNL     1     -10.426  11.207  69.714  1.00  0.00    -0.437 NA 
HETATM    5  H   UNL     1      -9.992  11.884  70.342  1.00  0.00     0.000 HD 
BRANCH   4   6
HETATM    6  C   UNL     1     -10.353  11.657  68.309  1.00  0.00    -0.200 C  
HETATM    7  C   UNL     1     -10.242  10.467  67.318  1.00  0.00    -0.258 C  
HETATM    8  C   UNL     1      -9.991  10.958  65.885  1.00  0.00    -0.294 C  
HETATM    9  C   UNL     1     -10.932  12.049  65.527  1.00  0.00    -0.298 A  
HETATM   10  C   UNL     1     -11.640  12.768  66.467  1.00  0.00    -0.376 A  
HETATM   11  S   UNL     1     -12.613  13.929  65.689  1.00  0.00    -0.471 SA 
HETATM   12  C   UNL     1     -11.598  12.530  67.944  1.00  0.00    -0.403 C  
HETATM   13  C   UNL     1     -12.017  13.381  64.165  1.00  0.00    -0.450 A  
HETATM   14  N   UNL     1     -12.424  13.930  63.009  1.00  0.00    -1.009 NA 
HETATM   15  N   UNL     1     -11.134  12.416  64.217  1.00  0.00    -0.323 NA 
HETATM   16  H1  UNL     1     -12.072  13.606  62.108  1.00  0.00     0.000 HD 
HETATM   17  H2  UNL     1     -13.103  14.690  63.032  1.00  0.00     0.000 HD 
ENDBRANCH   4   6
ENDBRANCH   3   4
ENDBRANCH   2   3
TORSDOF 3
ENDMDL
MODEL       21
REMARK 921   NORMALIZED FREE ENERGY PREDICTED BY IDOCK:   -4.75 KCAL/MOL
REMARK 922        TOTAL FREE ENERGY PREDICTED BY IDOCK:   -5.82 KCAL/MOL
REMARK 923 INTER-LIGAND FREE ENERGY PREDICTED BY IDOCK:   -5.51 KCAL/MOL
REMARK 924 INTRA-LIGAND FREE ENERGY PREDICTED BY IDOCK:   -0.30 KCAL/MOL
REMARK 927      BINDING AFFINITY PREDICTED BY RF-SCORE:    0.00 PKD
ROOT
HETATM    1  C   UNL     1      -9.693   9.177  65.929  1.00  0.00    -0.336 C  
HETATM    2  C   UNL     1      -9.822  10.469  66.725  1.00  0.00    -0.237 C  
ENDROOT
BRANCH   2   3
HETATM    3  C   UNL     1     -10.962  10.366  67.738  1.00  0.00    -0.309 C  
BRANCH   3   4
HETATM    4  N   UNL     1     -11.987  11.388  67.491  1.00  0.00    -0.601 NA 
HETATM    5  H   UNL     1     -12.432  11.683  68.359  1.00  0.00     0.000 HD 
BRANCH   4   6
HETATM    6  C   UNL     1     -11.450  12.543  66.743  1.00  0.00    -0.362 C  
HETATM    7  C   UNL     1     -12.306  12.883  65.493  1.00  0.00    -0.517 C  
HETATM    8  C   UNL     1     -11.637  13.968  64.638  1.00  0.00    -0.400 C  
HETATM    9  C   UNL     1     -11.191  15.106  65.482  1.00  0.00    -0.320 A  
HETATM   10  C   UNL     1     -11.045  15.015  66.849  1.00  0.00    -0.331 A  
HETATM   11  S   UNL     1     -10.523  16.511  67.472  1.00  0.00    -0.304 SA 
HETATM   12  C   UNL     1     -11.350  13.800  67.669  1.00  0.00    -0.331 C  
HETATM   13  C   UNL     1     -10.535  17.161  65.874  1.00  0.00    -0.258 A  
HETATM   14  N   UNL     1     -10.192  18.435  65.627  1.00  0.00    -0.538 NA 
HETATM   15  N   UNL     1     -10.878  16.325  64.927  1.00  0.00    -0.671 NA 
HETATM   16  H1  UNL     1     -10.199  18.819  64.682  1.00  0.00     0.000 HD 
HETATM   17  H2  UNL     1      -9.917  19.035  66.404  1.00  0.00     0.000 HD 
ENDBRANCH   4   6
ENDBRANCH   3   4
ENDBRANCH   2   3
TORSDOF 3
ENDMDL
MODEL       22
REMARK 921   NORMALIZED FREE ENERGY PREDICTED BY IDOCK:   -4.74 KCAL/MOL
REMARK 922        TOTAL FREE ENERGY PREDICTED BY IDOCK:   -5.81 KCAL/MOL
REMARK 923 INTER-LIGAND FREE ENERGY PREDICTED BY IDOCK:   -5.55 KCAL/MOL
REMARK 924 INTRA-LIGAND FREE ENERGY PREDICTED BY IDOCK:   -0.26 KCAL/MOL
REMARK 927      BINDING AFFINITY PREDICTED BY RF-SCORE:    0.00 PKD
ROOT
HETATM    1  C   UNL     1     -10.488  11.657  63.752  1.00  0.00    -0.454 C  
HETATM    2  C   UNL     1     -11.978  11.968  63.767  1.00  0.00    -0.588 C  
ENDROOT
BRANCH   2   3
HETATM    3  C   UNL     1     -12.214  13.471  63.906  1.00  0.00    -0.399 C  
BRANCH   3   4
HETATM    4  N   UNL     1     -10.966  14.179  64.215  1.00  0.00    -0.593 NA 
HETATM    5  H   UNL     1     -10.658  14.747  63.426  1.00  0.00     0.000 HD 
BRANCH   4   6
HETATM    6  C   UNL     1     -11.076  14.987  65.447  1.00  0.00    -0.374 C  
HETATM    7  C   UNL     1     -10.235  14.398  66.612  1.00  0.00    -0.277 C  
HETATM    8  C   UNL     1     -10.501  15.149  67.925  1.00  0.00    -0.245 C  
HETATM    9  C   UNL     1     -10.434  16.618  67.718  1.00  0.00    -0.316 A  
HETATM   10  C   UNL     1     -10.517  17.205  66.473  1.00  0.00    -0.255 A  
HETATM   11  S   UNL     1     -10.401  18.897  66.627  1.00  0.00    -0.442 SA 
HETATM   12  C   UNL     1     -10.640  16.465  65.178  1.00  0.00    -0.287 C  
HETATM   13  C   UNL     1     -10.246  18.713  68.336  1.00  0.00    -0.371 A  
HETATM   14  N   UNL     1     -10.101  19.771  69.150  1.00  0.00    -0.582 NA 
HETATM   15  N   UNL     1     -10.301  17.482  68.779  1.00  0.00    -0.366 NA 
HETATM   16  H1  UNL     1     -10.009  19.662  70.160  1.00  0.00     0.000 HD 
HETATM   17  H2  UNL     1     -10.081  20.708  68.748  1.00  0.00     0.000 HD 
ENDBRANCH   4   6
ENDBRANCH   3   4
ENDBRANCH   2   3
TORSDOF 3
ENDMDL
MODEL       23
REMARK 921   NORMALIZED FREE ENERGY PREDICTED BY IDOCK:   -4.71 KCAL/MOL
REMARK 922        TOTAL FREE ENERGY PREDICTED BY IDOCK:   -5.78 KCAL/MOL
REMARK 923 INTER-LIGAND FREE ENERGY PREDICTED BY IDOCK:   -5.56 KCAL/MOL
REMARK 924 INTRA-LIGAND FREE ENERGY PREDICTED BY IDOCK:   -0.21 KCAL/MOL
REMARK 927      BINDING AFFINITY PREDICTED BY RF-SCORE:    0.00 PKD
ROOT
HETATM    1  C   UNL     1      -9.207  20.707  67.401  1.00  0.00    -0.436 C  
HETATM    2  C   UNL     1      -9.575  19.967  66.122  1.00  0.00    -0.492 C  
ENDROOT
BRANCH   2   3
HETATM    3  C   UNL     1     -10.498  18.787  66.429  1.00  0.00    -0.429 C  
BRANCH   3   4
HETATM    4  N   UNL     1     -10.096  17.590  65.681  1.00  0.00    -0.591 NA 
HETATM    5  H   UNL     1      -9.177  17.711  65.255  1.00  0.00     0.000 HD 
BRANCH   4   6
HETATM    6  C   UNL     1     -10.143  16.372  66.516  1.00  0.00    -0.295 C  
HETATM    7  C   UNL     1     -10.769  16.641  67.911  1.00  0.00    -0.344 C  
HETATM    8  C   UNL     1     -10.647  15.411  68.822  1.00  0.00    -0.235 C  
HETATM    9  C   UNL     1     -11.082  14.181  68.112  1.00  0.00    -0.257 A  
HETATM   10  C   UNL     1     -11.192  14.106  66.740  1.00  0.00    -0.323 A  
HETATM   11  S   UNL     1     -11.716  12.550  66.290  1.00  0.00    -0.388 SA 
HETATM   12  C   UNL     1     -10.939  15.237  65.792  1.00  0.00    -0.340 C  
HETATM   13  C   UNL     1     -11.757  12.102  67.956  1.00  0.00    -0.344 A  
HETATM   14  N   UNL     1     -12.128  10.872  68.348  1.00  0.00    -0.818 NA 
HETATM   15  N   UNL     1     -11.384  13.030  68.800  1.00  0.00    -0.270 NA 
HETATM   16  H1  UNL     1     -12.152  10.607  69.332  1.00  0.00     0.000 HD 
HETATM   17  H2  UNL     1     -12.393  10.185  67.642  1.00  0.00     0.000 HD 
ENDBRANCH   4   6
ENDBRANCH   3   4
ENDBRANCH   2   3
TORSDOF 3
ENDMDL
MODEL       24
REMARK 921   NORMALIZED FREE ENERGY PREDICTED BY IDOCK:   -4.69 KCAL/MOL
REMARK 922        TOTAL FREE ENERGY PREDICTED BY IDOCK:   -5.75 KCAL/MOL
REMARK 923 INTER-LIGAND FREE ENERGY PREDICTED BY IDOCK:   -5.57 KCAL/MOL
REMARK 924 INTRA-LIGAND FREE ENERGY PREDICTED BY IDOCK:   -0.18 KCAL/MOL
REMARK 927      BINDING AFFINITY PREDICTED BY RF-SCORE:    0.00 PKD
ROOT
HETATM    1  C   UNL     1     -10.443  18.466  67.923  1.00  0.00    -0.416 C  
HETATM    2  C   UNL     1     -10.650  16.958  67.926  1.00  0.00    -0.361 C  
ENDROOT
BRANCH   2   3
HETATM    3  C   UNL     1     -10.301  16.368  69.292  1.00  0.00    -0.292 C  
BRANCH   3   4
HETATM    4  N   UNL     1     -11.429  16.484  70.225  1.00  0.00    -0.429 NA 
HETATM    5  H   UNL     1     -12.253  16.869  69.763  1.00  0.00     0.000 HD 
BRANCH   4   6
HETATM    6  C   UNL     1     -11.737  15.199  70.886  1.00  0.00    -0.332 C  
HETATM    7  C   UNL     1     -13.144  15.201  71.544  1.00  0.00    -0.483 C  
HETATM    8  C   UNL     1     -13.372  13.929  72.372  1.00  0.00    -0.629 C  
HETATM    9  C   UNL     1     -12.988  12.719  71.600  1.00  0.00    -0.303 A  
HETATM   10  C   UNL     1     -12.185  12.767  70.481  1.00  0.00    -0.307 A  
HETATM   11  S   UNL     1     -11.964  11.195  69.865  1.00  0.00    -0.382 SA 
HETATM   12  C   UNL     1     -11.634  14.016  69.869  1.00  0.00    -0.320 C  
HETATM   13  C   UNL     1     -12.955  10.577  71.135  1.00  0.00    -0.411 A  
HETATM   14  N   UNL     1     -13.222   9.266  71.249  1.00  0.00    -0.493 NA 
HETATM   15  N   UNL     1     -13.407  11.467  71.983  1.00  0.00    -0.413 NA 
HETATM   16  H1  UNL     1     -13.808   8.901  72.000  1.00  0.00     0.000 HD 
HETATM   17  H2  UNL     1     -12.828   8.618  70.568  1.00  0.00     0.000 HD 
ENDBRANCH   4   6
ENDBRANCH   3   4
ENDBRANCH   2   3
TORSDOF 3
ENDMDL
MODEL       25
REMARK 921   NORMALIZED FREE ENERGY PREDICTED BY IDOCK:   -4.68 KCAL/MOL
REMARK 922        TOTAL FREE ENERGY PREDICTED BY IDOCK:   -5.74 KCAL/MOL
REMARK 923 INTER-LIGAND FREE ENERGY PREDICTED BY IDOCK:   -5.47 KCAL/MOL
REMARK 924 INTRA-LIGAND FREE ENERGY PREDICTED BY IDOCK:   -0.27 KCAL/MOL
REMARK 927      BINDING AFFINITY PREDICTED BY RF-SCORE:    0.00 PKD
ROOT
HETATM    1  C   UNL     1     -12.476  12.195  63.457  1.00  0.00    -0.666 C  
HETATM    2  C   UNL     1     -11.017  11.985  63.838  1.00  0.00    -0.465 C  
ENDROOT
BRANCH   2   3
HETATM    3  C   UNL     1     -10.824  12.154  65.345  1.00  0.00    -0.294 C  
BRANCH   3   4
HETATM    4  N   UNL     1     -12.092  12.477  66.010  1.00  0.00    -0.612 NA 
HETATM    5  H   UNL     1     -12.439  11.684  66.550  1.00  0.00     0.000 HD 
BRANCH   4   6
HETATM    6  C   UNL     1     -11.986  13.690  66.848  1.00  0.00    -0.410 C  
HETATM    7  C   UNL     1     -11.580  13.359  68.309  1.00  0.00    -0.379 C  
HETATM    8  C   UNL     1     -11.647  14.607  69.201  1.00  0.00    -0.331 C  
HETATM    9  C   UNL     1     -10.967  15.758  68.554  1.00  0.00    -0.312 A  
HETATM   10  C   UNL     1     -10.679  15.798  67.207  1.00  0.00    -0.313 A  
HETATM   11  S   UNL     1      -9.899  17.264  66.830  1.00  0.00    -0.307 SA 
HETATM   12  C   UNL     1     -10.961  14.698  66.232  1.00  0.00    -0.327 C  
HETATM   13  C   UNL     1     -10.005  17.727  68.489  1.00  0.00    -0.370 A  
HETATM   14  N   UNL     1      -9.524  18.902  68.927  1.00  0.00    -0.336 NA 
HETATM   15  N   UNL     1     -10.601  16.868  69.278  1.00  0.00    -0.345 NA 
HETATM   16  H1  UNL     1      -9.587  19.175  69.907  1.00  0.00     0.000 HD 
HETATM   17  H2  UNL     1      -9.085  19.537  68.261  1.00  0.00     0.000 HD 
ENDBRANCH   4   6
ENDBRANCH   3   4
ENDBRANCH   2   3
TORSDOF 3
ENDMDL
MODEL       26
REMARK 921   NORMALIZED FREE ENERGY PREDICTED BY IDOCK:   -4.68 KCAL/MOL
REMARK 922        TOTAL FREE ENERGY PREDICTED BY IDOCK:   -5.73 KCAL/MOL
REMARK 923 INTER-LIGAND FREE ENERGY PREDICTED BY IDOCK:   -5.49 KCAL/MOL
REMARK 924 INTRA-LIGAND FREE ENERGY PREDICTED BY IDOCK:   -0.25 KCAL/MOL
REMARK 927      BINDING AFFINITY PREDICTED BY RF-SCORE:    0.00 PKD
ROOT
HETATM    1  C   UNL     1      -6.051  20.017  70.766  1.00  0.00    -0.327 C  
HETATM    2  C   UNL     1      -5.448  19.701  69.403  1.00  0.00    -0.226 C  
ENDROOT
BRANCH   2   3
HETATM    3  C   UNL     1      -6.546  19.543  68.351  1.00  0.00    -0.260 C  
BRANCH   3   4
HETATM    4  N   UNL     1      -7.878  19.712  68.944  1.00  0.00    -0.312 NA 
HETATM    5  H   UNL     1      -8.046  20.683  69.206  1.00  0.00     0.000 HD 
BRANCH   4   6
HETATM    6  C   UNL     1      -8.948  19.203  68.061  1.00  0.00    -0.312 C  
HETATM    7  C   UNL     1      -9.137  20.089  66.800  1.00  0.00    -0.467 C  
HETATM    8  C   UNL     1     -10.364  19.646  65.990  1.00  0.00    -0.620 C  
HETATM    9  C   UNL     1     -10.363  18.175  65.788  1.00  0.00    -0.172 A  
HETATM   10  C   UNL     1      -9.600  17.314  66.548  1.00  0.00    -0.273 A  
HETATM   11  S   UNL     1      -9.854  15.712  66.032  1.00  0.00    -0.361 SA 
HETATM   12  C   UNL     1      -8.652  17.729  67.629  1.00  0.00    -0.230 C  
HETATM   13  C   UNL     1     -10.957  16.291  64.837  1.00  0.00    -0.307 A  
HETATM   14  N   UNL     1     -11.585  15.458  63.992  1.00  0.00    -0.808 NA 
HETATM   15  N   UNL     1     -11.151  17.586  64.828  1.00  0.00    -0.812 NA 
HETATM   16  H1  UNL     1     -12.236  15.800  63.286  1.00  0.00     0.000 HD 
HETATM   17  H2  UNL     1     -11.405  14.456  64.057  1.00  0.00     0.000 HD 
ENDBRANCH   4   6
ENDBRANCH   3   4
ENDBRANCH   2   3
TORSDOF 3
ENDMDL
MODEL       27
REMARK 921   NORMALIZED FREE ENERGY PREDICTED BY IDOCK:   -4.67 KCAL/MOL
REMARK 922        TOTAL FREE ENERGY PREDICTED BY IDOCK:   -5.72 KCAL/MOL
REMARK 923 INTER-LIGAND FREE ENERGY PREDICTED BY IDOCK:   -5.48 KCAL/MOL
REMARK 924 INTRA-LIGAND FREE ENERGY PREDICTED BY IDOCK:   -0.25 KCAL/MOL
REMARK 927      BINDING AFFINITY PREDICTED BY RF-SCORE:    0.00 PKD
ROOT
HETATM    1  C   UNL     1     -12.647  11.969  63.562  1.00  0.00    -0.625 C  
HETATM    2  C   UNL     1     -11.422  12.830  63.841  1.00  0.00    -0.505 C  
ENDROOT
BRANCH   2   3
HETATM    3  C   UNL     1     -11.822  14.124  64.550  1.00  0.00    -0.436 C  
BRANCH   3   4
HETATM    4  N   UNL     1     -10.994  14.356  65.739  1.00  0.00    -0.305 NA 
HETATM    5  H   UNL     1     -10.715  15.334  65.810  1.00  0.00     0.000 HD 
BRANCH   4   6
HETATM    6  C   UNL     1     -11.658  13.898  66.977  1.00  0.00    -0.369 C  
HETATM    7  C   UNL     1     -10.990  12.625  67.565  1.00  0.00    -0.280 C  
HETATM    8  C   UNL     1     -11.799  12.067  68.744  1.00  0.00    -0.358 C  
HETATM    9  C   UNL     1     -12.155  13.146  69.700  1.00  0.00    -0.255 A  
HETATM   10  C   UNL     1     -12.111  14.484  69.372  1.00  0.00    -0.290 A  
HETATM   11  S   UNL     1     -12.583  15.421  70.713  1.00  0.00    -0.455 SA 
HETATM   12  C   UNL     1     -11.665  15.033  68.052  1.00  0.00    -0.320 C  
HETATM   13  C   UNL     1     -12.807  13.972  71.623  1.00  0.00    -0.352 A  
HETATM   14  N   UNL     1     -13.214  13.998  72.903  1.00  0.00    -0.582 NA 
HETATM   15  N   UNL     1     -12.574  12.857  70.978  1.00  0.00    -0.345 NA 
HETATM   16  H1  UNL     1     -13.346  13.142  73.441  1.00  0.00     0.000 HD 
HETATM   17  H2  UNL     1     -13.395  14.897  73.348  1.00  0.00     0.000 HD 
ENDBRANCH   4   6
ENDBRANCH   3   4
ENDBRANCH   2   3
TORSDOF 3
ENDMDL
MODEL       28
REMARK 921   NORMALIZED FREE ENERGY PREDICTED BY IDOCK:   -4.67 KCAL/MOL
REMARK 922        TOTAL FREE ENERGY PREDICTED BY IDOCK:   -5.72 KCAL/MOL
REMARK 923 INTER-LIGAND FREE ENERGY PREDICTED BY IDOCK:   -5.48 KCAL/MOL
REMARK 924 INTRA-LIGAND FREE ENERGY PREDICTED BY IDOCK:   -0.25 KCAL/MOL
REMARK 927      BINDING AFFINITY PREDICTED BY RF-SCORE:    0.00 PKD
ROOT
HETATM    1  C   UNL     1      -7.357   9.766  64.140  1.00  0.00    -0.128 C  
HETATM    2  C   UNL     1      -8.415   9.417  63.103  1.00  0.00    -0.205 C  
ENDROOT
BRANCH   2   3
HETATM    3  C   UNL     1      -8.946  10.681  62.427  1.00  0.00    -0.293 C  
BRANCH   3   4
HETATM    4  N   UNL     1     -10.374  10.873  62.707  1.00  0.00    -0.783 NA 
HETATM    5  H   UNL     1     -10.823   9.993  62.960  1.00  0.00     0.000 HD 
BRANCH   4   6
HETATM    6  C   UNL     1     -10.604  11.908  63.737  1.00  0.00    -0.422 C  
HETATM    7  C   UNL     1     -11.823  12.809  63.401  1.00  0.00    -0.591 C  
HETATM    8  C   UNL     1     -11.937  13.980  64.386  1.00  0.00    -0.480 C  
HETATM    9  C   UNL     1     -11.813  13.506  65.789  1.00  0.00    -0.372 A  
HETATM   10  C   UNL     1     -11.282  12.279  66.122  1.00  0.00    -0.328 A  
HETATM   11  S   UNL     1     -11.303  12.083  67.813  1.00  0.00    -0.325 SA 
HETATM   12  C   UNL     1     -10.807  11.251  65.142  1.00  0.00    -0.268 C  
HETATM   13  C   UNL     1     -12.019  13.646  67.967  1.00  0.00    -0.350 A  
HETATM   14  N   UNL     1     -12.333  14.164  69.165  1.00  0.00    -0.520 NA 
HETATM   15  N   UNL     1     -12.212  14.292  66.844  1.00  0.00    -0.411 NA 
HETATM   16  H1  UNL     1     -12.756  15.087  69.256  1.00  0.00     0.000 HD 
HETATM   17  H2  UNL     1     -12.144  13.619  70.006  1.00  0.00     0.000 HD 
ENDBRANCH   4   6
ENDBRANCH   3   4
ENDBRANCH   2   3
TORSDOF 3
ENDMDL
MODEL       29
REMARK 921   NORMALIZED FREE ENERGY PREDICTED BY IDOCK:   -4.65 KCAL/MOL
REMARK 922        TOTAL FREE ENERGY PREDICTED BY IDOCK:   -5.70 KCAL/MOL
REMARK 923 INTER-LIGAND FREE ENERGY PREDICTED BY IDOCK:   -5.53 KCAL/MOL
REMARK 924 INTRA-LIGAND FREE ENERGY PREDICTED BY IDOCK:   -0.18 KCAL/MOL
REMARK 927      BINDING AFFINITY PREDICTED BY RF-SCORE:    0.00 PKD
ROOT
HETATM    1  C   UNL     1     -10.016  19.716  68.958  1.00  0.00    -0.482 C  
HETATM    2  C   UNL     1      -9.379  18.480  68.335  1.00  0.00    -0.359 C  
ENDROOT
BRANCH   2   3
HETATM    3  C   UNL     1     -10.256  17.249  68.562  1.00  0.00    -0.358 C  
BRANCH   3   4
HETATM    4  N   UNL     1      -9.721  16.079  67.856  1.00  0.00    -0.220 NA 
HETATM    5  H   UNL     1      -9.422  15.357  68.512  1.00  0.00     0.000 HD 
BRANCH   4   6
HETATM    6  C   UNL     1     -10.678  15.541  66.867  1.00  0.00    -0.317 C  
HETATM    7  C   UNL     1     -10.591  16.281  65.505  1.00  0.00    -0.369 C  
HETATM    8  C   UNL     1     -11.708  15.828  64.554  1.00  0.00    -0.191 C  
HETATM    9  C   UNL     1     -11.800  14.346  64.513  1.00  0.00    -0.449 A  
HETATM   10  C   UNL     1     -11.242  13.533  65.476  1.00  0.00    -0.292 A  
HETATM   11  S   UNL     1     -11.548  11.902  65.098  1.00  0.00    -0.149 SA 
HETATM   12  C   UNL     1     -10.444  14.010  66.649  1.00  0.00    -0.272 C  
HETATM   13  C   UNL     1     -12.396  12.407  63.682  1.00  0.00    -0.548 A  
HETATM   14  N   UNL     1     -12.951  11.523  62.838  1.00  0.00    -0.729 NA 
HETATM   15  N   UNL     1     -12.475  13.702  63.504  1.00  0.00    -0.791 NA 
HETATM   16  H1  UNL     1     -13.452  11.822  62.002  1.00  0.00     0.000 HD 
HETATM   17  H2  UNL     1     -12.870  10.527  63.039  1.00  0.00     0.000 HD 
ENDBRANCH   4   6
ENDBRANCH   3   4
ENDBRANCH   2   3
TORSDOF 3
ENDMDL
MODEL       30
REMARK 921   NORMALIZED FREE ENERGY PREDICTED BY IDOCK:   -4.64 KCAL/MOL
REMARK 922        TOTAL FREE ENERGY PREDICTED BY IDOCK:   -5.69 KCAL/MOL
REMARK 923 INTER-LIGAND FREE ENERGY PREDICTED BY IDOCK:   -5.52 KCAL/MOL
REMARK 924 INTRA-LIGAND FREE ENERGY PREDICTED BY IDOCK:   -0.17 KCAL/MOL
REMARK 927      BINDING AFFINITY PREDICTED BY RF-SCORE:    0.00 PKD
ROOT
HETATM    1  C   UNL     1      -9.886   8.196  71.095  1.00  0.00    -0.207 C  
HETATM    2  C   UNL     1     -10.875   9.043  71.885  1.00  0.00    -0.413 C  
ENDROOT
BRANCH   2   3
HETATM    3  C   UNL     1     -11.568  10.054  70.972  1.00  0.00    -0.393 C  
BRANCH   3   4
HETATM    4  N   UNL     1     -10.817  10.247  69.725  1.00  0.00    -0.267 NA 
HETATM    5  H   UNL     1     -10.683   9.363  69.234  1.00  0.00     0.000 HD 
BRANCH   4   6
HETATM    6  C   UNL     1     -11.446  11.256  68.848  1.00  0.00    -0.297 C  
HETATM    7  C   UNL     1     -11.046  12.704  69.241  1.00  0.00    -0.193 C  
HETATM    8  C   UNL     1     -11.844  13.739  68.435  1.00  0.00    -0.411 C  
HETATM    9  C   UNL     1     -11.835  13.404  66.988  1.00  0.00    -0.394 A  
HETATM   10  C   UNL     1     -11.504  12.155  66.509  1.00  0.00    -0.369 A  
HETATM   11  S   UNL     1     -11.602  12.146  64.809  1.00  0.00    -0.296 SA 
HETATM   12  C   UNL     1     -11.073  10.995  67.352  1.00  0.00    -0.370 C  
HETATM   13  C   UNL     1     -12.075  13.806  64.846  1.00  0.00    -0.403 A  
HETATM   14  N   UNL     1     -12.334  14.491  63.721  1.00  0.00    -1.087 NA 
HETATM   15  N   UNL     1     -12.180  14.337  66.038  1.00  0.00    -0.421 NA 
HETATM   16  H1  UNL     1     -12.614  15.472  63.743  1.00  0.00     0.000 HD 
HETATM   17  H2  UNL     1     -12.250  14.019  62.822  1.00  0.00     0.000 HD 
ENDBRANCH   4   6
ENDBRANCH   3   4
ENDBRANCH   2   3
TORSDOF 3
ENDMDL
MODEL       31
REMARK 921   NORMALIZED FREE ENERGY PREDICTED BY IDOCK:   -4.63 KCAL/MOL
REMARK 922        TOTAL FREE ENERGY PREDICTED BY IDOCK:   -5.68 KCAL/MOL
REMARK 923 INTER-LIGAND FREE ENERGY PREDICTED BY IDOCK:   -5.42 KCAL/MOL
REMARK 924 INTRA-LIGAND FREE ENERGY PREDICTED BY IDOCK:   -0.26 KCAL/MOL
REMARK 927      BINDING AFFINITY PREDICTED BY RF-SCORE:    0.00 PKD
ROOT
HETATM    1  C   UNL     1      -9.532  20.380  67.273  1.00  0.00    -0.568 C  
HETATM    2  C   UNL     1     -10.520  19.868  66.233  1.00  0.00    -0.590 C  
ENDROOT
BRANCH   2   3
HETATM    3  C   UNL     1     -10.292  18.382  65.959  1.00  0.00    -0.375 C  
BRANCH   3   4
HETATM    4  N   UNL     1      -9.704  17.711  67.125  1.00  0.00    -0.282 NA 
HETATM    5  H   UNL     1      -9.255  18.380  67.749  1.00  0.00     0.000 HD 
BRANCH   4   6
HETATM    6  C   UNL     1     -10.694  16.885  67.847  1.00  0.00    -0.344 C  
HETATM    7  C   UNL     1     -10.601  15.385  67.459  1.00  0.00    -0.283 C  
HETATM    8  C   UNL     1     -11.747  14.577  68.085  1.00  0.00    -0.369 C  
HETATM    9  C   UNL     1     -11.893  14.894  69.529  1.00  0.00    -0.325 A  
HETATM   10  C   UNL     1     -11.350  16.021  70.107  1.00  0.00    -0.365 A  
HETATM   11  S   UNL     1     -11.718  16.048  71.769  1.00  0.00    -0.486 SA 
HETATM   12  C   UNL     1     -10.518  17.041  69.393  1.00  0.00    -0.250 C  
HETATM   13  C   UNL     1     -12.568  14.558  71.587  1.00  0.00    -0.348 A  
HETATM   14  N   UNL     1     -13.167  13.954  72.626  1.00  0.00    -0.507 NA 
HETATM   15  N   UNL     1     -12.605  14.074  70.371  1.00  0.00    -0.331 NA 
HETATM   16  H1  UNL     1     -13.670  13.073  72.518  1.00  0.00     0.000 HD 
HETATM   17  H2  UNL     1     -13.118  14.388  73.547  1.00  0.00     0.000 HD 
ENDBRANCH   4   6
ENDBRANCH   3   4
ENDBRANCH   2   3
TORSDOF 3
ENDMDL
MODEL       32
REMARK 921   NORMALIZED FREE ENERGY PREDICTED BY IDOCK:   -4.63 KCAL/MOL
REMARK 922        TOTAL FREE ENERGY PREDICTED BY IDOCK:   -5.68 KCAL/MOL
REMARK 923 INTER-LIGAND FREE ENERGY PREDICTED BY IDOCK:   -5.47 KCAL/MOL
REMARK 924 INTRA-LIGAND FREE ENERGY PREDICTED BY IDOCK:   -0.21 KCAL/MOL
REMARK 927      BINDING AFFINITY PREDICTED BY RF-SCORE:    0.00 PKD
ROOT
HETATM    1  C   UNL     1      -9.911  20.335  66.508  1.00  0.00    -0.531 C  
HETATM    2  C   UNL     1      -9.968  19.925  67.974  1.00  0.00    -0.556 C  
ENDROOT
BRANCH   2   3
HETATM    3  C   UNL     1     -10.266  18.431  68.105  1.00  0.00    -0.384 C  
BRANCH   3   4
HETATM    4  N   UNL     1     -10.124  17.746  66.815  1.00  0.00    -0.333 NA 
HETATM    5  H   UNL     1      -9.142  17.634  66.562  1.00  0.00     0.000 HD 
BRANCH   4   6
HETATM    6  C   UNL     1     -10.833  16.450  66.793  1.00  0.00    -0.098 C  
HETATM    7  C   UNL     1     -10.377  15.552  65.612  1.00  0.00    -0.407 C  
HETATM    8  C   UNL     1     -11.246  14.291  65.504  1.00  0.00    -0.320 C  
HETATM    9  C   UNL     1     -11.400  13.639  66.829  1.00  0.00    -0.328 A  
HETATM   10  C   UNL     1     -11.138  14.285  68.018  1.00  0.00    -0.269 A  
HETATM   11  S   UNL     1     -11.423  13.227  69.322  1.00  0.00    -0.278 SA 
HETATM   12  C   UNL     1     -10.631  15.688  68.143  1.00  0.00    -0.274 C  
HETATM   13  C   UNL     1     -11.870  11.994  68.200  1.00  0.00    -0.286 A  
HETATM   14  N   UNL     1     -12.244  10.771  68.607  1.00  0.00    -0.827 NA 
HETATM   15  N   UNL     1     -11.838  12.340  66.938  1.00  0.00    -0.581 NA 
HETATM   16  H1  UNL     1     -12.508  10.042  67.945  1.00  0.00     0.000 HD 
HETATM   17  H2  UNL     1     -12.265  10.565  69.606  1.00  0.00     0.000 HD 
ENDBRANCH   4   6
ENDBRANCH   3   4
ENDBRANCH   2   3
TORSDOF 3
ENDMDL
MODEL       33
REMARK 921   NORMALIZED FREE ENERGY PREDICTED BY IDOCK:   -4.57 KCAL/MOL
REMARK 922        TOTAL FREE ENERGY PREDICTED BY IDOCK:   -5.61 KCAL/MOL
REMARK 923 INTER-LIGAND FREE ENERGY PREDICTED BY IDOCK:   -5.39 KCAL/MOL
REMARK 924 INTRA-LIGAND FREE ENERGY PREDICTED BY IDOCK:   -0.22 KCAL/MOL
REMARK 927      BINDING AFFINITY PREDICTED BY RF-SCORE:    0.00 PKD
ROOT
HETATM    1  C   UNL     1     -10.822  11.480  64.025  1.00  0.00    -0.453 C  
HETATM    2  C   UNL     1     -10.377  10.894  65.358  1.00  0.00    -0.326 C  
ENDROOT
BRANCH   2   3
HETATM    3  C   UNL     1     -10.743  11.832  66.508  1.00  0.00    -0.265 C  
BRANCH   3   4
HETATM    4  N   UNL     1      -9.786  11.714  67.615  1.00  0.00    -0.183 NA 
HETATM    5  H   UNL     1      -9.127  12.492  67.618  1.00  0.00     0.000 HD 
BRANCH   4   6
HETATM    6  C   UNL     1     -10.462  11.580  68.922  1.00  0.00    -0.187 C  
HETATM    7  C   UNL     1     -11.682  12.532  69.052  1.00  0.00    -0.368 C  
HETATM    8  C   UNL     1     -12.260  12.504  70.473  1.00  0.00    -0.382 C  
HETATM    9  C   UNL     1     -12.440  11.107  70.945  1.00  0.00    -0.409 A  
HETATM   10  C   UNL     1     -11.815  10.030  70.355  1.00  0.00    -0.262 A  
HETATM   11  S   UNL     1     -12.258   8.596  71.159  1.00  0.00    -0.187 SA 
HETATM   12  C   UNL     1     -10.921  10.103  69.156  1.00  0.00    -0.270 C  
HETATM   13  C   UNL     1     -13.249   9.523  72.226  1.00  0.00    -0.421 A  
HETATM   14  N   UNL     1     -13.961   8.947  73.208  1.00  0.00    -1.217 NA 
HETATM   15  N   UNL     1     -13.240  10.817  72.025  1.00  0.00    -0.455 NA 
HETATM   16  H1  UNL     1     -14.546   9.494  73.838  1.00  0.00     0.000 HD 
HETATM   17  H2  UNL     1     -13.915   7.935  73.326  1.00  0.00     0.000 HD 
ENDBRANCH   4   6
ENDBRANCH   3   4
ENDBRANCH   2   3
TORSDOF 3
ENDMDL
MODEL       34
REMARK 921   NORMALIZED FREE ENERGY PREDICTED BY IDOCK:   -4.57 KCAL/MOL
REMARK 922        TOTAL FREE ENERGY PREDICTED BY IDOCK:   -5.61 KCAL/MOL
REMARK 923 INTER-LIGAND FREE ENERGY PREDICTED BY IDOCK:   -5.24 KCAL/MOL
REMARK 924 INTRA-LIGAND FREE ENERGY PREDICTED BY IDOCK:   -0.36 KCAL/MOL
REMARK 927      BINDING AFFINITY PREDICTED BY RF-SCORE:    0.00 PKD
ROOT
HETATM    1  C   UNL     1     -10.556  11.789  63.674  1.00  0.00    -0.496 C  
HETATM    2  C   UNL     1     -11.510  12.966  63.826  1.00  0.00    -0.519 C  
ENDROOT
BRANCH   2   3
HETATM    3  C   UNL     1     -10.857  14.089  64.632  1.00  0.00    -0.403 C  
BRANCH   3   4
HETATM    4  N   UNL     1      -9.882  13.557  65.592  1.00  0.00    -0.461 NA 
HETATM    5  H   UNL     1      -8.958  13.960  65.441  1.00  0.00     0.000 HD 
BRANCH   4   6
HETATM    6  C   UNL     1     -10.324  13.738  66.990  1.00  0.00    -0.260 C  
HETATM    7  C   UNL     1     -11.417  14.832  67.123  1.00  0.00    -0.375 C  
HETATM    8  C   UNL     1     -11.733  15.127  68.596  1.00  0.00    -0.364 C  
HETATM    9  C   UNL     1     -11.941  13.868  69.355  1.00  0.00    -0.354 A  
HETATM   10  C   UNL     1     -11.522  12.637  68.897  1.00  0.00    -0.306 A  
HETATM   11  S   UNL     1     -11.933  11.432  70.027  1.00  0.00    -0.371 SA 
HETATM   12  C   UNL     1     -10.854  12.391  67.580  1.00  0.00    -0.258 C  
HETATM   13  C   UNL     1     -12.637  12.643  71.035  1.00  0.00    -0.262 A  
HETATM   14  N   UNL     1     -13.208  12.339  72.212  1.00  0.00    -0.470 NA 
HETATM   15  N   UNL     1     -12.557  13.870  70.584  1.00  0.00    -0.343 NA 
HETATM   16  H1  UNL     1     -13.625  13.054  72.807  1.00  0.00     0.000 HD 
HETATM   17  H2  UNL     1     -13.226  11.366  72.518  1.00  0.00     0.000 HD 
ENDBRANCH   4   6
ENDBRANCH   3   4
ENDBRANCH   2   3
TORSDOF 3
ENDMDL
MODEL       35
REMARK 921   NORMALIZED FREE ENERGY PREDICTED BY IDOCK:   -4.55 KCAL/MOL
REMARK 922        TOTAL FREE ENERGY PREDICTED BY IDOCK:   -5.58 KCAL/MOL
REMARK 923 INTER-LIGAND FREE ENERGY PREDICTED BY IDOCK:   -5.35 KCAL/MOL
REMARK 924 INTRA-LIGAND FREE ENERGY PREDICTED BY IDOCK:   -0.23 KCAL/MOL
REMARK 927      BINDING AFFINITY PREDICTED BY RF-SCORE:    0.00 PKD
ROOT
HETATM    1  C   UNL     1      -8.941   9.798  63.398  1.00  0.00    -0.271 C  
HETATM    2  C   UNL     1      -9.266  11.133  62.742  1.00  0.00    -0.374 C  
ENDROOT
BRANCH   2   3
HETATM    3  C   UNL     1     -10.483  11.778  63.405  1.00  0.00    -0.434 C  
BRANCH   3   4
HETATM    4  N   UNL     1     -10.216  13.176  63.761  1.00  0.00    -0.706 NA 
HETATM    5  H   UNL     1     -10.460  13.805  62.996  1.00  0.00     0.000 HD 
BRANCH   4   6
HETATM    6  C   UNL     1     -10.893  13.569  65.014  1.00  0.00    -0.340 C  
HETATM    7  C   UNL     1     -10.988  12.393  66.023  1.00  0.00    -0.324 C  
HETATM    8  C   UNL     1     -11.845  12.771  67.239  1.00  0.00    -0.414 C  
HETATM    9  C   UNL     1     -11.442  14.094  67.780  1.00  0.00    -0.325 A  
HETATM   10  C   UNL     1     -10.695  15.003  67.061  1.00  0.00    -0.304 A  
HETATM   11  S   UNL     1     -10.427  16.397  68.001  1.00  0.00    -0.315 SA 
HETATM   12  C   UNL     1     -10.157  14.777  65.683  1.00  0.00    -0.393 C  
HETATM   13  C   UNL     1     -11.324  15.680  69.289  1.00  0.00    -0.345 A  
HETATM   14  N   UNL     1     -11.515  16.316  70.456  1.00  0.00    -0.493 NA 
HETATM   15  N   UNL     1     -11.817  14.492  69.042  1.00  0.00    -0.314 NA 
HETATM   16  H1  UNL     1     -12.045  15.892  71.218  1.00  0.00     0.000 HD 
HETATM   17  H2  UNL     1     -11.120  17.247  70.585  1.00  0.00     0.000 HD 
ENDBRANCH   4   6
ENDBRANCH   3   4
ENDBRANCH   2   3
TORSDOF 3
ENDMDL
MODEL       36
REMARK 921   NORMALIZED FREE ENERGY PREDICTED BY IDOCK:   -4.53 KCAL/MOL
REMARK 922        TOTAL FREE ENERGY PREDICTED BY IDOCK:   -5.56 KCAL/MOL
REMARK 923 INTER-LIGAND FREE ENERGY PREDICTED BY IDOCK:   -5.41 KCAL/MOL
REMARK 924 INTRA-LIGAND FREE ENERGY PREDICTED BY IDOCK:   -0.15 KCAL/MOL
REMARK 927      BINDING AFFINITY PREDICTED BY RF-SCORE:    0.00 PKD
ROOT
HETATM    1  C   UNL     1      -8.895   9.287  70.779  1.00  0.00    -0.282 C  
HETATM    2  C   UNL     1      -7.709   9.763  69.951  1.00  0.00    -0.162 C  
ENDROOT
BRANCH   2   3
HETATM    3  C   UNL     1      -8.186  10.491  68.694  1.00  0.00    -0.130 C  
BRANCH   3   4
HETATM    4  N   UNL     1      -9.261  11.440  69.006  1.00  0.00    -0.400 NA 
HETATM    5  H   UNL     1      -8.946  12.152  69.665  1.00  0.00     0.000 HD 
BRANCH   4   6
HETATM    6  C   UNL     1      -9.832  12.053  67.789  1.00  0.00    -0.190 C  
HETATM    7  C   UNL     1     -11.383  11.986  67.770  1.00  0.00    -0.370 C  
HETATM    8  C   UNL     1     -11.944  12.466  66.424  1.00  0.00    -0.346 C  
HETATM    9  C   UNL     1     -11.319  13.750  66.017  1.00  0.00    -0.314 A  
HETATM   10  C   UNL     1     -10.143  14.218  66.564  1.00  0.00    -0.278 A  
HETATM   11  S   UNL     1      -9.736  15.713  65.858  1.00  0.00    -0.353 SA 
HETATM   12  C   UNL     1      -9.369  13.540  67.651  1.00  0.00    -0.216 C  
HETATM   13  C   UNL     1     -11.157  15.619  64.883  1.00  0.00    -0.402 A  
HETATM   14  N   UNL     1     -11.477  16.584  64.005  1.00  0.00    -1.581 NA 
HETATM   15  N   UNL     1     -11.882  14.541  65.044  1.00  0.00    -0.386 NA 
HETATM   16  H1  UNL     1     -12.316  16.528  63.429  1.00  0.00     0.000 HD 
HETATM   17  H2  UNL     1     -10.864  17.393  63.913  1.00  0.00     0.000 HD 
ENDBRANCH   4   6
ENDBRANCH   3   4
ENDBRANCH   2   3
TORSDOF 3
ENDMDL
MODEL       37
REMARK 921   NORMALIZED FREE ENERGY PREDICTED BY IDOCK:   -4.49 KCAL/MOL
REMARK 922        TOTAL FREE ENERGY PREDICTED BY IDOCK:   -5.51 KCAL/MOL
REMARK 923 INTER-LIGAND FREE ENERGY PREDICTED BY IDOCK:   -5.34 KCAL/MOL
REMARK 924 INTRA-LIGAND FREE ENERGY PREDICTED BY IDOCK:   -0.17 KCAL/MOL
REMARK 927      BINDING AFFINITY PREDICTED BY RF-SCORE:    0.00 PKD
ROOT
HETATM    1  C   UNL     1     -11.547   8.864  71.921  1.00  0.00    -0.442 C  
HETATM    2  C   UNL     1     -12.238   9.817  70.955  1.00  0.00    -0.436 C  
ENDROOT
BRANCH   2   3
HETATM    3  C   UNL     1     -11.341  10.110  69.753  1.00  0.00    -0.256 C  
BRANCH   3   4
HETATM    4  N   UNL     1     -12.072  10.840  68.710  1.00  0.00    -0.785 NA 
HETATM    5  H   UNL     1     -13.050  10.971  68.967  1.00  0.00     0.000 HD 
BRANCH   4   6
HETATM    6  C   UNL     1     -11.428  12.128  68.379  1.00  0.00    -0.304 C  
HETATM    7  C   UNL     1     -11.874  12.667  66.993  1.00  0.00    -0.415 C  
HETATM    8  C   UNL     1     -11.065  13.909  66.592  1.00  0.00    -0.310 C  
HETATM    9  C   UNL     1     -11.006  14.885  67.710  1.00  0.00    -0.293 A  
HETATM   10  C   UNL     1     -11.290  14.548  69.016  1.00  0.00    -0.272 A  
HETATM   11  S   UNL     1     -11.119  15.918  70.013  1.00  0.00    -0.381 SA 
HETATM   12  C   UNL     1     -11.732  13.196  69.480  1.00  0.00    -0.382 C  
HETATM   13  C   UNL     1     -10.684  16.850  68.627  1.00  0.00    -0.345 A  
HETATM   14  N   UNL     1     -10.391  18.157  68.719  1.00  0.00    -0.408 NA 
HETATM   15  N   UNL     1     -10.640  16.193  67.496  1.00  0.00    -0.311 NA 
HETATM   16  H1  UNL     1     -10.133  18.708  67.900  1.00  0.00     0.000 HD 
HETATM   17  H2  UNL     1     -10.427  18.611  69.631  1.00  0.00     0.000 HD 
ENDBRANCH   4   6
ENDBRANCH   3   4
ENDBRANCH   2   3
TORSDOF 3
ENDMDL
MODEL       38
REMARK 921   NORMALIZED FREE ENERGY PREDICTED BY IDOCK:   -4.49 KCAL/MOL
REMARK 922        TOTAL FREE ENERGY PREDICTED BY IDOCK:   -5.51 KCAL/MOL
REMARK 923 INTER-LIGAND FREE ENERGY PREDICTED BY IDOCK:   -5.31 KCAL/MOL
REMARK 924 INTRA-LIGAND FREE ENERGY PREDICTED BY IDOCK:   -0.20 KCAL/MOL
REMARK 927      BINDING AFFINITY PREDICTED BY RF-SCORE:    0.00 PKD
ROOT
HETATM    1  C   UNL     1     -10.092  20.033  67.341  1.00  0.00    -0.568 C  
HETATM    2  C   UNL     1      -9.593  18.618  67.082  1.00  0.00    -0.315 C  
ENDROOT
BRANCH   2   3
HETATM    3  C   UNL     1     -10.457  17.597  67.822  1.00  0.00    -0.378 C  
BRANCH   3   4
HETATM    4  N   UNL     1     -10.446  16.298  67.140  1.00  0.00    -0.298 NA 
HETATM    5  H   UNL     1      -9.495  16.007  66.913  1.00  0.00     0.000 HD 
BRANCH   4   6
HETATM    6  C   UNL     1     -11.154  15.258  67.915  1.00  0.00    -0.321 C  
HETATM    7  C   UNL     1     -10.224  14.072  68.291  1.00  0.00    -0.249 C  
HETATM    8  C   UNL     1     -11.016  12.928  68.938  1.00  0.00    -0.271 C  
HETATM    9  C   UNL     1     -11.918  13.443  70.000  1.00  0.00    -0.337 A  
HETATM   10  C   UNL     1     -12.274  14.771  70.104  1.00  0.00    -0.337 A  
HETATM   11  S   UNL     1     -13.312  14.985  71.436  1.00  0.00    -0.473 SA 
HETATM   12  C   UNL     1     -11.780  15.867  69.212  1.00  0.00    -0.360 C  
HETATM   13  C   UNL     1     -13.204  13.296  71.770  1.00  0.00    -0.405 A  
HETATM   14  N   UNL     1     -13.853  12.737  72.804  1.00  0.00    -0.655 NA 
HETATM   15  N   UNL     1     -12.468  12.602  70.939  1.00  0.00    -0.343 NA 
HETATM   16  H1  UNL     1     -13.789  11.738  73.001  1.00  0.00     0.000 HD 
HETATM   17  H2  UNL     1     -14.425  13.327  73.407  1.00  0.00     0.000 HD 
ENDBRANCH   4   6
ENDBRANCH   3   4
ENDBRANCH   2   3
TORSDOF 3
ENDMDL
MODEL       39
REMARK 921   NORMALIZED FREE ENERGY PREDICTED BY IDOCK:   -4.48 KCAL/MOL
REMARK 922        TOTAL FREE ENERGY PREDICTED BY IDOCK:   -5.50 KCAL/MOL
REMARK 923 INTER-LIGAND FREE ENERGY PREDICTED BY IDOCK:   -5.31 KCAL/MOL
REMARK 924 INTRA-LIGAND FREE ENERGY PREDICTED BY IDOCK:   -0.19 KCAL/MOL
REMARK 927      BINDING AFFINITY PREDICTED BY RF-SCORE:    0.00 PKD
ROOT
HETATM    1  C   UNL     1     -13.045  10.515  71.807  1.00  0.00    -0.570 C  
HETATM    2  C   UNL     1     -11.947   9.744  71.087  1.00  0.00    -0.463 C  
ENDROOT
BRANCH   2   3
HETATM    3  C   UNL     1     -11.395  10.558  69.916  1.00  0.00    -0.309 C  
BRANCH   3   4
HETATM    4  N   UNL     1     -11.611  11.996  70.121  1.00  0.00    -0.531 NA 
HETATM    5  H   UNL     1     -11.203  12.309  71.001  1.00  0.00     0.000 HD 
BRANCH   4   6
HETATM    6  C   UNL     1     -11.113  12.799  68.985  1.00  0.00    -0.233 C  
HETATM    7  C   UNL     1     -11.893  12.506  67.674  1.00  0.00    -0.381 C  
HETATM    8  C   UNL     1     -11.249  13.215  66.474  1.00  0.00    -0.339 C  
HETATM    9  C   UNL     1     -10.968  14.639  66.789  1.00  0.00    -0.323 A  
HETATM   10  C   UNL     1     -10.925  15.128  68.077  1.00  0.00    -0.295 A  
HETATM   11  S   UNL     1     -10.579  16.795  68.048  1.00  0.00    -0.352 SA 
HETATM   12  C   UNL     1     -11.192  14.326  69.313  1.00  0.00    -0.309 C  
HETATM   13  C   UNL     1     -10.518  16.734  66.325  1.00  0.00    -0.261 A  
HETATM   14  N   UNL     1     -10.263  17.827  65.587  1.00  0.00    -0.600 NA 
HETATM   15  N   UNL     1     -10.714  15.553  65.794  1.00  0.00    -0.339 NA 
HETATM   16  H1  UNL     1     -10.227  17.790  64.569  1.00  0.00     0.000 HD 
HETATM   17  H2  UNL     1     -10.102  18.717  66.058  1.00  0.00     0.000 HD 
ENDBRANCH   4   6
ENDBRANCH   3   4
ENDBRANCH   2   3
TORSDOF 3
ENDMDL
MODEL       40
REMARK 921   NORMALIZED FREE ENERGY PREDICTED BY IDOCK:   -4.43 KCAL/MOL
REMARK 922        TOTAL FREE ENERGY PREDICTED BY IDOCK:   -5.44 KCAL/MOL
REMARK 923 INTER-LIGAND FREE ENERGY PREDICTED BY IDOCK:   -5.19 KCAL/MOL
REMARK 924 INTRA-LIGAND FREE ENERGY PREDICTED BY IDOCK:   -0.25 KCAL/MOL
REMARK 927      BINDING AFFINITY PREDICTED BY RF-SCORE:    0.00 PKD
ROOT
HETATM    1  C   UNL     1     -10.595   7.500  72.986  1.00  0.00    -0.422 C  
HETATM    2  C   UNL     1     -10.919   8.487  71.872  1.00  0.00    -0.394 C  
ENDROOT
BRANCH   2   3
HETATM    3  C   UNL     1     -12.368   8.960  71.976  1.00  0.00    -0.390 C  
BRANCH   3   4
HETATM    4  N   UNL     1     -12.881   9.393  70.670  1.00  0.00    -0.513 NA 
HETATM    5  H   UNL     1     -13.760   8.927  70.446  1.00  0.00     0.000 HD 
BRANCH   4   6
HETATM    6  C   UNL     1     -13.016  10.862  70.585  1.00  0.00    -0.184 C  
HETATM    7  C   UNL     1     -13.067  11.528  71.987  1.00  0.00    -0.430 C  
HETATM    8  C   UNL     1     -13.383  13.026  71.879  1.00  0.00    -0.539 C  
HETATM    9  C   UNL     1     -12.528  13.675  70.853  1.00  0.00    -0.371 A  
HETATM   10  C   UNL     1     -11.851  12.967  69.883  1.00  0.00    -0.307 A  
HETATM   11  S   UNL     1     -10.979  14.041  68.891  1.00  0.00    -0.261 SA 
HETATM   12  C   UNL     1     -11.843  11.476  69.753  1.00  0.00    -0.429 C  
HETATM   13  C   UNL     1     -11.569  15.362  69.832  1.00  0.00    -0.323 A  
HETATM   14  N   UNL     1     -11.227  16.632  69.561  1.00  0.00    -0.315 NA 
HETATM   15  N   UNL     1     -12.382  15.042  70.807  1.00  0.00    -0.315 NA 
HETATM   16  H1  UNL     1     -11.576  17.412  70.117  1.00  0.00     0.000 HD 
HETATM   17  H2  UNL     1     -10.602  16.821  68.777  1.00  0.00     0.000 HD 
ENDBRANCH   4   6
ENDBRANCH   3   4
ENDBRANCH   2   3
TORSDOF 3
ENDMDL
MODEL       41
REMARK 921   NORMALIZED FREE ENERGY PREDICTED BY IDOCK:   -4.42 KCAL/MOL
REMARK 922        TOTAL FREE ENERGY PREDICTED BY IDOCK:   -5.43 KCAL/MOL
REMARK 923 INTER-LIGAND FREE ENERGY PREDICTED BY IDOCK:   -5.24 KCAL/MOL
REMARK 924 INTRA-LIGAND FREE ENERGY PREDICTED BY IDOCK:   -0.19 KCAL/MOL
REMARK 927      BINDING AFFINITY PREDICTED BY RF-SCORE:    0.00 PKD
ROOT
HETATM    1  C   UNL     1     -12.075   6.429  71.961  1.00  0.00    -0.353 C  
HETATM    2  C   UNL     1     -10.792   6.517  71.145  1.00  0.00    -0.296 C  
ENDROOT
BRANCH   2   3
HETATM    3  C   UNL     1     -10.642   7.906  70.524  1.00  0.00    -0.223 C  
BRANCH   3   4
HETATM    4  N   UNL     1     -11.917   8.634  70.537  1.00  0.00    -0.483 NA 
HETATM    5  H   UNL     1     -12.513   8.322  71.303  1.00  0.00     0.000 HD 
BRANCH   4   6
HETATM    6  C   UNL     1     -11.720  10.098  70.573  1.00  0.00    -0.322 C  
HETATM    7  C   UNL     1     -11.669  10.718  69.150  1.00  0.00    -0.368 C  
HETATM    8  C   UNL     1     -11.290  12.204  69.205  1.00  0.00    -0.327 C  
HETATM    9  C   UNL     1     -12.097  12.920  70.226  1.00  0.00    -0.302 A  
HETATM   10  C   UNL     1     -12.783  12.270  71.230  1.00  0.00    -0.251 A  
HETATM   11  S   UNL     1     -13.591  13.409  72.204  1.00  0.00    -0.565 SA 
HETATM   12  C   UNL     1     -12.850  10.785  71.407  1.00  0.00    -0.557 C  
HETATM   13  C   UNL     1     -12.966  14.675  71.211  1.00  0.00    -0.339 A  
HETATM   14  N   UNL     1     -13.251  15.966  71.449  1.00  0.00    -0.531 NA 
HETATM   15  N   UNL     1     -12.186  14.292  70.231  1.00  0.00    -0.322 NA 
HETATM   16  H1  UNL     1     -12.881  16.713  70.862  1.00  0.00     0.000 HD 
HETATM   17  H2  UNL     1     -13.852  16.204  72.237  1.00  0.00     0.000 HD 
ENDBRANCH   4   6
ENDBRANCH   3   4
ENDBRANCH   2   3
TORSDOF 3
ENDMDL
MODEL       42
REMARK 921   NORMALIZED FREE ENERGY PREDICTED BY IDOCK:   -4.42 KCAL/MOL
REMARK 922        TOTAL FREE ENERGY PREDICTED BY IDOCK:   -5.43 KCAL/MOL
REMARK 923 INTER-LIGAND FREE ENERGY PREDICTED BY IDOCK:   -5.23 KCAL/MOL
REMARK 924 INTRA-LIGAND FREE ENERGY PREDICTED BY IDOCK:   -0.20 KCAL/MOL
REMARK 927      BINDING AFFINITY PREDICTED BY RF-SCORE:    0.00 PKD
ROOT
HETATM    1  C   UNL     1     -12.781   8.427  71.748  1.00  0.00    -0.373 C  
HETATM    2  C   UNL     1     -13.516   9.688  72.183  1.00  0.00    -0.516 C  
ENDROOT
BRANCH   2   3
HETATM    3  C   UNL     1     -12.788  10.936  71.685  1.00  0.00    -0.449 C  
BRANCH   3   4
HETATM    4  N   UNL     1     -13.311  12.148  72.327  1.00  0.00    -0.542 NA 
HETATM    5  H   UNL     1     -12.910  12.278  73.255  1.00  0.00     0.000 HD 
BRANCH   4   6
HETATM    6  C   UNL     1     -13.119  13.348  71.487  1.00  0.00    -0.342 C  
HETATM    7  C   UNL     1     -12.436  14.505  72.265  1.00  0.00    -0.353 C  
HETATM    8  C   UNL     1     -12.406  15.794  71.432  1.00  0.00    -0.505 C  
HETATM    9  C   UNL     1     -11.916  15.524  70.056  1.00  0.00    -0.364 A  
HETATM   10  C   UNL     1     -11.880  14.260  69.507  1.00  0.00    -0.329 A  
HETATM   11  S   UNL     1     -11.261  14.338  67.924  1.00  0.00    -0.300 SA 
HETATM   12  C   UNL     1     -12.278  13.002  70.215  1.00  0.00    -0.368 C  
HETATM   13  C   UNL     1     -11.087  16.047  68.095  1.00  0.00    -0.344 A  
HETATM   14  N   UNL     1     -10.596  16.810  67.106  1.00  0.00    -0.294 NA 
HETATM   15  N   UNL     1     -11.483  16.543  69.241  1.00  0.00    -0.152 NA 
HETATM   16  H1  UNL     1     -10.494  17.820  67.207  1.00  0.00     0.000 HD 
HETATM   17  H2  UNL     1     -10.319  16.369  66.229  1.00  0.00     0.000 HD 
ENDBRANCH   4   6
ENDBRANCH   3   4
ENDBRANCH   2   3
TORSDOF 3
ENDMDL
MODEL       43
REMARK 921   NORMALIZED FREE ENERGY PREDICTED BY IDOCK:   -4.41 KCAL/MOL
REMARK 922        TOTAL FREE ENERGY PREDICTED BY IDOCK:   -5.42 KCAL/MOL
REMARK 923 INTER-LIGAND FREE ENERGY PREDICTED BY IDOCK:   -5.14 KCAL/MOL
REMARK 924 INTRA-LIGAND FREE ENERGY PREDICTED BY IDOCK:   -0.28 KCAL/MOL
REMARK 927      BINDING AFFINITY PREDICTED BY RF-SCORE:    0.00 PKD
ROOT
HETATM    1  C   UNL     1      -9.934  17.240  68.475  1.00  0.00    -0.320 C  
HETATM    2  C   UNL     1     -11.062  16.426  69.096  1.00  0.00    -0.303 C  
ENDROOT
BRANCH   2   3
HETATM    3  C   UNL     1     -11.044  14.991  68.570  1.00  0.00    -0.272 C  
BRANCH   3   4
HETATM    4  N   UNL     1     -12.348  14.614  68.012  1.00  0.00    -0.589 NA 
HETATM    5  H   UNL     1     -12.937  15.433  67.862  1.00  0.00     0.000 HD 
BRANCH   4   6
HETATM    6  C   UNL     1     -12.213  13.817  66.775  1.00  0.00    -0.397 C  
HETATM    7  C   UNL     1     -11.803  14.689  65.558  1.00  0.00    -0.292 C  
HETATM    8  C   UNL     1     -11.840  13.878  64.255  1.00  0.00    -0.441 C  
HETATM    9  C   UNL     1     -11.142  12.577  64.421  1.00  0.00    -0.339 A  
HETATM   10  C   UNL     1     -10.862  12.027  65.654  1.00  0.00    -0.282 A  
HETATM   11  S   UNL     1     -10.058  10.541  65.451  1.00  0.00    -0.277 SA 
HETATM   12  C   UNL     1     -11.173  12.665  66.972  1.00  0.00    -0.348 C  
HETATM   13  C   UNL     1     -10.143  10.749  63.740  1.00  0.00    -0.327 A  
HETATM   14  N   UNL     1      -9.636   9.839  62.892  1.00  0.00    -0.547 NA 
HETATM   15  N   UNL     1     -10.750  11.835  63.332  1.00  0.00    -0.404 NA 
HETATM   16  H1  UNL     1      -9.687   9.962  61.881  1.00  0.00     0.000 HD 
HETATM   17  H2  UNL     1      -9.189   9.004  63.269  1.00  0.00     0.000 HD 
ENDBRANCH   4   6
ENDBRANCH   3   4
ENDBRANCH   2   3
TORSDOF 3
ENDMDL
MODEL       44
REMARK 921   NORMALIZED FREE ENERGY PREDICTED BY IDOCK:   -4.41 KCAL/MOL
REMARK 922        TOTAL FREE ENERGY PREDICTED BY IDOCK:   -5.42 KCAL/MOL
REMARK 923 INTER-LIGAND FREE ENERGY PREDICTED BY IDOCK:   -5.27 KCAL/MOL
REMARK 924 INTRA-LIGAND FREE ENERGY PREDICTED BY IDOCK:   -0.15 KCAL/MOL
REMARK 927      BINDING AFFINITY PREDICTED BY RF-SCORE:    0.00 PKD
ROOT
HETATM    1  C   UNL     1      -9.907  20.425  66.995  1.00  0.00    -0.594 C  
HETATM    2  C   UNL     1     -10.630  19.409  66.121  1.00  0.00    -0.571 C  
ENDROOT
BRANCH   2   3
HETATM    3  C   UNL     1     -10.066  18.006  66.346  1.00  0.00    -0.384 C  
BRANCH   3   4
HETATM    4  N   UNL     1     -10.580  17.060  65.348  1.00  0.00    -0.617 NA 
HETATM    5  H   UNL     1     -10.385  17.382  64.400  1.00  0.00     0.000 HD 
BRANCH   4   6
HETATM    6  C   UNL     1     -10.068  15.691  65.565  1.00  0.00    -0.362 C  
HETATM    7  C   UNL     1     -10.235  15.230  67.038  1.00  0.00    -0.260 C  
HETATM    8  C   UNL     1      -9.541  13.882  67.280  1.00  0.00    -0.243 C  
HETATM    9  C   UNL     1      -9.899  12.904  66.221  1.00  0.00    -0.273 A  
HETATM   10  C   UNL     1     -10.442  13.276  65.009  1.00  0.00    -0.353 A  
HETATM   11  S   UNL     1     -10.721  11.893  64.056  1.00  0.00    -0.419 SA 
HETATM   12  C   UNL     1     -10.783  14.678  64.612  1.00  0.00    -0.309 C  
HETATM   13  C   UNL     1     -10.100  10.910  65.332  1.00  0.00    -0.277 A  
HETATM   14  N   UNL     1     -10.031   9.574  65.225  1.00  0.00    -0.404 NA 
HETATM   15  N   UNL     1      -9.685  11.557  66.392  1.00  0.00    -0.201 NA 
HETATM   16  H1  UNL     1      -9.663   8.993  65.978  1.00  0.00     0.000 HD 
HETATM   17  H2  UNL     1     -10.354   9.127  64.367  1.00  0.00     0.000 HD 
ENDBRANCH   4   6
ENDBRANCH   3   4
ENDBRANCH   2   3
TORSDOF 3
ENDMDL
MODEL       45
REMARK 921   NORMALIZED FREE ENERGY PREDICTED BY IDOCK:   -4.40 KCAL/MOL
REMARK 922        TOTAL FREE ENERGY PREDICTED BY IDOCK:   -5.40 KCAL/MOL
REMARK 923 INTER-LIGAND FREE ENERGY PREDICTED BY IDOCK:   -5.14 KCAL/MOL
REMARK 924 INTRA-LIGAND FREE ENERGY PREDICTED BY IDOCK:   -0.26 KCAL/MOL
REMARK 927      BINDING AFFINITY PREDICTED BY RF-SCORE:    0.00 PKD
ROOT
HETATM    1  C   UNL     1      -5.904  11.528  67.007  1.00  0.00    -0.120 C  
HETATM    2  C   UNL     1      -7.248  10.932  67.405  1.00  0.00    -0.094 C  
ENDROOT
BRANCH   2   3
HETATM    3  C   UNL     1      -7.626  11.354  68.824  1.00  0.00    -0.132 C  
BRANCH   3   4
HETATM    4  N   UNL     1      -9.067  11.614  68.935  1.00  0.00    -0.396 NA 
HETATM    5  H   UNL     1      -9.271  12.232  69.720  1.00  0.00     0.000 HD 
BRANCH   4   6
HETATM    6  C   UNL     1      -9.635  12.141  67.677  1.00  0.00    -0.190 C  
HETATM    7  C   UNL     1     -11.136  11.779  67.515  1.00  0.00    -0.330 C  
HETATM    8  C   UNL     1     -11.658  12.181  66.128  1.00  0.00    -0.418 C  
HETATM    9  C   UNL     1     -11.258  13.571  65.794  1.00  0.00    -0.297 A  
HETATM   10  C   UNL     1     -10.248  14.240  66.452  1.00  0.00    -0.291 A  
HETATM   11  S   UNL     1     -10.075  15.804  65.801  1.00  0.00    -0.388 SA 
HETATM   12  C   UNL     1      -9.456  13.692  67.598  1.00  0.00    -0.221 C  
HETATM   13  C   UNL     1     -11.360  15.468  64.699  1.00  0.00    -0.357 A  
HETATM   14  N   UNL     1     -11.781  16.378  63.806  1.00  0.00    -1.498 NA 
HETATM   15  N   UNL     1     -11.875  14.267  64.781  1.00  0.00    -0.406 NA 
HETATM   16  H1  UNL     1     -12.540  16.179  63.155  1.00  0.00     0.000 HD 
HETATM   17  H2  UNL     1     -11.329  17.291  63.778  1.00  0.00     0.000 HD 
ENDBRANCH   4   6
ENDBRANCH   3   4
ENDBRANCH   2   3
TORSDOF 3
ENDMDL
MODEL       46
REMARK 921   NORMALIZED FREE ENERGY PREDICTED BY IDOCK:   -4.38 KCAL/MOL
REMARK 922        TOTAL FREE ENERGY PREDICTED BY IDOCK:   -5.39 KCAL/MOL
REMARK 923 INTER-LIGAND FREE ENERGY PREDICTED BY IDOCK:   -5.19 KCAL/MOL
REMARK 924 INTRA-LIGAND FREE ENERGY PREDICTED BY IDOCK:   -0.20 KCAL/MOL
REMARK 927      BINDING AFFINITY PREDICTED BY RF-SCORE:    0.00 PKD
ROOT
HETATM    1  C   UNL     1      -9.989  20.176  67.141  1.00  0.00    -0.595 C  
HETATM    2  C   UNL     1     -10.704  18.839  67.000  1.00  0.00    -0.435 C  
ENDROOT
BRANCH   2   3
HETATM    3  C   UNL     1      -9.986  17.756  67.806  1.00  0.00    -0.322 C  
BRANCH   3   4
HETATM    4  N   UNL     1     -10.577  17.608  69.141  1.00  0.00    -0.387 NA 
HETATM    5  H   UNL     1     -11.468  18.099  69.208  1.00  0.00     0.000 HD 
BRANCH   4   6
HETATM    6  C   UNL     1     -10.717  16.190  69.533  1.00  0.00    -0.313 C  
HETATM    7  C   UNL     1     -11.936  15.957  70.465  1.00  0.00    -0.360 C  
HETATM    8  C   UNL     1     -11.960  14.518  70.999  1.00  0.00    -0.394 C  
HETATM    9  C   UNL     1     -11.753  13.541  69.900  1.00  0.00    -0.271 A  
HETATM   10  C   UNL     1     -11.227  13.891  68.675  1.00  0.00    -0.270 A  
HETATM   11  S   UNL     1     -11.140  12.517  67.673  1.00  0.00    -0.274 SA 
HETATM   12  C   UNL     1     -10.839  15.279  68.268  1.00  0.00    -0.262 C  
HETATM   13  C   UNL     1     -11.811  11.567  68.948  1.00  0.00    -0.341 A  
HETATM   14  N   UNL     1     -12.035  10.251  68.806  1.00  0.00    -0.659 NA 
HETATM   15  N   UNL     1     -12.064  12.211  70.059  1.00  0.00    -0.304 NA 
HETATM   16  H1  UNL     1     -12.431   9.689  69.559  1.00  0.00     0.000 HD 
HETATM   17  H2  UNL     1     -11.802   9.801  67.921  1.00  0.00     0.000 HD 
ENDBRANCH   4   6
ENDBRANCH   3   4
ENDBRANCH   2   3
TORSDOF 3
ENDMDL
MODEL       47
REMARK 921   NORMALIZED FREE ENERGY PREDICTED BY IDOCK:   -4.38 KCAL/MOL
REMARK 922        TOTAL FREE ENERGY PREDICTED BY IDOCK:   -5.38 KCAL/MOL
REMARK 923 INTER-LIGAND FREE ENERGY PREDICTED BY IDOCK:   -5.18 KCAL/MOL
REMARK 924 INTRA-LIGAND FREE ENERGY PREDICTED BY IDOCK:   -0.20 KCAL/MOL
REMARK 927      BINDING AFFINITY PREDICTED BY RF-SCORE:    0.00 PKD
ROOT
HETATM    1  C   UNL     1     -12.462  15.635  74.135  1.00  0.00    -0.804 C  
HETATM    2  C   UNL     1     -13.092  15.360  72.776  1.00  0.00    -0.568 C  
ENDROOT
BRANCH   2   3
HETATM    3  C   UNL     1     -12.013  15.155  71.713  1.00  0.00    -0.382 C  
BRANCH   3   4
HETATM    4  N   UNL     1     -12.131  16.148  70.638  1.00  0.00    -0.467 NA 
HETATM    5  H   UNL     1     -11.516  16.945  70.802  1.00  0.00     0.000 HD 
BRANCH   4   6
HETATM    6  C   UNL     1     -11.896  15.555  69.305  1.00  0.00    -0.353 C  
HETATM    7  C   UNL     1     -10.547  16.013  68.689  1.00  0.00    -0.266 C  
HETATM    8  C   UNL     1     -10.405  15.528  67.239  1.00  0.00    -0.267 C  
HETATM    9  C   UNL     1     -10.744  14.087  67.127  1.00  0.00    -0.283 A  
HETATM   10  C   UNL     1     -11.454  13.406  68.092  1.00  0.00    -0.304 A  
HETATM   11  S   UNL     1     -11.650  11.781  67.623  1.00  0.00    -0.260 SA 
HETATM   12  C   UNL     1     -11.936  13.993  69.382  1.00  0.00    -0.390 C  
HETATM   13  C   UNL     1     -10.772  12.113  66.174  1.00  0.00    -0.272 A  
HETATM   14  N   UNL     1     -10.536  11.160  65.258  1.00  0.00    -0.272 NA 
HETATM   15  N   UNL     1     -10.376  13.352  66.025  1.00  0.00    -0.291 NA 
HETATM   16  H1  UNL     1     -10.017  11.356  64.402  1.00  0.00     0.000 HD 
HETATM   17  H2  UNL     1     -10.884  10.216  65.422  1.00  0.00     0.000 HD 
ENDBRANCH   4   6
ENDBRANCH   3   4
ENDBRANCH   2   3
TORSDOF 3
ENDMDL
MODEL       48
REMARK 921   NORMALIZED FREE ENERGY PREDICTED BY IDOCK:   -4.37 KCAL/MOL
REMARK 922        TOTAL FREE ENERGY PREDICTED BY IDOCK:   -5.37 KCAL/MOL
REMARK 923 INTER-LIGAND FREE ENERGY PREDICTED BY IDOCK:   -5.15 KCAL/MOL
REMARK 924 INTRA-LIGAND FREE ENERGY PREDICTED BY IDOCK:   -0.22 KCAL/MOL
REMARK 927      BINDING AFFINITY PREDICTED BY RF-SCORE:    0.00 PKD
ROOT
HETATM    1  C   UNL     1      -8.079  19.602  66.707  1.00  0.00    -0.321 C  
HETATM    2  C   UNL     1      -8.483  19.351  68.154  1.00  0.00    -0.367 C  
ENDROOT
BRANCH   2   3
HETATM    3  C   UNL     1      -8.604  17.852  68.427  1.00  0.00    -0.293 C  
BRANCH   3   4
HETATM    4  N   UNL     1      -9.956  17.501  68.877  1.00  0.00    -0.325 NA 
HETATM    5  H   UNL     1     -10.629  18.225  68.626  1.00  0.00     0.000 HD 
BRANCH   4   6
HETATM    6  C   UNL     1     -10.382  16.178  68.376  1.00  0.00    -0.257 C  
HETATM    7  C   UNL     1     -11.645  15.652  69.111  1.00  0.00    -0.393 C  
HETATM    8  C   UNL     1     -11.965  14.207  68.701  1.00  0.00    -0.373 C  
HETATM    9  C   UNL     1     -11.930  14.055  67.224  1.00  0.00    -0.413 A  
HETATM   10  C   UNL     1     -11.317  14.966  66.391  1.00  0.00    -0.308 A  
HETATM   11  S   UNL     1     -11.481  14.465  64.772  1.00  0.00    -0.405 SA 
HETATM   12  C   UNL     1     -10.654  16.232  66.837  1.00  0.00    -0.270 C  
HETATM   13  C   UNL     1     -12.356  13.077  65.309  1.00  0.00    -0.486 A  
HETATM   14  N   UNL     1     -12.832  12.165  64.447  1.00  0.00    -0.645 NA 
HETATM   15  N   UNL     1     -12.502  12.969  66.606  1.00  0.00    -0.293 NA 
HETATM   16  H1  UNL     1     -13.349  11.345  64.764  1.00  0.00     0.000 HD 
HETATM   17  H2  UNL     1     -12.672  12.295  63.448  1.00  0.00     0.000 HD 
ENDBRANCH   4   6
ENDBRANCH   3   4
ENDBRANCH   2   3
TORSDOF 3
ENDMDL
MODEL       49
REMARK 921   NORMALIZED FREE ENERGY PREDICTED BY IDOCK:   -4.33 KCAL/MOL
REMARK 922        TOTAL FREE ENERGY PREDICTED BY IDOCK:   -5.32 KCAL/MOL
REMARK 923 INTER-LIGAND FREE ENERGY PREDICTED BY IDOCK:   -5.14 KCAL/MOL
REMARK 924 INTRA-LIGAND FREE ENERGY PREDICTED BY IDOCK:   -0.19 KCAL/MOL
REMARK 927      BINDING AFFINITY PREDICTED BY RF-SCORE:    0.00 PKD
ROOT
HETATM    1  C   UNL     1     -12.532  15.634  72.252  1.00  0.00    -0.512 C  
HETATM    2  C   UNL     1     -12.950  15.204  70.852  1.00  0.00    -0.488 C  
ENDROOT
BRANCH   2   3
HETATM    3  C   UNL     1     -11.829  15.476  69.849  1.00  0.00    -0.362 C  
BRANCH   3   4
HETATM    4  N   UNL     1     -11.243  16.806  70.054  1.00  0.00    -0.376 NA 
HETATM    5  H   UNL     1     -10.893  16.913  71.006  1.00  0.00     0.000 HD 
BRANCH   4   6
HETATM    6  C   UNL     1     -10.193  17.109  69.060  1.00  0.00    -0.315 C  
HETATM    7  C   UNL     1     -10.491  16.469  67.677  1.00  0.00    -0.305 C  
HETATM    8  C   UNL     1      -9.309  16.647  66.715  1.00  0.00    -0.262 C  
HETATM    9  C   UNL     1      -8.829  18.053  66.719  1.00  0.00    -0.263 A  
HETATM   10  C   UNL     1      -9.139  18.948  67.721  1.00  0.00    -0.290 A  
HETATM   11  S   UNL     1      -8.419  20.455  67.388  1.00  0.00    -0.267 SA 
HETATM   12  C   UNL     1     -10.018  18.655  68.897  1.00  0.00    -0.399 C  
HETATM   13  C   UNL     1      -7.756  19.797  65.937  1.00  0.00    -0.320 A  
HETATM   14  N   UNL     1      -6.999  20.534  65.108  1.00  0.00    -0.499 NA 
HETATM   15  N   UNL     1      -8.023  18.534  65.715  1.00  0.00    -0.478 NA 
HETATM   16  H1  UNL     1      -6.607  20.145  64.251  1.00  0.00     0.000 HD 
HETATM   17  H2  UNL     1      -6.812  21.509  65.342  1.00  0.00     0.000 HD 
ENDBRANCH   4   6
ENDBRANCH   3   4
ENDBRANCH   2   3
TORSDOF 3
ENDMDL
MODEL       50
REMARK 921   NORMALIZED FREE ENERGY PREDICTED BY IDOCK:   -4.32 KCAL/MOL
REMARK 922        TOTAL FREE ENERGY PREDICTED BY IDOCK:   -5.31 KCAL/MOL
REMARK 923 INTER-LIGAND FREE ENERGY PREDICTED BY IDOCK:   -5.17 KCAL/MOL
REMARK 924 INTRA-LIGAND FREE ENERGY PREDICTED BY IDOCK:   -0.14 KCAL/MOL
REMARK 927      BINDING AFFINITY PREDICTED BY RF-SCORE:    0.00 PKD
ROOT
HETATM    1  C   UNL     1     -11.501   7.974  72.570  1.00  0.00    -0.471 C  
HETATM    2  C   UNL     1     -10.644   8.982  71.815  1.00  0.00    -0.426 C  
ENDROOT
BRANCH   2   3
HETATM    3  C   UNL     1     -11.510   9.846  70.899  1.00  0.00    -0.376 C  
BRANCH   3   4
HETATM    4  N   UNL     1     -10.706  10.866  70.214  1.00  0.00    -0.390 NA 
HETATM    5  H   UNL     1      -9.709  10.671  70.303  1.00  0.00     0.000 HD 
BRANCH   4   6
HETATM    6  C   UNL     1     -11.096  11.022  68.797  1.00  0.00    -0.239 C  
HETATM    7  C   UNL     1     -11.300  12.511  68.406  1.00  0.00    -0.333 C  
HETATM    8  C   UNL     1     -11.873  12.639  66.988  1.00  0.00    -0.415 C  
HETATM    9  C   UNL     1     -11.120  11.786  66.033  1.00  0.00    -0.312 A  
HETATM   10  C   UNL     1     -10.304  10.751  66.434  1.00  0.00    -0.248 A  
HETATM   11  S   UNL     1      -9.610  10.004  65.071  1.00  0.00    -0.298 SA 
HETATM   12  C   UNL     1     -10.030  10.372  67.856  1.00  0.00    -0.192 C  
HETATM   13  C   UNL     1     -10.449  11.120  64.056  1.00  0.00    -0.383 A  
HETATM   14  N   UNL     1     -10.330  11.085  62.718  1.00  0.00    -0.771 NA 
HETATM   15  N   UNL     1     -11.217  11.980  64.675  1.00  0.00    -0.319 NA 
HETATM   16  H1  UNL     1     -10.825  11.745  62.119  1.00  0.00     0.000 HD 
HETATM   17  H2  UNL     1      -9.728  10.381  62.292  1.00  0.00     0.000 HD 
ENDBRANCH   4   6
ENDBRANCH   3   4
ENDBRANCH   2   3
TORSDOF 3
ENDMDL
MODEL       51
REMARK 921   NORMALIZED FREE ENERGY PREDICTED BY IDOCK:   -4.31 KCAL/MOL
REMARK 922        TOTAL FREE ENERGY PREDICTED BY IDOCK:   -5.30 KCAL/MOL
REMARK 923 INTER-LIGAND FREE ENERGY PREDICTED BY IDOCK:   -5.09 KCAL/MOL
REMARK 924 INTRA-LIGAND FREE ENERGY PREDICTED BY IDOCK:   -0.21 KCAL/MOL
REMARK 927      BINDING AFFINITY PREDICTED BY RF-SCORE:    0.00 PKD
ROOT
HETATM    1  C   UNL     1      -9.741  10.443  65.748  1.00  0.00    -0.285 C  
HETATM    2  C   UNL     1     -10.352   9.462  66.740  1.00  0.00    -0.303 C  
ENDROOT
BRANCH   2   3
HETATM    3  C   UNL     1     -10.384  10.065  68.144  1.00  0.00    -0.194 C  
BRANCH   3   4
HETATM    4  N   UNL     1     -11.721  10.571  68.475  1.00  0.00    -0.683 NA 
HETATM    5  H   UNL     1     -12.277   9.861  68.953  1.00  0.00     0.000 HD 
BRANCH   4   6
HETATM    6  C   UNL     1     -11.664  11.822  69.258  1.00  0.00    -0.335 C  
HETATM    7  C   UNL     1     -11.799  13.082  68.361  1.00  0.00    -0.370 C  
HETATM    8  C   UNL     1     -11.561  14.367  69.167  1.00  0.00    -0.344 C  
HETATM    9  C   UNL     1     -12.340  14.351  70.431  1.00  0.00    -0.342 A  
HETATM   10  C   UNL     1     -12.869  13.199  70.972  1.00  0.00    -0.214 A  
HETATM   11  S   UNL     1     -13.694  13.567  72.415  1.00  0.00    -0.557 SA 
HETATM   12  C   UNL     1     -12.777  11.837  70.357  1.00  0.00    -0.071 C  
HETATM   13  C   UNL     1     -13.283  15.230  72.204  1.00  0.00    -0.395 A  
HETATM   14  N   UNL     1     -13.668  16.170  73.082  1.00  0.00    -0.586 NA 
HETATM   15  N   UNL     1     -12.560  15.504  71.148  1.00  0.00    -0.417 NA 
HETATM   16  H1  UNL     1     -13.426  17.153  72.957  1.00  0.00     0.000 HD 
HETATM   17  H2  UNL     1     -14.218  15.894  73.896  1.00  0.00     0.000 HD 
ENDBRANCH   4   6
ENDBRANCH   3   4
ENDBRANCH   2   3
TORSDOF 3
ENDMDL
MODEL       52
REMARK 921   NORMALIZED FREE ENERGY PREDICTED BY IDOCK:   -4.31 KCAL/MOL
REMARK 922        TOTAL FREE ENERGY PREDICTED BY IDOCK:   -5.30 KCAL/MOL
REMARK 923 INTER-LIGAND FREE ENERGY PREDICTED BY IDOCK:   -5.18 KCAL/MOL
REMARK 924 INTRA-LIGAND FREE ENERGY PREDICTED BY IDOCK:   -0.12 KCAL/MOL
REMARK 927      BINDING AFFINITY PREDICTED BY RF-SCORE:    0.00 PKD
ROOT
HETATM    1  C   UNL     1     -11.872  13.481  68.583  1.00  0.00    -0.404 C  
HETATM    2  C   UNL     1     -11.987  14.286  67.295  1.00  0.00    -0.439 C  
ENDROOT
BRANCH   2   3
HETATM    3  C   UNL     1     -10.787  15.218  67.133  1.00  0.00    -0.322 C  
BRANCH   3   4
HETATM    4  N   UNL     1     -10.969  16.458  67.896  1.00  0.00    -0.328 NA 
HETATM    5  H   UNL     1     -10.933  16.283  68.900  1.00  0.00     0.000 HD 
BRANCH   4   6
HETATM    6  C   UNL     1     -10.001  17.502  67.500  1.00  0.00    -0.315 C  
HETATM    7  C   UNL     1     -10.655  18.907  67.417  1.00  0.00    -0.534 C  
HETATM    8  C   UNL     1      -9.680  19.941  66.837  1.00  0.00    -0.532 C  
HETATM    9  C   UNL     1      -8.355  19.851  67.501  1.00  0.00    -0.324 A  
HETATM   10  C   UNL     1      -7.956  18.753  68.232  1.00  0.00    -0.318 A  
HETATM   11  S   UNL     1      -6.386  19.007  68.840  1.00  0.00    -0.267 SA 
HETATM   12  C   UNL     1      -8.795  17.541  68.494  1.00  0.00    -0.282 C  
HETATM   13  C   UNL     1      -6.364  20.559  68.085  1.00  0.00    -0.309 A  
HETATM   14  N   UNL     1      -5.303  21.376  68.181  1.00  0.00    -0.463 NA 
HETATM   15  N   UNL     1      -7.437  20.869  67.401  1.00  0.00    -0.338 NA 
HETATM   16  H1  UNL     1      -5.291  22.293  67.734  1.00  0.00     0.000 HD 
HETATM   17  H2  UNL     1      -4.489  21.073  68.714  1.00  0.00     0.000 HD 
ENDBRANCH   4   6
ENDBRANCH   3   4
ENDBRANCH   2   3
TORSDOF 3
ENDMDL
MODEL       53
REMARK 921   NORMALIZED FREE ENERGY PREDICTED BY IDOCK:   -4.29 KCAL/MOL
REMARK 922        TOTAL FREE ENERGY PREDICTED BY IDOCK:   -5.28 KCAL/MOL
REMARK 923 INTER-LIGAND FREE ENERGY PREDICTED BY IDOCK:   -5.15 KCAL/MOL
REMARK 924 INTRA-LIGAND FREE ENERGY PREDICTED BY IDOCK:   -0.13 KCAL/MOL
REMARK 927      BINDING AFFINITY PREDICTED BY RF-SCORE:    0.00 PKD
ROOT
HETATM    1  C   UNL     1     -12.117  12.330  63.521  1.00  0.00    -0.649 C  
HETATM    2  C   UNL     1     -12.575  12.630  64.942  1.00  0.00    -0.525 C  
ENDROOT
BRANCH   2   3
HETATM    3  C   UNL     1     -11.442  12.381  65.937  1.00  0.00    -0.374 C  
BRANCH   3   4
HETATM    4  N   UNL     1     -11.934  12.406  67.320  1.00  0.00    -0.537 NA 
HETATM    5  H   UNL     1     -12.953  12.408  67.349  1.00  0.00     0.000 HD 
BRANCH   4   6
HETATM    6  C   UNL     1     -11.377  11.301  68.128  1.00  0.00    -0.303 C  
HETATM    7  C   UNL     1      -9.897  11.553  68.524  1.00  0.00    -0.198 C  
HETATM    8  C   UNL     1      -9.287  10.321  69.208  1.00  0.00    -0.221 C  
HETATM    9  C   UNL     1     -10.191   9.801  70.266  1.00  0.00    -0.289 A  
HETATM   10  C   UNL     1     -11.528  10.131  70.339  1.00  0.00    -0.322 A  
HETATM   11  S   UNL     1     -12.239   9.352  71.676  1.00  0.00    -0.408 SA 
HETATM   12  C   UNL     1     -12.235  11.073  69.415  1.00  0.00    -0.329 C  
HETATM   13  C   UNL     1     -10.712   8.640  72.050  1.00  0.00    -0.357 A  
HETATM   14  N   UNL     1     -10.553   7.823  73.105  1.00  0.00    -0.374 NA 
HETATM   15  N   UNL     1      -9.735   8.934  71.230  1.00  0.00    -0.262 NA 
HETATM   16  H1  UNL     1      -9.651   7.403  73.326  1.00  0.00     0.000 HD 
HETATM   17  H2  UNL     1     -11.356   7.619  73.699  1.00  0.00     0.000 HD 
ENDBRANCH   4   6
ENDBRANCH   3   4
ENDBRANCH   2   3
TORSDOF 3
ENDMDL
MODEL       54
REMARK 921   NORMALIZED FREE ENERGY PREDICTED BY IDOCK:   -4.28 KCAL/MOL
REMARK 922        TOTAL FREE ENERGY PREDICTED BY IDOCK:   -5.27 KCAL/MOL
REMARK 923 INTER-LIGAND FREE ENERGY PREDICTED BY IDOCK:   -4.97 KCAL/MOL
REMARK 924 INTRA-LIGAND FREE ENERGY PREDICTED BY IDOCK:   -0.30 KCAL/MOL
REMARK 927      BINDING AFFINITY PREDICTED BY RF-SCORE:    0.00 PKD
ROOT
HETATM    1  C   UNL     1     -10.520   9.638  68.298  1.00  0.00    -0.259 C  
HETATM    2  C   UNL     1     -10.847  10.098  69.712  1.00  0.00    -0.320 C  
ENDROOT
BRANCH   2   3
HETATM    3  C   UNL     1     -11.649  11.399  69.683  1.00  0.00    -0.330 C  
BRANCH   3   4
HETATM    4  N   UNL     1     -11.954  11.805  68.306  1.00  0.00    -0.528 NA 
HETATM    5  H   UNL     1     -12.839  11.408  67.991  1.00  0.00     0.000 HD 
BRANCH   4   6
HETATM    6  C   UNL     1     -11.938  13.274  68.144  1.00  0.00    -0.304 C  
HETATM    7  C   UNL     1     -11.392  13.997  69.404  1.00  0.00    -0.317 C  
HETATM    8  C   UNL     1     -11.548  15.520  69.283  1.00  0.00    -0.369 C  
HETATM    9  C   UNL     1     -11.060  15.998  67.964  1.00  0.00    -0.334 A  
HETATM   10  C   UNL     1     -10.874  15.162  66.884  1.00  0.00    -0.317 A  
HETATM   11  S   UNL     1     -10.308  16.060  65.553  1.00  0.00    -0.360 SA 
HETATM   12  C   UNL     1     -11.089  13.681  66.895  1.00  0.00    -0.314 C  
HETATM   13  C   UNL     1     -10.352  17.488  66.520  1.00  0.00    -0.325 A  
HETATM   14  N   UNL     1      -9.987  18.684  66.031  1.00  0.00    -0.534 NA 
HETATM   15  N   UNL     1     -10.782  17.327  67.747  1.00  0.00    -0.361 NA 
HETATM   16  H1  UNL     1     -10.013  19.528  66.603  1.00  0.00     0.000 HD 
HETATM   17  H2  UNL     1      -9.676  18.750  65.062  1.00  0.00     0.000 HD 
ENDBRANCH   4   6
ENDBRANCH   3   4
ENDBRANCH   2   3
TORSDOF 3
ENDMDL
MODEL       55
REMARK 921   NORMALIZED FREE ENERGY PREDICTED BY IDOCK:   -4.27 KCAL/MOL
REMARK 922        TOTAL FREE ENERGY PREDICTED BY IDOCK:   -5.26 KCAL/MOL
REMARK 923 INTER-LIGAND FREE ENERGY PREDICTED BY IDOCK:   -5.10 KCAL/MOL
REMARK 924 INTRA-LIGAND FREE ENERGY PREDICTED BY IDOCK:   -0.16 KCAL/MOL
REMARK 927      BINDING AFFINITY PREDICTED BY RF-SCORE:    0.00 PKD
ROOT
HETATM    1  C   UNL     1     -10.681  11.246  67.300  1.00  0.00    -0.295 C  
HETATM    2  C   UNL     1     -11.897  12.121  67.576  1.00  0.00    -0.307 C  
ENDROOT
BRANCH   2   3
HETATM    3  C   UNL     1     -11.654  13.010  68.795  1.00  0.00    -0.309 C  
BRANCH   3   4
HETATM    4  N   UNL     1     -12.153  14.372  68.567  1.00  0.00    -0.562 NA 
HETATM    5  H   UNL     1     -12.534  14.774  69.424  1.00  0.00     0.000 HD 
BRANCH   4   6
HETATM    6  C   UNL     1     -11.122  15.250  67.976  1.00  0.00    -0.312 C  
HETATM    7  C   UNL     1     -11.229  15.320  66.429  1.00  0.00    -0.224 C  
HETATM    8  C   UNL     1     -10.047  16.092  65.825  1.00  0.00    -0.393 C  
HETATM    9  C   UNL     1      -9.825  17.371  66.546  1.00  0.00    -0.304 A  
HETATM   10  C   UNL     1     -10.340  17.625  67.799  1.00  0.00    -0.365 A  
HETATM   11  S   UNL     1      -9.882  19.185  68.303  1.00  0.00    -0.416 SA 
HETATM   12  C   UNL     1     -11.214  16.691  68.576  1.00  0.00    -0.239 C  
HETATM   13  C   UNL     1      -9.037  19.398  66.814  1.00  0.00    -0.334 A  
HETATM   14  N   UNL     1      -8.380  20.535  66.531  1.00  0.00    -0.540 NA 
HETATM   15  N   UNL     1      -9.064  18.376  65.997  1.00  0.00    -0.498 NA 
HETATM   16  H1  UNL     1      -7.880  20.661  65.651  1.00  0.00     0.000 HD 
HETATM   17  H2  UNL     1      -8.380  21.292  67.215  1.00  0.00     0.000 HD 
ENDBRANCH   4   6
ENDBRANCH   3   4
ENDBRANCH   2   3
TORSDOF 3
ENDMDL
MODEL       56
REMARK 921   NORMALIZED FREE ENERGY PREDICTED BY IDOCK:   -4.26 KCAL/MOL
REMARK 922        TOTAL FREE ENERGY PREDICTED BY IDOCK:   -5.25 KCAL/MOL
REMARK 923 INTER-LIGAND FREE ENERGY PREDICTED BY IDOCK:   -5.01 KCAL/MOL
REMARK 924 INTRA-LIGAND FREE ENERGY PREDICTED BY IDOCK:   -0.23 KCAL/MOL
REMARK 927      BINDING AFFINITY PREDICTED BY RF-SCORE:    0.00 PKD
ROOT
HETATM    1  C   UNL     1     -13.067  15.738  71.998  1.00  0.00    -0.504 C  
HETATM    2  C   UNL     1     -13.037  15.243  70.558  1.00  0.00    -0.334 C  
ENDROOT
BRANCH   2   3
HETATM    3  C   UNL     1     -11.686  15.546  69.911  1.00  0.00    -0.352 C  
BRANCH   3   4
HETATM    4  N   UNL     1     -11.855  16.076  68.553  1.00  0.00    -0.378 NA 
HETATM    5  H   UNL     1     -11.543  17.046  68.493  1.00  0.00     0.000 HD 
BRANCH   4   6
HETATM    6  C   UNL     1     -11.184  15.234  67.541  1.00  0.00    -0.317 C  
HETATM    7  C   UNL     1     -10.304  14.130  68.187  1.00  0.00    -0.239 C  
HETATM    8  C   UNL     1      -9.482  13.383  67.127  1.00  0.00    -0.244 C  
HETATM    9  C   UNL     1     -10.336  12.982  65.980  1.00  0.00    -0.285 A  
HETATM   10  C   UNL     1     -11.571  13.542  65.732  1.00  0.00    -0.330 A  
HETATM   11  S   UNL     1     -12.254  12.836  64.342  1.00  0.00    -0.437 SA 
HETATM   12  C   UNL     1     -12.234  14.578  66.586  1.00  0.00    -0.250 C  
HETATM   13  C   UNL     1     -10.854  11.839  64.182  1.00  0.00    -0.360 A  
HETATM   14  N   UNL     1     -10.730  10.949  63.185  1.00  0.00    -0.731 NA 
HETATM   15  N   UNL     1      -9.921  12.027  65.082  1.00  0.00    -0.253 NA 
HETATM   16  H1  UNL     1      -9.903  10.360  63.091  1.00  0.00     0.000 HD 
HETATM   17  H2  UNL     1     -11.483  10.859  62.504  1.00  0.00     0.000 HD 
ENDBRANCH   4   6
ENDBRANCH   3   4
ENDBRANCH   2   3
TORSDOF 3
ENDMDL
MODEL       57
REMARK 921   NORMALIZED FREE ENERGY PREDICTED BY IDOCK:   -4.26 KCAL/MOL
REMARK 922        TOTAL FREE ENERGY PREDICTED BY IDOCK:   -5.24 KCAL/MOL
REMARK 923 INTER-LIGAND FREE ENERGY PREDICTED BY IDOCK:   -5.05 KCAL/MOL
REMARK 924 INTRA-LIGAND FREE ENERGY PREDICTED BY IDOCK:   -0.19 KCAL/MOL
REMARK 927      BINDING AFFINITY PREDICTED BY RF-SCORE:    0.00 PKD
ROOT
HETATM    1  C   UNL     1      -8.840  11.089  62.479  1.00  0.00    -0.358 C  
HETATM    2  C   UNL     1     -10.159  11.107  63.239  1.00  0.00    -0.426 C  
ENDROOT
BRANCH   2   3
HETATM    3  C   UNL     1     -10.221  12.308  64.182  1.00  0.00    -0.349 C  
BRANCH   3   4
HETATM    4  N   UNL     1     -11.601  12.780  64.352  1.00  0.00    -0.339 NA 
HETATM    5  H   UNL     1     -12.262  12.166  63.877  1.00  0.00     0.000 HD 
BRANCH   4   6
HETATM    6  C   UNL     1     -11.958  12.953  65.775  1.00  0.00    -0.443 C  
HETATM    7  C   UNL     1     -11.316  11.864  66.677  1.00  0.00    -0.400 C  
HETATM    8  C   UNL     1     -11.838  11.956  68.118  1.00  0.00    -0.338 C  
HETATM    9  C   UNL     1     -11.789  13.356  68.610  1.00  0.00    -0.362 A  
HETATM   10  C   UNL     1     -11.672  14.443  67.771  1.00  0.00    -0.376 A  
HETATM   11  S   UNL     1     -11.648  15.877  68.688  1.00  0.00    -0.317 SA 
HETATM   12  C   UNL     1     -11.535  14.371  66.282  1.00  0.00    -0.361 C  
HETATM   13  C   UNL     1     -11.792  14.938  70.128  1.00  0.00    -0.308 A  
HETATM   14  N   UNL     1     -11.833  15.509  71.343  1.00  0.00    -0.357 NA 
HETATM   15  N   UNL     1     -11.879  13.644  69.952  1.00  0.00    -0.315 NA 
HETATM   16  H1  UNL     1     -11.918  14.954  72.194  1.00  0.00     0.000 HD 
HETATM   17  H2  UNL     1     -11.777  16.524  71.416  1.00  0.00     0.000 HD 
ENDBRANCH   4   6
ENDBRANCH   3   4
ENDBRANCH   2   3
TORSDOF 3
ENDMDL
MODEL       58
REMARK 921   NORMALIZED FREE ENERGY PREDICTED BY IDOCK:   -4.25 KCAL/MOL
REMARK 922        TOTAL FREE ENERGY PREDICTED BY IDOCK:   -5.23 KCAL/MOL
REMARK 923 INTER-LIGAND FREE ENERGY PREDICTED BY IDOCK:   -5.07 KCAL/MOL
REMARK 924 INTRA-LIGAND FREE ENERGY PREDICTED BY IDOCK:   -0.16 KCAL/MOL
REMARK 927      BINDING AFFINITY PREDICTED BY RF-SCORE:    0.00 PKD
ROOT
HETATM    1  C   UNL     1     -13.523  15.916  73.049  1.00  0.00    -0.653 C  
HETATM    2  C   UNL     1     -14.243  14.896  72.177  1.00  0.00    -0.616 C  
ENDROOT
BRANCH   2   3
HETATM    3  C   UNL     1     -13.279  13.800  71.723  1.00  0.00    -0.386 C  
BRANCH   3   4
HETATM    4  N   UNL     1     -13.672  12.491  72.260  1.00  0.00    -0.501 NA 
HETATM    5  H   UNL     1     -14.619  12.243  71.973  1.00  0.00     0.000 HD 
BRANCH   4   6
HETATM    6  C   UNL     1     -12.708  11.431  71.901  1.00  0.00    -0.160 C  
HETATM    7  C   UNL     1     -13.312  10.010  72.063  1.00  0.00    -0.513 C  
HETATM    8  C   UNL     1     -12.245   8.925  71.856  1.00  0.00    -0.445 C  
HETATM    9  C   UNL     1     -11.455   9.188  70.626  1.00  0.00    -0.262 A  
HETATM   10  C   UNL     1     -11.425  10.416  70.002  1.00  0.00    -0.308 A  
HETATM   11  S   UNL     1     -10.420  10.339  68.630  1.00  0.00    -0.206 SA 
HETATM   12  C   UNL     1     -12.199  11.622  70.435  1.00  0.00    -0.434 C  
HETATM   13  C   UNL     1     -10.107   8.677  68.974  1.00  0.00    -0.199 A  
HETATM   14  N   UNL     1      -9.305   7.933  68.196  1.00  0.00    -0.142 NA 
HETATM   15  N   UNL     1     -10.686   8.205  70.050  1.00  0.00    -0.243 NA 
HETATM   16  H1  UNL     1      -9.121   6.951  68.400  1.00  0.00     0.000 HD 
HETATM   17  H2  UNL     1      -8.870   8.361  67.380  1.00  0.00     0.000 HD 
ENDBRANCH   4   6
ENDBRANCH   3   4
ENDBRANCH   2   3
TORSDOF 3
ENDMDL
MODEL       59
REMARK 921   NORMALIZED FREE ENERGY PREDICTED BY IDOCK:   -4.20 KCAL/MOL
REMARK 922        TOTAL FREE ENERGY PREDICTED BY IDOCK:   -5.18 KCAL/MOL
REMARK 923 INTER-LIGAND FREE ENERGY PREDICTED BY IDOCK:   -4.96 KCAL/MOL
REMARK 924 INTRA-LIGAND FREE ENERGY PREDICTED BY IDOCK:   -0.21 KCAL/MOL
REMARK 927      BINDING AFFINITY PREDICTED BY RF-SCORE:    0.00 PKD
ROOT
HETATM    1  C   UNL     1     -11.042   6.205  68.971  1.00  0.00    -0.437 C  
HETATM    2  C   UNL     1     -11.324   6.324  70.463  1.00  0.00    -0.428 C  
ENDROOT
BRANCH   2   3
HETATM    3  C   UNL     1     -11.436   7.791  70.875  1.00  0.00    -0.279 C  
BRANCH   3   4
HETATM    4  N   UNL     1     -11.347   8.679  69.710  1.00  0.00    -0.446 NA 
HETATM    5  H   UNL     1     -11.713   8.226  68.872  1.00  0.00     0.000 HD 
BRANCH   4   6
HETATM    6  C   UNL     1     -12.009   9.978  69.949  1.00  0.00    -0.016 C  
HETATM    7  C   UNL     1     -12.060  10.341  71.458  1.00  0.00    -0.407 C  
HETATM    8  C   UNL     1     -12.902  11.601  71.698  1.00  0.00    -0.454 C  
HETATM    9  C   UNL     1     -12.517  12.683  70.756  1.00  0.00    -0.270 A  
HETATM   10  C   UNL     1     -11.803  12.452  69.600  1.00  0.00    -0.311 A  
HETATM   11  S   UNL     1     -11.548  13.921  68.779  1.00  0.00    -0.360 SA 
HETATM   12  C   UNL     1     -11.287  11.118  69.159  1.00  0.00    -0.340 C  
HETATM   13  C   UNL     1     -12.405  14.748  70.028  1.00  0.00    -0.316 A  
HETATM   14  N   UNL     1     -12.587  16.078  69.999  1.00  0.00    -0.558 NA 
HETATM   15  N   UNL     1     -12.877  13.990  70.986  1.00  0.00    -0.341 NA 
HETATM   16  H1  UNL     1     -13.094  16.566  70.738  1.00  0.00     0.000 HD 
HETATM   17  H2  UNL     1     -12.210  16.614  69.218  1.00  0.00     0.000 HD 
ENDBRANCH   4   6
ENDBRANCH   3   4
ENDBRANCH   2   3
TORSDOF 3
ENDMDL
MODEL       60
REMARK 921   NORMALIZED FREE ENERGY PREDICTED BY IDOCK:   -4.20 KCAL/MOL
REMARK 922        TOTAL FREE ENERGY PREDICTED BY IDOCK:   -5.17 KCAL/MOL
REMARK 923 INTER-LIGAND FREE ENERGY PREDICTED BY IDOCK:   -5.02 KCAL/MOL
REMARK 924 INTRA-LIGAND FREE ENERGY PREDICTED BY IDOCK:   -0.15 KCAL/MOL
REMARK 927      BINDING AFFINITY PREDICTED BY RF-SCORE:    0.00 PKD
ROOT
HETATM    1  C   UNL     1     -10.827  11.939  65.668  1.00  0.00    -0.333 C  
HETATM    2  C   UNL     1     -12.134  12.705  65.823  1.00  0.00    -0.484 C  
ENDROOT
BRANCH   2   3
HETATM    3  C   UNL     1     -11.886  14.212  65.771  1.00  0.00    -0.380 C  
BRANCH   3   4
HETATM    4  N   UNL     1     -10.605  14.562  66.397  1.00  0.00    -0.296 NA 
HETATM    5  H   UNL     1      -9.821  14.150  65.891  1.00  0.00     0.000 HD 
BRANCH   4   6
HETATM    6  C   UNL     1     -10.439  16.022  66.545  1.00  0.00    -0.302 C  
HETATM    7  C   UNL     1     -10.760  16.506  67.985  1.00  0.00    -0.343 C  
HETATM    8  C   UNL     1     -10.753  18.039  68.071  1.00  0.00    -0.301 C  
HETATM    9  C   UNL     1      -9.539  18.600  67.424  1.00  0.00    -0.296 A  
HETATM   10  C   UNL     1      -8.758  17.882  66.544  1.00  0.00    -0.256 A  
HETATM   11  S   UNL     1      -7.460  18.845  66.009  1.00  0.00    -0.207 SA 
HETATM   12  C   UNL     1      -8.987  16.454  66.156  1.00  0.00    -0.367 C  
HETATM   13  C   UNL     1      -8.039  20.140  66.993  1.00  0.00    -0.326 A  
HETATM   14  N   UNL     1      -7.408  21.324  67.047  1.00  0.00    -0.795 NA 
HETATM   15  N   UNL     1      -9.138  19.894  67.661  1.00  0.00    -0.332 NA 
HETATM   16  H1  UNL     1      -7.750  22.088  67.628  1.00  0.00     0.000 HD 
HETATM   17  H2  UNL     1      -6.564  21.461  66.491  1.00  0.00     0.000 HD 
ENDBRANCH   4   6
ENDBRANCH   3   4
ENDBRANCH   2   3
TORSDOF 3
ENDMDL
MODEL       61
REMARK 921   NORMALIZED FREE ENERGY PREDICTED BY IDOCK:   -4.20 KCAL/MOL
REMARK 922        TOTAL FREE ENERGY PREDICTED BY IDOCK:   -5.17 KCAL/MOL
REMARK 923 INTER-LIGAND FREE ENERGY PREDICTED BY IDOCK:   -5.02 KCAL/MOL
REMARK 924 INTRA-LIGAND FREE ENERGY PREDICTED BY IDOCK:   -0.15 KCAL/MOL
REMARK 927      BINDING AFFINITY PREDICTED BY RF-SCORE:    0.00 PKD
ROOT
HETATM    1  C   UNL     1     -11.333   7.913  72.604  1.00  0.00    -0.468 C  
HETATM    2  C   UNL     1     -12.254   8.965  72.001  1.00  0.00    -0.447 C  
ENDROOT
BRANCH   2   3
HETATM    3  C   UNL     1     -11.561   9.693  70.850  1.00  0.00    -0.344 C  
BRANCH   3   4
HETATM    4  N   UNL     1     -11.322   8.790  69.717  1.00  0.00    -0.444 NA 
HETATM    5  H   UNL     1     -12.180   8.316  69.435  1.00  0.00     0.000 HD 
BRANCH   4   6
HETATM    6  C   UNL     1     -10.695   9.486  68.575  1.00  0.00    -0.182 C  
HETATM    7  C   UNL     1     -10.535   8.559  67.340  1.00  0.00    -0.351 C  
HETATM    8  C   UNL     1      -9.726   9.246  66.230  1.00  0.00    -0.340 C  
HETATM    9  C   UNL     1     -10.228  10.622  65.983  1.00  0.00    -0.247 A  
HETATM   10  C   UNL     1     -11.024  11.303  66.879  1.00  0.00    -0.290 A  
HETATM   11  S   UNL     1     -11.402  12.842  66.257  1.00  0.00    -0.339 SA 
HETATM   12  C   UNL     1     -11.522  10.753  68.179  1.00  0.00    -0.346 C  
HETATM   13  C   UNL     1     -10.479  12.478  64.845  1.00  0.00    -0.303 A  
HETATM   14  N   UNL     1     -10.352  13.359  63.839  1.00  0.00    -0.668 NA 
HETATM   15  N   UNL     1      -9.902  11.303  64.834  1.00  0.00    -0.250 NA 
HETATM   16  H1  UNL     1      -9.806  13.144  63.004  1.00  0.00     0.000 HD 
HETATM   17  H2  UNL     1     -10.812  14.265  63.911  1.00  0.00     0.000 HD 
ENDBRANCH   4   6
ENDBRANCH   3   4
ENDBRANCH   2   3
TORSDOF 3
ENDMDL
MODEL       62
REMARK 921   NORMALIZED FREE ENERGY PREDICTED BY IDOCK:   -4.19 KCAL/MOL
REMARK 922        TOTAL FREE ENERGY PREDICTED BY IDOCK:   -5.16 KCAL/MOL
REMARK 923 INTER-LIGAND FREE ENERGY PREDICTED BY IDOCK:   -4.97 KCAL/MOL
REMARK 924 INTRA-LIGAND FREE ENERGY PREDICTED BY IDOCK:   -0.19 KCAL/MOL
REMARK 927      BINDING AFFINITY PREDICTED BY RF-SCORE:    0.00 PKD
ROOT
HETATM    1  C   UNL     1     -10.611  19.519  67.700  1.00  0.00    -0.566 C  
HETATM    2  C   UNL     1      -9.631  18.452  67.229  1.00  0.00    -0.292 C  
ENDROOT
BRANCH   2   3
HETATM    3  C   UNL     1     -10.113  17.060  67.640  1.00  0.00    -0.298 C  
BRANCH   3   4
HETATM    4  N   UNL     1      -9.016  16.085  67.599  1.00  0.00    -0.189 NA 
HETATM    5  H   UNL     1      -8.797  15.736  68.532  1.00  0.00     0.000 HD 
BRANCH   4   6
HETATM    6  C   UNL     1      -9.293  14.976  66.663  1.00  0.00    -0.266 C  
HETATM    7  C   UNL     1      -9.364  13.604  67.385  1.00  0.00    -0.227 C  
HETATM    8  C   UNL     1      -9.476  12.451  66.378  1.00  0.00    -0.240 C  
HETATM    9  C   UNL     1     -10.521  12.735  65.362  1.00  0.00    -0.286 A  
HETATM   10  C   UNL     1     -11.021  13.999  65.132  1.00  0.00    -0.353 A  
HETATM   11  S   UNL     1     -12.197  13.938  63.903  1.00  0.00    -0.198 SA 
HETATM   12  C   UNL     1     -10.625  15.231  65.885  1.00  0.00    -0.345 C  
HETATM   13  C   UNL     1     -11.951  12.235  63.777  1.00  0.00    -0.519 A  
HETATM   14  N   UNL     1     -12.640  11.484  62.902  1.00  0.00    -0.874 NA 
HETATM   15  N   UNL     1     -11.039  11.735  64.572  1.00  0.00    -0.319 NA 
HETATM   16  H1  UNL     1     -12.494  10.478  62.827  1.00  0.00     0.000 HD 
HETATM   17  H2  UNL     1     -13.327  11.933  62.296  1.00  0.00     0.000 HD 
ENDBRANCH   4   6
ENDBRANCH   3   4
ENDBRANCH   2   3
TORSDOF 3
ENDMDL
MODEL       63
REMARK 921   NORMALIZED FREE ENERGY PREDICTED BY IDOCK:   -4.18 KCAL/MOL
REMARK 922        TOTAL FREE ENERGY PREDICTED BY IDOCK:   -5.15 KCAL/MOL
REMARK 923 INTER-LIGAND FREE ENERGY PREDICTED BY IDOCK:   -4.96 KCAL/MOL
REMARK 924 INTRA-LIGAND FREE ENERGY PREDICTED BY IDOCK:   -0.19 KCAL/MOL
REMARK 927      BINDING AFFINITY PREDICTED BY RF-SCORE:    0.00 PKD
ROOT
HETATM    1  C   UNL     1     -13.588  14.519  72.640  1.00  0.00    -0.577 C  
HETATM    2  C   UNL     1     -12.505  15.389  72.015  1.00  0.00    -0.450 C  
ENDROOT
BRANCH   2   3
HETATM    3  C   UNL     1     -12.426  15.151  70.507  1.00  0.00    -0.379 C  
BRANCH   3   4
HETATM    4  N   UNL     1     -11.111  14.626  70.120  1.00  0.00    -0.436 NA 
HETATM    5  H   UNL     1     -11.200  13.871  69.441  1.00  0.00     0.000 HD 
BRANCH   4   6
HETATM    6  C   UNL     1     -10.213  15.690  69.624  1.00  0.00    -0.291 C  
HETATM    7  C   UNL     1      -9.052  15.122  68.763  1.00  0.00    -0.200 C  
HETATM    8  C   UNL     1      -8.037  16.218  68.407  1.00  0.00    -0.183 C  
HETATM    9  C   UNL     1      -8.725  17.432  67.899  1.00  0.00    -0.237 A  
HETATM   10  C   UNL     1     -10.068  17.672  68.097  1.00  0.00    -0.347 A  
HETATM   11  S   UNL     1     -10.500  19.152  67.375  1.00  0.00    -0.480 SA 
HETATM   12  C   UNL     1     -11.014  16.747  68.796  1.00  0.00    -0.275 C  
HETATM   13  C   UNL     1      -8.867  19.354  66.854  1.00  0.00    -0.306 A  
HETATM   14  N   UNL     1      -8.478  20.430  66.151  1.00  0.00    -0.558 NA 
HETATM   15  N   UNL     1      -8.039  18.404  67.209  1.00  0.00    -0.237 NA 
HETATM   16  H1  UNL     1      -7.513  20.549  65.844  1.00  0.00     0.000 HD 
HETATM   17  H2  UNL     1      -9.165  21.146  65.918  1.00  0.00     0.000 HD 
ENDBRANCH   4   6
ENDBRANCH   3   4
ENDBRANCH   2   3
TORSDOF 3
ENDMDL
MODEL       64
REMARK 921   NORMALIZED FREE ENERGY PREDICTED BY IDOCK:   -4.15 KCAL/MOL
REMARK 922        TOTAL FREE ENERGY PREDICTED BY IDOCK:   -5.11 KCAL/MOL
REMARK 923 INTER-LIGAND FREE ENERGY PREDICTED BY IDOCK:   -4.87 KCAL/MOL
REMARK 924 INTRA-LIGAND FREE ENERGY PREDICTED BY IDOCK:   -0.25 KCAL/MOL
REMARK 927      BINDING AFFINITY PREDICTED BY RF-SCORE:    0.00 PKD
ROOT
HETATM    1  C   UNL     1     -13.782  15.384  71.991  1.00  0.00    -0.613 C  
HETATM    2  C   UNL     1     -12.311  15.763  71.874  1.00  0.00    -0.533 C  
ENDROOT
BRANCH   2   3
HETATM    3  C   UNL     1     -11.641  14.977  70.747  1.00  0.00    -0.317 C  
BRANCH   3   4
HETATM    4  N   UNL     1     -12.019  13.559  70.789  1.00  0.00    -0.516 NA 
HETATM    5  H   UNL     1     -12.920  13.431  71.251  1.00  0.00     0.000 HD 
BRANCH   4   6
HETATM    6  C   UNL     1     -12.012  12.942  69.447  1.00  0.00    -0.269 C  
HETATM    7  C   UNL     1     -11.909  14.001  68.316  1.00  0.00    -0.406 C  
HETATM    8  C   UNL     1     -12.080  13.355  66.933  1.00  0.00    -0.406 C  
HETATM    9  C   UNL     1     -11.229  12.144  66.805  1.00  0.00    -0.322 A  
HETATM   10  C   UNL     1     -10.688  11.489  67.891  1.00  0.00    -0.200 A  
HETATM   11  S   UNL     1      -9.776  10.154  67.360  1.00  0.00    -0.165 SA 
HETATM   12  C   UNL     1     -10.837  11.918  69.317  1.00  0.00    -0.157 C  
HETATM   13  C   UNL     1     -10.171  10.554  65.729  1.00  0.00    -0.243 A  
HETATM   14  N   UNL     1      -9.722   9.827  64.694  1.00  0.00    -0.427 NA 
HETATM   15  N   UNL     1     -10.951  11.596  65.576  1.00  0.00    -0.291 NA 
HETATM   16  H1  UNL     1      -9.956  10.064  63.730  1.00  0.00     0.000 HD 
HETATM   17  H2  UNL     1      -9.131   9.016  64.876  1.00  0.00     0.000 HD 
ENDBRANCH   4   6
ENDBRANCH   3   4
ENDBRANCH   2   3
TORSDOF 3
ENDMDL
MODEL       65
REMARK 921   NORMALIZED FREE ENERGY PREDICTED BY IDOCK:   -4.11 KCAL/MOL
REMARK 922        TOTAL FREE ENERGY PREDICTED BY IDOCK:   -5.07 KCAL/MOL
REMARK 923 INTER-LIGAND FREE ENERGY PREDICTED BY IDOCK:   -4.79 KCAL/MOL
REMARK 924 INTRA-LIGAND FREE ENERGY PREDICTED BY IDOCK:   -0.28 KCAL/MOL
REMARK 927      BINDING AFFINITY PREDICTED BY RF-SCORE:    0.00 PKD
ROOT
HETATM    1  C   UNL     1     -10.226  16.563  65.503  1.00  0.00    -0.261 C  
HETATM    2  C   UNL     1     -11.009  15.347  65.025  1.00  0.00    -0.450 C  
ENDROOT
BRANCH   2   3
HETATM    3  C   UNL     1     -11.232  14.364  66.174  1.00  0.00    -0.336 C  
BRANCH   3   4
HETATM    4  N   UNL     1     -10.253  14.570  67.248  1.00  0.00    -0.254 NA 
HETATM    5  H   UNL     1      -9.946  15.542  67.286  1.00  0.00     0.000 HD 
BRANCH   4   6
HETATM    6  C   UNL     1     -10.763  14.118  68.558  1.00  0.00    -0.254 C  
HETATM    7  C   UNL     1     -12.026  14.906  69.000  1.00  0.00    -0.307 C  
HETATM    8  C   UNL     1     -12.433  14.544  70.435  1.00  0.00    -0.407 C  
HETATM    9  C   UNL     1     -12.455  13.071  70.624  1.00  0.00    -0.268 A  
HETATM   10  C   UNL     1     -11.824  12.195  69.767  1.00  0.00    -0.327 A  
HETATM   11  S   UNL     1     -12.066  10.596  70.299  1.00  0.00    -0.354 SA 
HETATM   12  C   UNL     1     -11.082  12.587  68.528  1.00  0.00    -0.297 C  
HETATM   13  C   UNL     1     -12.993  11.196  71.625  1.00  0.00    -0.443 A  
HETATM   14  N   UNL     1     -13.543  10.373  72.532  1.00  0.00    -0.457 NA 
HETATM   15  N   UNL     1     -13.102  12.499  71.694  1.00  0.00    -0.376 NA 
HETATM   16  H1  UNL     1     -14.091  10.728  73.316  1.00  0.00     0.000 HD 
HETATM   17  H2  UNL     1     -13.410   9.367  72.435  1.00  0.00     0.000 HD 
ENDBRANCH   4   6
ENDBRANCH   3   4
ENDBRANCH   2   3
TORSDOF 3
ENDMDL
MODEL       66
REMARK 921   NORMALIZED FREE ENERGY PREDICTED BY IDOCK:   -4.08 KCAL/MOL
REMARK 922        TOTAL FREE ENERGY PREDICTED BY IDOCK:   -5.03 KCAL/MOL
REMARK 923 INTER-LIGAND FREE ENERGY PREDICTED BY IDOCK:   -4.79 KCAL/MOL
REMARK 924 INTRA-LIGAND FREE ENERGY PREDICTED BY IDOCK:   -0.25 KCAL/MOL
REMARK 927      BINDING AFFINITY PREDICTED BY RF-SCORE:    0.00 PKD
ROOT
HETATM    1  C   UNL     1     -10.374   9.235  66.620  1.00  0.00    -0.292 C  
HETATM    2  C   UNL     1     -10.585   9.662  68.066  1.00  0.00    -0.292 C  
ENDROOT
BRANCH   2   3
HETATM    3  C   UNL     1     -11.527  10.864  68.142  1.00  0.00    -0.295 C  
BRANCH   3   4
HETATM    4  N   UNL     1     -11.642  11.531  66.840  1.00  0.00    -0.514 NA 
HETATM    5  H   UNL     1     -12.610  11.551  66.519  1.00  0.00     0.000 HD 
BRANCH   4   6
HETATM    6  C   UNL     1     -11.056  12.888  66.857  1.00  0.00    -0.278 C  
HETATM    7  C   UNL     1     -11.595  13.774  65.701  1.00  0.00    -0.339 C  
HETATM    8  C   UNL     1     -10.847  15.112  65.632  1.00  0.00    -0.367 C  
HETATM    9  C   UNL     1     -10.754  15.737  66.976  1.00  0.00    -0.306 A  
HETATM   10  C   UNL     1     -10.954  15.035  68.146  1.00  0.00    -0.279 A  
HETATM   11  S   UNL     1     -10.769  16.076  69.480  1.00  0.00    -0.325 SA 
HETATM   12  C   UNL     1     -11.329  13.588  68.228  1.00  0.00    -0.328 C  
HETATM   13  C   UNL     1     -10.439  17.378  68.396  1.00  0.00    -0.384 A  
HETATM   14  N   UNL     1     -10.181  18.619  68.839  1.00  0.00    -0.475 NA 
HETATM   15  N   UNL     1     -10.439  17.068  67.124  1.00  0.00    -0.313 NA 
HETATM   16  H1  UNL     1      -9.986  19.388  68.199  1.00  0.00     0.000 HD 
HETATM   17  H2  UNL     1     -10.179  18.796  69.843  1.00  0.00     0.000 HD 
ENDBRANCH   4   6
ENDBRANCH   3   4
ENDBRANCH   2   3
TORSDOF 3
ENDMDL
MODEL       67
REMARK 921   NORMALIZED FREE ENERGY PREDICTED BY IDOCK:   -4.07 KCAL/MOL
REMARK 922        TOTAL FREE ENERGY PREDICTED BY IDOCK:   -5.03 KCAL/MOL
REMARK 923 INTER-LIGAND FREE ENERGY PREDICTED BY IDOCK:   -4.61 KCAL/MOL
REMARK 924 INTRA-LIGAND FREE ENERGY PREDICTED BY IDOCK:   -0.41 KCAL/MOL
REMARK 927      BINDING AFFINITY PREDICTED BY RF-SCORE:    0.00 PKD
ROOT
HETATM    1  C   UNL     1     -12.067  13.932  64.318  1.00  0.00    -0.477 C  
HETATM    2  C   UNL     1     -12.528  13.156  65.544  1.00  0.00    -0.516 C  
ENDROOT
BRANCH   2   3
HETATM    3  C   UNL     1     -12.238  13.944  66.821  1.00  0.00    -0.399 C  
BRANCH   3   4
HETATM    4  N   UNL     1     -10.919  13.604  67.368  1.00  0.00    -0.272 NA 
HETATM    5  H   UNL     1     -10.487  12.843  66.844  1.00  0.00     0.000 HD 
BRANCH   4   6
HETATM    6  C   UNL     1     -10.027  14.779  67.440  1.00  0.00    -0.223 C  
HETATM    7  C   UNL     1      -8.994  14.803  66.281  1.00  0.00    -0.153 C  
HETATM    8  C   UNL     1      -7.970  15.930  66.473  1.00  0.00    -0.231 C  
HETATM    9  C   UNL     1      -8.647  17.211  66.801  1.00  0.00    -0.243 A  
HETATM   10  C   UNL     1      -9.948  17.278  67.252  1.00  0.00    -0.283 A  
HETATM   11  S   UNL     1     -10.380  18.902  67.520  1.00  0.00    -0.450 SA 
HETATM   12  C   UNL     1     -10.859  16.104  67.430  1.00  0.00    -0.265 C  
HETATM   13  C   UNL     1      -8.803  19.387  67.012  1.00  0.00    -0.300 A  
HETATM   14  N   UNL     1      -8.438  20.679  66.978  1.00  0.00    -0.551 NA 
HETATM   15  N   UNL     1      -7.991  18.414  66.686  1.00  0.00    -0.249 NA 
HETATM   16  H1  UNL     1      -7.507  20.965  66.678  1.00  0.00     0.000 HD 
HETATM   17  H2  UNL     1      -9.110  21.392  67.259  1.00  0.00     0.000 HD 
ENDBRANCH   4   6
ENDBRANCH   3   4
ENDBRANCH   2   3
TORSDOF 3
ENDMDL
MODEL       68
REMARK 921   NORMALIZED FREE ENERGY PREDICTED BY IDOCK:   -4.07 KCAL/MOL
REMARK 922        TOTAL FREE ENERGY PREDICTED BY IDOCK:   -5.02 KCAL/MOL
REMARK 923 INTER-LIGAND FREE ENERGY PREDICTED BY IDOCK:   -4.77 KCAL/MOL
REMARK 924 INTRA-LIGAND FREE ENERGY PREDICTED BY IDOCK:   -0.25 KCAL/MOL
REMARK 927      BINDING AFFINITY PREDICTED BY RF-SCORE:    0.00 PKD
ROOT
HETATM    1  C   UNL     1     -12.684  14.744  71.448  1.00  0.00    -0.401 C  
HETATM    2  C   UNL     1     -11.858  14.910  70.180  1.00  0.00    -0.357 C  
ENDROOT
BRANCH   2   3
HETATM    3  C   UNL     1     -12.093  13.738  69.227  1.00  0.00    -0.329 C  
BRANCH   3   4
HETATM    4  N   UNL     1     -10.910  12.872  69.149  1.00  0.00    -0.430 NA 
HETATM    5  H   UNL     1     -10.198  13.158  69.820  1.00  0.00     0.000 HD 
BRANCH   4   6
HETATM    6  C   UNL     1     -11.256  11.444  69.310  1.00  0.00    -0.277 C  
HETATM    7  C   UNL     1     -10.006  10.527  69.237  1.00  0.00    -0.233 C  
HETATM    8  C   UNL     1     -10.404   9.044  69.230  1.00  0.00    -0.227 C  
HETATM    9  C   UNL     1     -11.392   8.756  70.301  1.00  0.00    -0.147 A  
HETATM   10  C   UNL     1     -12.126   9.740  70.929  1.00  0.00    -0.321 A  
HETATM   11  S   UNL     1     -13.148   9.038  72.096  1.00  0.00    -0.458 SA 
HETATM   12  C   UNL     1     -12.004  11.208  70.663  1.00  0.00    -0.459 C  
HETATM   13  C   UNL     1     -12.532   7.482  71.673  1.00  0.00    -0.342 A  
HETATM   14  N   UNL     1     -12.960   6.364  72.281  1.00  0.00    -0.498 NA 
HETATM   15  N   UNL     1     -11.643   7.468  70.712  1.00  0.00    -0.289 NA 
HETATM   16  H1  UNL     1     -12.596   5.444  72.032  1.00  0.00     0.000 HD 
HETATM   17  H2  UNL     1     -13.667   6.436  73.012  1.00  0.00     0.000 HD 
ENDBRANCH   4   6
ENDBRANCH   3   4
ENDBRANCH   2   3
TORSDOF 3
ENDMDL
MODEL       69
REMARK 921   NORMALIZED FREE ENERGY PREDICTED BY IDOCK:   -4.05 KCAL/MOL
REMARK 922        TOTAL FREE ENERGY PREDICTED BY IDOCK:   -4.99 KCAL/MOL
REMARK 923 INTER-LIGAND FREE ENERGY PREDICTED BY IDOCK:   -4.78 KCAL/MOL
REMARK 924 INTRA-LIGAND FREE ENERGY PREDICTED BY IDOCK:   -0.22 KCAL/MOL
REMARK 927      BINDING AFFINITY PREDICTED BY RF-SCORE:    0.00 PKD
ROOT
HETATM    1  C   UNL     1     -12.550  13.626  65.548  1.00  0.00    -0.541 C  
HETATM    2  C   UNL     1     -12.073  14.555  64.440  1.00  0.00    -0.492 C  
ENDROOT
BRANCH   2   3
HETATM    3  C   UNL     1     -10.876  15.383  64.908  1.00  0.00    -0.425 C  
BRANCH   3   4
HETATM    4  N   UNL     1     -11.158  16.821  64.820  1.00  0.00    -0.788 NA 
HETATM    5  H   UNL     1     -12.120  17.026  65.092  1.00  0.00     0.000 HD 
BRANCH   4   6
HETATM    6  C   UNL     1     -10.198  17.624  65.605  1.00  0.00    -0.045 C  
HETATM    7  C   UNL     1     -10.909  18.604  66.577  1.00  0.00    -0.143 C  
HETATM    8  C   UNL     1      -9.902  19.548  67.250  1.00  0.00    -0.468 C  
HETATM    9  C   UNL     1      -8.741  18.790  67.784  1.00  0.00    -0.287 A  
HETATM   10  C   UNL     1      -8.434  17.508  67.383  1.00  0.00    -0.216 A  
HETATM   11  S   UNL     1      -7.045  16.966  68.205  1.00  0.00    -0.187 SA 
HETATM   12  C   UNL     1      -9.230  16.696  66.409  1.00  0.00    -0.318 C  
HETATM   13  C   UNL     1      -6.966  18.479  69.031  1.00  0.00    -0.267 A  
HETATM   14  N   UNL     1      -6.003  18.744  69.929  1.00  0.00    -0.244 NA 
HETATM   15  N   UNL     1      -7.890  19.349  68.707  1.00  0.00    -0.357 NA 
HETATM   16  H1  UNL     1      -5.956  19.638  70.417  1.00  0.00     0.000 HD 
HETATM   17  H2  UNL     1      -5.300  18.033  70.127  1.00  0.00     0.000 HD 
ENDBRANCH   4   6
ENDBRANCH   3   4
ENDBRANCH   2   3
TORSDOF 3
ENDMDL
MODEL       70
REMARK 921   NORMALIZED FREE ENERGY PREDICTED BY IDOCK:   -4.03 KCAL/MOL
REMARK 922        TOTAL FREE ENERGY PREDICTED BY IDOCK:   -4.97 KCAL/MOL
REMARK 923 INTER-LIGAND FREE ENERGY PREDICTED BY IDOCK:   -4.74 KCAL/MOL
REMARK 924 INTRA-LIGAND FREE ENERGY PREDICTED BY IDOCK:   -0.23 KCAL/MOL
REMARK 927      BINDING AFFINITY PREDICTED BY RF-SCORE:    0.00 PKD
ROOT
HETATM    1  C   UNL     1      -7.468   8.239  68.456  1.00  0.00    -0.095 C  
HETATM    2  C   UNL     1      -7.947   8.929  69.726  1.00  0.00    -0.100 C  
ENDROOT
BRANCH   2   3
HETATM    3  C   UNL     1      -8.810  10.144  69.387  1.00  0.00    -0.185 C  
BRANCH   3   4
HETATM    4  N   UNL     1      -9.967   9.762  68.567  1.00  0.00    -0.156 NA 
HETATM    5  H   UNL     1     -10.834   9.823  69.101  1.00  0.00     0.000 HD 
BRANCH   4   6
HETATM    6  C   UNL     1     -10.048  10.551  67.320  1.00  0.00    -0.201 C  
HETATM    7  C   UNL     1     -10.139   9.647  66.061  1.00  0.00    -0.318 C  
HETATM    8  C   UNL     1     -10.045  10.478  64.773  1.00  0.00    -0.406 C  
HETATM    9  C   UNL     1     -10.955  11.650  64.831  1.00  0.00    -0.284 A  
HETATM   10  C   UNL     1     -11.489  12.127  66.009  1.00  0.00    -0.370 A  
HETATM   11  S   UNL     1     -12.481  13.473  65.686  1.00  0.00    -0.464 SA 
HETATM   12  C   UNL     1     -11.273  11.522  67.361  1.00  0.00    -0.367 C  
HETATM   13  C   UNL     1     -12.121  13.313  64.006  1.00  0.00    -0.447 A  
HETATM   14  N   UNL     1     -12.639  14.147  63.090  1.00  0.00    -0.911 NA 
HETATM   15  N   UNL     1     -11.300  12.342  63.694  1.00  0.00    -0.437 NA 
HETATM   16  H1  UNL     1     -12.426  14.052  62.097  1.00  0.00     0.000 HD 
HETATM   17  H2  UNL     1     -13.261  14.895  63.395  1.00  0.00     0.000 HD 
ENDBRANCH   4   6
ENDBRANCH   3   4
ENDBRANCH   2   3
TORSDOF 3
ENDMDL
MODEL       71
REMARK 921   NORMALIZED FREE ENERGY PREDICTED BY IDOCK:   -4.01 KCAL/MOL
REMARK 922        TOTAL FREE ENERGY PREDICTED BY IDOCK:   -4.95 KCAL/MOL
REMARK 923 INTER-LIGAND FREE ENERGY PREDICTED BY IDOCK:   -4.78 KCAL/MOL
REMARK 924 INTRA-LIGAND FREE ENERGY PREDICTED BY IDOCK:   -0.17 KCAL/MOL
REMARK 927      BINDING AFFINITY PREDICTED BY RF-SCORE:    0.00 PKD
ROOT
HETATM    1  C   UNL     1      -8.094   7.191  68.834  1.00  0.00    -0.121 C  
HETATM    2  C   UNL     1      -9.127   6.486  67.964  1.00  0.00    -0.114 C  
ENDROOT
BRANCH   2   3
HETATM    3  C   UNL     1     -10.063   7.500  67.309  1.00  0.00    -0.231 C  
BRANCH   3   4
HETATM    4  N   UNL     1      -9.441   8.828  67.236  1.00  0.00    -0.153 NA 
HETATM    5  H   UNL     1      -8.615   8.817  66.638  1.00  0.00     0.000 HD 
BRANCH   4   6
HETATM    6  C   UNL     1     -10.400   9.867  66.806  1.00  0.00    -0.217 C  
HETATM    7  C   UNL     1     -10.456  11.059  67.799  1.00  0.00    -0.232 C  
HETATM    8  C   UNL     1     -11.579  12.039  67.429  1.00  0.00    -0.388 C  
HETATM    9  C   UNL     1     -11.539  12.367  65.981  1.00  0.00    -0.401 A  
HETATM   10  C   UNL     1     -10.857  11.604  65.057  1.00  0.00    -0.288 A  
HETATM   11  S   UNL     1     -11.035  12.284  63.507  1.00  0.00    -0.427 SA 
HETATM   12  C   UNL     1     -10.041  10.391  65.377  1.00  0.00    -0.354 C  
HETATM   13  C   UNL     1     -12.003  13.540  64.188  1.00  0.00    -0.448 A  
HETATM   14  N   UNL     1     -12.522  14.521  63.432  1.00  0.00    -0.982 NA 
HETATM   15  N   UNL     1     -12.209  13.458  65.479  1.00  0.00    -0.427 NA 
HETATM   16  H1  UNL     1     -13.094  15.263  63.835  1.00  0.00     0.000 HD 
HETATM   17  H2  UNL     1     -12.340  14.523  62.429  1.00  0.00     0.000 HD 
ENDBRANCH   4   6
ENDBRANCH   3   4
ENDBRANCH   2   3
TORSDOF 3
ENDMDL
MODEL       72
REMARK 921   NORMALIZED FREE ENERGY PREDICTED BY IDOCK:   -4.01 KCAL/MOL
REMARK 922        TOTAL FREE ENERGY PREDICTED BY IDOCK:   -4.95 KCAL/MOL
REMARK 923 INTER-LIGAND FREE ENERGY PREDICTED BY IDOCK:   -4.66 KCAL/MOL
REMARK 924 INTRA-LIGAND FREE ENERGY PREDICTED BY IDOCK:   -0.29 KCAL/MOL
REMARK 927      BINDING AFFINITY PREDICTED BY RF-SCORE:    0.00 PKD
ROOT
HETATM    1  C   UNL     1      -9.336  15.862  66.000  1.00  0.00    -0.385 C  
HETATM    2  C   UNL     1     -10.615  15.557  65.231  1.00  0.00    -0.446 C  
ENDROOT
BRANCH   2   3
HETATM    3  C   UNL     1     -11.506  14.603  66.026  1.00  0.00    -0.332 C  
BRANCH   3   4
HETATM    4  N   UNL     1     -11.666  13.320  65.330  1.00  0.00    -0.329 NA 
HETATM    5  H   UNL     1     -10.951  13.197  64.614  1.00  0.00     0.000 HD 
BRANCH   4   6
HETATM    6  C   UNL     1     -11.687  12.178  66.268  1.00  0.00    -0.320 C  
HETATM    7  C   UNL     1     -10.398  11.318  66.172  1.00  0.00    -0.300 C  
HETATM    8  C   UNL     1     -10.514  10.045  67.022  1.00  0.00    -0.302 C  
HETATM    9  C   UNL     1     -11.017  10.361  68.384  1.00  0.00    -0.264 A  
HETATM   10  C   UNL     1     -11.651  11.546  68.693  1.00  0.00    -0.313 A  
HETATM   11  S   UNL     1     -12.081  11.553  70.340  1.00  0.00    -0.357 SA 
HETATM   12  C   UNL     1     -11.880  12.675  67.738  1.00  0.00    -0.381 C  
HETATM   13  C   UNL     1     -11.388   9.982  70.510  1.00  0.00    -0.335 A  
HETATM   14  N   UNL     1     -11.386   9.335  71.687  1.00  0.00    -0.381 NA 
HETATM   15  N   UNL     1     -10.888   9.464  69.417  1.00  0.00    -0.218 NA 
HETATM   16  H1  UNL     1     -10.976   8.406  71.787  1.00  0.00     0.000 HD 
HETATM   17  H2  UNL     1     -11.805   9.783  72.501  1.00  0.00     0.000 HD 
ENDBRANCH   4   6
ENDBRANCH   3   4
ENDBRANCH   2   3
TORSDOF 3
ENDMDL
MODEL       73
REMARK 921   NORMALIZED FREE ENERGY PREDICTED BY IDOCK:   -3.99 KCAL/MOL
REMARK 922        TOTAL FREE ENERGY PREDICTED BY IDOCK:   -4.92 KCAL/MOL
REMARK 923 INTER-LIGAND FREE ENERGY PREDICTED BY IDOCK:   -4.72 KCAL/MOL
REMARK 924 INTRA-LIGAND FREE ENERGY PREDICTED BY IDOCK:   -0.21 KCAL/MOL
REMARK 927      BINDING AFFINITY PREDICTED BY RF-SCORE:    0.00 PKD
ROOT
HETATM    1  C   UNL     1     -10.184   8.044  72.833  1.00  0.00    -0.384 C  
HETATM    2  C   UNL     1     -10.766   8.237  71.439  1.00  0.00    -0.282 C  
ENDROOT
BRANCH   2   3
HETATM    3  C   UNL     1     -11.344   9.644  71.286  1.00  0.00    -0.388 C  
BRANCH   3   4
HETATM    4  N   UNL     1     -12.340   9.695  70.209  1.00  0.00    -0.469 NA 
HETATM    5  H   UNL     1     -13.261   9.414  70.544  1.00  0.00     0.000 HD 
BRANCH   4   6
HETATM    6  C   UNL     1     -12.388  11.021  69.559  1.00  0.00    -0.197 C  
HETATM    7  C   UNL     1     -11.913  12.156  70.507  1.00  0.00    -0.308 C  
HETATM    8  C   UNL     1     -12.137  13.537  69.876  1.00  0.00    -0.408 C  
HETATM    9  C   UNL     1     -11.634  13.569  68.479  1.00  0.00    -0.333 A  
HETATM   10  C   UNL     1     -11.379  12.429  67.747  1.00  0.00    -0.299 A  
HETATM   11  S   UNL     1     -10.817  12.854  66.197  1.00  0.00    -0.283 SA 
HETATM   12  C   UNL     1     -11.524  11.028  68.256  1.00  0.00    -0.374 C  
HETATM   13  C   UNL     1     -10.956  14.521  66.624  1.00  0.00    -0.321 A  
HETATM   14  N   UNL     1     -10.634  15.500  65.763  1.00  0.00    -0.337 NA 
HETATM   15  N   UNL     1     -11.413  14.759  67.828  1.00  0.00    -0.333 NA 
HETATM   16  H1  UNL     1     -10.716  16.484  66.015  1.00  0.00     0.000 HD 
HETATM   17  H2  UNL     1     -10.299  15.252  64.833  1.00  0.00     0.000 HD 
ENDBRANCH   4   6
ENDBRANCH   3   4
ENDBRANCH   2   3
TORSDOF 3
ENDMDL
MODEL       74
REMARK 921   NORMALIZED FREE ENERGY PREDICTED BY IDOCK:   -3.97 KCAL/MOL
REMARK 922        TOTAL FREE ENERGY PREDICTED BY IDOCK:   -4.90 KCAL/MOL
REMARK 923 INTER-LIGAND FREE ENERGY PREDICTED BY IDOCK:   -4.69 KCAL/MOL
REMARK 924 INTRA-LIGAND FREE ENERGY PREDICTED BY IDOCK:   -0.21 KCAL/MOL
REMARK 927      BINDING AFFINITY PREDICTED BY RF-SCORE:    0.00 PKD
ROOT
HETATM    1  C   UNL     1      -9.378  15.052  66.407  1.00  0.00    -0.334 C  
HETATM    2  C   UNL     1      -9.285  14.908  67.921  1.00  0.00    -0.183 C  
ENDROOT
BRANCH   2   3
HETATM    3  C   UNL     1     -10.248  13.832  68.421  1.00  0.00    -0.248 C  
BRANCH   3   4
HETATM    4  N   UNL     1      -9.874  12.507  67.912  1.00  0.00    -0.201 NA 
HETATM    5  H   UNL     1      -8.862  12.388  67.899  1.00  0.00     0.000 HD 
BRANCH   4   6
HETATM    6  C   UNL     1     -10.532  11.418  68.663  1.00  0.00    -0.201 C  
HETATM    7  C   UNL     1      -9.508  10.519  69.409  1.00  0.00    -0.158 C  
HETATM    8  C   UNL     1     -10.194   9.297  70.035  1.00  0.00    -0.244 C  
HETATM    9  C   UNL     1     -11.413   9.699  70.784  1.00  0.00    -0.328 A  
HETATM   10  C   UNL     1     -12.037  10.915  70.604  1.00  0.00    -0.371 A  
HETATM   11  S   UNL     1     -13.392  11.023  71.629  1.00  0.00    -0.128 SA 
HETATM   12  C   UNL     1     -11.565  11.998  69.684  1.00  0.00    -0.371 C  
HETATM   13  C   UNL     1     -13.039   9.445  72.232  1.00  0.00    -0.428 A  
HETATM   14  N   UNL     1     -13.799   8.861  73.172  1.00  0.00    -1.176 NA 
HETATM   15  N   UNL     1     -11.999   8.855  71.697  1.00  0.00    -0.321 NA 
HETATM   16  H1  UNL     1     -13.590   7.929  73.529  1.00  0.00     0.000 HD 
HETATM   17  H2  UNL     1     -14.607   9.364  73.540  1.00  0.00     0.000 HD 
ENDBRANCH   4   6
ENDBRANCH   3   4
ENDBRANCH   2   3
TORSDOF 3
ENDMDL
MODEL       75
REMARK 921   NORMALIZED FREE ENERGY PREDICTED BY IDOCK:   -3.95 KCAL/MOL
REMARK 922        TOTAL FREE ENERGY PREDICTED BY IDOCK:   -4.88 KCAL/MOL
REMARK 923 INTER-LIGAND FREE ENERGY PREDICTED BY IDOCK:   -4.96 KCAL/MOL
REMARK 924 INTRA-LIGAND FREE ENERGY PREDICTED BY IDOCK:    0.08 KCAL/MOL
REMARK 927      BINDING AFFINITY PREDICTED BY RF-SCORE:    0.00 PKD
ROOT
HETATM    1  C   UNL     1     -12.292  15.393  73.992  1.00  0.00    -0.792 C  
HETATM    2  C   UNL     1     -13.178  15.742  72.802  1.00  0.00    -0.609 C  
ENDROOT
BRANCH   2   3
HETATM    3  C   UNL     1     -13.257  14.567  71.828  1.00  0.00    -0.351 C  
BRANCH   3   4
HETATM    4  N   UNL     1     -13.498  15.031  70.456  1.00  0.00    -0.665 NA 
HETATM    5  H   UNL     1     -14.009  15.913  70.448  1.00  0.00     0.000 HD 
BRANCH   4   6
HETATM    6  C   UNL     1     -12.247  15.129  69.676  1.00  0.00    -0.257 C  
HETATM    7  C   UNL     1     -11.124  15.861  70.459  1.00  0.00    -0.381 C  
HETATM    8  C   UNL     1      -9.896  16.108  69.571  1.00  0.00    -0.198 C  
HETATM    9  C   UNL     1      -9.515  14.873  68.839  1.00  0.00    -0.209 A  
HETATM   10  C   UNL     1     -10.368  13.802  68.681  1.00  0.00    -0.224 A  
HETATM   11  S   UNL     1      -9.590  12.574  67.794  1.00  0.00    -0.209 SA 
HETATM   12  C   UNL     1     -11.750  13.710  69.248  1.00  0.00    -0.376 C  
HETATM   13  C   UNL     1      -8.181  13.565  67.693  1.00  0.00    -0.178 A  
HETATM   14  N   UNL     1      -7.071  13.153  67.058  1.00  0.00    -0.379 NA 
HETATM   15  N   UNL     1      -8.277  14.744  68.255  1.00  0.00    -0.135 NA 
HETATM   16  H1  UNL     1      -6.239  13.739  66.998  1.00  0.00     0.000 HD 
HETATM   17  H2  UNL     1      -7.061  12.231  66.624  1.00  0.00     0.000 HD 
ENDBRANCH   4   6
ENDBRANCH   3   4
ENDBRANCH   2   3
TORSDOF 3
ENDMDL
MODEL       76
REMARK 921   NORMALIZED FREE ENERGY PREDICTED BY IDOCK:   -3.93 KCAL/MOL
REMARK 922        TOTAL FREE ENERGY PREDICTED BY IDOCK:   -4.85 KCAL/MOL
REMARK 923 INTER-LIGAND FREE ENERGY PREDICTED BY IDOCK:   -4.52 KCAL/MOL
REMARK 924 INTRA-LIGAND FREE ENERGY PREDICTED BY IDOCK:   -0.33 KCAL/MOL
REMARK 927      BINDING AFFINITY PREDICTED BY RF-SCORE:    0.00 PKD
ROOT
HETATM    1  C   UNL     1     -11.963  12.734  63.634  1.00  0.00    -0.616 C  
HETATM    2  C   UNL     1     -10.746  11.826  63.509  1.00  0.00    -0.501 C  
ENDROOT
BRANCH   2   3
HETATM    3  C   UNL     1     -10.040  11.683  64.857  1.00  0.00    -0.260 C  
BRANCH   3   4
HETATM    4  N   UNL     1     -10.394  12.783  65.762  1.00  0.00    -0.277 NA 
HETATM    5  H   UNL     1     -11.244  13.256  65.454  1.00  0.00     0.000 HD 
BRANCH   4   6
HETATM    6  C   UNL     1     -10.509  12.333  67.164  1.00  0.00    -0.219 C  
HETATM    7  C   UNL     1     -11.832  12.807  67.825  1.00  0.00    -0.387 C  
HETATM    8  C   UNL     1     -11.852  12.481  69.325  1.00  0.00    -0.360 C  
HETATM    9  C   UNL     1     -11.442  11.074  69.567  1.00  0.00    -0.299 A  
HETATM   10  C   UNL     1     -10.771  10.317  68.631  1.00  0.00    -0.224 A  
HETATM   11  S   UNL     1     -10.472   8.763  69.258  1.00  0.00    -0.199 SA 
HETATM   12  C   UNL     1     -10.406  10.775  67.254  1.00  0.00    -0.262 C  
HETATM   13  C   UNL     1     -11.260   9.220  70.723  1.00  0.00    -0.288 A  
HETATM   14  N   UNL     1     -11.391   8.367  71.752  1.00  0.00    -0.280 NA 
HETATM   15  N   UNL     1     -11.700  10.453  70.766  1.00  0.00    -0.347 NA 
HETATM   16  H1  UNL     1     -11.857   8.638  72.617  1.00  0.00     0.000 HD 
HETATM   17  H2  UNL     1     -11.013   7.424  71.665  1.00  0.00     0.000 HD 
ENDBRANCH   4   6
ENDBRANCH   3   4
ENDBRANCH   2   3
TORSDOF 3
ENDMDL
MODEL       77
REMARK 921   NORMALIZED FREE ENERGY PREDICTED BY IDOCK:   -3.92 KCAL/MOL
REMARK 922        TOTAL FREE ENERGY PREDICTED BY IDOCK:   -4.84 KCAL/MOL
REMARK 923 INTER-LIGAND FREE ENERGY PREDICTED BY IDOCK:   -4.63 KCAL/MOL
REMARK 924 INTRA-LIGAND FREE ENERGY PREDICTED BY IDOCK:   -0.21 KCAL/MOL
REMARK 927      BINDING AFFINITY PREDICTED BY RF-SCORE:    0.00 PKD
ROOT
HETATM    1  C   UNL     1     -12.644  15.529  73.957  1.00  0.00    -0.766 C  
HETATM    2  C   UNL     1     -13.425  16.057  72.761  1.00  0.00    -0.479 C  
ENDROOT
BRANCH   2   3
HETATM    3  C   UNL     1     -13.481  15.010  71.648  1.00  0.00    -0.414 C  
BRANCH   3   4
HETATM    4  N   UNL     1     -13.177  15.607  70.342  1.00  0.00    -0.748 NA 
HETATM    5  H   UNL     1     -13.343  16.613  70.347  1.00  0.00     0.000 HD 
BRANCH   4   6
HETATM    6  C   UNL     1     -11.804  15.293  69.894  1.00  0.00    -0.335 C  
HETATM    7  C   UNL     1     -11.792  14.402  68.622  1.00  0.00    -0.366 C  
HETATM    8  C   UNL     1     -10.368  13.944  68.277  1.00  0.00    -0.249 C  
HETATM    9  C   UNL     1      -9.421  15.088  68.311  1.00  0.00    -0.196 A  
HETATM   10  C   UNL     1      -9.707  16.281  68.940  1.00  0.00    -0.248 A  
HETATM   11  S   UNL     1      -8.394  17.350  68.769  1.00  0.00    -0.172 SA 
HETATM   12  C   UNL     1     -10.998  16.605  69.624  1.00  0.00    -0.222 C  
HETATM   13  C   UNL     1      -7.550  16.142  67.871  1.00  0.00    -0.134 A  
HETATM   14  N   UNL     1      -6.319  16.358  67.380  1.00  0.00    -0.157 NA 
HETATM   15  N   UNL     1      -8.182  15.005  67.721  1.00  0.00    -0.144 NA 
HETATM   16  H1  UNL     1      -5.821  15.644  66.849  1.00  0.00     0.000 HD 
HETATM   17  H2  UNL     1      -5.871  17.259  67.542  1.00  0.00     0.000 HD 
ENDBRANCH   4   6
ENDBRANCH   3   4
ENDBRANCH   2   3
TORSDOF 3
ENDMDL
MODEL       78
REMARK 921   NORMALIZED FREE ENERGY PREDICTED BY IDOCK:   -3.90 KCAL/MOL
REMARK 922        TOTAL FREE ENERGY PREDICTED BY IDOCK:   -4.82 KCAL/MOL
REMARK 923 INTER-LIGAND FREE ENERGY PREDICTED BY IDOCK:   -4.61 KCAL/MOL
REMARK 924 INTRA-LIGAND FREE ENERGY PREDICTED BY IDOCK:   -0.21 KCAL/MOL
REMARK 927      BINDING AFFINITY PREDICTED BY RF-SCORE:    0.00 PKD
ROOT
HETATM    1  C   UNL     1      -8.753  10.553  63.651  1.00  0.00    -0.184 C  
HETATM    2  C   UNL     1     -10.199  10.701  64.106  1.00  0.00    -0.365 C  
ENDROOT
BRANCH   2   3
HETATM    3  C   UNL     1     -10.262  11.141  65.568  1.00  0.00    -0.263 C  
BRANCH   3   4
HETATM    4  N   UNL     1     -11.345  12.107  65.786  1.00  0.00    -0.344 NA 
HETATM    5  H   UNL     1     -11.792  11.963  66.692  1.00  0.00     0.000 HD 
BRANCH   4   6
HETATM    6  C   UNL     1     -10.883  13.503  65.633  1.00  0.00    -0.287 C  
HETATM    7  C   UNL     1     -11.795  14.320  64.678  1.00  0.00    -0.459 C  
HETATM    8  C   UNL     1     -11.202  15.707  64.396  1.00  0.00    -0.249 C  
HETATM    9  C   UNL     1     -10.778  16.369  65.656  1.00  0.00    -0.270 A  
HETATM   10  C   UNL     1     -10.583  15.682  66.835  1.00  0.00    -0.311 A  
HETATM   11  S   UNL     1     -10.105  16.765  68.059  1.00  0.00    -0.298 SA 
HETATM   12  C   UNL     1     -10.807  14.214  67.024  1.00  0.00    -0.295 C  
HETATM   13  C   UNL     1     -10.198  18.061  66.923  1.00  0.00    -0.362 A  
HETATM   14  N   UNL     1      -9.919  19.327  67.272  1.00  0.00    -0.343 NA 
HETATM   15  N   UNL     1     -10.537  17.722  65.705  1.00  0.00    -0.579 NA 
HETATM   16  H1  UNL     1      -9.974  20.093  66.601  1.00  0.00     0.000 HD 
HETATM   17  H2  UNL     1      -9.645  19.528  68.233  1.00  0.00     0.000 HD 
ENDBRANCH   4   6
ENDBRANCH   3   4
ENDBRANCH   2   3
TORSDOF 3
ENDMDL
MODEL       79
REMARK 921   NORMALIZED FREE ENERGY PREDICTED BY IDOCK:   -3.89 KCAL/MOL
REMARK 922        TOTAL FREE ENERGY PREDICTED BY IDOCK:   -4.81 KCAL/MOL
REMARK 923 INTER-LIGAND FREE ENERGY PREDICTED BY IDOCK:   -4.54 KCAL/MOL
REMARK 924 INTRA-LIGAND FREE ENERGY PREDICTED BY IDOCK:   -0.27 KCAL/MOL
REMARK 927      BINDING AFFINITY PREDICTED BY RF-SCORE:    0.00 PKD
ROOT
HETATM    1  C   UNL     1     -12.159  12.758  66.274  1.00  0.00    -0.400 C  
HETATM    2  C   UNL     1     -12.293  14.144  65.658  1.00  0.00    -0.473 C  
ENDROOT
BRANCH   2   3
HETATM    3  C   UNL     1     -11.074  14.471  64.796  1.00  0.00    -0.391 C  
BRANCH   3   4
HETATM    4  N   UNL     1     -10.784  15.909  64.808  1.00  0.00    -0.742 NA 
HETATM    5  H   UNL     1     -11.616  16.456  64.588  1.00  0.00     0.000 HD 
BRANCH   4   6
HETATM    6  C   UNL     1     -10.180  16.343  66.085  1.00  0.00    -0.348 C  
HETATM    7  C   UNL     1      -9.013  15.419  66.526  1.00  0.00    -0.344 C  
HETATM    8  C   UNL     1      -8.518  15.780  67.934  1.00  0.00    -0.161 C  
HETATM    9  C   UNL     1      -8.306  17.245  68.061  1.00  0.00    -0.228 A  
HETATM   10  C   UNL     1      -8.849  18.161  67.185  1.00  0.00    -0.259 A  
HETATM   11  S   UNL     1      -8.392  19.735  67.643  1.00  0.00    -0.323 SA 
HETATM   12  C   UNL     1      -9.673  17.819  65.983  1.00  0.00    -0.145 C  
HETATM   13  C   UNL     1      -7.507  19.073  68.968  1.00  0.00    -0.297 A  
HETATM   14  N   UNL     1      -6.829  19.854  69.826  1.00  0.00    -0.294 NA 
HETATM   15  N   UNL     1      -7.559  17.771  69.089  1.00  0.00    -0.130 NA 
HETATM   16  H1  UNL     1      -6.306  19.462  70.609  1.00  0.00     0.000 HD 
HETATM   17  H2  UNL     1      -6.838  20.864  69.690  1.00  0.00     0.000 HD 
ENDBRANCH   4   6
ENDBRANCH   3   4
ENDBRANCH   2   3
TORSDOF 3
ENDMDL
MODEL       80
REMARK 921   NORMALIZED FREE ENERGY PREDICTED BY IDOCK:   -3.87 KCAL/MOL
REMARK 922        TOTAL FREE ENERGY PREDICTED BY IDOCK:   -4.79 KCAL/MOL
REMARK 923 INTER-LIGAND FREE ENERGY PREDICTED BY IDOCK:   -4.65 KCAL/MOL
REMARK 924 INTRA-LIGAND FREE ENERGY PREDICTED BY IDOCK:   -0.14 KCAL/MOL
REMARK 927      BINDING AFFINITY PREDICTED BY RF-SCORE:    0.00 PKD
ROOT
HETATM    1  C   UNL     1     -10.070  20.079  67.858  1.00  0.00    -0.559 C  
HETATM    2  C   UNL     1      -9.937  19.499  66.456  1.00  0.00    -0.518 C  
ENDROOT
BRANCH   2   3
HETATM    3  C   UNL     1      -9.435  18.057  66.515  1.00  0.00    -0.301 C  
BRANCH   3   4
HETATM    4  N   UNL     1     -10.102  17.220  65.511  1.00  0.00    -0.588 NA 
HETATM    5  H   UNL     1      -9.569  17.189  64.642  1.00  0.00     0.000 HD 
BRANCH   4   6
HETATM    6  C   UNL     1     -10.381  15.860  66.017  1.00  0.00    -0.348 C  
HETATM    7  C   UNL     1     -11.112  14.982  64.966  1.00  0.00    -0.421 C  
HETATM    8  C   UNL     1     -11.548  13.639  65.570  1.00  0.00    -0.337 C  
HETATM    9  C   UNL     1     -10.431  13.008  66.319  1.00  0.00    -0.276 A  
HETATM   10  C   UNL     1      -9.318  13.707  66.736  1.00  0.00    -0.261 A  
HETATM   11  S   UNL     1      -8.257  12.660  67.558  1.00  0.00    -0.189 SA 
HETATM   12  C   UNL     1      -9.058  15.156  66.463  1.00  0.00    -0.328 C  
HETATM   13  C   UNL     1      -9.361  11.360  67.291  1.00  0.00    -0.167 A  
HETATM   14  N   UNL     1      -9.107  10.117  67.729  1.00  0.00    -0.131 NA 
HETATM   15  N   UNL     1     -10.462  11.676  66.656  1.00  0.00    -0.225 NA 
HETATM   16  H1  UNL     1      -9.759   9.349  67.571  1.00  0.00     0.000 HD 
HETATM   17  H2  UNL     1      -8.239   9.935  68.232  1.00  0.00     0.000 HD 
ENDBRANCH   4   6
ENDBRANCH   3   4
ENDBRANCH   2   3
TORSDOF 3
ENDMDL
MODEL       81
REMARK 921   NORMALIZED FREE ENERGY PREDICTED BY IDOCK:   -3.86 KCAL/MOL
REMARK 922        TOTAL FREE ENERGY PREDICTED BY IDOCK:   -4.78 KCAL/MOL
REMARK 923 INTER-LIGAND FREE ENERGY PREDICTED BY IDOCK:   -4.55 KCAL/MOL
REMARK 924 INTRA-LIGAND FREE ENERGY PREDICTED BY IDOCK:   -0.22 KCAL/MOL
REMARK 927      BINDING AFFINITY PREDICTED BY RF-SCORE:    0.00 PKD
ROOT
HETATM    1  C   UNL     1      -8.696   9.365  62.622  1.00  0.00    -0.234 C  
HETATM    2  C   UNL     1      -8.511  10.518  63.600  1.00  0.00    -0.133 C  
ENDROOT
BRANCH   2   3
HETATM    3  C   UNL     1      -9.228  10.227  64.918  1.00  0.00    -0.227 C  
BRANCH   3   4
HETATM    4  N   UNL     1     -10.564  10.834  64.942  1.00  0.00    -0.255 NA 
HETATM    5  H   UNL     1     -11.047  10.628  65.816  1.00  0.00     0.000 HD 
BRANCH   4   6
HETATM    6  C   UNL     1     -10.518  12.288  64.684  1.00  0.00    -0.303 C  
HETATM    7  C   UNL     1     -11.932  12.888  64.462  1.00  0.00    -0.452 C  
HETATM    8  C   UNL     1     -11.850  14.357  64.023  1.00  0.00    -0.222 C  
HETATM    9  C   UNL     1     -10.922  15.120  64.897  1.00  0.00    -0.419 A  
HETATM   10  C   UNL     1      -9.988  14.513  65.710  1.00  0.00    -0.334 A  
HETATM   11  S   UNL     1      -9.110  15.698  66.560  1.00  0.00    -0.329 SA 
HETATM   12  C   UNL     1      -9.809  13.034  65.861  1.00  0.00    -0.243 C  
HETATM   13  C   UNL     1     -10.043  16.923  65.781  1.00  0.00    -0.229 A  
HETATM   14  N   UNL     1      -9.844  18.227  66.029  1.00  0.00    -0.534 NA 
HETATM   15  N   UNL     1     -10.935  16.494  64.924  1.00  0.00    -0.639 NA 
HETATM   16  H1  UNL     1     -10.396  18.951  65.569  1.00  0.00     0.000 HD 
HETATM   17  H2  UNL     1      -9.123  18.501  66.696  1.00  0.00     0.000 HD 
ENDBRANCH   4   6
ENDBRANCH   3   4
ENDBRANCH   2   3
TORSDOF 3
ENDMDL
MODEL       82
REMARK 921   NORMALIZED FREE ENERGY PREDICTED BY IDOCK:   -3.83 KCAL/MOL
REMARK 922        TOTAL FREE ENERGY PREDICTED BY IDOCK:   -4.74 KCAL/MOL
REMARK 923 INTER-LIGAND FREE ENERGY PREDICTED BY IDOCK:   -4.59 KCAL/MOL
REMARK 924 INTRA-LIGAND FREE ENERGY PREDICTED BY IDOCK:   -0.15 KCAL/MOL
REMARK 927      BINDING AFFINITY PREDICTED BY RF-SCORE:    0.00 PKD
ROOT
HETATM    1  C   UNL     1     -12.880  10.511  71.615  1.00  0.00    -0.581 C  
HETATM    2  C   UNL     1     -11.645   9.625  71.700  1.00  0.00    -0.406 C  
ENDROOT
BRANCH   2   3
HETATM    3  C   UNL     1     -11.007   9.456  70.321  1.00  0.00    -0.262 C  
BRANCH   3   4
HETATM    4  N   UNL     1     -11.697  10.270  69.313  1.00  0.00    -0.483 NA 
HETATM    5  H   UNL     1     -12.639  10.515  69.618  1.00  0.00     0.000 HD 
BRANCH   4   6
HETATM    6  C   UNL     1     -10.923  11.473  68.946  1.00  0.00    -0.229 C  
HETATM    7  C   UNL     1      -9.534  11.118  68.349  1.00  0.00    -0.189 C  
HETATM    8  C   UNL     1      -8.681  12.376  68.138  1.00  0.00    -0.190 C  
HETATM    9  C   UNL     1      -9.461  13.437  67.451  1.00  0.00    -0.222 A  
HETATM   10  C   UNL     1     -10.837  13.429  67.379  1.00  0.00    -0.268 A  
HETATM   11  S   UNL     1     -11.376  14.794  66.517  1.00  0.00    -0.319 SA 
HETATM   12  C   UNL     1     -11.722  12.354  67.930  1.00  0.00    -0.421 C  
HETATM   13  C   UNL     1      -9.735  15.286  66.306  1.00  0.00    -0.299 A  
HETATM   14  N   UNL     1      -9.414  16.406  65.638  1.00  0.00    -0.484 NA 
HETATM   15  N   UNL     1      -8.837  14.509  66.857  1.00  0.00    -0.238 NA 
HETATM   16  H1  UNL     1      -8.444  16.696  65.514  1.00  0.00     0.000 HD 
HETATM   17  H2  UNL     1     -10.158  16.980  65.245  1.00  0.00     0.000 HD 
ENDBRANCH   4   6
ENDBRANCH   3   4
ENDBRANCH   2   3
TORSDOF 3
ENDMDL
MODEL       83
REMARK 921   NORMALIZED FREE ENERGY PREDICTED BY IDOCK:   -3.82 KCAL/MOL
REMARK 922        TOTAL FREE ENERGY PREDICTED BY IDOCK:   -4.72 KCAL/MOL
REMARK 923 INTER-LIGAND FREE ENERGY PREDICTED BY IDOCK:   -4.49 KCAL/MOL
REMARK 924 INTRA-LIGAND FREE ENERGY PREDICTED BY IDOCK:   -0.23 KCAL/MOL
REMARK 927      BINDING AFFINITY PREDICTED BY RF-SCORE:    0.00 PKD
ROOT
HETATM    1  C   UNL     1      -8.971  10.416  65.846  1.00  0.00    -0.182 C  
HETATM    2  C   UNL     1     -10.430  10.834  65.962  1.00  0.00    -0.273 C  
ENDROOT
BRANCH   2   3
HETATM    3  C   UNL     1     -10.541  12.278  66.451  1.00  0.00    -0.242 C  
BRANCH   3   4
HETATM    4  N   UNL     1      -9.271  12.995  66.281  1.00  0.00    -0.443 NA 
HETATM    5  H   UNL     1      -8.652  12.503  65.636  1.00  0.00     0.000 HD 
BRANCH   4   6
HETATM    6  C   UNL     1      -9.477  14.396  65.860  1.00  0.00    -0.154 C  
HETATM    7  C   UNL     1     -10.957  14.687  65.491  1.00  0.00    -0.344 C  
HETATM    8  C   UNL     1     -11.115  16.091  64.892  1.00  0.00    -0.381 C  
HETATM    9  C   UNL     1     -10.415  17.104  65.724  1.00  0.00    -0.233 A  
HETATM   10  C   UNL     1      -9.451  16.775  66.652  1.00  0.00    -0.257 A  
HETATM   11  S   UNL     1      -8.876  18.188  67.409  1.00  0.00    -0.259 SA 
HETATM   12  C   UNL     1      -9.012  15.382  66.982  1.00  0.00    -0.253 C  
HETATM   13  C   UNL     1      -9.958  19.123  66.443  1.00  0.00    -0.395 A  
HETATM   14  N   UNL     1     -10.025  20.460  66.551  1.00  0.00    -0.578 NA 
HETATM   15  N   UNL     1     -10.686  18.445  65.592  1.00  0.00    -0.497 NA 
HETATM   16  H1  UNL     1     -10.664  21.013  65.980  1.00  0.00     0.000 HD 
HETATM   17  H2  UNL     1      -9.421  20.935  67.221  1.00  0.00     0.000 HD 
ENDBRANCH   4   6
ENDBRANCH   3   4
ENDBRANCH   2   3
TORSDOF 3
ENDMDL
MODEL       84
REMARK 921   NORMALIZED FREE ENERGY PREDICTED BY IDOCK:   -3.79 KCAL/MOL
REMARK 922        TOTAL FREE ENERGY PREDICTED BY IDOCK:   -4.69 KCAL/MOL
REMARK 923 INTER-LIGAND FREE ENERGY PREDICTED BY IDOCK:   -4.40 KCAL/MOL
REMARK 924 INTRA-LIGAND FREE ENERGY PREDICTED BY IDOCK:   -0.29 KCAL/MOL
REMARK 927      BINDING AFFINITY PREDICTED BY RF-SCORE:    0.00 PKD
ROOT
HETATM    1  C   UNL     1      -6.643  19.601  69.538  1.00  0.00    -0.383 C  
HETATM    2  C   UNL     1      -7.027  20.566  68.424  1.00  0.00    -0.170 C  
ENDROOT
BRANCH   2   3
HETATM    3  C   UNL     1      -8.034  19.918  67.474  1.00  0.00    -0.296 C  
BRANCH   3   4
HETATM    4  N   UNL     1      -9.317  19.676  68.143  1.00  0.00    -0.343 NA 
HETATM    5  H   UNL     1      -9.889  20.520  68.162  1.00  0.00     0.000 HD 
BRANCH   4   6
HETATM    6  C   UNL     1     -10.053  18.544  67.542  1.00  0.00    -0.357 C  
HETATM    7  C   UNL     1      -9.305  17.941  66.322  1.00  0.00    -0.213 C  
HETATM    8  C   UNL     1     -10.164  16.888  65.608  1.00  0.00    -0.227 C  
HETATM    9  C   UNL     1     -10.749  15.932  66.583  1.00  0.00    -0.270 A  
HETATM   10  C   UNL     1     -10.829  16.193  67.934  1.00  0.00    -0.332 A  
HETATM   11  S   UNL     1     -11.553  14.875  68.732  1.00  0.00    -0.331 SA 
HETATM   12  C   UNL     1     -10.312  17.427  68.605  1.00  0.00    -0.364 C  
HETATM   13  C   UNL     1     -11.699  14.061  67.218  1.00  0.00    -0.389 A  
HETATM   14  N   UNL     1     -12.243  12.837  67.123  1.00  0.00    -0.383 NA 
HETATM   15  N   UNL     1     -11.266  14.725  66.176  1.00  0.00    -0.336 NA 
HETATM   16  H1  UNL     1     -12.329  12.356  66.228  1.00  0.00     0.000 HD 
HETATM   17  H2  UNL     1     -12.579  12.376  67.969  1.00  0.00     0.000 HD 
ENDBRANCH   4   6
ENDBRANCH   3   4
ENDBRANCH   2   3
TORSDOF 3
ENDMDL
MODEL       85
REMARK 921   NORMALIZED FREE ENERGY PREDICTED BY IDOCK:   -3.77 KCAL/MOL
REMARK 922        TOTAL FREE ENERGY PREDICTED BY IDOCK:   -4.67 KCAL/MOL
REMARK 923 INTER-LIGAND FREE ENERGY PREDICTED BY IDOCK:   -4.47 KCAL/MOL
REMARK 924 INTRA-LIGAND FREE ENERGY PREDICTED BY IDOCK:   -0.20 KCAL/MOL
REMARK 927      BINDING AFFINITY PREDICTED BY RF-SCORE:    0.00 PKD
ROOT
HETATM    1  C   UNL     1      -6.621  20.056  65.204  1.00  0.00    -0.333 C  
HETATM    2  C   UNL     1      -7.258  19.591  66.507  1.00  0.00    -0.241 C  
ENDROOT
BRANCH   2   3
HETATM    3  C   UNL     1      -8.275  18.481  66.245  1.00  0.00    -0.225 C  
BRANCH   3   4
HETATM    4  N   UNL     1      -9.627  18.896  66.636  1.00  0.00    -0.323 NA 
HETATM    5  H   UNL     1     -10.066  19.459  65.908  1.00  0.00     0.000 HD 
BRANCH   4   6
HETATM    6  C   UNL     1     -10.476  17.745  67.007  1.00  0.00    -0.322 C  
HETATM    7  C   UNL     1     -10.107  16.464  66.210  1.00  0.00    -0.346 C  
HETATM    8  C   UNL     1     -11.110  15.333  66.481  1.00  0.00    -0.271 C  
HETATM    9  C   UNL     1     -11.352  15.177  67.938  1.00  0.00    -0.338 A  
HETATM   10  C   UNL     1     -11.035  16.152  68.859  1.00  0.00    -0.324 A  
HETATM   11  S   UNL     1     -11.452  15.621  70.422  1.00  0.00    -0.390 SA 
HETATM   12  C   UNL     1     -10.376  17.457  68.541  1.00  0.00    -0.378 C  
HETATM   13  C   UNL     1     -12.019  14.137  69.748  1.00  0.00    -0.339 A  
HETATM   14  N   UNL     1     -12.532  13.163  70.517  1.00  0.00    -0.289 NA 
HETATM   15  N   UNL     1     -11.932  14.039  68.446  1.00  0.00    -0.357 NA 
HETATM   16  H1  UNL     1     -12.866  12.285  70.118  1.00  0.00     0.000 HD 
HETATM   17  H2  UNL     1     -12.588  13.303  71.525  1.00  0.00     0.000 HD 
ENDBRANCH   4   6
ENDBRANCH   3   4
ENDBRANCH   2   3
TORSDOF 3
ENDMDL
MODEL       86
REMARK 921   NORMALIZED FREE ENERGY PREDICTED BY IDOCK:   -3.75 KCAL/MOL
REMARK 922        TOTAL FREE ENERGY PREDICTED BY IDOCK:   -4.65 KCAL/MOL
REMARK 923 INTER-LIGAND FREE ENERGY PREDICTED BY IDOCK:   -4.37 KCAL/MOL
REMARK 924 INTRA-LIGAND FREE ENERGY PREDICTED BY IDOCK:   -0.27 KCAL/MOL
REMARK 927      BINDING AFFINITY PREDICTED BY RF-SCORE:    0.00 PKD
ROOT
HETATM    1  C   UNL     1      -8.924   8.271  73.004  1.00  0.00    -0.311 C  
HETATM    2  C   UNL     1     -10.330   7.690  73.085  1.00  0.00    -0.411 C  
ENDROOT
BRANCH   2   3
HETATM    3  C   UNL     1     -10.966   7.623  71.697  1.00  0.00    -0.233 C  
BRANCH   3   4
HETATM    4  N   UNL     1     -10.086   8.211  70.679  1.00  0.00    -0.193 NA 
HETATM    5  H   UNL     1      -9.568   7.489  70.178  1.00  0.00     0.000 HD 
BRANCH   4   6
HETATM    6  C   UNL     1     -10.823   9.087  69.746  1.00  0.00    -0.205 C  
HETATM    7  C   UNL     1     -11.240  10.429  70.408  1.00  0.00    -0.399 C  
HETATM    8  C   UNL     1     -12.152  11.245  69.481  1.00  0.00    -0.386 C  
HETATM    9  C   UNL     1     -11.588  11.315  68.109  1.00  0.00    -0.289 A  
HETATM   10  C   UNL     1     -10.614  10.452  67.654  1.00  0.00    -0.257 A  
HETATM   11  S   UNL     1     -10.215  10.834  66.044  1.00  0.00    -0.240 SA 
HETATM   12  C   UNL     1      -9.969   9.375  68.468  1.00  0.00    -0.190 C  
HETATM   13  C   UNL     1     -11.367  12.119  66.082  1.00  0.00    -0.361 A  
HETATM   14  N   UNL     1     -11.577  12.911  65.018  1.00  0.00    -0.318 NA 
HETATM   15  N   UNL     1     -12.030  12.250  67.203  1.00  0.00    -0.576 NA 
HETATM   16  H1  UNL     1     -12.258  13.670  65.041  1.00  0.00     0.000 HD 
HETATM   17  H2  UNL     1     -11.041  12.750  64.166  1.00  0.00     0.000 HD 
ENDBRANCH   4   6
ENDBRANCH   3   4
ENDBRANCH   2   3
TORSDOF 3
ENDMDL
MODEL       87
REMARK 921   NORMALIZED FREE ENERGY PREDICTED BY IDOCK:   -3.75 KCAL/MOL
REMARK 922        TOTAL FREE ENERGY PREDICTED BY IDOCK:   -4.64 KCAL/MOL
REMARK 923 INTER-LIGAND FREE ENERGY PREDICTED BY IDOCK:   -4.35 KCAL/MOL
REMARK 924 INTRA-LIGAND FREE ENERGY PREDICTED BY IDOCK:   -0.30 KCAL/MOL
REMARK 927      BINDING AFFINITY PREDICTED BY RF-SCORE:    0.00 PKD
ROOT
HETATM    1  C   UNL     1     -12.643  13.498  69.841  1.00  0.00    -0.078 C  
HETATM    2  C   UNL     1     -11.486  12.510  69.912  1.00  0.00    -0.159 C  
ENDROOT
BRANCH   2   3
HETATM    3  C   UNL     1     -10.485  12.770  68.787  1.00  0.00    -0.156 C  
BRANCH   3   4
HETATM    4  N   UNL     1      -9.539  13.831  69.152  1.00  0.00    -0.385 NA 
HETATM    5  H   UNL     1      -8.614  13.449  69.350  1.00  0.00     0.000 HD 
BRANCH   4   6
HETATM    6  C   UNL     1      -9.472  14.893  68.127  1.00  0.00    -0.202 C  
HETATM    7  C   UNL     1     -10.693  14.860  67.168  1.00  0.00    -0.296 C  
HETATM    8  C   UNL     1     -10.517  15.852  66.010  1.00  0.00    -0.357 C  
HETATM    9  C   UNL     1     -10.089  17.183  66.513  1.00  0.00    -0.310 A  
HETATM   10  C   UNL     1      -9.552  17.373  67.768  1.00  0.00    -0.264 A  
HETATM   11  S   UNL     1      -9.184  19.020  67.992  1.00  0.00    -0.322 SA 
HETATM   12  C   UNL     1      -9.369  16.302  68.798  1.00  0.00    -0.235 C  
HETATM   13  C   UNL     1      -9.770  19.349  66.403  1.00  0.00    -0.386 A  
HETATM   14  N   UNL     1      -9.770  20.591  65.893  1.00  0.00    -0.610 NA 
HETATM   15  N   UNL     1     -10.191  18.308  65.729  1.00  0.00    -0.587 NA 
HETATM   16  H1  UNL     1     -10.116  20.785  64.953  1.00  0.00     0.000 HD 
HETATM   17  H2  UNL     1      -9.414  21.360  66.459  1.00  0.00     0.000 HD 
ENDBRANCH   4   6
ENDBRANCH   3   4
ENDBRANCH   2   3
TORSDOF 3
ENDMDL
MODEL       88
REMARK 921   NORMALIZED FREE ENERGY PREDICTED BY IDOCK:   -3.74 KCAL/MOL
REMARK 922        TOTAL FREE ENERGY PREDICTED BY IDOCK:   -4.64 KCAL/MOL
REMARK 923 INTER-LIGAND FREE ENERGY PREDICTED BY IDOCK:   -4.41 KCAL/MOL
REMARK 924 INTRA-LIGAND FREE ENERGY PREDICTED BY IDOCK:   -0.23 KCAL/MOL
REMARK 927      BINDING AFFINITY PREDICTED BY RF-SCORE:    0.00 PKD
ROOT
HETATM    1  C   UNL     1     -12.021  12.921  67.217  1.00  0.00    -0.371 C  
HETATM    2  C   UNL     1     -10.537  12.703  67.479  1.00  0.00    -0.236 C  
ENDROOT
BRANCH   2   3
HETATM    3  C   UNL     1      -9.704  13.166  66.284  1.00  0.00    -0.265 C  
BRANCH   3   4
HETATM    4  N   UNL     1      -8.378  13.631  66.709  1.00  0.00    -0.428 NA 
HETATM    5  H   UNL     1      -7.690  13.516  65.964  1.00  0.00     0.000 HD 
BRANCH   4   6
HETATM    6  C   UNL     1      -8.408  15.023  67.201  1.00  0.00    -0.217 C  
HETATM    7  C   UNL     1      -6.997  15.672  67.212  1.00  0.00    -0.224 C  
HETATM    8  C   UNL     1      -7.024  17.050  67.888  1.00  0.00    -0.169 C  
HETATM    9  C   UNL     1      -8.144  17.875  67.365  1.00  0.00    -0.211 A  
HETATM   10  C   UNL     1      -9.214  17.340  66.682  1.00  0.00    -0.257 A  
HETATM   11  S   UNL     1     -10.292  18.581  66.238  1.00  0.00    -0.401 SA 
HETATM   12  C   UNL     1      -9.380  15.892  66.337  1.00  0.00    -0.329 C  
HETATM   13  C   UNL     1      -9.246  19.731  66.988  1.00  0.00    -0.352 A  
HETATM   14  N   UNL     1      -9.533  21.043  67.001  1.00  0.00    -0.664 NA 
HETATM   15  N   UNL     1      -8.176  19.236  67.557  1.00  0.00    -0.283 NA 
HETATM   16  H1  UNL     1      -8.915  21.723  67.444  1.00  0.00     0.000 HD 
HETATM   17  H2  UNL     1     -10.390  21.368  66.555  1.00  0.00     0.000 HD 
ENDBRANCH   4   6
ENDBRANCH   3   4
ENDBRANCH   2   3
TORSDOF 3
ENDMDL
MODEL       89
REMARK 921   NORMALIZED FREE ENERGY PREDICTED BY IDOCK:   -3.74 KCAL/MOL
REMARK 922        TOTAL FREE ENERGY PREDICTED BY IDOCK:   -4.63 KCAL/MOL
REMARK 923 INTER-LIGAND FREE ENERGY PREDICTED BY IDOCK:   -4.56 KCAL/MOL
REMARK 924 INTRA-LIGAND FREE ENERGY PREDICTED BY IDOCK:   -0.07 KCAL/MOL
REMARK 927      BINDING AFFINITY PREDICTED BY RF-SCORE:    0.00 PKD
ROOT
HETATM    1  C   UNL     1      -7.697  17.666  66.216  1.00  0.00    -0.324 C  
HETATM    2  C   UNL     1      -8.043  16.195  66.403  1.00  0.00    -0.305 C  
ENDROOT
BRANCH   2   3
HETATM    3  C   UNL     1      -9.497  15.930  66.017  1.00  0.00    -0.354 C  
BRANCH   3   4
HETATM    4  N   UNL     1     -10.026  14.751  66.714  1.00  0.00    -0.246 NA 
HETATM    5  H   UNL     1      -9.401  13.952  66.615  1.00  0.00     0.000 HD 
BRANCH   4   6
HETATM    6  C   UNL     1     -10.317  15.031  68.135  1.00  0.00    -0.239 C  
HETATM    7  C   UNL     1     -10.622  16.533  68.387  1.00  0.00    -0.323 C  
HETATM    8  C   UNL     1     -10.747  16.831  69.887  1.00  0.00    -0.123 C  
HETATM    9  C   UNL     1     -11.633  15.841  70.552  1.00  0.00    -0.375 A  
HETATM   10  C   UNL     1     -11.959  14.627  69.986  1.00  0.00    -0.320 A  
HETATM   11  S   UNL     1     -12.989  13.764  71.031  1.00  0.00    -0.208 SA 
HETATM   12  C   UNL     1     -11.517  14.160  68.634  1.00  0.00    -0.332 C  
HETATM   13  C   UNL     1     -12.921  15.075  72.152  1.00  0.00    -0.342 A  
HETATM   14  N   UNL     1     -13.586  15.043  73.318  1.00  0.00    -0.594 NA 
HETATM   15  N   UNL     1     -12.165  16.083  71.796  1.00  0.00    -0.474 NA 
HETATM   16  H1  UNL     1     -13.545  15.817  73.980  1.00  0.00     0.000 HD 
HETATM   17  H2  UNL     1     -14.146  14.222  73.547  1.00  0.00     0.000 HD 
ENDBRANCH   4   6
ENDBRANCH   3   4
ENDBRANCH   2   3
TORSDOF 3
ENDMDL
MODEL       90
REMARK 921   NORMALIZED FREE ENERGY PREDICTED BY IDOCK:   -3.72 KCAL/MOL
REMARK 922        TOTAL FREE ENERGY PREDICTED BY IDOCK:   -4.61 KCAL/MOL
REMARK 923 INTER-LIGAND FREE ENERGY PREDICTED BY IDOCK:   -4.40 KCAL/MOL
REMARK 924 INTRA-LIGAND FREE ENERGY PREDICTED BY IDOCK:   -0.21 KCAL/MOL
REMARK 927      BINDING AFFINITY PREDICTED BY RF-SCORE:    0.00 PKD
ROOT
HETATM    1  C   UNL     1      -9.799  16.671  66.062  1.00  0.00    -0.335 C  
HETATM    2  C   UNL     1     -10.843  15.842  65.326  1.00  0.00    -0.409 C  
ENDROOT
BRANCH   2   3
HETATM    3  C   UNL     1     -11.470  14.810  66.263  1.00  0.00    -0.316 C  
BRANCH   3   4
HETATM    4  N   UNL     1     -12.372  13.910  65.534  1.00  0.00    -0.451 NA 
HETATM    5  H   UNL     1     -12.570  14.263  64.598  1.00  0.00     0.000 HD 
BRANCH   4   6
HETATM    6  C   UNL     1     -11.856  12.526  65.485  1.00  0.00    -0.439 C  
HETATM    7  C   UNL     1     -10.638  12.388  64.533  1.00  0.00    -0.352 C  
HETATM    8  C   UNL     1     -10.230  10.918  64.362  1.00  0.00    -0.423 C  
HETATM    9  C   UNL     1     -10.139  10.237  65.679  1.00  0.00    -0.271 A  
HETATM   10  C   UNL     1     -10.717  10.739  66.825  1.00  0.00    -0.231 A  
HETATM   11  S   UNL     1     -10.404   9.694  68.132  1.00  0.00    -0.221 SA 
HETATM   12  C   UNL     1     -11.463  12.034  66.917  1.00  0.00    -0.402 C  
HETATM   13  C   UNL     1      -9.523   8.659  67.070  1.00  0.00    -0.171 A  
HETATM   14  N   UNL     1      -8.943   7.528  67.505  1.00  0.00    -0.126 NA 
HETATM   15  N   UNL     1      -9.477   9.039  65.818  1.00  0.00    -0.250 NA 
HETATM   16  H1  UNL     1      -8.422   6.916  66.877  1.00  0.00     0.000 HD 
HETATM   17  H2  UNL     1      -9.027   7.275  68.489  1.00  0.00     0.000 HD 
ENDBRANCH   4   6
ENDBRANCH   3   4
ENDBRANCH   2   3
TORSDOF 3
ENDMDL
MODEL       91
REMARK 921   NORMALIZED FREE ENERGY PREDICTED BY IDOCK:   -3.68 KCAL/MOL
REMARK 922        TOTAL FREE ENERGY PREDICTED BY IDOCK:   -4.56 KCAL/MOL
REMARK 923 INTER-LIGAND FREE ENERGY PREDICTED BY IDOCK:   -4.39 KCAL/MOL
REMARK 924 INTRA-LIGAND FREE ENERGY PREDICTED BY IDOCK:   -0.17 KCAL/MOL
REMARK 927      BINDING AFFINITY PREDICTED BY RF-SCORE:    0.00 PKD
ROOT
HETATM    1  C   UNL     1     -11.367   5.048  73.116  1.00  0.00    -0.397 C  
HETATM    2  C   UNL     1     -10.076   4.914  72.318  1.00  0.00    -0.247 C  
ENDROOT
BRANCH   2   3
HETATM    3  C   UNL     1     -10.136   5.764  71.050  1.00  0.00    -0.205 C  
BRANCH   3   4
HETATM    4  N   UNL     1      -9.731   7.149  71.320  1.00  0.00    -0.170 NA 
HETATM    5  H   UNL     1      -8.746   7.296  71.099  1.00  0.00     0.000 HD 
BRANCH   4   6
HETATM    6  C   UNL     1     -10.589   8.126  70.617  1.00  0.00    -0.215 C  
HETATM    7  C   UNL     1     -10.915   9.361  71.499  1.00  0.00    -0.429 C  
HETATM    8  C   UNL     1     -11.945  10.274  70.819  1.00  0.00    -0.456 C  
HETATM    9  C   UNL     1     -11.571  10.533  69.405  1.00  0.00    -0.246 A  
HETATM   10  C   UNL     1     -10.667   9.755  68.713  1.00  0.00    -0.215 A  
HETATM   11  S   UNL     1     -10.489  10.351  67.129  1.00  0.00    -0.261 SA 
HETATM   12  C   UNL     1      -9.915   8.593  69.285  1.00  0.00    -0.195 C  
HETATM   13  C   UNL     1     -11.627  11.597  67.489  1.00  0.00    -0.272 A  
HETATM   14  N   UNL     1     -11.980  12.517  66.577  1.00  0.00    -0.576 NA 
HETATM   15  N   UNL     1     -12.133  11.569  68.697  1.00  0.00    -0.505 NA 
HETATM   16  H1  UNL     1     -12.653  13.254  66.790  1.00  0.00     0.000 HD 
HETATM   17  H2  UNL     1     -11.564  12.479  65.647  1.00  0.00     0.000 HD 
ENDBRANCH   4   6
ENDBRANCH   3   4
ENDBRANCH   2   3
TORSDOF 3
ENDMDL
MODEL       92
REMARK 921   NORMALIZED FREE ENERGY PREDICTED BY IDOCK:   -3.67 KCAL/MOL
REMARK 922        TOTAL FREE ENERGY PREDICTED BY IDOCK:   -4.55 KCAL/MOL
REMARK 923 INTER-LIGAND FREE ENERGY PREDICTED BY IDOCK:   -4.34 KCAL/MOL
REMARK 924 INTRA-LIGAND FREE ENERGY PREDICTED BY IDOCK:   -0.21 KCAL/MOL
REMARK 927      BINDING AFFINITY PREDICTED BY RF-SCORE:    0.00 PKD
ROOT
HETATM    1  C   UNL     1      -8.098   8.528  64.096  1.00  0.00    -0.154 C  
HETATM    2  C   UNL     1      -8.481   9.705  63.209  1.00  0.00    -0.190 C  
ENDROOT
BRANCH   2   3
HETATM    3  C   UNL     1      -9.729  10.403  63.749  1.00  0.00    -0.290 C  
BRANCH   3   4
HETATM    4  N   UNL     1      -9.384  11.651  64.440  1.00  0.00    -0.427 NA 
HETATM    5  H   UNL     1      -9.296  12.425  63.782  1.00  0.00     0.000 HD 
BRANCH   4   6
HETATM    6  C   UNL     1     -10.339  11.971  65.520  1.00  0.00    -0.263 C  
HETATM    7  C   UNL     1     -10.186  11.021  66.739  1.00  0.00    -0.272 C  
HETATM    8  C   UNL     1     -11.298  11.256  67.771  1.00  0.00    -0.354 C  
HETATM    9  C   UNL     1     -11.456  12.705  68.059  1.00  0.00    -0.318 A  
HETATM   10  C   UNL     1     -10.959  13.692  67.235  1.00  0.00    -0.287 A  
HETATM   11  S   UNL     1     -11.329  15.222  67.884  1.00  0.00    -0.316 SA 
HETATM   12  C   UNL     1     -10.169  13.454  65.985  1.00  0.00    -0.301 C  
HETATM   13  C   UNL     1     -12.118  14.449  69.210  1.00  0.00    -0.299 A  
HETATM   14  N   UNL     1     -12.691  15.154  70.198  1.00  0.00    -0.602 NA 
HETATM   15  N   UNL     1     -12.135  13.140  69.172  1.00  0.00    -0.267 NA 
HETATM   16  H1  UNL     1     -13.158  14.697  70.982  1.00  0.00     0.000 HD 
HETATM   17  H2  UNL     1     -12.660  16.172  70.165  1.00  0.00     0.000 HD 
ENDBRANCH   4   6
ENDBRANCH   3   4
ENDBRANCH   2   3
TORSDOF 3
ENDMDL
MODEL       93
REMARK 921   NORMALIZED FREE ENERGY PREDICTED BY IDOCK:   -3.66 KCAL/MOL
REMARK 922        TOTAL FREE ENERGY PREDICTED BY IDOCK:   -4.54 KCAL/MOL
REMARK 923 INTER-LIGAND FREE ENERGY PREDICTED BY IDOCK:   -4.38 KCAL/MOL
REMARK 924 INTRA-LIGAND FREE ENERGY PREDICTED BY IDOCK:   -0.16 KCAL/MOL
REMARK 927      BINDING AFFINITY PREDICTED BY RF-SCORE:    0.00 PKD
ROOT
HETATM    1  C   UNL     1     -13.997  15.626  72.639  1.00  0.00    -0.608 C  
HETATM    2  C   UNL     1     -13.148  14.363  72.582  1.00  0.00    -0.564 C  
ENDROOT
BRANCH   2   3
HETATM    3  C   UNL     1     -13.053  13.842  71.148  1.00  0.00    -0.281 C  
BRANCH   3   4
HETATM    4  N   UNL     1     -12.816  12.394  71.124  1.00  0.00    -0.277 NA 
HETATM    5  H   UNL     1     -13.680  11.881  70.950  1.00  0.00     0.000 HD 
BRANCH   4   6
HETATM    6  C   UNL     1     -11.766  12.019  70.155  1.00  0.00    -0.233 C  
HETATM    7  C   UNL     1     -11.727  10.488  69.895  1.00  0.00    -0.372 C  
HETATM    8  C   UNL     1     -10.522  10.103  69.026  1.00  0.00    -0.239 C  
HETATM    9  C   UNL     1     -10.417  10.992  67.841  1.00  0.00    -0.192 A  
HETATM   10  C   UNL     1     -11.059  12.209  67.757  1.00  0.00    -0.250 A  
HETATM   11  S   UNL     1     -10.709  12.941  66.261  1.00  0.00    -0.278 SA 
HETATM   12  C   UNL     1     -11.969  12.776  68.802  1.00  0.00    -0.278 C  
HETATM   13  C   UNL     1      -9.733  11.580  65.843  1.00  0.00    -0.232 A  
HETATM   14  N   UNL     1      -9.095  11.504  64.664  1.00  0.00    -0.407 NA 
HETATM   15  N   UNL     1      -9.645  10.647  66.757  1.00  0.00    -0.166 NA 
HETATM   16  H1  UNL     1      -8.518  10.700  64.418  1.00  0.00     0.000 HD 
HETATM   17  H2  UNL     1      -9.189  12.271  63.999  1.00  0.00     0.000 HD 
ENDBRANCH   4   6
ENDBRANCH   3   4
ENDBRANCH   2   3
TORSDOF 3
ENDMDL
MODEL       94
REMARK 921   NORMALIZED FREE ENERGY PREDICTED BY IDOCK:   -3.65 KCAL/MOL
REMARK 922        TOTAL FREE ENERGY PREDICTED BY IDOCK:   -4.53 KCAL/MOL
REMARK 923 INTER-LIGAND FREE ENERGY PREDICTED BY IDOCK:   -4.26 KCAL/MOL
REMARK 924 INTRA-LIGAND FREE ENERGY PREDICTED BY IDOCK:   -0.27 KCAL/MOL
REMARK 927      BINDING AFFINITY PREDICTED BY RF-SCORE:    0.00 PKD
ROOT
HETATM    1  C   UNL     1      -7.377   7.881  64.015  1.00  0.00    -0.101 C  
HETATM    2  C   UNL     1      -8.202   8.493  62.890  1.00  0.00    -0.172 C  
ENDROOT
BRANCH   2   3
HETATM    3  C   UNL     1      -8.373   9.996  63.104  1.00  0.00    -0.169 C  
BRANCH   3   4
HETATM    4  N   UNL     1      -9.791  10.375  63.103  1.00  0.00    -0.487 NA 
HETATM    5  H   UNL     1     -10.371   9.633  62.713  1.00  0.00     0.000 HD 
BRANCH   4   6
HETATM    6  C   UNL     1     -10.260  10.772  64.447  1.00  0.00    -0.364 C  
HETATM    7  C   UNL     1      -9.092  10.905  65.461  1.00  0.00    -0.221 C  
HETATM    8  C   UNL     1      -9.615  11.144  66.884  1.00  0.00    -0.208 C  
HETATM    9  C   UNL     1     -10.646  12.214  66.897  1.00  0.00    -0.229 A  
HETATM   10  C   UNL     1     -11.305  12.634  65.761  1.00  0.00    -0.333 A  
HETATM   11  S   UNL     1     -12.407  13.868  66.161  1.00  0.00    -0.438 SA 
HETATM   12  C   UNL     1     -11.053  12.119  64.379  1.00  0.00    -0.387 C  
HETATM   13  C   UNL     1     -11.918  13.747  67.811  1.00  0.00    -0.356 A  
HETATM   14  N   UNL     1     -12.452  14.526  68.765  1.00  0.00    -0.569 NA 
HETATM   15  N   UNL     1     -11.013  12.835  68.067  1.00  0.00    -0.229 NA 
HETATM   16  H1  UNL     1     -12.162  14.455  69.741  1.00  0.00     0.000 HD 
HETATM   17  H2  UNL     1     -13.165  15.208  68.508  1.00  0.00     0.000 HD 
ENDBRANCH   4   6
ENDBRANCH   3   4
ENDBRANCH   2   3
TORSDOF 3
ENDMDL
MODEL       95
REMARK 921   NORMALIZED FREE ENERGY PREDICTED BY IDOCK:   -3.64 KCAL/MOL
REMARK 922        TOTAL FREE ENERGY PREDICTED BY IDOCK:   -4.52 KCAL/MOL
REMARK 923 INTER-LIGAND FREE ENERGY PREDICTED BY IDOCK:   -4.20 KCAL/MOL
REMARK 924 INTRA-LIGAND FREE ENERGY PREDICTED BY IDOCK:   -0.32 KCAL/MOL
REMARK 927      BINDING AFFINITY PREDICTED BY RF-SCORE:    0.00 PKD
ROOT
HETATM    1  C   UNL     1      -8.974   6.774  73.954  1.00  0.00    -0.183 C  
HETATM    2  C   UNL     1      -9.392   6.235  72.592  1.00  0.00    -0.145 C  
ENDROOT
BRANCH   2   3
HETATM    3  C   UNL     1     -10.915   6.197  72.472  1.00  0.00    -0.259 C  
BRANCH   3   4
HETATM    4  N   UNL     1     -11.346   6.440  71.090  1.00  0.00    -0.307 NA 
HETATM    5  H   UNL     1     -11.975   5.707  70.764  1.00  0.00     0.000 HD 
BRANCH   4   6
HETATM    6  C   UNL     1     -11.950   7.778  70.924  1.00  0.00    -0.210 C  
HETATM    7  C   UNL     1     -12.344   8.416  72.283  1.00  0.00    -0.436 C  
HETATM    8  C   UNL     1     -13.127   9.721  72.079  1.00  0.00    -0.546 C  
HETATM    9  C   UNL     1     -12.446  10.598  71.093  1.00  0.00    -0.418 A  
HETATM   10  C   UNL     1     -11.489  10.138  70.214  1.00  0.00    -0.306 A  
HETATM   11  S   UNL     1     -10.935  11.421  69.242  1.00  0.00    -0.204 SA 
HETATM   12  C   UNL     1     -10.977   8.732  70.157  1.00  0.00    -0.236 C  
HETATM   13  C   UNL     1     -12.011  12.488  70.070  1.00  0.00    -0.299 A  
HETATM   14  N   UNL     1     -12.085  13.793  69.765  1.00  0.00    -0.335 NA 
HETATM   15  N   UNL     1     -12.756  11.934  70.993  1.00  0.00    -0.316 NA 
HETATM   16  H1  UNL     1     -12.720  14.423  70.254  1.00  0.00     0.000 HD 
HETATM   17  H2  UNL     1     -11.490  14.164  69.024  1.00  0.00     0.000 HD 
ENDBRANCH   4   6
ENDBRANCH   3   4
ENDBRANCH   2   3
TORSDOF 3
ENDMDL
MODEL       96
REMARK 921   NORMALIZED FREE ENERGY PREDICTED BY IDOCK:   -3.63 KCAL/MOL
REMARK 922        TOTAL FREE ENERGY PREDICTED BY IDOCK:   -4.51 KCAL/MOL
REMARK 923 INTER-LIGAND FREE ENERGY PREDICTED BY IDOCK:   -4.27 KCAL/MOL
REMARK 924 INTRA-LIGAND FREE ENERGY PREDICTED BY IDOCK:   -0.24 KCAL/MOL
REMARK 927      BINDING AFFINITY PREDICTED BY RF-SCORE:    0.00 PKD
ROOT
HETATM    1  C   UNL     1      -7.283  11.894  67.064  1.00  0.00    -0.118 C  
HETATM    2  C   UNL     1      -7.302  10.373  66.990  1.00  0.00    -0.097 C  
ENDROOT
BRANCH   2   3
HETATM    3  C   UNL     1      -8.711   9.865  66.690  1.00  0.00    -0.128 C  
BRANCH   3   4
HETATM    4  N   UNL     1      -9.728  10.711  67.326  1.00  0.00    -0.166 NA 
HETATM    5  H   UNL     1     -10.282  11.210  66.630  1.00  0.00     0.000 HD 
BRANCH   4   6
HETATM    6  C   UNL     1     -10.591   9.944  68.248  1.00  0.00    -0.229 C  
HETATM    7  C   UNL     1      -9.821   8.793  68.950  1.00  0.00    -0.183 C  
HETATM    8  C   UNL     1     -10.772   7.904  69.764  1.00  0.00    -0.233 C  
HETATM    9  C   UNL     1     -11.673   8.728  70.610  1.00  0.00    -0.166 A  
HETATM   10  C   UNL     1     -11.886  10.072  70.391  1.00  0.00    -0.262 A  
HETATM   11  S   UNL     1     -12.973  10.679  71.553  1.00  0.00    -0.460 SA 
HETATM   12  C   UNL     1     -11.223  10.887  69.324  1.00  0.00    -0.327 C  
HETATM   13  C   UNL     1     -13.071   9.106  72.256  1.00  0.00    -0.438 A  
HETATM   14  N   UNL     1     -13.839   8.859  73.329  1.00  0.00    -1.162 NA 
HETATM   15  N   UNL     1     -12.367   8.176  71.660  1.00  0.00    -0.303 NA 
HETATM   16  H1  UNL     1     -13.897   7.929  73.745  1.00  0.00     0.000 HD 
HETATM   17  H2  UNL     1     -14.377   9.620  73.740  1.00  0.00     0.000 HD 
ENDBRANCH   4   6
ENDBRANCH   3   4
ENDBRANCH   2   3
TORSDOF 3
ENDMDL
MODEL       97
REMARK 921   NORMALIZED FREE ENERGY PREDICTED BY IDOCK:   -3.62 KCAL/MOL
REMARK 922        TOTAL FREE ENERGY PREDICTED BY IDOCK:   -4.49 KCAL/MOL
REMARK 923 INTER-LIGAND FREE ENERGY PREDICTED BY IDOCK:   -4.40 KCAL/MOL
REMARK 924 INTRA-LIGAND FREE ENERGY PREDICTED BY IDOCK:   -0.09 KCAL/MOL
REMARK 927      BINDING AFFINITY PREDICTED BY RF-SCORE:    0.00 PKD
ROOT
HETATM    1  C   UNL     1     -11.722  11.342  68.133  1.00  0.00    -0.355 C  
HETATM    2  C   UNL     1     -11.879  12.637  68.920  1.00  0.00    -0.345 C  
ENDROOT
BRANCH   2   3
HETATM    3  C   UNL     1     -11.746  13.848  67.998  1.00  0.00    -0.352 C  
BRANCH   3   4
HETATM    4  N   UNL     1     -12.056  15.094  68.709  1.00  0.00    -0.574 NA 
HETATM    5  H   UNL     1     -12.604  14.913  69.550  1.00  0.00     0.000 HD 
BRANCH   4   6
HETATM    6  C   UNL     1     -10.840  15.874  69.018  1.00  0.00    -0.266 C  
HETATM    7  C   UNL     1      -9.541  15.101  68.664  1.00  0.00    -0.213 C  
HETATM    8  C   UNL     1      -8.296  15.853  69.154  1.00  0.00    -0.253 C  
HETATM    9  C   UNL     1      -8.356  17.286  68.768  1.00  0.00    -0.228 A  
HETATM   10  C   UNL     1      -9.523  17.912  68.387  1.00  0.00    -0.303 A  
HETATM   11  S   UNL     1      -9.206  19.543  68.017  1.00  0.00    -0.343 SA 
HETATM   12  C   UNL     1     -10.858  17.245  68.266  1.00  0.00    -0.287 C  
HETATM   13  C   UNL     1      -7.541  19.286  68.392  1.00  0.00    -0.316 A  
HETATM   14  N   UNL     1      -6.635  20.272  68.297  1.00  0.00    -0.291 NA 
HETATM   15  N   UNL     1      -7.232  18.078  68.791  1.00  0.00    -0.275 NA 
HETATM   16  H1  UNL     1      -5.651  20.120  68.518  1.00  0.00     0.000 HD 
HETATM   17  H2  UNL     1      -6.939  21.198  67.996  1.00  0.00     0.000 HD 
ENDBRANCH   4   6
ENDBRANCH   3   4
ENDBRANCH   2   3
TORSDOF 3
ENDMDL
MODEL       98
REMARK 921   NORMALIZED FREE ENERGY PREDICTED BY IDOCK:   -3.61 KCAL/MOL
REMARK 922        TOTAL FREE ENERGY PREDICTED BY IDOCK:   -4.48 KCAL/MOL
REMARK 923 INTER-LIGAND FREE ENERGY PREDICTED BY IDOCK:   -4.27 KCAL/MOL
REMARK 924 INTRA-LIGAND FREE ENERGY PREDICTED BY IDOCK:   -0.21 KCAL/MOL
REMARK 927      BINDING AFFINITY PREDICTED BY RF-SCORE:    0.00 PKD
ROOT
HETATM    1  C   UNL     1     -10.277  19.506  67.593  1.00  0.00    -0.556 C  
HETATM    2  C   UNL     1      -9.535  18.444  66.793  1.00  0.00    -0.297 C  
ENDROOT
BRANCH   2   3
HETATM    3  C   UNL     1     -10.446  17.250  66.508  1.00  0.00    -0.260 C  
BRANCH   3   4
HETATM    4  N   UNL     1      -9.666  16.068  66.120  1.00  0.00    -0.300 NA 
HETATM    5  H   UNL     1      -8.680  16.298  66.004  1.00  0.00     0.000 HD 
BRANCH   4   6
HETATM    6  C   UNL     1      -9.848  14.948  67.066  1.00  0.00    -0.237 C  
HETATM    7  C   UNL     1     -11.097  15.139  67.968  1.00  0.00    -0.310 C  
HETATM    8  C   UNL     1     -11.168  14.059  69.057  1.00  0.00    -0.311 C  
HETATM    9  C   UNL     1     -10.953  12.708  68.477  1.00  0.00    -0.261 A  
HETATM   10  C   UNL     1     -10.386  12.505  67.237  1.00  0.00    -0.220 A  
HETATM   11  S   UNL     1     -10.303  10.837  66.910  1.00  0.00    -0.251 SA 
HETATM   12  C   UNL     1      -9.957  13.590  66.299  1.00  0.00    -0.302 C  
HETATM   13  C   UNL     1     -11.029  10.518  68.442  1.00  0.00    -0.261 A  
HETATM   14  N   UNL     1     -11.278   9.266  68.859  1.00  0.00    -0.444 NA 
HETATM   15  N   UNL     1     -11.299  11.572  69.170  1.00  0.00    -0.261 NA 
HETATM   16  H1  UNL     1     -11.708   9.077  69.764  1.00  0.00     0.000 HD 
HETATM   17  H2  UNL     1     -11.031   8.483  68.254  1.00  0.00     0.000 HD 
ENDBRANCH   4   6
ENDBRANCH   3   4
ENDBRANCH   2   3
TORSDOF 3
ENDMDL
MODEL       99
REMARK 921   NORMALIZED FREE ENERGY PREDICTED BY IDOCK:   -3.61 KCAL/MOL
REMARK 922        TOTAL FREE ENERGY PREDICTED BY IDOCK:   -4.48 KCAL/MOL
REMARK 923 INTER-LIGAND FREE ENERGY PREDICTED BY IDOCK:   -4.36 KCAL/MOL
REMARK 924 INTRA-LIGAND FREE ENERGY PREDICTED BY IDOCK:   -0.11 KCAL/MOL
REMARK 927      BINDING AFFINITY PREDICTED BY RF-SCORE:    0.00 PKD
ROOT
HETATM    1  C   UNL     1      -7.602   8.936  64.420  1.00  0.00    -0.114 C  
HETATM    2  C   UNL     1      -6.946  10.018  65.268  1.00  0.00    -0.132 C  
ENDROOT
BRANCH   2   3
HETATM    3  C   UNL     1      -7.351   9.874  66.734  1.00  0.00    -0.095 C  
BRANCH   3   4
HETATM    4  N   UNL     1      -8.773  10.184  66.925  1.00  0.00    -0.129 NA 
HETATM    5  H   UNL     1      -8.973  10.417  67.898  1.00  0.00     0.000 HD 
BRANCH   4   6
HETATM    6  C   UNL     1      -9.237  11.249  66.013  1.00  0.00    -0.208 C  
HETATM    7  C   UNL     1     -10.662  10.971  65.463  1.00  0.00    -0.218 C  
HETATM    8  C   UNL     1     -11.052  11.994  64.387  1.00  0.00    -0.399 C  
HETATM    9  C   UNL     1     -10.761  13.378  64.841  1.00  0.00    -0.369 A  
HETATM   10  C   UNL     1      -9.912  13.661  65.889  1.00  0.00    -0.291 A  
HETATM   11  S   UNL     1      -9.825  15.345  66.121  1.00  0.00    -0.338 SA 
HETATM   12  C   UNL     1      -9.212  12.639  66.730  1.00  0.00    -0.225 C  
HETATM   13  C   UNL     1     -10.926  15.564  64.810  1.00  0.00    -0.399 A  
HETATM   14  N   UNL     1     -11.328  16.784  64.421  1.00  0.00    -1.214 NA 
HETATM   15  N   UNL     1     -11.321  14.466  64.214  1.00  0.00    -0.231 NA 
HETATM   16  H1  UNL     1     -11.979  16.914  63.646  1.00  0.00     0.000 HD 
HETATM   17  H2  UNL     1     -10.974  17.604  64.914  1.00  0.00     0.000 HD 
ENDBRANCH   4   6
ENDBRANCH   3   4
ENDBRANCH   2   3
TORSDOF 3
ENDMDL
MODEL      100
REMARK 921   NORMALIZED FREE ENERGY PREDICTED BY IDOCK:   -3.59 KCAL/MOL
REMARK 922        TOTAL FREE ENERGY PREDICTED BY IDOCK:   -4.45 KCAL/MOL
REMARK 923 INTER-LIGAND FREE ENERGY PREDICTED BY IDOCK:   -4.16 KCAL/MOL
REMARK 924 INTRA-LIGAND FREE ENERGY PREDICTED BY IDOCK:   -0.30 KCAL/MOL
REMARK 927      BINDING AFFINITY PREDICTED BY RF-SCORE:    0.00 PKD
ROOT
HETATM    1  C   UNL     1     -10.514   5.460  70.250  1.00  0.00    -0.355 C  
HETATM    2  C   UNL     1     -11.383   6.697  70.065  1.00  0.00    -0.440 C  
ENDROOT
BRANCH   2   3
HETATM    3  C   UNL     1     -10.581   7.966  70.349  1.00  0.00    -0.228 C  
BRANCH   3   4
HETATM    4  N   UNL     1      -9.456   8.104  69.416  1.00  0.00    -0.162 NA 
HETATM    5  H   UNL     1      -9.284   7.233  68.913  1.00  0.00     0.000 HD 
BRANCH   4   6
HETATM    6  C   UNL     1      -9.642   9.234  68.483  1.00  0.00    -0.147 C  
HETATM    7  C   UNL     1     -10.159   8.769  67.095  1.00  0.00    -0.320 C  
HETATM    8  C   UNL     1     -10.178   9.930  66.091  1.00  0.00    -0.277 C  
HETATM    9  C   UNL     1     -10.819  11.132  66.683  1.00  0.00    -0.253 A  
HETATM   10  C   UNL     1     -11.001  11.294  68.040  1.00  0.00    -0.247 A  
HETATM   11  S   UNL     1     -11.766  12.784  68.344  1.00  0.00    -0.332 SA 
HETATM   12  C   UNL     1     -10.628  10.289  69.085  1.00  0.00    -0.254 C  
HETATM   13  C   UNL     1     -11.797  13.094  66.646  1.00  0.00    -0.391 A  
HETATM   14  N   UNL     1     -12.326  14.221  66.143  1.00  0.00    -0.425 NA 
HETATM   15  N   UNL     1     -11.255  12.170  65.893  1.00  0.00    -0.326 NA 
HETATM   16  H1  UNL     1     -12.344  14.404  65.140  1.00  0.00     0.000 HD 
HETATM   17  H2  UNL     1     -12.719  14.912  66.781  1.00  0.00     0.000 HD 
ENDBRANCH   4   6
ENDBRANCH   3   4
ENDBRANCH   2   3
TORSDOF 3
ENDMDL
MODEL      101
REMARK 921   NORMALIZED FREE ENERGY PREDICTED BY IDOCK:   -3.59 KCAL/MOL
REMARK 922        TOTAL FREE ENERGY PREDICTED BY IDOCK:   -4.45 KCAL/MOL
REMARK 923 INTER-LIGAND FREE ENERGY PREDICTED BY IDOCK:   -4.18 KCAL/MOL
REMARK 924 INTRA-LIGAND FREE ENERGY PREDICTED BY IDOCK:   -0.27 KCAL/MOL
REMARK 927      BINDING AFFINITY PREDICTED BY RF-SCORE:    0.00 PKD
ROOT
HETATM    1  C   UNL     1     -10.619   8.051  67.090  1.00  0.00    -0.367 C  
HETATM    2  C   UNL     1      -9.679   8.772  66.132  1.00  0.00    -0.320 C  
ENDROOT
BRANCH   2   3
HETATM    3  C   UNL     1      -9.965  10.273  66.123  1.00  0.00    -0.238 C  
BRANCH   3   4
HETATM    4  N   UNL     1      -8.878  11.025  66.761  1.00  0.00    -0.152 NA 
HETATM    5  H   UNL     1      -8.129  11.226  66.099  1.00  0.00     0.000 HD 
BRANCH   4   6
HETATM    6  C   UNL     1      -9.363  12.260  67.411  1.00  0.00    -0.183 C  
HETATM    7  C   UNL     1      -9.837  13.318  66.378  1.00  0.00    -0.281 C  
HETATM    8  C   UNL     1     -10.170  14.652  67.061  1.00  0.00    -0.261 C  
HETATM    9  C   UNL     1     -11.031  14.437  68.252  1.00  0.00    -0.247 A  
HETATM   10  C   UNL     1     -11.170  13.211  68.866  1.00  0.00    -0.277 A  
HETATM   11  S   UNL     1     -12.232  13.347  70.190  1.00  0.00    -0.274 SA 
HETATM   12  C   UNL     1     -10.526  11.940  68.407  1.00  0.00    -0.231 C  
HETATM   13  C   UNL     1     -12.424  15.026  69.839  1.00  0.00    -0.230 A  
HETATM   14  N   UNL     1     -13.218  15.816  70.580  1.00  0.00    -0.759 NA 
HETATM   15  N   UNL     1     -11.730  15.474  68.823  1.00  0.00    -0.362 NA 
HETATM   16  H1  UNL     1     -13.331  16.808  70.373  1.00  0.00     0.000 HD 
HETATM   17  H2  UNL     1     -13.721  15.413  71.370  1.00  0.00     0.000 HD 
ENDBRANCH   4   6
ENDBRANCH   3   4
ENDBRANCH   2   3
TORSDOF 3
ENDMDL
MODEL      102
REMARK 921   NORMALIZED FREE ENERGY PREDICTED BY IDOCK:   -3.59 KCAL/MOL
REMARK 922        TOTAL FREE ENERGY PREDICTED BY IDOCK:   -4.45 KCAL/MOL
REMARK 923 INTER-LIGAND FREE ENERGY PREDICTED BY IDOCK:   -4.25 KCAL/MOL
REMARK 924 INTRA-LIGAND FREE ENERGY PREDICTED BY IDOCK:   -0.20 KCAL/MOL
REMARK 927      BINDING AFFINITY PREDICTED BY RF-SCORE:    0.00 PKD
ROOT
HETATM    1  C   UNL     1      -8.123   5.996  64.355  1.00  0.00    -0.119 C  
HETATM    2  C   UNL     1      -7.743   6.741  63.081  1.00  0.00    -0.103 C  
ENDROOT
BRANCH   2   3
HETATM    3  C   UNL     1      -8.310   8.160  63.097  1.00  0.00    -0.018 C  
BRANCH   3   4
HETATM    4  N   UNL     1      -8.069   8.814  64.389  1.00  0.00    -0.148 NA 
HETATM    5  H   UNL     1      -7.270   9.446  64.340  1.00  0.00     0.000 HD 
BRANCH   4   6
HETATM    6  C   UNL     1      -9.272   9.510  64.891  1.00  0.00    -0.223 C  
HETATM    7  C   UNL     1      -9.078  10.047  66.335  1.00  0.00    -0.176 C  
HETATM    8  C   UNL     1     -10.390  10.607  66.901  1.00  0.00    -0.288 C  
HETATM    9  C   UNL     1     -11.043  11.516  65.924  1.00  0.00    -0.214 A  
HETATM   10  C   UNL     1     -10.723  11.530  64.583  1.00  0.00    -0.319 A  
HETATM   11  S   UNL     1     -11.670  12.694  63.779  1.00  0.00    -0.533 SA 
HETATM   12  C   UNL     1      -9.666  10.687  63.941  1.00  0.00    -0.378 C  
HETATM   13  C   UNL     1     -12.428  13.087  65.278  1.00  0.00    -0.499 A  
HETATM   14  N   UNL     1     -13.377  14.034  65.363  1.00  0.00    -0.624 NA 
HETATM   15  N   UNL     1     -12.031  12.389  66.312  1.00  0.00    -0.607 NA 
HETATM   16  H1  UNL     1     -13.825  14.266  66.250  1.00  0.00     0.000 HD 
HETATM   17  H2  UNL     1     -13.657  14.533  64.520  1.00  0.00     0.000 HD 
ENDBRANCH   4   6
ENDBRANCH   3   4
ENDBRANCH   2   3
TORSDOF 3
ENDMDL
MODEL      103
REMARK 921   NORMALIZED FREE ENERGY PREDICTED BY IDOCK:   -3.58 KCAL/MOL
REMARK 922        TOTAL FREE ENERGY PREDICTED BY IDOCK:   -4.45 KCAL/MOL
REMARK 923 INTER-LIGAND FREE ENERGY PREDICTED BY IDOCK:   -4.28 KCAL/MOL
REMARK 924 INTRA-LIGAND FREE ENERGY PREDICTED BY IDOCK:   -0.17 KCAL/MOL
REMARK 927      BINDING AFFINITY PREDICTED BY RF-SCORE:    0.00 PKD
ROOT
HETATM    1  C   UNL     1     -12.005  12.514  65.848  1.00  0.00    -0.472 C  
HETATM    2  C   UNL     1     -11.028  11.486  66.405  1.00  0.00    -0.336 C  
ENDROOT
BRANCH   2   3
HETATM    3  C   UNL     1     -10.440  11.965  67.732  1.00  0.00    -0.202 C  
BRANCH   3   4
HETATM    4  N   UNL     1     -11.498  12.348  68.674  1.00  0.00    -0.278 NA 
HETATM    5  H   UNL     1     -12.409  12.373  68.217  1.00  0.00     0.000 HD 
BRANCH   4   6
HETATM    6  C   UNL     1     -11.521  11.476  69.867  1.00  0.00    -0.260 C  
HETATM    7  C   UNL     1     -12.968  11.161  70.335  1.00  0.00    -0.063 C  
HETATM    8  C   UNL     1     -12.968  10.404  71.671  1.00  0.00    -0.581 C  
HETATM    9  C   UNL     1     -12.007   9.272  71.638  1.00  0.00    -0.378 A  
HETATM   10  C   UNL     1     -10.997   9.172  70.705  1.00  0.00    -0.263 A  
HETATM   11  S   UNL     1     -10.103   7.750  70.977  1.00  0.00    -0.185 SA 
HETATM   12  C   UNL     1     -10.756  10.141  69.589  1.00  0.00    -0.295 C  
HETATM   13  C   UNL     1     -11.131   7.380  72.313  1.00  0.00    -0.266 A  
HETATM   14  N   UNL     1     -10.960   6.270  73.049  1.00  0.00    -0.319 NA 
HETATM   15  N   UNL     1     -12.066   8.260  72.566  1.00  0.00    -0.380 NA 
HETATM   16  H1  UNL     1     -11.568   6.051  73.839  1.00  0.00     0.000 HD 
HETATM   17  H2  UNL     1     -10.203   5.629  72.813  1.00  0.00     0.000 HD 
ENDBRANCH   4   6
ENDBRANCH   3   4
ENDBRANCH   2   3
TORSDOF 3
ENDMDL
MODEL      104
REMARK 921   NORMALIZED FREE ENERGY PREDICTED BY IDOCK:   -3.56 KCAL/MOL
REMARK 922        TOTAL FREE ENERGY PREDICTED BY IDOCK:   -4.42 KCAL/MOL
REMARK 923 INTER-LIGAND FREE ENERGY PREDICTED BY IDOCK:   -4.14 KCAL/MOL
REMARK 924 INTRA-LIGAND FREE ENERGY PREDICTED BY IDOCK:   -0.28 KCAL/MOL
REMARK 927      BINDING AFFINITY PREDICTED BY RF-SCORE:    0.00 PKD
ROOT
HETATM    1  C   UNL     1     -10.711  19.569  65.879  1.00  0.00    -0.518 C  
HETATM    2  C   UNL     1     -10.091  19.335  67.250  1.00  0.00    -0.481 C  
ENDROOT
BRANCH   2   3
HETATM    3  C   UNL     1      -8.729  18.654  67.117  1.00  0.00    -0.274 C  
BRANCH   3   4
HETATM    4  N   UNL     1      -8.661  17.834  65.901  1.00  0.00    -0.511 NA 
HETATM    5  H   UNL     1      -7.897  18.132  65.296  1.00  0.00     0.000 HD 
BRANCH   4   6
HETATM    6  C   UNL     1      -8.570  16.391  66.209  1.00  0.00    -0.340 C  
HETATM    7  C   UNL     1      -7.491  16.089  67.284  1.00  0.00    -0.236 C  
HETATM    8  C   UNL     1      -7.290  14.577  67.460  1.00  0.00    -0.212 C  
HETATM    9  C   UNL     1      -8.595  13.881  67.597  1.00  0.00    -0.190 A  
HETATM   10  C   UNL     1      -9.793  14.453  67.224  1.00  0.00    -0.247 A  
HETATM   11  S   UNL     1     -11.067  13.366  67.528  1.00  0.00    -0.283 SA 
HETATM   12  C   UNL     1      -9.954  15.839  66.682  1.00  0.00    -0.268 C  
HETATM   13  C   UNL     1      -9.925  12.223  68.133  1.00  0.00    -0.210 A  
HETATM   14  N   UNL     1     -10.305  11.019  68.591  1.00  0.00    -0.185 NA 
HETATM   15  N   UNL     1      -8.672  12.602  68.094  1.00  0.00    -0.186 NA 
HETATM   16  H1  UNL     1      -9.629  10.344  68.949  1.00  0.00     0.000 HD 
HETATM   17  H2  UNL     1     -11.294  10.774  68.581  1.00  0.00     0.000 HD 
ENDBRANCH   4   6
ENDBRANCH   3   4
ENDBRANCH   2   3
TORSDOF 3
ENDMDL
MODEL      105
REMARK 921   NORMALIZED FREE ENERGY PREDICTED BY IDOCK:   -3.56 KCAL/MOL
REMARK 922        TOTAL FREE ENERGY PREDICTED BY IDOCK:   -4.42 KCAL/MOL
REMARK 923 INTER-LIGAND FREE ENERGY PREDICTED BY IDOCK:   -4.23 KCAL/MOL
REMARK 924 INTRA-LIGAND FREE ENERGY PREDICTED BY IDOCK:   -0.18 KCAL/MOL
REMARK 927      BINDING AFFINITY PREDICTED BY RF-SCORE:    0.00 PKD
ROOT
HETATM    1  C   UNL     1     -13.024  15.564  72.331  1.00  0.00    -0.511 C  
HETATM    2  C   UNL     1     -13.800  14.261  72.465  1.00  0.00    -0.575 C  
ENDROOT
BRANCH   2   3
HETATM    3  C   UNL     1     -13.087  13.130  71.724  1.00  0.00    -0.383 C  
BRANCH   3   4
HETATM    4  N   UNL     1     -13.677  11.826  72.050  1.00  0.00    -0.198 NA 
HETATM    5  H   UNL     1     -14.676  11.812  71.847  1.00  0.00     0.000 HD 
BRANCH   4   6
HETATM    6  C   UNL     1     -12.977  10.715  71.373  1.00  0.00    -0.443 C  
HETATM    7  C   UNL     1     -11.846  11.219  70.436  1.00  0.00    -0.443 C  
HETATM    8  C   UNL     1     -11.252  10.067  69.612  1.00  0.00    -0.285 C  
HETATM    9  C   UNL     1     -10.943   8.901  70.478  1.00  0.00    -0.241 A  
HETATM   10  C   UNL     1     -11.477   8.740  71.739  1.00  0.00    -0.342 A  
HETATM   11  S   UNL     1     -10.899   7.295  72.428  1.00  0.00    -0.274 SA 
HETATM   12  C   UNL     1     -12.387   9.715  72.420  1.00  0.00    -0.003 C  
HETATM   13  C   UNL     1      -9.983   6.999  70.996  1.00  0.00    -0.188 A  
HETATM   14  N   UNL     1      -9.211   5.908  70.863  1.00  0.00    -0.152 NA 
HETATM   15  N   UNL     1     -10.109   7.895  70.050  1.00  0.00    -0.196 NA 
HETATM   16  H1  UNL     1      -8.670   5.734  70.016  1.00  0.00     0.000 HD 
HETATM   17  H2  UNL     1      -9.166   5.237  71.629  1.00  0.00     0.000 HD 
ENDBRANCH   4   6
ENDBRANCH   3   4
ENDBRANCH   2   3
TORSDOF 3
ENDMDL
MODEL      106
REMARK 921   NORMALIZED FREE ENERGY PREDICTED BY IDOCK:   -3.53 KCAL/MOL
REMARK 922        TOTAL FREE ENERGY PREDICTED BY IDOCK:   -4.38 KCAL/MOL
REMARK 923 INTER-LIGAND FREE ENERGY PREDICTED BY IDOCK:   -4.18 KCAL/MOL
REMARK 924 INTRA-LIGAND FREE ENERGY PREDICTED BY IDOCK:   -0.20 KCAL/MOL
REMARK 927      BINDING AFFINITY PREDICTED BY RF-SCORE:    0.00 PKD
ROOT
HETATM    1  C   UNL     1      -6.223  18.091  69.633  1.00  0.00    -0.205 C  
HETATM    2  C   UNL     1      -7.255  18.694  68.689  1.00  0.00    -0.315 C  
ENDROOT
BRANCH   2   3
HETATM    3  C   UNL     1      -8.475  17.781  68.571  1.00  0.00    -0.296 C  
BRANCH   3   4
HETATM    4  N   UNL     1      -9.114  17.915  67.256  1.00  0.00    -0.248 NA 
HETATM    5  H   UNL     1      -8.617  18.586  66.671  1.00  0.00     0.000 HD 
BRANCH   4   6
HETATM    6  C   UNL     1      -9.258  16.613  66.573  1.00  0.00    -0.270 C  
HETATM    7  C   UNL     1      -9.208  15.421  67.567  1.00  0.00    -0.201 C  
HETATM    8  C   UNL     1      -9.183  14.078  66.823  1.00  0.00    -0.280 C  
HETATM    9  C   UNL     1     -10.228  14.036  65.769  1.00  0.00    -0.328 A  
HETATM   10  C   UNL     1     -10.845  15.167  65.279  1.00  0.00    -0.400 A  
HETATM   11  S   UNL     1     -11.982  14.731  64.090  1.00  0.00    -0.135 SA 
HETATM   12  C   UNL     1     -10.591  16.562  65.758  1.00  0.00    -0.307 C  
HETATM   13  C   UNL     1     -11.565  13.073  64.323  1.00  0.00    -0.385 A  
HETATM   14  N   UNL     1     -12.156  12.090  63.624  1.00  0.00    -0.517 NA 
HETATM   15  N   UNL     1     -10.625  12.846  65.206  1.00  0.00    -0.290 NA 
HETATM   16  H1  UNL     1     -11.909  11.111  63.762  1.00  0.00     0.000 HD 
HETATM   17  H2  UNL     1     -12.870  12.330  62.937  1.00  0.00     0.000 HD 
ENDBRANCH   4   6
ENDBRANCH   3   4
ENDBRANCH   2   3
TORSDOF 3
ENDMDL
MODEL      107
REMARK 921   NORMALIZED FREE ENERGY PREDICTED BY IDOCK:   -3.52 KCAL/MOL
REMARK 922        TOTAL FREE ENERGY PREDICTED BY IDOCK:   -4.38 KCAL/MOL
REMARK 923 INTER-LIGAND FREE ENERGY PREDICTED BY IDOCK:   -4.12 KCAL/MOL
REMARK 924 INTRA-LIGAND FREE ENERGY PREDICTED BY IDOCK:   -0.25 KCAL/MOL
REMARK 927      BINDING AFFINITY PREDICTED BY RF-SCORE:    0.00 PKD
ROOT
HETATM    1  C   UNL     1     -10.544  16.454  65.656  1.00  0.00    -0.337 C  
HETATM    2  C   UNL     1     -11.406  15.551  64.784  1.00  0.00    -0.362 C  
ENDROOT
BRANCH   2   3
HETATM    3  C   UNL     1     -11.973  14.392  65.603  1.00  0.00    -0.354 C  
BRANCH   3   4
HETATM    4  N   UNL     1     -11.290  14.272  66.898  1.00  0.00    -0.329 NA 
HETATM    5  H   UNL     1     -11.896  14.568  67.663  1.00  0.00     0.000 HD 
BRANCH   4   6
HETATM    6  C   UNL     1     -10.766  12.910  67.125  1.00  0.00    -0.253 C  
HETATM    7  C   UNL     1     -11.769  12.019  67.908  1.00  0.00    -0.393 C  
HETATM    8  C   UNL     1     -11.138  10.671  68.285  1.00  0.00    -0.334 C  
HETATM    9  C   UNL     1     -10.459  10.058  67.116  1.00  0.00    -0.244 A  
HETATM   10  C   UNL     1     -10.113  10.773  65.989  1.00  0.00    -0.249 A  
HETATM   11  S   UNL     1      -9.358   9.742  64.864  1.00  0.00    -0.247 SA 
HETATM   12  C   UNL     1     -10.403  12.225  65.767  1.00  0.00    -0.287 C  
HETATM   13  C   UNL     1      -9.554   8.427  65.964  1.00  0.00    -0.126 A  
HETATM   14  N   UNL     1      -9.132   7.188  65.666  1.00  0.00    -0.380 NA 
HETATM   15  N   UNL     1     -10.119   8.726  67.106  1.00  0.00    -0.227 NA 
HETATM   16  H1  UNL     1      -9.248   6.410  66.316  1.00  0.00     0.000 HD 
HETATM   17  H2  UNL     1      -8.683   7.019  64.766  1.00  0.00     0.000 HD 
ENDBRANCH   4   6
ENDBRANCH   3   4
ENDBRANCH   2   3
TORSDOF 3
ENDMDL
MODEL      108
REMARK 921   NORMALIZED FREE ENERGY PREDICTED BY IDOCK:   -3.50 KCAL/MOL
REMARK 922        TOTAL FREE ENERGY PREDICTED BY IDOCK:   -4.35 KCAL/MOL
REMARK 923 INTER-LIGAND FREE ENERGY PREDICTED BY IDOCK:   -3.99 KCAL/MOL
REMARK 924 INTRA-LIGAND FREE ENERGY PREDICTED BY IDOCK:   -0.36 KCAL/MOL
REMARK 927      BINDING AFFINITY PREDICTED BY RF-SCORE:    0.00 PKD
ROOT
HETATM    1  C   UNL     1     -14.023   9.020  71.831  1.00  0.00    -0.445 C  
HETATM    2  C   UNL     1     -13.127  10.247  71.730  1.00  0.00    -0.570 C  
ENDROOT
BRANCH   2   3
HETATM    3  C   UNL     1     -11.707   9.846  71.330  1.00  0.00    -0.392 C  
BRANCH   3   4
HETATM    4  N   UNL     1     -11.442   8.438  71.650  1.00  0.00    -0.270 NA 
HETATM    5  H   UNL     1     -12.302   7.947  71.896  1.00  0.00     0.000 HD 
BRANCH   4   6
HETATM    6  C   UNL     1     -10.722   7.747  70.561  1.00  0.00    -0.236 C  
HETATM    7  C   UNL     1     -11.436   6.438  70.125  1.00  0.00    -0.484 C  
HETATM    8  C   UNL     1     -10.584   5.649  69.121  1.00  0.00    -0.334 C  
HETATM    9  C   UNL     1     -10.080   6.536  68.041  1.00  0.00    -0.150 A  
HETATM   10  C   UNL     1     -10.051   7.909  68.151  1.00  0.00    -0.191 A  
HETATM   11  S   UNL     1      -9.413   8.586  66.726  1.00  0.00    -0.213 SA 
HETATM   12  C   UNL     1     -10.553   8.690  69.326  1.00  0.00    -0.204 C  
HETATM   13  C   UNL     1      -9.228   6.999  66.075  1.00  0.00    -0.021 A  
HETATM   14  N   UNL     1      -8.726   6.792  64.847  1.00  0.00    -0.347 NA 
HETATM   15  N   UNL     1      -9.590   6.019  66.865  1.00  0.00    -0.135 NA 
HETATM   16  H1  UNL     1      -8.617   5.854  64.463  1.00  0.00     0.000 HD 
HETATM   17  H2  UNL     1      -8.446   7.595  64.284  1.00  0.00     0.000 HD 
ENDBRANCH   4   6
ENDBRANCH   3   4
ENDBRANCH   2   3
TORSDOF 3
ENDMDL
MODEL      109
REMARK 921   NORMALIZED FREE ENERGY PREDICTED BY IDOCK:   -3.49 KCAL/MOL
REMARK 922        TOTAL FREE ENERGY PREDICTED BY IDOCK:   -4.34 KCAL/MOL
REMARK 923 INTER-LIGAND FREE ENERGY PREDICTED BY IDOCK:   -4.31 KCAL/MOL
REMARK 924 INTRA-LIGAND FREE ENERGY PREDICTED BY IDOCK:   -0.03 KCAL/MOL
REMARK 927      BINDING AFFINITY PREDICTED BY RF-SCORE:    0.00 PKD
ROOT
HETATM    1  C   UNL     1     -13.280  11.564  71.930  1.00  0.00    -0.479 C  
HETATM    2  C   UNL     1     -12.645  10.329  71.304  1.00  0.00    -0.522 C  
ENDROOT
BRANCH   2   3
HETATM    3  C   UNL     1     -13.271   9.055  71.871  1.00  0.00    -0.405 C  
BRANCH   3   4
HETATM    4  N   UNL     1     -12.277   8.248  72.588  1.00  0.00    -0.576 NA 
HETATM    5  H   UNL     1     -12.602   8.007  73.524  1.00  0.00     0.000 HD 
BRANCH   4   6
HETATM    6  C   UNL     1     -11.888   7.042  71.829  1.00  0.00    -0.312 C  
HETATM    7  C   UNL     1     -11.213   7.393  70.476  1.00  0.00    -0.296 C  
HETATM    8  C   UNL     1     -10.978   6.134  69.628  1.00  0.00    -0.459 C  
HETATM    9  C   UNL     1     -10.350   5.060  70.438  1.00  0.00    -0.227 A  
HETATM   10  C   UNL     1     -10.351   5.061  71.817  1.00  0.00    -0.200 A  
HETATM   11  S   UNL     1      -9.542   3.679  72.394  1.00  0.00    -0.148 SA 
HETATM   12  C   UNL     1     -10.931   6.141  72.676  1.00  0.00    -0.291 C  
HETATM   13  C   UNL     1      -9.252   3.191  70.764  1.00  0.00    -0.135 A  
HETATM   14  N   UNL     1      -8.586   2.061  70.473  1.00  0.00    -0.050 NA 
HETATM   15  N   UNL     1      -9.742   3.981  69.842  1.00  0.00    -0.210 NA 
HETATM   16  H1  UNL     1      -8.415   1.773  69.510  1.00  0.00     0.000 HD 
HETATM   17  H2  UNL     1      -8.242   1.478  71.235  1.00  0.00     0.000 HD 
ENDBRANCH   4   6
ENDBRANCH   3   4
ENDBRANCH   2   3
TORSDOF 3
ENDMDL
MODEL      110
REMARK 921   NORMALIZED FREE ENERGY PREDICTED BY IDOCK:   -3.48 KCAL/MOL
REMARK 922        TOTAL FREE ENERGY PREDICTED BY IDOCK:   -4.33 KCAL/MOL
REMARK 923 INTER-LIGAND FREE ENERGY PREDICTED BY IDOCK:   -4.19 KCAL/MOL
REMARK 924 INTRA-LIGAND FREE ENERGY PREDICTED BY IDOCK:   -0.14 KCAL/MOL
REMARK 927      BINDING AFFINITY PREDICTED BY RF-SCORE:    0.00 PKD
ROOT
HETATM    1  C   UNL     1     -10.605  10.021  68.078  1.00  0.00    -0.280 C  
HETATM    2  C   UNL     1      -9.970  11.135  68.900  1.00  0.00    -0.188 C  
ENDROOT
BRANCH   2   3
HETATM    3  C   UNL     1      -9.364  12.200  67.986  1.00  0.00    -0.197 C  
BRANCH   3   4
HETATM    4  N   UNL     1      -8.881  13.351  68.759  1.00  0.00    -0.382 NA 
HETATM    5  H   UNL     1      -7.863  13.399  68.753  1.00  0.00     0.000 HD 
BRANCH   4   6
HETATM    6  C   UNL     1      -9.480  14.620  68.298  1.00  0.00    -0.211 C  
HETATM    7  C   UNL     1     -10.234  15.361  69.436  1.00  0.00    -0.262 C  
HETATM    8  C   UNL     1     -10.994  16.581  68.897  1.00  0.00    -0.325 C  
HETATM    9  C   UNL     1     -10.122  17.402  68.018  1.00  0.00    -0.326 A  
HETATM   10  C   UNL     1      -8.954  16.925  67.463  1.00  0.00    -0.206 A  
HETATM   11  S   UNL     1      -8.226  18.142  66.521  1.00  0.00    -0.257 SA 
HETATM   12  C   UNL     1      -8.385  15.560  67.695  1.00  0.00    -0.167 C  
HETATM   13  C   UNL     1      -9.521  19.207  66.929  1.00  0.00    -0.320 A  
HETATM   14  N   UNL     1      -9.570  20.468  66.469  1.00  0.00    -0.657 NA 
HETATM   15  N   UNL     1     -10.453  18.696  67.694  1.00  0.00    -0.410 NA 
HETATM   16  H1  UNL     1     -10.335  21.097  66.710  1.00  0.00     0.000 HD 
HETATM   17  H2  UNL     1      -8.823  20.805  65.863  1.00  0.00     0.000 HD 
ENDBRANCH   4   6
ENDBRANCH   3   4
ENDBRANCH   2   3
TORSDOF 3
ENDMDL
MODEL      111
REMARK 921   NORMALIZED FREE ENERGY PREDICTED BY IDOCK:   -3.47 KCAL/MOL
REMARK 922        TOTAL FREE ENERGY PREDICTED BY IDOCK:   -4.31 KCAL/MOL
REMARK 923 INTER-LIGAND FREE ENERGY PREDICTED BY IDOCK:   -4.10 KCAL/MOL
REMARK 924 INTRA-LIGAND FREE ENERGY PREDICTED BY IDOCK:   -0.22 KCAL/MOL
REMARK 927      BINDING AFFINITY PREDICTED BY RF-SCORE:    0.00 PKD
ROOT
HETATM    1  C   UNL     1     -11.133  15.544  64.739  1.00  0.00    -0.421 C  
HETATM    2  C   UNL     1     -12.134  14.399  64.823  1.00  0.00    -0.462 C  
ENDROOT
BRANCH   2   3
HETATM    3  C   UNL     1     -11.921  13.590  66.102  1.00  0.00    -0.412 C  
BRANCH   3   4
HETATM    4  N   UNL     1     -10.506  13.243  66.282  1.00  0.00    -0.282 NA 
HETATM    5  H   UNL     1      -9.955  14.061  66.543  1.00  0.00     0.000 HD 
BRANCH   4   6
HETATM    6  C   UNL     1     -10.322  12.144  67.252  1.00  0.00    -0.212 C  
HETATM    7  C   UNL     1     -11.310  12.243  68.446  1.00  0.00    -0.340 C  
HETATM    8  C   UNL     1     -10.987  11.199  69.523  1.00  0.00    -0.276 C  
HETATM    9  C   UNL     1     -10.792   9.856  68.918  1.00  0.00    -0.210 A  
HETATM   10  C   UNL     1     -10.546   9.668  67.575  1.00  0.00    -0.277 A  
HETATM   11  S   UNL     1     -10.380   8.005  67.249  1.00  0.00    -0.316 SA 
HETATM   12  C   UNL     1     -10.486  10.756  66.549  1.00  0.00    -0.299 C  
HETATM   13  C   UNL     1     -10.651   7.669  68.920  1.00  0.00    -0.159 A  
HETATM   14  N   UNL     1     -10.655   6.413  69.396  1.00  0.00    -0.229 NA 
HETATM   15  N   UNL     1     -10.829   8.716  69.685  1.00  0.00    -0.201 NA 
HETATM   16  H1  UNL     1     -10.815   6.215  70.383  1.00  0.00     0.000 HD 
HETATM   17  H2  UNL     1     -10.494   5.638  68.754  1.00  0.00     0.000 HD 
ENDBRANCH   4   6
ENDBRANCH   3   4
ENDBRANCH   2   3
TORSDOF 3
ENDMDL
MODEL      112
REMARK 921   NORMALIZED FREE ENERGY PREDICTED BY IDOCK:   -3.46 KCAL/MOL
REMARK 922        TOTAL FREE ENERGY PREDICTED BY IDOCK:   -4.30 KCAL/MOL
REMARK 923 INTER-LIGAND FREE ENERGY PREDICTED BY IDOCK:   -4.13 KCAL/MOL
REMARK 924 INTRA-LIGAND FREE ENERGY PREDICTED BY IDOCK:   -0.18 KCAL/MOL
REMARK 927      BINDING AFFINITY PREDICTED BY RF-SCORE:    0.00 PKD
ROOT
HETATM    1  C   UNL     1      -5.656  18.395  67.886  1.00  0.00    -0.164 C  
HETATM    2  C   UNL     1      -6.231  19.448  66.948  1.00  0.00    -0.182 C  
ENDROOT
BRANCH   2   3
HETATM    3  C   UNL     1      -7.397  18.874  66.143  1.00  0.00    -0.266 C  
BRANCH   3   4
HETATM    4  N   UNL     1      -8.655  18.957  66.894  1.00  0.00    -0.282 NA 
HETATM    5  H   UNL     1      -9.390  19.391  66.337  1.00  0.00     0.000 HD 
BRANCH   4   6
HETATM    6  C   UNL     1      -9.080  17.640  67.412  1.00  0.00    -0.239 C  
HETATM    7  C   UNL     1     -10.109  17.769  68.567  1.00  0.00    -0.377 C  
HETATM    8  C   UNL     1     -10.403  16.404  69.205  1.00  0.00    -0.292 C  
HETATM    9  C   UNL     1     -10.681  15.382  68.164  1.00  0.00    -0.271 A  
HETATM   10  C   UNL     1     -10.334  15.546  66.840  1.00  0.00    -0.290 A  
HETATM   11  S   UNL     1     -10.810  14.177  65.947  1.00  0.00    -0.302 SA 
HETATM   12  C   UNL     1      -9.685  16.766  66.265  1.00  0.00    -0.318 C  
HETATM   13  C   UNL     1     -11.441  13.476  67.392  1.00  0.00    -0.336 A  
HETATM   14  N   UNL     1     -12.025  12.267  67.394  1.00  0.00    -0.544 NA 
HETATM   15  N   UNL     1     -11.292  14.191  68.479  1.00  0.00    -0.266 NA 
HETATM   16  H1  UNL     1     -12.398  11.853  68.248  1.00  0.00     0.000 HD 
HETATM   17  H2  UNL     1     -12.098  11.749  66.519  1.00  0.00     0.000 HD 
ENDBRANCH   4   6
ENDBRANCH   3   4
ENDBRANCH   2   3
TORSDOF 3
ENDMDL
MODEL      113
REMARK 921   NORMALIZED FREE ENERGY PREDICTED BY IDOCK:   -3.45 KCAL/MOL
REMARK 922        TOTAL FREE ENERGY PREDICTED BY IDOCK:   -4.29 KCAL/MOL
REMARK 923 INTER-LIGAND FREE ENERGY PREDICTED BY IDOCK:   -4.17 KCAL/MOL
REMARK 924 INTRA-LIGAND FREE ENERGY PREDICTED BY IDOCK:   -0.12 KCAL/MOL
REMARK 927      BINDING AFFINITY PREDICTED BY RF-SCORE:    0.00 PKD
ROOT
HETATM    1  C   UNL     1      -6.640   5.359  66.199  1.00  0.00    -0.048 C  
HETATM    2  C   UNL     1      -7.356   5.038  67.504  1.00  0.00    -0.079 C  
ENDROOT
BRANCH   2   3
HETATM    3  C   UNL     1      -7.726   6.322  68.246  1.00  0.00    -0.104 C  
BRANCH   3   4
HETATM    4  N   UNL     1      -9.128   6.688  68.007  1.00  0.00    -0.116 NA 
HETATM    5  H   UNL     1      -9.685   5.872  67.753  1.00  0.00     0.000 HD 
BRANCH   4   6
HETATM    6  C   UNL     1      -9.719   7.403  69.157  1.00  0.00    -0.165 C  
HETATM    7  C   UNL     1      -9.998   8.896  68.838  1.00  0.00    -0.199 C  
HETATM    8  C   UNL     1     -10.445   9.659  70.094  1.00  0.00    -0.321 C  
HETATM    9  C   UNL     1     -11.506   8.912  70.817  1.00  0.00    -0.275 A  
HETATM   10  C   UNL     1     -11.755   7.572  70.610  1.00  0.00    -0.215 A  
HETATM   11  S   UNL     1     -13.036   7.064  71.609  1.00  0.00    -0.285 SA 
HETATM   12  C   UNL     1     -11.041   6.707  69.618  1.00  0.00    -0.390 C  
HETATM   13  C   UNL     1     -13.159   8.667  72.236  1.00  0.00    -0.372 A  
HETATM   14  N   UNL     1     -14.071   8.995  73.166  1.00  0.00    -1.223 NA 
HETATM   15  N   UNL     1     -12.294   9.528  71.761  1.00  0.00    -0.382 NA 
HETATM   16  H1  UNL     1     -14.143   9.942  73.536  1.00  0.00     0.000 HD 
HETATM   17  H2  UNL     1     -14.708   8.277  73.510  1.00  0.00     0.000 HD 
ENDBRANCH   4   6
ENDBRANCH   3   4
ENDBRANCH   2   3
TORSDOF 3
ENDMDL
MODEL      114
REMARK 921   NORMALIZED FREE ENERGY PREDICTED BY IDOCK:   -3.43 KCAL/MOL
REMARK 922        TOTAL FREE ENERGY PREDICTED BY IDOCK:   -4.27 KCAL/MOL
REMARK 923 INTER-LIGAND FREE ENERGY PREDICTED BY IDOCK:   -3.97 KCAL/MOL
REMARK 924 INTRA-LIGAND FREE ENERGY PREDICTED BY IDOCK:   -0.30 KCAL/MOL
REMARK 927      BINDING AFFINITY PREDICTED BY RF-SCORE:    0.00 PKD
ROOT
HETATM    1  C   UNL     1      -6.673  10.001  63.246  1.00  0.00    -0.133 C  
HETATM    2  C   UNL     1      -7.863   9.158  62.807  1.00  0.00    -0.124 C  
ENDROOT
BRANCH   2   3
HETATM    3  C   UNL     1      -9.147   9.649  63.475  1.00  0.00    -0.173 C  
BRANCH   3   4
HETATM    4  N   UNL     1      -9.144  11.109  63.624  1.00  0.00    -0.389 NA 
HETATM    5  H   UNL     1      -9.596  11.563  62.831  1.00  0.00     0.000 HD 
BRANCH   4   6
HETATM    6  C   UNL     1      -9.748  11.538  64.903  1.00  0.00    -0.234 C  
HETATM    7  C   UNL     1     -11.257  11.871  64.755  1.00  0.00    -0.356 C  
HETATM    8  C   UNL     1     -11.821  12.480  66.047  1.00  0.00    -0.478 C  
HETATM    9  C   UNL     1     -11.418  11.678  67.230  1.00  0.00    -0.277 A  
HETATM   10  C   UNL     1     -10.379  10.772  67.204  1.00  0.00    -0.224 A  
HETATM   11  S   UNL     1     -10.212  10.045  68.735  1.00  0.00    -0.197 SA 
HETATM   12  C   UNL     1      -9.556  10.440  65.999  1.00  0.00    -0.251 C  
HETATM   13  C   UNL     1     -11.537  10.992  69.309  1.00  0.00    -0.314 A  
HETATM   14  N   UNL     1     -11.978  10.896  70.574  1.00  0.00    -0.343 NA 
HETATM   15  N   UNL     1     -12.061  11.816  68.438  1.00  0.00    -0.480 NA 
HETATM   16  H1  UNL     1     -12.760  11.455  70.913  1.00  0.00     0.000 HD 
HETATM   17  H2  UNL     1     -11.518  10.247  71.212  1.00  0.00     0.000 HD 
ENDBRANCH   4   6
ENDBRANCH   3   4
ENDBRANCH   2   3
TORSDOF 3
ENDMDL
MODEL      115
REMARK 921   NORMALIZED FREE ENERGY PREDICTED BY IDOCK:   -3.43 KCAL/MOL
REMARK 922        TOTAL FREE ENERGY PREDICTED BY IDOCK:   -4.26 KCAL/MOL
REMARK 923 INTER-LIGAND FREE ENERGY PREDICTED BY IDOCK:   -4.07 KCAL/MOL
REMARK 924 INTRA-LIGAND FREE ENERGY PREDICTED BY IDOCK:   -0.20 KCAL/MOL
REMARK 927      BINDING AFFINITY PREDICTED BY RF-SCORE:    0.00 PKD
ROOT
HETATM    1  C   UNL     1     -14.119  13.944  72.216  1.00  0.00    -0.632 C  
HETATM    2  C   UNL     1     -13.059  13.860  71.126  1.00  0.00    -0.351 C  
ENDROOT
BRANCH   2   3
HETATM    3  C   UNL     1     -12.163  15.098  71.150  1.00  0.00    -0.331 C  
BRANCH   3   4
HETATM    4  N   UNL     1     -12.374  15.930  69.958  1.00  0.00    -0.408 NA 
HETATM    5  H   UNL     1     -12.573  16.897  70.214  1.00  0.00     0.000 HD 
BRANCH   4   6
HETATM    6  C   UNL     1     -11.240  15.847  69.015  1.00  0.00    -0.327 C  
HETATM    7  C   UNL     1     -11.021  17.177  68.244  1.00  0.00    -0.229 C  
HETATM    8  C   UNL     1      -9.957  17.016  67.149  1.00  0.00    -0.281 C  
HETATM    9  C   UNL     1      -8.748  16.336  67.681  1.00  0.00    -0.182 A  
HETATM   10  C   UNL     1      -8.749  15.614  68.855  1.00  0.00    -0.215 A  
HETATM   11  S   UNL     1      -7.194  14.984  69.143  1.00  0.00    -0.172 SA 
HETATM   12  C   UNL     1      -9.926  15.452  69.766  1.00  0.00    -0.251 C  
HETATM   13  C   UNL     1      -6.644  15.724  67.684  1.00  0.00    -0.171 A  
HETATM   14  N   UNL     1      -5.371  15.612  67.272  1.00  0.00    -0.339 NA 
HETATM   15  N   UNL     1      -7.552  16.378  67.005  1.00  0.00    -0.181 NA 
HETATM   16  H1  UNL     1      -5.045  16.049  66.410  1.00  0.00     0.000 HD 
HETATM   17  H2  UNL     1      -4.712  15.075  67.836  1.00  0.00     0.000 HD 
ENDBRANCH   4   6
ENDBRANCH   3   4
ENDBRANCH   2   3
TORSDOF 3
ENDMDL
MODEL      116
REMARK 921   NORMALIZED FREE ENERGY PREDICTED BY IDOCK:   -3.42 KCAL/MOL
REMARK 922        TOTAL FREE ENERGY PREDICTED BY IDOCK:   -4.26 KCAL/MOL
REMARK 923 INTER-LIGAND FREE ENERGY PREDICTED BY IDOCK:   -4.06 KCAL/MOL
REMARK 924 INTRA-LIGAND FREE ENERGY PREDICTED BY IDOCK:   -0.20 KCAL/MOL
REMARK 927      BINDING AFFINITY PREDICTED BY RF-SCORE:    0.00 PKD
ROOT
HETATM    1  C   UNL     1     -12.003  13.369  70.028  1.00  0.00    -0.407 C  
HETATM    2  C   UNL     1     -11.711  12.296  68.988  1.00  0.00    -0.376 C  
ENDROOT
BRANCH   2   3
HETATM    3  C   UNL     1     -12.216  10.933  69.462  1.00  0.00    -0.261 C  
BRANCH   3   4
HETATM    4  N   UNL     1     -11.293   9.860  69.074  1.00  0.00    -0.458 NA 
HETATM    5  H   UNL     1     -10.463  10.234  68.613  1.00  0.00     0.000 HD 
BRANCH   4   6
HETATM    6  C   UNL     1     -10.927   9.001  70.220  1.00  0.00    -0.244 C  
HETATM    7  C   UNL     1     -12.022   8.993  71.320  1.00  0.00    -0.374 C  
HETATM    8  C   UNL     1     -11.548   8.240  72.571  1.00  0.00    -0.454 C  
HETATM    9  C   UNL     1     -10.947   6.932  72.206  1.00  0.00    -0.242 A  
HETATM   10  C   UNL     1     -10.524   6.631  70.929  1.00  0.00    -0.215 A  
HETATM   11  S   UNL     1      -9.895   5.049  70.890  1.00  0.00    -0.218 SA 
HETATM   12  C   UNL     1     -10.648   7.538  69.744  1.00  0.00    -0.245 C  
HETATM   13  C   UNL     1     -10.237   4.891  72.574  1.00  0.00    -0.195 A  
HETATM   14  N   UNL     1      -9.960   3.763  73.248  1.00  0.00    -0.123 NA 
HETATM   15  N   UNL     1     -10.762   5.946  73.146  1.00  0.00    -0.246 NA 
HETATM   16  H1  UNL     1     -10.162   3.670  74.243  1.00  0.00     0.000 HD 
HETATM   17  H2  UNL     1      -9.536   2.980  72.752  1.00  0.00     0.000 HD 
ENDBRANCH   4   6
ENDBRANCH   3   4
ENDBRANCH   2   3
TORSDOF 3
ENDMDL
MODEL      117
REMARK 921   NORMALIZED FREE ENERGY PREDICTED BY IDOCK:   -3.42 KCAL/MOL
REMARK 922        TOTAL FREE ENERGY PREDICTED BY IDOCK:   -4.25 KCAL/MOL
REMARK 923 INTER-LIGAND FREE ENERGY PREDICTED BY IDOCK:   -4.09 KCAL/MOL
REMARK 924 INTRA-LIGAND FREE ENERGY PREDICTED BY IDOCK:   -0.16 KCAL/MOL
REMARK 927      BINDING AFFINITY PREDICTED BY RF-SCORE:    0.00 PKD
ROOT
HETATM    1  C   UNL     1     -12.045  15.577  70.212  1.00  0.00    -0.415 C  
HETATM    2  C   UNL     1     -11.841  14.068  70.227  1.00  0.00    -0.373 C  
ENDROOT
BRANCH   2   3
HETATM    3  C   UNL     1     -12.161  13.467  68.859  1.00  0.00    -0.279 C  
BRANCH   3   4
HETATM    4  N   UNL     1     -11.334  14.071  67.807  1.00  0.00    -0.288 NA 
HETATM    5  H   UNL     1     -10.445  14.402  68.180  1.00  0.00     0.000 HD 
BRANCH   4   6
HETATM    6  C   UNL     1     -11.129  13.154  66.667  1.00  0.00    -0.292 C  
HETATM    7  C   UNL     1     -10.642  13.900  65.395  1.00  0.00    -0.344 C  
HETATM    8  C   UNL     1     -10.605  12.962  64.180  1.00  0.00    -0.442 C  
HETATM    9  C   UNL     1      -9.924  11.686  64.518  1.00  0.00    -0.253 A  
HETATM   10  C   UNL     1      -9.721  11.263  65.814  1.00  0.00    -0.227 A  
HETATM   11  S   UNL     1      -8.913   9.765  65.811  1.00  0.00    -0.173 SA 
HETATM   12  C   UNL     1     -10.108  12.030  67.040  1.00  0.00    -0.221 C  
HETATM   13  C   UNL     1      -8.894   9.800  64.085  1.00  0.00    -0.231 A  
HETATM   14  N   UNL     1      -8.341   8.810  63.365  1.00  0.00    -0.287 NA 
HETATM   15  N   UNL     1      -9.470  10.838  63.535  1.00  0.00    -0.269 NA 
HETATM   16  H1  UNL     1      -8.331   8.830  62.345  1.00  0.00     0.000 HD 
HETATM   17  H2  UNL     1      -7.921   8.018  63.850  1.00  0.00     0.000 HD 
ENDBRANCH   4   6
ENDBRANCH   3   4
ENDBRANCH   2   3
TORSDOF 3
ENDMDL
MODEL      118
REMARK 921   NORMALIZED FREE ENERGY PREDICTED BY IDOCK:   -3.41 KCAL/MOL
REMARK 922        TOTAL FREE ENERGY PREDICTED BY IDOCK:   -4.25 KCAL/MOL
REMARK 923 INTER-LIGAND FREE ENERGY PREDICTED BY IDOCK:   -4.04 KCAL/MOL
REMARK 924 INTRA-LIGAND FREE ENERGY PREDICTED BY IDOCK:   -0.21 KCAL/MOL
REMARK 927      BINDING AFFINITY PREDICTED BY RF-SCORE:    0.00 PKD
ROOT
HETATM    1  C   UNL     1     -10.340  18.733  68.516  1.00  0.00    -0.312 C  
HETATM    2  C   UNL     1      -9.917  17.364  67.999  1.00  0.00    -0.302 C  
ENDROOT
BRANCH   2   3
HETATM    3  C   UNL     1     -11.103  16.638  67.365  1.00  0.00     0.001 C  
BRANCH   3   4
HETATM    4  N   UNL     1     -11.803  15.804  68.349  1.00  0.00    -0.438 NA 
HETATM    5  H   UNL     1     -12.725  16.183  68.565  1.00  0.00     0.000 HD 
BRANCH   4   6
HETATM    6  C   UNL     1     -11.893  14.393  67.918  1.00  0.00    -0.349 C  
HETATM    7  C   UNL     1     -11.022  14.106  66.666  1.00  0.00    -0.303 C  
HETATM    8  C   UNL     1     -11.265  12.687  66.133  1.00  0.00    -0.350 C  
HETATM    9  C   UNL     1     -11.214  11.692  67.234  1.00  0.00    -0.304 A  
HETATM   10  C   UNL     1     -11.330  12.037  68.563  1.00  0.00    -0.272 A  
HETATM   11  S   UNL     1     -11.223  10.641  69.531  1.00  0.00    -0.293 SA 
HETATM   12  C   UNL     1     -11.475  13.434  69.081  1.00  0.00    -0.351 C  
HETATM   13  C   UNL     1     -11.030   9.689  68.105  1.00  0.00    -0.132 A  
HETATM   14  N   UNL     1     -10.875   8.356  68.161  1.00  0.00    -0.456 NA 
HETATM   15  N   UNL     1     -11.065  10.350  66.975  1.00  0.00    -0.178 NA 
HETATM   16  H1  UNL     1     -10.761   7.793  67.318  1.00  0.00     0.000 HD 
HETATM   17  H2  UNL     1     -10.872   7.894  69.070  1.00  0.00     0.000 HD 
ENDBRANCH   4   6
ENDBRANCH   3   4
ENDBRANCH   2   3
TORSDOF 3
ENDMDL
MODEL      119
REMARK 921   NORMALIZED FREE ENERGY PREDICTED BY IDOCK:   -3.37 KCAL/MOL
REMARK 922        TOTAL FREE ENERGY PREDICTED BY IDOCK:   -4.19 KCAL/MOL
REMARK 923 INTER-LIGAND FREE ENERGY PREDICTED BY IDOCK:   -3.94 KCAL/MOL
REMARK 924 INTRA-LIGAND FREE ENERGY PREDICTED BY IDOCK:   -0.25 KCAL/MOL
REMARK 927      BINDING AFFINITY PREDICTED BY RF-SCORE:    0.00 PKD
ROOT
HETATM    1  C   UNL     1      -9.881   9.289  70.788  1.00  0.00    -0.350 C  
HETATM    2  C   UNL     1     -10.394   8.554  69.556  1.00  0.00    -0.218 C  
ENDROOT
BRANCH   2   3
HETATM    3  C   UNL     1     -10.579   9.523  68.388  1.00  0.00    -0.219 C  
BRANCH   3   4
HETATM    4  N   UNL     1      -9.511  10.529  68.358  1.00  0.00    -0.152 NA 
HETATM    5  H   UNL     1      -8.624  10.118  68.068  1.00  0.00     0.000 HD 
BRANCH   4   6
HETATM    6  C   UNL     1      -9.865  11.690  67.515  1.00  0.00    -0.188 C  
HETATM    7  C   UNL     1     -11.394  11.956  67.496  1.00  0.00    -0.381 C  
HETATM    8  C   UNL     1     -11.755  13.049  66.481  1.00  0.00    -0.437 C  
HETATM    9  C   UNL     1     -10.865  14.229  66.633  1.00  0.00    -0.301 A  
HETATM   10  C   UNL     1      -9.663  14.179  67.304  1.00  0.00    -0.236 A  
HETATM   11  S   UNL     1      -8.925  15.713  67.275  1.00  0.00    -0.208 SA 
HETATM   12  C   UNL     1      -9.113  12.973  67.999  1.00  0.00    -0.210 C  
HETATM   13  C   UNL     1     -10.265  16.321  66.373  1.00  0.00    -0.313 A  
HETATM   14  N   UNL     1     -10.329  17.604  65.981  1.00  0.00    -0.501 NA 
HETATM   15  N   UNL     1     -11.195  15.446  66.085  1.00  0.00    -0.229 NA 
HETATM   16  H1  UNL     1     -11.121  17.963  65.448  1.00  0.00     0.000 HD 
HETATM   17  H2  UNL     1      -9.565  18.235  66.222  1.00  0.00     0.000 HD 
ENDBRANCH   4   6
ENDBRANCH   3   4
ENDBRANCH   2   3
TORSDOF 3
ENDMDL
MODEL      120
REMARK 921   NORMALIZED FREE ENERGY PREDICTED BY IDOCK:   -3.35 KCAL/MOL
REMARK 922        TOTAL FREE ENERGY PREDICTED BY IDOCK:   -4.18 KCAL/MOL
REMARK 923 INTER-LIGAND FREE ENERGY PREDICTED BY IDOCK:   -3.98 KCAL/MOL
REMARK 924 INTRA-LIGAND FREE ENERGY PREDICTED BY IDOCK:   -0.20 KCAL/MOL
REMARK 927      BINDING AFFINITY PREDICTED BY RF-SCORE:    0.00 PKD
ROOT
HETATM    1  C   UNL     1     -12.586  13.587  71.241  1.00  0.00    -0.427 C  
HETATM    2  C   UNL     1     -13.062  12.308  71.917  1.00  0.00    -0.469 C  
ENDROOT
BRANCH   2   3
HETATM    3  C   UNL     1     -12.863  11.105  70.996  1.00  0.00    -0.329 C  
BRANCH   3   4
HETATM    4  N   UNL     1     -11.460  10.979  70.582  1.00  0.00    -0.413 NA 
HETATM    5  H   UNL     1     -10.839  11.466  71.228  1.00  0.00     0.000 HD 
BRANCH   4   6
HETATM    6  C   UNL     1     -11.056   9.568  70.412  1.00  0.00    -0.277 C  
HETATM    7  C   UNL     1      -9.516   9.408  70.304  1.00  0.00    -0.294 C  
HETATM    8  C   UNL     1      -9.129   7.965  69.953  1.00  0.00    -0.146 C  
HETATM    9  C   UNL     1      -9.850   6.998  70.821  1.00  0.00    -0.185 A  
HETATM   10  C   UNL     1     -10.976   7.332  71.543  1.00  0.00    -0.233 A  
HETATM   11  S   UNL     1     -11.522   5.976  72.416  1.00  0.00    -0.287 SA 
HETATM   12  C   UNL     1     -11.594   8.694  71.592  1.00  0.00    -0.379 C  
HETATM   13  C   UNL     1     -10.216   5.054  71.766  1.00  0.00    -0.207 A  
HETATM   14  N   UNL     1     -10.038   3.762  72.083  1.00  0.00    -0.169 NA 
HETATM   15  N   UNL     1      -9.433   5.693  70.933  1.00  0.00    -0.163 NA 
HETATM   16  H1  UNL     1      -9.266   3.217  71.698  1.00  0.00     0.000 HD 
HETATM   17  H2  UNL     1     -10.691   3.313  72.725  1.00  0.00     0.000 HD 
ENDBRANCH   4   6
ENDBRANCH   3   4
ENDBRANCH   2   3
TORSDOF 3
ENDMDL
MODEL      121
REMARK 921   NORMALIZED FREE ENERGY PREDICTED BY IDOCK:   -3.34 KCAL/MOL
REMARK 922        TOTAL FREE ENERGY PREDICTED BY IDOCK:   -4.16 KCAL/MOL
REMARK 923 INTER-LIGAND FREE ENERGY PREDICTED BY IDOCK:   -3.98 KCAL/MOL
REMARK 924 INTRA-LIGAND FREE ENERGY PREDICTED BY IDOCK:   -0.18 KCAL/MOL
REMARK 927      BINDING AFFINITY PREDICTED BY RF-SCORE:    0.00 PKD
ROOT
HETATM    1  C   UNL     1      -9.274   5.769  71.393  1.00  0.00    -0.157 C  
HETATM    2  C   UNL     1     -10.419   6.149  70.464  1.00  0.00    -0.291 C  
ENDROOT
BRANCH   2   3
HETATM    3  C   UNL     1     -10.010   7.300  69.546  1.00  0.00    -0.170 C  
BRANCH   3   4
HETATM    4  N   UNL     1     -10.553   7.120  68.194  1.00  0.00    -0.277 NA 
HETATM    5  H   UNL     1     -11.350   6.484  68.197  1.00  0.00     0.000 HD 
BRANCH   4   6
HETATM    6  C   UNL     1     -10.898   8.408  67.558  1.00  0.00    -0.013 C  
HETATM    7  C   UNL     1     -10.821   9.594  68.557  1.00  0.00    -0.202 C  
HETATM    8  C   UNL     1     -11.351  10.889  67.925  1.00  0.00    -0.380 C  
HETATM    9  C   UNL     1     -10.762  11.100  66.578  1.00  0.00    -0.260 A  
HETATM   10  C   UNL     1     -10.154  10.094  65.858  1.00  0.00    -0.254 A  
HETATM   11  S   UNL     1      -9.601  10.705  64.369  1.00  0.00    -0.323 SA 
HETATM   12  C   UNL     1      -9.963   8.688  66.336  1.00  0.00    -0.331 C  
HETATM   13  C   UNL     1     -10.212  12.260  64.801  1.00  0.00    -0.282 A  
HETATM   14  N   UNL     1     -10.092  13.319  63.983  1.00  0.00    -0.776 NA 
HETATM   15  N   UNL     1     -10.812  12.329  65.963  1.00  0.00    -0.265 NA 
HETATM   16  H1  UNL     1     -10.453  14.238  64.239  1.00  0.00     0.000 HD 
HETATM   17  H2  UNL     1      -9.628  13.200  63.083  1.00  0.00     0.000 HD 
ENDBRANCH   4   6
ENDBRANCH   3   4
ENDBRANCH   2   3
TORSDOF 3
ENDMDL
MODEL      122
REMARK 921   NORMALIZED FREE ENERGY PREDICTED BY IDOCK:   -3.34 KCAL/MOL
REMARK 922        TOTAL FREE ENERGY PREDICTED BY IDOCK:   -4.16 KCAL/MOL
REMARK 923 INTER-LIGAND FREE ENERGY PREDICTED BY IDOCK:   -3.96 KCAL/MOL
REMARK 924 INTRA-LIGAND FREE ENERGY PREDICTED BY IDOCK:   -0.20 KCAL/MOL
REMARK 927      BINDING AFFINITY PREDICTED BY RF-SCORE:    0.00 PKD
ROOT
HETATM    1  C   UNL     1     -12.135  11.076  69.342  1.00  0.00    -0.389 C  
HETATM    2  C   UNL     1     -11.658  12.208  68.441  1.00  0.00    -0.381 C  
ENDROOT
BRANCH   2   3
HETATM    3  C   UNL     1     -11.527  13.508  69.233  1.00  0.00    -0.291 C  
BRANCH   3   4
HETATM    4  N   UNL     1     -11.965  14.662  68.438  1.00  0.00    -0.525 NA 
HETATM    5  H   UNL     1     -12.729  15.158  68.897  1.00  0.00     0.000 HD 
BRANCH   4   6
HETATM    6  C   UNL     1     -10.848  15.575  68.121  1.00  0.00    -0.296 C  
HETATM    7  C   UNL     1     -11.239  17.066  68.308  1.00  0.00    -0.038 C  
HETATM    8  C   UNL     1     -10.127  17.999  67.806  1.00  0.00    -0.359 C  
HETATM    9  C   UNL     1      -8.804  17.576  68.331  1.00  0.00    -0.276 A  
HETATM   10  C   UNL     1      -8.569  16.321  68.851  1.00  0.00    -0.260 A  
HETATM   11  S   UNL     1      -6.947  16.200  69.353  1.00  0.00    -0.195 SA 
HETATM   12  C   UNL     1      -9.598  15.244  69.001  1.00  0.00    -0.237 C  
HETATM   13  C   UNL     1      -6.686  17.828  68.840  1.00  0.00    -0.237 A  
HETATM   14  N   UNL     1      -5.490  18.425  68.966  1.00  0.00    -0.196 NA 
HETATM   15  N   UNL     1      -7.722  18.425  68.307  1.00  0.00    -0.283 NA 
HETATM   16  H1  UNL     1      -5.337  19.387  68.663  1.00  0.00     0.000 HD 
HETATM   17  H2  UNL     1      -4.716  17.903  69.375  1.00  0.00     0.000 HD 
ENDBRANCH   4   6
ENDBRANCH   3   4
ENDBRANCH   2   3
TORSDOF 3
ENDMDL
MODEL      123
REMARK 921   NORMALIZED FREE ENERGY PREDICTED BY IDOCK:   -3.33 KCAL/MOL
REMARK 922        TOTAL FREE ENERGY PREDICTED BY IDOCK:   -4.15 KCAL/MOL
REMARK 923 INTER-LIGAND FREE ENERGY PREDICTED BY IDOCK:   -3.86 KCAL/MOL
REMARK 924 INTRA-LIGAND FREE ENERGY PREDICTED BY IDOCK:   -0.29 KCAL/MOL
REMARK 927      BINDING AFFINITY PREDICTED BY RF-SCORE:    0.00 PKD
ROOT
HETATM    1  C   UNL     1      -9.334   4.328  74.493  1.00  0.00    -0.124 C  
HETATM    2  C   UNL     1     -10.530   3.663  73.826  1.00  0.00    -0.264 C  
ENDROOT
BRANCH   2   3
HETATM    3  C   UNL     1     -11.571   4.707  73.419  1.00  0.00    -0.154 C  
BRANCH   3   4
HETATM    4  N   UNL     1     -11.094   6.067  73.696  1.00  0.00    -0.415 NA 
HETATM    5  H   UNL     1     -10.172   6.055  74.132  1.00  0.00     0.000 HD 
BRANCH   4   6
HETATM    6  C   UNL     1     -11.104   6.916  72.487  1.00  0.00    -0.266 C  
HETATM    7  C   UNL     1      -9.987   7.994  72.518  1.00  0.00    -0.338 C  
HETATM    8  C   UNL     1     -10.124   8.971  71.342  1.00  0.00    -0.399 C  
HETATM    9  C   UNL     1     -10.321   8.239  70.065  1.00  0.00    -0.212 A  
HETATM   10  C   UNL     1     -10.717   6.920  70.010  1.00  0.00    -0.243 A  
HETATM   11  S   UNL     1     -10.836   6.423  68.386  1.00  0.00    -0.313 SA 
HETATM   12  C   UNL     1     -10.955   6.042  71.199  1.00  0.00    -0.341 C  
HETATM   13  C   UNL     1     -10.349   8.002  67.886  1.00  0.00    -0.222 A  
HETATM   14  N   UNL     1     -10.224   8.325  66.589  1.00  0.00    -0.374 NA 
HETATM   15  N   UNL     1     -10.134   8.859  68.852  1.00  0.00    -0.192 NA 
HETATM   16  H1  UNL     1      -9.937   9.258  66.293  1.00  0.00     0.000 HD 
HETATM   17  H2  UNL     1     -10.422   7.618  65.880  1.00  0.00     0.000 HD 
ENDBRANCH   4   6
ENDBRANCH   3   4
ENDBRANCH   2   3
TORSDOF 3
ENDMDL
MODEL      124
REMARK 921   NORMALIZED FREE ENERGY PREDICTED BY IDOCK:   -3.32 KCAL/MOL
REMARK 922        TOTAL FREE ENERGY PREDICTED BY IDOCK:   -4.14 KCAL/MOL
REMARK 923 INTER-LIGAND FREE ENERGY PREDICTED BY IDOCK:   -3.91 KCAL/MOL
REMARK 924 INTRA-LIGAND FREE ENERGY PREDICTED BY IDOCK:   -0.23 KCAL/MOL
REMARK 927      BINDING AFFINITY PREDICTED BY RF-SCORE:    0.00 PKD
ROOT
HETATM    1  C   UNL     1     -10.441   8.497  71.723  1.00  0.00    -0.370 C  
HETATM    2  C   UNL     1     -11.299   9.381  70.828  1.00  0.00    -0.363 C  
ENDROOT
BRANCH   2   3
HETATM    3  C   UNL     1     -10.521   9.804  69.582  1.00  0.00    -0.242 C  
BRANCH   3   4
HETATM    4  N   UNL     1     -11.421  10.033  68.445  1.00  0.00    -0.538 NA 
HETATM    5  H   UNL     1     -12.393  10.088  68.749  1.00  0.00     0.000 HD 
BRANCH   4   6
HETATM    6  C   UNL     1     -11.036  11.226  67.663  1.00  0.00    -0.259 C  
HETATM    7  C   UNL     1     -12.091  12.360  67.766  1.00  0.00    -0.074 C  
HETATM    8  C   UNL     1     -11.761  13.515  66.811  1.00  0.00    -0.430 C  
HETATM    9  C   UNL     1     -10.333  13.908  66.929  1.00  0.00    -0.266 A  
HETATM   10  C   UNL     1      -9.378  13.100  67.507  1.00  0.00    -0.207 A  
HETATM   11  S   UNL     1      -7.864  13.878  67.465  1.00  0.00    -0.171 SA 
HETATM   12  C   UNL     1      -9.641  11.762  68.125  1.00  0.00    -0.193 C  
HETATM   13  C   UNL     1      -8.601  15.229  66.683  1.00  0.00    -0.270 A  
HETATM   14  N   UNL     1      -7.892  16.314  66.332  1.00  0.00    -0.266 NA 
HETATM   15  N   UNL     1      -9.882  15.112  66.441  1.00  0.00    -0.264 NA 
HETATM   16  H1  UNL     1      -8.328  17.112  65.870  1.00  0.00     0.000 HD 
HETATM   17  H2  UNL     1      -6.893  16.341  66.533  1.00  0.00     0.000 HD 
ENDBRANCH   4   6
ENDBRANCH   3   4
ENDBRANCH   2   3
TORSDOF 3
ENDMDL
MODEL      125
REMARK 921   NORMALIZED FREE ENERGY PREDICTED BY IDOCK:   -3.32 KCAL/MOL
REMARK 922        TOTAL FREE ENERGY PREDICTED BY IDOCK:   -4.14 KCAL/MOL
REMARK 923 INTER-LIGAND FREE ENERGY PREDICTED BY IDOCK:   -3.79 KCAL/MOL
REMARK 924 INTRA-LIGAND FREE ENERGY PREDICTED BY IDOCK:   -0.34 KCAL/MOL
REMARK 927      BINDING AFFINITY PREDICTED BY RF-SCORE:    0.00 PKD
ROOT
HETATM    1  C   UNL     1      -6.901   7.254  67.151  1.00  0.00    -0.077 C  
HETATM    2  C   UNL     1      -7.301   7.380  65.687  1.00  0.00    -0.074 C  
ENDROOT
BRANCH   2   3
HETATM    3  C   UNL     1      -8.488   8.330  65.532  1.00  0.00    -0.161 C  
BRANCH   3   4
HETATM    4  N   UNL     1      -9.672   7.819  66.234  1.00  0.00    -0.431 NA 
HETATM    5  H   UNL     1      -9.417   7.105  66.916  1.00  0.00     0.000 HD 
BRANCH   4   6
HETATM    6  C   UNL     1     -10.456   8.903  66.862  1.00  0.00    -0.234 C  
HETATM    7  C   UNL     1     -10.125   9.069  68.370  1.00  0.00    -0.216 C  
HETATM    8  C   UNL     1     -11.072  10.075  69.039  1.00  0.00    -0.221 C  
HETATM    9  C   UNL     1     -11.184  11.316  68.231  1.00  0.00    -0.267 A  
HETATM   10  C   UNL     1     -10.813  11.384  66.905  1.00  0.00    -0.285 A  
HETATM   11  S   UNL     1     -11.080  12.957  66.313  1.00  0.00    -0.297 SA 
HETATM   12  C   UNL     1     -10.218  10.258  66.119  1.00  0.00    -0.285 C  
HETATM   13  C   UNL     1     -11.665  13.424  67.868  1.00  0.00    -0.361 A  
HETATM   14  N   UNL     1     -12.085  14.674  68.120  1.00  0.00    -0.572 NA 
HETATM   15  N   UNL     1     -11.689  12.475  68.771  1.00  0.00    -0.312 NA 
HETATM   16  H1  UNL     1     -12.431  14.950  69.039  1.00  0.00     0.000 HD 
HETATM   17  H2  UNL     1     -12.058  15.367  67.372  1.00  0.00     0.000 HD 
ENDBRANCH   4   6
ENDBRANCH   3   4
ENDBRANCH   2   3
TORSDOF 3
ENDMDL
MODEL      126
REMARK 921   NORMALIZED FREE ENERGY PREDICTED BY IDOCK:   -3.31 KCAL/MOL
REMARK 922        TOTAL FREE ENERGY PREDICTED BY IDOCK:   -4.13 KCAL/MOL
REMARK 923 INTER-LIGAND FREE ENERGY PREDICTED BY IDOCK:   -3.94 KCAL/MOL
REMARK 924 INTRA-LIGAND FREE ENERGY PREDICTED BY IDOCK:   -0.19 KCAL/MOL
REMARK 927      BINDING AFFINITY PREDICTED BY RF-SCORE:    0.00 PKD
ROOT
HETATM    1  C   UNL     1      -6.971  19.754  66.720  1.00  0.00    -0.225 C  
HETATM    2  C   UNL     1      -6.667  18.533  67.578  1.00  0.00    -0.203 C  
ENDROOT
BRANCH   2   3
HETATM    3  C   UNL     1      -7.912  17.661  67.734  1.00  0.00    -0.218 C  
BRANCH   3   4
HETATM    4  N   UNL     1      -7.951  17.024  69.056  1.00  0.00    -0.203 NA 
HETATM    5  H   UNL     1      -8.026  17.718  69.799  1.00  0.00     0.000 HD 
BRANCH   4   6
HETATM    6  C   UNL     1      -9.028  16.016  69.155  1.00  0.00    -0.252 C  
HETATM    7  C   UNL     1     -10.317  16.461  68.413  1.00  0.00    -0.282 C  
HETATM    8  C   UNL     1     -11.474  15.487  68.675  1.00  0.00    -0.367 C  
HETATM    9  C   UNL     1     -11.035  14.080  68.485  1.00  0.00    -0.256 A  
HETATM   10  C   UNL     1      -9.709  13.704  68.469  1.00  0.00    -0.184 A  
HETATM   11  S   UNL     1      -9.592  12.022  68.228  1.00  0.00    -0.191 SA 
HETATM   12  C   UNL     1      -8.547  14.638  68.594  1.00  0.00    -0.172 C  
HETATM   13  C   UNL     1     -11.314  11.930  68.161  1.00  0.00    -0.288 A  
HETATM   14  N   UNL     1     -11.952  10.765  67.968  1.00  0.00    -0.773 NA 
HETATM   15  N   UNL     1     -11.948  13.064  68.330  1.00  0.00    -0.322 NA 
HETATM   16  H1  UNL     1     -12.970  10.710  67.928  1.00  0.00     0.000 HD 
HETATM   17  H2  UNL     1     -11.405   9.911  67.859  1.00  0.00     0.000 HD 
ENDBRANCH   4   6
ENDBRANCH   3   4
ENDBRANCH   2   3
TORSDOF 3
ENDMDL
MODEL      127
REMARK 921   NORMALIZED FREE ENERGY PREDICTED BY IDOCK:   -3.28 KCAL/MOL
REMARK 922        TOTAL FREE ENERGY PREDICTED BY IDOCK:   -4.09 KCAL/MOL
REMARK 923 INTER-LIGAND FREE ENERGY PREDICTED BY IDOCK:   -3.81 KCAL/MOL
REMARK 924 INTRA-LIGAND FREE ENERGY PREDICTED BY IDOCK:   -0.28 KCAL/MOL
REMARK 927      BINDING AFFINITY PREDICTED BY RF-SCORE:    0.00 PKD
ROOT
HETATM    1  C   UNL     1      -6.251  10.055  68.303  1.00  0.00    -0.049 C  
HETATM    2  C   UNL     1      -6.338   8.695  67.622  1.00  0.00    -0.053 C  
ENDROOT
BRANCH   2   3
HETATM    3  C   UNL     1      -7.369   7.808  68.320  1.00  0.00    -0.102 C  
BRANCH   3   4
HETATM    4  N   UNL     1      -8.570   7.637  67.494  1.00  0.00    -0.119 NA 
HETATM    5  H   UNL     1      -8.485   6.824  66.884  1.00  0.00     0.000 HD 
BRANCH   4   6
HETATM    6  C   UNL     1      -9.800   7.569  68.309  1.00  0.00    -0.163 C  
HETATM    7  C   UNL     1      -9.855   6.287  69.183  1.00  0.00    -0.168 C  
HETATM    8  C   UNL     1     -11.214   6.150  69.884  1.00  0.00    -0.484 C  
HETATM    9  C   UNL     1     -11.606   7.428  70.533  1.00  0.00    -0.229 A  
HETATM   10  C   UNL     1     -11.032   8.639  70.212  1.00  0.00    -0.236 A  
HETATM   11  S   UNL     1     -11.729   9.873  71.155  1.00  0.00    -0.403 SA 
HETATM   12  C   UNL     1      -9.927   8.833  69.221  1.00  0.00    -0.194 C  
HETATM   13  C   UNL     1     -12.737   8.697  71.917  1.00  0.00    -0.366 A  
HETATM   14  N   UNL     1     -13.622   9.035  72.868  1.00  0.00    -0.903 NA 
HETATM   15  N   UNL     1     -12.592   7.468  71.489  1.00  0.00    -0.342 NA 
HETATM   16  H1  UNL     1     -14.217   8.340  73.318  1.00  0.00     0.000 HD 
HETATM   17  H2  UNL     1     -13.700  10.012  73.149  1.00  0.00     0.000 HD 
ENDBRANCH   4   6
ENDBRANCH   3   4
ENDBRANCH   2   3
TORSDOF 3
ENDMDL
MODEL      128
REMARK 921   NORMALIZED FREE ENERGY PREDICTED BY IDOCK:   -3.28 KCAL/MOL
REMARK 922        TOTAL FREE ENERGY PREDICTED BY IDOCK:   -4.09 KCAL/MOL
REMARK 923 INTER-LIGAND FREE ENERGY PREDICTED BY IDOCK:   -3.88 KCAL/MOL
REMARK 924 INTRA-LIGAND FREE ENERGY PREDICTED BY IDOCK:   -0.22 KCAL/MOL
REMARK 927      BINDING AFFINITY PREDICTED BY RF-SCORE:    0.00 PKD
ROOT
HETATM    1  C   UNL     1      -7.392  17.651  66.775  1.00  0.00    -0.245 C  
HETATM    2  C   UNL     1      -7.467  16.135  66.646  1.00  0.00    -0.200 C  
ENDROOT
BRANCH   2   3
HETATM    3  C   UNL     1      -8.915  15.656  66.747  1.00  0.00    -0.261 C  
BRANCH   3   4
HETATM    4  N   UNL     1      -9.548  16.137  67.981  1.00  0.00    -0.219 NA 
HETATM    5  H   UNL     1     -10.294  16.803  67.778  1.00  0.00     0.000 HD 
BRANCH   4   6
HETATM    6  C   UNL     1     -10.037  15.027  68.824  1.00  0.00    -0.231 C  
HETATM    7  C   UNL     1     -11.499  15.249  69.297  1.00  0.00    -0.334 C  
HETATM    8  C   UNL     1     -11.926  14.177  70.309  1.00  0.00    -0.404 C  
HETATM    9  C   UNL     1     -11.572  12.819  69.823  1.00  0.00    -0.218 A  
HETATM   10  C   UNL     1     -10.655  12.597  68.818  1.00  0.00    -0.186 A  
HETATM   11  S   UNL     1     -10.510  10.925  68.530  1.00  0.00    -0.201 SA 
HETATM   12  C   UNL     1      -9.933  13.667  68.059  1.00  0.00    -0.247 C  
HETATM   13  C   UNL     1     -11.681  10.630  69.763  1.00  0.00    -0.310 A  
HETATM   14  N   UNL     1     -12.073   9.386  70.081  1.00  0.00    -0.445 NA 
HETATM   15  N   UNL     1     -12.139  11.694  70.374  1.00  0.00    -0.374 NA 
HETATM   16  H1  UNL     1     -12.765   9.212  70.810  1.00  0.00     0.000 HD 
HETATM   17  H2  UNL     1     -11.669   8.595  69.581  1.00  0.00     0.000 HD 
ENDBRANCH   4   6
ENDBRANCH   3   4
ENDBRANCH   2   3
TORSDOF 3
ENDMDL
MODEL      129
REMARK 921   NORMALIZED FREE ENERGY PREDICTED BY IDOCK:   -3.27 KCAL/MOL
REMARK 922        TOTAL FREE ENERGY PREDICTED BY IDOCK:   -4.08 KCAL/MOL
REMARK 923 INTER-LIGAND FREE ENERGY PREDICTED BY IDOCK:   -3.82 KCAL/MOL
REMARK 924 INTRA-LIGAND FREE ENERGY PREDICTED BY IDOCK:   -0.26 KCAL/MOL
REMARK 927      BINDING AFFINITY PREDICTED BY RF-SCORE:    0.00 PKD
ROOT
HETATM    1  C   UNL     1      -6.266   9.878  64.531  1.00  0.00    -0.118 C  
HETATM    2  C   UNL     1      -6.901   9.294  65.786  1.00  0.00    -0.084 C  
ENDROOT
BRANCH   2   3
HETATM    3  C   UNL     1      -6.198   9.815  67.039  1.00  0.00    -0.064 C  
BRANCH   3   4
HETATM    4  N   UNL     1      -7.145  10.482  67.941  1.00  0.00    -0.082 NA 
HETATM    5  H   UNL     1      -6.750  11.341  68.323  1.00  0.00     0.000 HD 
BRANCH   4   6
HETATM    6  C   UNL     1      -8.448  10.736  67.290  1.00  0.00    -0.124 C  
HETATM    7  C   UNL     1      -9.644  10.377  68.213  1.00  0.00    -0.152 C  
HETATM    8  C   UNL     1     -10.977  10.481  67.460  1.00  0.00    -0.365 C  
HETATM    9  C   UNL     1     -11.063  11.758  66.708  1.00  0.00    -0.306 A  
HETATM   10  C   UNL     1      -9.961  12.533  66.416  1.00  0.00    -0.252 A  
HETATM   11  S   UNL     1     -10.443  13.915  65.548  1.00  0.00    -0.339 SA 
HETATM   12  C   UNL     1      -8.558  12.230  66.842  1.00  0.00    -0.182 C  
HETATM   13  C   UNL     1     -12.080  13.375  65.632  1.00  0.00    -0.434 A  
HETATM   14  N   UNL     1     -13.086  14.079  65.087  1.00  0.00    -0.759 NA 
HETATM   15  N   UNL     1     -12.267  12.231  66.240  1.00  0.00    -0.557 NA 
HETATM   16  H1  UNL     1     -14.053  13.760  65.137  1.00  0.00     0.000 HD 
HETATM   17  H2  UNL     1     -12.876  14.956  64.611  1.00  0.00     0.000 HD 
ENDBRANCH   4   6
ENDBRANCH   3   4
ENDBRANCH   2   3
TORSDOF 3
ENDMDL
MODEL      130
REMARK 921   NORMALIZED FREE ENERGY PREDICTED BY IDOCK:   -3.26 KCAL/MOL
REMARK 922        TOTAL FREE ENERGY PREDICTED BY IDOCK:   -4.07 KCAL/MOL
REMARK 923 INTER-LIGAND FREE ENERGY PREDICTED BY IDOCK:   -3.79 KCAL/MOL
REMARK 924 INTRA-LIGAND FREE ENERGY PREDICTED BY IDOCK:   -0.28 KCAL/MOL
REMARK 927      BINDING AFFINITY PREDICTED BY RF-SCORE:    0.00 PKD
ROOT
HETATM    1  C   UNL     1     -10.561  19.670  65.690  1.00  0.00    -0.462 C  
HETATM    2  C   UNL     1      -9.852  20.145  66.952  1.00  0.00    -0.593 C  
ENDROOT
BRANCH   2   3
HETATM    3  C   UNL     1      -8.348  20.269  66.711  1.00  0.00    -0.258 C  
BRANCH   3   4
HETATM    4  N   UNL     1      -7.869  19.228  65.793  1.00  0.00    -0.451 NA 
HETATM    5  H   UNL     1      -7.201  19.606  65.122  1.00  0.00     0.000 HD 
BRANCH   4   6
HETATM    6  C   UNL     1      -7.305  18.068  66.515  1.00  0.00    -0.238 C  
HETATM    7  C   UNL     1      -7.047  18.379  68.014  1.00  0.00    -0.237 C  
HETATM    8  C   UNL     1      -6.302  17.226  68.701  1.00  0.00    -0.173 C  
HETATM    9  C   UNL     1      -6.935  15.921  68.381  1.00  0.00    -0.116 A  
HETATM   10  C   UNL     1      -7.799  15.747  67.321  1.00  0.00    -0.195 A  
HETATM   11  S   UNL     1      -8.322  14.127  67.267  1.00  0.00    -0.173 SA 
HETATM   12  C   UNL     1      -8.250  16.828  66.390  1.00  0.00    -0.349 C  
HETATM   13  C   UNL     1      -7.359  13.789  68.659  1.00  0.00    -0.117 A  
HETATM   14  N   UNL     1      -7.311  12.562  69.204  1.00  0.00    -0.315 NA 
HETATM   15  N   UNL     1      -6.669  14.798  69.128  1.00  0.00    -0.114 NA 
HETATM   16  H1  UNL     1      -6.742  12.362  70.026  1.00  0.00     0.000 HD 
HETATM   17  H2  UNL     1      -7.859  11.811  68.784  1.00  0.00     0.000 HD 
ENDBRANCH   4   6
ENDBRANCH   3   4
ENDBRANCH   2   3
TORSDOF 3
ENDMDL
MODEL      131
REMARK 921   NORMALIZED FREE ENERGY PREDICTED BY IDOCK:   -3.25 KCAL/MOL
REMARK 922        TOTAL FREE ENERGY PREDICTED BY IDOCK:   -4.05 KCAL/MOL
REMARK 923 INTER-LIGAND FREE ENERGY PREDICTED BY IDOCK:   -3.84 KCAL/MOL
REMARK 924 INTRA-LIGAND FREE ENERGY PREDICTED BY IDOCK:   -0.21 KCAL/MOL
REMARK 927      BINDING AFFINITY PREDICTED BY RF-SCORE:    0.00 PKD
ROOT
HETATM    1  C   UNL     1     -13.348  13.601  71.163  1.00  0.00    -0.187 C  
HETATM    2  C   UNL     1     -13.151  12.415  72.099  1.00  0.00    -0.419 C  
ENDROOT
BRANCH   2   3
HETATM    3  C   UNL     1     -13.216  11.100  71.322  1.00  0.00    -0.122 C  
BRANCH   3   4
HETATM    4  N   UNL     1     -13.518   9.972  72.212  1.00  0.00    -0.596 NA 
HETATM    5  H   UNL     1     -14.473   9.641  72.078  1.00  0.00     0.000 HD 
BRANCH   4   6
HETATM    6  C   UNL     1     -12.543   8.872  72.063  1.00  0.00    -0.394 C  
HETATM    7  C   UNL     1     -13.229   7.524  71.711  1.00  0.00    -0.364 C  
HETATM    8  C   UNL     1     -12.223   6.365  71.735  1.00  0.00    -0.312 C  
HETATM    9  C   UNL     1     -10.993   6.715  70.979  1.00  0.00    -0.259 A  
HETATM   10  C   UNL     1     -10.655   8.012  70.656  1.00  0.00    -0.219 A  
HETATM   11  S   UNL     1      -9.189   8.025  69.791  1.00  0.00    -0.148 SA 
HETATM   12  C   UNL     1     -11.479   9.221  70.972  1.00  0.00    -0.387 C  
HETATM   13  C   UNL     1      -9.122   6.305  69.914  1.00  0.00    -0.144 A  
HETATM   14  N   UNL     1      -8.112   5.597  69.383  1.00  0.00    -0.098 NA 
HETATM   15  N   UNL     1     -10.106   5.747  70.573  1.00  0.00    -0.196 NA 
HETATM   16  H1  UNL     1      -8.073   4.581  69.455  1.00  0.00     0.000 HD 
HETATM   17  H2  UNL     1      -7.365   6.089  68.894  1.00  0.00     0.000 HD 
ENDBRANCH   4   6
ENDBRANCH   3   4
ENDBRANCH   2   3
TORSDOF 3
ENDMDL
MODEL      132
REMARK 921   NORMALIZED FREE ENERGY PREDICTED BY IDOCK:   -3.23 KCAL/MOL
REMARK 922        TOTAL FREE ENERGY PREDICTED BY IDOCK:   -4.04 KCAL/MOL
REMARK 923 INTER-LIGAND FREE ENERGY PREDICTED BY IDOCK:   -3.80 KCAL/MOL
REMARK 924 INTRA-LIGAND FREE ENERGY PREDICTED BY IDOCK:   -0.24 KCAL/MOL
REMARK 927      BINDING AFFINITY PREDICTED BY RF-SCORE:    0.00 PKD
ROOT
HETATM    1  C   UNL     1      -5.737  12.842  67.798  1.00  0.00    -0.131 C  
HETATM    2  C   UNL     1      -7.000  12.353  68.496  1.00  0.00    -0.092 C  
ENDROOT
BRANCH   2   3
HETATM    3  C   UNL     1      -8.243  12.748  67.700  1.00  0.00    -0.175 C  
BRANCH   3   4
HETATM    4  N   UNL     1      -9.354  13.104  68.591  1.00  0.00    -0.398 NA 
HETATM    5  H   UNL     1      -9.100  12.970  69.570  1.00  0.00     0.000 HD 
BRANCH   4   6
HETATM    6  C   UNL     1      -9.844  14.476  68.347  1.00  0.00    -0.227 C  
HETATM    7  C   UNL     1     -10.191  15.218  69.667  1.00  0.00    -0.253 C  
HETATM    8  C   UNL     1     -10.860  16.570  69.385  1.00  0.00    -0.311 C  
HETATM    9  C   UNL     1     -10.103  17.333  68.360  1.00  0.00    -0.333 A  
HETATM   10  C   UNL     1      -9.182  16.747  67.517  1.00  0.00    -0.215 A  
HETATM   11  S   UNL     1      -8.517  17.926  66.485  1.00  0.00    -0.243 SA 
HETATM   12  C   UNL     1      -8.789  15.303  67.541  1.00  0.00    -0.188 C  
HETATM   13  C   UNL     1      -9.504  19.121  67.243  1.00  0.00    -0.312 A  
HETATM   14  N   UNL     1      -9.467  20.410  66.867  1.00  0.00    -0.548 NA 
HETATM   15  N   UNL     1     -10.300  18.682  68.186  1.00  0.00    -0.372 NA 
HETATM   16  H1  UNL     1     -10.051  21.116  67.315  1.00  0.00     0.000 HD 
HETATM   17  H2  UNL     1      -8.839  20.690  66.115  1.00  0.00     0.000 HD 
ENDBRANCH   4   6
ENDBRANCH   3   4
ENDBRANCH   2   3
TORSDOF 3
ENDMDL
MODEL      133
REMARK 921   NORMALIZED FREE ENERGY PREDICTED BY IDOCK:   -3.22 KCAL/MOL
REMARK 922        TOTAL FREE ENERGY PREDICTED BY IDOCK:   -4.03 KCAL/MOL
REMARK 923 INTER-LIGAND FREE ENERGY PREDICTED BY IDOCK:   -3.90 KCAL/MOL
REMARK 924 INTRA-LIGAND FREE ENERGY PREDICTED BY IDOCK:   -0.12 KCAL/MOL
REMARK 927      BINDING AFFINITY PREDICTED BY RF-SCORE:    0.00 PKD
ROOT
HETATM    1  C   UNL     1      -8.482   5.733  66.697  1.00  0.00    -0.113 C  
HETATM    2  C   UNL     1      -8.497   7.114  66.056  1.00  0.00    -0.148 C  
ENDROOT
BRANCH   2   3
HETATM    3  C   UNL     1      -8.981   8.166  67.053  1.00  0.00    -0.141 C  
BRANCH   3   4
HETATM    4  N   UNL     1     -10.220   8.804  66.594  1.00  0.00    -0.284 NA 
HETATM    5  H   UNL     1     -11.037   8.389  67.042  1.00  0.00     0.000 HD 
BRANCH   4   6
HETATM    6  C   UNL     1     -10.193  10.269  66.780  1.00  0.00    -0.228 C  
HETATM    7  C   UNL     1     -10.660  11.031  65.510  1.00  0.00    -0.267 C  
HETATM    8  C   UNL     1     -10.458  12.545  65.664  1.00  0.00    -0.299 C  
HETATM    9  C   UNL     1     -10.985  13.020  66.969  1.00  0.00    -0.265 A  
HETATM   10  C   UNL     1     -11.244  12.174  68.026  1.00  0.00    -0.264 A  
HETATM   11  S   UNL     1     -11.836  13.070  69.347  1.00  0.00    -0.302 SA 
HETATM   12  C   UNL     1     -11.080  10.687  67.999  1.00  0.00    -0.361 C  
HETATM   13  C   UNL     1     -11.702  14.511  68.407  1.00  0.00    -0.333 A  
HETATM   14  N   UNL     1     -12.045  15.712  68.900  1.00  0.00    -0.584 NA 
HETATM   15  N   UNL     1     -11.226  14.354  67.197  1.00  0.00    -0.316 NA 
HETATM   16  H1  UNL     1     -11.966  16.563  68.345  1.00  0.00     0.000 HD 
HETATM   17  H2  UNL     1     -12.395  15.774  69.856  1.00  0.00     0.000 HD 
ENDBRANCH   4   6
ENDBRANCH   3   4
ENDBRANCH   2   3
TORSDOF 3
ENDMDL
MODEL      134
REMARK 921   NORMALIZED FREE ENERGY PREDICTED BY IDOCK:   -3.20 KCAL/MOL
REMARK 922        TOTAL FREE ENERGY PREDICTED BY IDOCK:   -4.00 KCAL/MOL
REMARK 923 INTER-LIGAND FREE ENERGY PREDICTED BY IDOCK:   -3.88 KCAL/MOL
REMARK 924 INTRA-LIGAND FREE ENERGY PREDICTED BY IDOCK:   -0.13 KCAL/MOL
REMARK 927      BINDING AFFINITY PREDICTED BY RF-SCORE:    0.00 PKD
ROOT
HETATM    1  C   UNL     1      -8.008   5.328  68.911  1.00  0.00    -0.086 C  
HETATM    2  C   UNL     1      -8.981   6.268  69.609  1.00  0.00    -0.135 C  
ENDROOT
BRANCH   2   3
HETATM    3  C   UNL     1      -9.458   7.359  68.651  1.00  0.00    -0.139 C  
BRANCH   3   4
HETATM    4  N   UNL     1     -10.651   8.039  69.170  1.00  0.00    -0.319 NA 
HETATM    5  H   UNL     1     -10.808   7.812  70.152  1.00  0.00     0.000 HD 
BRANCH   4   6
HETATM    6  C   UNL     1     -10.593   9.500  68.961  1.00  0.00    -0.219 C  
HETATM    7  C   UNL     1     -10.900   9.895  67.491  1.00  0.00    -0.307 C  
HETATM    8  C   UNL     1     -10.663  11.394  67.256  1.00  0.00    -0.283 C  
HETATM    9  C   UNL     1     -11.304  12.205  68.322  1.00  0.00    -0.289 A  
HETATM   10  C   UNL     1     -11.700  11.676  69.532  1.00  0.00    -0.344 A  
HETATM   11  S   UNL     1     -12.393  12.897  70.494  1.00  0.00    -0.206 SA 
HETATM   12  C   UNL     1     -11.585  10.235  69.921  1.00  0.00    -0.326 C  
HETATM   13  C   UNL     1     -12.114  14.031  69.224  1.00  0.00    -0.338 A  
HETATM   14  N   UNL     1     -12.465  15.322  69.340  1.00  0.00    -0.601 NA 
HETATM   15  N   UNL     1     -11.522  13.552  68.159  1.00  0.00    -0.283 NA 
HETATM   16  H1  UNL     1     -12.300  15.993  68.589  1.00  0.00     0.000 HD 
HETATM   17  H2  UNL     1     -12.908  15.641  70.201  1.00  0.00     0.000 HD 
ENDBRANCH   4   6
ENDBRANCH   3   4
ENDBRANCH   2   3
TORSDOF 3
ENDMDL
MODEL      135
REMARK 921   NORMALIZED FREE ENERGY PREDICTED BY IDOCK:   -3.20 KCAL/MOL
REMARK 922        TOTAL FREE ENERGY PREDICTED BY IDOCK:   -4.00 KCAL/MOL
REMARK 923 INTER-LIGAND FREE ENERGY PREDICTED BY IDOCK:   -3.72 KCAL/MOL
REMARK 924 INTRA-LIGAND FREE ENERGY PREDICTED BY IDOCK:   -0.28 KCAL/MOL
REMARK 927      BINDING AFFINITY PREDICTED BY RF-SCORE:    0.00 PKD
ROOT
HETATM    1  C   UNL     1     -11.320  15.881  64.480  1.00  0.00    -0.316 C  
HETATM    2  C   UNL     1     -11.591  14.570  65.205  1.00  0.00    -0.371 C  
ENDROOT
BRANCH   2   3
HETATM    3  C   UNL     1     -11.282  14.704  66.696  1.00  0.00    -0.349 C  
BRANCH   3   4
HETATM    4  N   UNL     1     -10.016  14.043  67.037  1.00  0.00    -0.252 NA 
HETATM    5  H   UNL     1      -9.553  13.680  66.205  1.00  0.00     0.000 HD 
BRANCH   4   6
HETATM    6  C   UNL     1      -9.118  14.928  67.807  1.00  0.00    -0.185 C  
HETATM    7  C   UNL     1      -7.631  14.756  67.396  1.00  0.00    -0.228 C  
HETATM    8  C   UNL     1      -6.701  15.550  68.324  1.00  0.00    -0.122 C  
HETATM    9  C   UNL     1      -7.195  16.939  68.505  1.00  0.00    -0.199 A  
HETATM   10  C   UNL     1      -8.487  17.320  68.211  1.00  0.00    -0.243 A  
HETATM   11  S   UNL     1      -8.686  18.978  68.543  1.00  0.00    -0.355 SA 
HETATM   12  C   UNL     1      -9.540  16.425  67.638  1.00  0.00    -0.227 C  
HETATM   13  C   UNL     1      -7.038  19.057  69.049  1.00  0.00    -0.326 A  
HETATM   14  N   UNL     1      -6.485  20.202  69.480  1.00  0.00    -0.321 NA 
HETATM   15  N   UNL     1      -6.378  17.927  69.003  1.00  0.00    -0.222 NA 
HETATM   16  H1  UNL     1      -5.511  20.249  69.779  1.00  0.00     0.000 HD 
HETATM   17  H2  UNL     1      -7.054  21.048  69.508  1.00  0.00     0.000 HD 
ENDBRANCH   4   6
ENDBRANCH   3   4
ENDBRANCH   2   3
TORSDOF 3
ENDMDL
MODEL      136
REMARK 921   NORMALIZED FREE ENERGY PREDICTED BY IDOCK:   -3.20 KCAL/MOL
REMARK 922        TOTAL FREE ENERGY PREDICTED BY IDOCK:   -4.00 KCAL/MOL
REMARK 923 INTER-LIGAND FREE ENERGY PREDICTED BY IDOCK:   -3.75 KCAL/MOL
REMARK 924 INTRA-LIGAND FREE ENERGY PREDICTED BY IDOCK:   -0.24 KCAL/MOL
REMARK 927      BINDING AFFINITY PREDICTED BY RF-SCORE:    0.00 PKD
ROOT
HETATM    1  C   UNL     1      -9.876  15.428  67.749  1.00  0.00    -0.220 C  
HETATM    2  C   UNL     1     -10.063  13.974  67.340  1.00  0.00    -0.244 C  
ENDROOT
BRANCH   2   3
HETATM    3  C   UNL     1     -10.989  13.252  68.319  1.00  0.00    -0.256 C  
BRANCH   3   4
HETATM    4  N   UNL     1     -11.834  12.272  67.627  1.00  0.00    -0.496 NA 
HETATM    5  H   UNL     1     -11.717  12.331  66.616  1.00  0.00     0.000 HD 
BRANCH   4   6
HETATM    6  C   UNL     1     -11.600  10.896  68.113  1.00  0.00    -0.241 C  
HETATM    7  C   UNL     1     -10.483  10.173  67.312  1.00  0.00    -0.313 C  
HETATM    8  C   UNL     1     -10.378   8.695  67.714  1.00  0.00    -0.303 C  
HETATM    9  C   UNL     1     -10.353   8.549  69.192  1.00  0.00    -0.217 A  
HETATM   10  C   UNL     1     -10.761   9.546  70.052  1.00  0.00    -0.243 A  
HETATM   11  S   UNL     1     -10.589   9.022  71.662  1.00  0.00    -0.354 SA 
HETATM   12  C   UNL     1     -11.235  10.903  69.634  1.00  0.00    -0.348 C  
HETATM   13  C   UNL     1      -9.983   7.512  71.088  1.00  0.00    -0.180 A  
HETATM   14  N   UNL     1      -9.612   6.533  71.929  1.00  0.00    -0.152 NA 
HETATM   15  N   UNL     1      -9.930   7.383  69.786  1.00  0.00    -0.186 NA 
HETATM   16  H1  UNL     1      -9.254   5.641  71.589  1.00  0.00     0.000 HD 
HETATM   17  H2  UNL     1      -9.691   6.686  72.934  1.00  0.00     0.000 HD 
ENDBRANCH   4   6
ENDBRANCH   3   4
ENDBRANCH   2   3
TORSDOF 3
ENDMDL
MODEL      137
REMARK 921   NORMALIZED FREE ENERGY PREDICTED BY IDOCK:   -3.19 KCAL/MOL
REMARK 922        TOTAL FREE ENERGY PREDICTED BY IDOCK:   -3.99 KCAL/MOL
REMARK 923 INTER-LIGAND FREE ENERGY PREDICTED BY IDOCK:   -3.68 KCAL/MOL
REMARK 924 INTRA-LIGAND FREE ENERGY PREDICTED BY IDOCK:   -0.31 KCAL/MOL
REMARK 927      BINDING AFFINITY PREDICTED BY RF-SCORE:    0.00 PKD
ROOT
HETATM    1  C   UNL     1      -9.382   4.100  72.755  1.00  0.00    -0.148 C  
HETATM    2  C   UNL     1     -10.687   4.885  72.793  1.00  0.00    -0.289 C  
ENDROOT
BRANCH   2   3
HETATM    3  C   UNL     1     -10.541   6.133  73.662  1.00  0.00    -0.263 C  
BRANCH   3   4
HETATM    4  N   UNL     1      -9.238   6.776  73.455  1.00  0.00    -0.133 NA 
HETATM    5  H   UNL     1      -8.543   6.105  73.128  1.00  0.00     0.000 HD 
BRANCH   4   6
HETATM    6  C   UNL     1      -9.330   7.938  72.547  1.00  0.00    -0.197 C  
HETATM    7  C   UNL     1      -8.698   7.648  71.158  1.00  0.00    -0.138 C  
HETATM    8  C   UNL     1      -8.646   8.917  70.295  1.00  0.00    -0.178 C  
HETATM    9  C   UNL     1      -9.954   9.620  70.309  1.00  0.00    -0.270 A  
HETATM   10  C   UNL     1     -10.923   9.385  71.261  1.00  0.00    -0.370 A  
HETATM   11  S   UNL     1     -12.278  10.368  70.956  1.00  0.00    -0.419 SA 
HETATM   12  C   UNL     1     -10.819   8.379  72.365  1.00  0.00    -0.416 C  
HETATM   13  C   UNL     1     -11.470  11.027  69.582  1.00  0.00    -0.303 A  
HETATM   14  N   UNL     1     -12.044  11.959  68.804  1.00  0.00    -0.332 NA 
HETATM   15  N   UNL     1     -10.261  10.573  69.366  1.00  0.00    -0.228 NA 
HETATM   16  H1  UNL     1     -11.566  12.348  67.991  1.00  0.00     0.000 HD 
HETATM   17  H2  UNL     1     -12.982  12.286  69.031  1.00  0.00     0.000 HD 
ENDBRANCH   4   6
ENDBRANCH   3   4
ENDBRANCH   2   3
TORSDOF 3
ENDMDL
MODEL      138
REMARK 921   NORMALIZED FREE ENERGY PREDICTED BY IDOCK:   -3.19 KCAL/MOL
REMARK 922        TOTAL FREE ENERGY PREDICTED BY IDOCK:   -3.98 KCAL/MOL
REMARK 923 INTER-LIGAND FREE ENERGY PREDICTED BY IDOCK:   -3.66 KCAL/MOL
REMARK 924 INTRA-LIGAND FREE ENERGY PREDICTED BY IDOCK:   -0.32 KCAL/MOL
REMARK 927      BINDING AFFINITY PREDICTED BY RF-SCORE:    0.00 PKD
ROOT
HETATM    1  C   UNL     1     -11.805  15.163  70.142  1.00  0.00    -0.351 C  
HETATM    2  C   UNL     1     -11.042  14.497  69.005  1.00  0.00    -0.279 C  
ENDROOT
BRANCH   2   3
HETATM    3  C   UNL     1     -11.602  14.931  67.651  1.00  0.00    -0.339 C  
BRANCH   3   4
HETATM    4  N   UNL     1     -10.526  15.301  66.724  1.00  0.00    -0.287 NA 
HETATM    5  H   UNL     1     -10.893  15.789  65.908  1.00  0.00     0.000 HD 
BRANCH   4   6
HETATM    6  C   UNL     1      -9.467  16.088  67.388  1.00  0.00    -0.219 C  
HETATM    7  C   UNL     1      -8.049  15.710  66.880  1.00  0.00    -0.290 C  
HETATM    8  C   UNL     1      -6.958  16.409  67.703  1.00  0.00    -0.157 C  
HETATM    9  C   UNL     1      -7.257  17.856  67.858  1.00  0.00    -0.219 A  
HETATM   10  C   UNL     1      -8.509  18.391  67.640  1.00  0.00    -0.255 A  
HETATM   11  S   UNL     1      -8.471  20.071  67.912  1.00  0.00    -0.202 SA 
HETATM   12  C   UNL     1      -9.708  17.620  67.184  1.00  0.00    -0.291 C  
HETATM   13  C   UNL     1      -6.792  19.953  68.295  1.00  0.00    -0.295 A  
HETATM   14  N   UNL     1      -6.067  21.031  68.634  1.00  0.00    -0.268 NA 
HETATM   15  N   UNL     1      -6.286  18.746  68.253  1.00  0.00    -0.210 NA 
HETATM   16  H1  UNL     1      -5.075  20.962  68.861  1.00  0.00     0.000 HD 
HETATM   17  H2  UNL     1      -6.521  21.944  68.666  1.00  0.00     0.000 HD 
ENDBRANCH   4   6
ENDBRANCH   3   4
ENDBRANCH   2   3
TORSDOF 3
ENDMDL
MODEL      139
REMARK 921   NORMALIZED FREE ENERGY PREDICTED BY IDOCK:   -3.19 KCAL/MOL
REMARK 922        TOTAL FREE ENERGY PREDICTED BY IDOCK:   -3.98 KCAL/MOL
REMARK 923 INTER-LIGAND FREE ENERGY PREDICTED BY IDOCK:   -3.72 KCAL/MOL
REMARK 924 INTRA-LIGAND FREE ENERGY PREDICTED BY IDOCK:   -0.27 KCAL/MOL
REMARK 927      BINDING AFFINITY PREDICTED BY RF-SCORE:    0.00 PKD
ROOT
HETATM    1  C   UNL     1     -12.263  13.159  70.562  1.00  0.00    -0.405 C  
HETATM    2  C   UNL     1     -12.322  11.672  70.883  1.00  0.00    -0.436 C  
ENDROOT
BRANCH   2   3
HETATM    3  C   UNL     1     -11.411  10.881  69.944  1.00  0.00    -0.305 C  
BRANCH   3   4
HETATM    4  N   UNL     1     -12.090  10.571  68.680  1.00  0.00    -0.791 NA 
HETATM    5  H   UNL     1     -12.826  11.249  68.481  1.00  0.00     0.000 HD 
BRANCH   4   6
HETATM    6  C   UNL     1     -11.143  10.462  67.553  1.00  0.00    -0.267 C  
HETATM    7  C   UNL     1     -10.082  11.596  67.565  1.00  0.00    -0.209 C  
HETATM    8  C   UNL     1      -9.221  11.567  66.295  1.00  0.00    -0.222 C  
HETATM    9  C   UNL     1      -8.736  10.191  66.016  1.00  0.00    -0.140 A  
HETATM   10  C   UNL     1      -9.300   9.067  66.581  1.00  0.00    -0.177 A  
HETATM   11  S   UNL     1      -8.484   7.677  66.033  1.00  0.00    -0.149 SA 
HETATM   12  C   UNL     1     -10.426   9.072  67.568  1.00  0.00    -0.338 C  
HETATM   13  C   UNL     1      -7.444   8.681  65.090  1.00  0.00    -0.090 A  
HETATM   14  N   UNL     1      -6.462   8.167  64.332  1.00  0.00    -0.064 NA 
HETATM   15  N   UNL     1      -7.692   9.965  65.150  1.00  0.00    -0.125 NA 
HETATM   16  H1  UNL     1      -5.848   8.760  63.775  1.00  0.00     0.000 HD 
HETATM   17  H2  UNL     1      -6.328   7.156  64.313  1.00  0.00     0.000 HD 
ENDBRANCH   4   6
ENDBRANCH   3   4
ENDBRANCH   2   3
TORSDOF 3
ENDMDL
MODEL      140
REMARK 921   NORMALIZED FREE ENERGY PREDICTED BY IDOCK:   -3.18 KCAL/MOL
REMARK 922        TOTAL FREE ENERGY PREDICTED BY IDOCK:   -3.97 KCAL/MOL
REMARK 923 INTER-LIGAND FREE ENERGY PREDICTED BY IDOCK:   -3.68 KCAL/MOL
REMARK 924 INTRA-LIGAND FREE ENERGY PREDICTED BY IDOCK:   -0.29 KCAL/MOL
REMARK 927      BINDING AFFINITY PREDICTED BY RF-SCORE:    0.00 PKD
ROOT
HETATM    1  C   UNL     1     -11.813  15.469  69.143  1.00  0.00    -0.373 C  
HETATM    2  C   UNL     1     -10.638  16.433  69.041  1.00  0.00    -0.308 C  
ENDROOT
BRANCH   2   3
HETATM    3  C   UNL     1      -9.487  15.799  68.260  1.00  0.00    -0.200 C  
BRANCH   3   4
HETATM    4  N   UNL     1      -9.162  14.465  68.781  1.00  0.00    -0.304 NA 
HETATM    5  H   UNL     1      -9.920  14.098  69.355  1.00  0.00     0.000 HD 
BRANCH   4   6
HETATM    6  C   UNL     1      -8.800  13.521  67.704  1.00  0.00    -0.202 C  
HETATM    7  C   UNL     1      -8.435  12.116  68.254  1.00  0.00    -0.176 C  
HETATM    8  C   UNL     1      -7.895  11.206  67.142  1.00  0.00    -0.139 C  
HETATM    9  C   UNL     1      -8.772  11.256  65.944  1.00  0.00    -0.145 A  
HETATM   10  C   UNL     1      -9.691  12.261  65.729  1.00  0.00    -0.216 A  
HETATM   11  S   UNL     1     -10.510  11.985  64.262  1.00  0.00    -0.359 SA 
HETATM   12  C   UNL     1      -9.964  13.394  66.668  1.00  0.00    -0.277 C  
HETATM   13  C   UNL     1      -9.578  10.551  64.032  1.00  0.00    -0.311 A  
HETATM   14  N   UNL     1      -9.742   9.768  62.953  1.00  0.00    -0.503 NA 
HETATM   15  N   UNL     1      -8.695  10.295  64.964  1.00  0.00    -0.172 NA 
HETATM   16  H1  UNL     1      -9.191   8.920  62.817  1.00  0.00     0.000 HD 
HETATM   17  H2  UNL     1     -10.434  10.027  62.252  1.00  0.00     0.000 HD 
ENDBRANCH   4   6
ENDBRANCH   3   4
ENDBRANCH   2   3
TORSDOF 3
ENDMDL
MODEL      141
REMARK 921   NORMALIZED FREE ENERGY PREDICTED BY IDOCK:   -3.17 KCAL/MOL
REMARK 922        TOTAL FREE ENERGY PREDICTED BY IDOCK:   -3.96 KCAL/MOL
REMARK 923 INTER-LIGAND FREE ENERGY PREDICTED BY IDOCK:   -3.61 KCAL/MOL
REMARK 924 INTRA-LIGAND FREE ENERGY PREDICTED BY IDOCK:   -0.35 KCAL/MOL
REMARK 927      BINDING AFFINITY PREDICTED BY RF-SCORE:    0.00 PKD
ROOT
HETATM    1  C   UNL     1     -13.568   9.320  71.763  1.00  0.00    -0.465 C  
HETATM    2  C   UNL     1     -12.599  10.230  71.021  1.00  0.00    -0.487 C  
ENDROOT
BRANCH   2   3
HETATM    3  C   UNL     1     -11.266   9.521  70.785  1.00  0.00    -0.317 C  
BRANCH   3   4
HETATM    4  N   UNL     1     -10.865   8.738  71.961  1.00  0.00    -0.355 NA 
HETATM    5  H   UNL     1     -11.651   8.594  72.594  1.00  0.00     0.000 HD 
BRANCH   4   6
HETATM    6  C   UNL     1     -10.238   7.454  71.586  1.00  0.00    -0.188 C  
HETATM    7  C   UNL     1     -10.751   6.275  72.455  1.00  0.00    -0.257 C  
HETATM    8  C   UNL     1      -9.962   4.989  72.170  1.00  0.00    -0.236 C  
HETATM    9  C   UNL     1      -9.847   4.752  70.708  1.00  0.00    -0.210 A  
HETATM   10  C   UNL     1     -10.066   5.736  69.769  1.00  0.00    -0.209 A  
HETATM   11  S   UNL     1      -9.845   5.098  68.206  1.00  0.00    -0.147 SA 
HETATM   12  C   UNL     1     -10.485   7.140  70.074  1.00  0.00    -0.235 C  
HETATM   13  C   UNL     1      -9.478   3.563  68.904  1.00  0.00    -0.140 A  
HETATM   14  N   UNL     1      -9.180   2.496  68.146  1.00  0.00    -0.189 NA 
HETATM   15  N   UNL     1      -9.491   3.520  70.212  1.00  0.00    -0.177 NA 
HETATM   16  H1  UNL     1      -8.963   1.588  68.558  1.00  0.00     0.000 HD 
HETATM   17  H2  UNL     1      -9.170   2.595  67.131  1.00  0.00     0.000 HD 
ENDBRANCH   4   6
ENDBRANCH   3   4
ENDBRANCH   2   3
TORSDOF 3
ENDMDL
MODEL      142
REMARK 921   NORMALIZED FREE ENERGY PREDICTED BY IDOCK:   -3.15 KCAL/MOL
REMARK 922        TOTAL FREE ENERGY PREDICTED BY IDOCK:   -3.93 KCAL/MOL
REMARK 923 INTER-LIGAND FREE ENERGY PREDICTED BY IDOCK:   -3.68 KCAL/MOL
REMARK 924 INTRA-LIGAND FREE ENERGY PREDICTED BY IDOCK:   -0.25 KCAL/MOL
REMARK 927      BINDING AFFINITY PREDICTED BY RF-SCORE:    0.00 PKD
ROOT
HETATM    1  C   UNL     1     -13.104  10.588  71.947  1.00  0.00    -0.567 C  
HETATM    2  C   UNL     1     -12.249   9.538  71.250  1.00  0.00    -0.433 C  
ENDROOT
BRANCH   2   3
HETATM    3  C   UNL     1     -12.605   8.137  71.747  1.00  0.00    -0.330 C  
BRANCH   3   4
HETATM    4  N   UNL     1     -11.448   7.237  71.672  1.00  0.00    -0.257 NA 
HETATM    5  H   UNL     1     -11.727   6.265  71.795  1.00  0.00     0.000 HD 
BRANCH   4   6
HETATM    6  C   UNL     1     -10.681   7.420  70.422  1.00  0.00    -0.237 C  
HETATM    7  C   UNL     1      -9.154   7.244  70.639  1.00  0.00    -0.157 C  
HETATM    8  C   UNL     1      -8.367   7.610  69.373  1.00  0.00    -0.131 C  
HETATM    9  C   UNL     1      -8.958   6.960  68.176  1.00  0.00    -0.123 A  
HETATM   10  C   UNL     1     -10.236   6.445  68.156  1.00  0.00    -0.167 A  
HETATM   11  S   UNL     1     -10.565   5.782  66.623  1.00  0.00    -0.239 SA 
HETATM   12  C   UNL     1     -11.174   6.423  69.322  1.00  0.00    -0.440 C  
HETATM   13  C   UNL     1      -8.981   6.232  66.108  1.00  0.00    -0.153 A  
HETATM   14  N   UNL     1      -8.541   5.973  64.866  1.00  0.00    -0.328 NA 
HETATM   15  N   UNL     1      -8.253   6.857  67.000  1.00  0.00    -0.119 NA 
HETATM   16  H1  UNL     1      -7.605   6.239  64.562  1.00  0.00     0.000 HD 
HETATM   17  H2  UNL     1      -9.160   5.497  64.210  1.00  0.00     0.000 HD 
ENDBRANCH   4   6
ENDBRANCH   3   4
ENDBRANCH   2   3
TORSDOF 3
ENDMDL
MODEL      143
REMARK 921   NORMALIZED FREE ENERGY PREDICTED BY IDOCK:   -3.14 KCAL/MOL
REMARK 922        TOTAL FREE ENERGY PREDICTED BY IDOCK:   -3.93 KCAL/MOL
REMARK 923 INTER-LIGAND FREE ENERGY PREDICTED BY IDOCK:   -3.73 KCAL/MOL
REMARK 924 INTRA-LIGAND FREE ENERGY PREDICTED BY IDOCK:   -0.20 KCAL/MOL
REMARK 927      BINDING AFFINITY PREDICTED BY RF-SCORE:    0.00 PKD
ROOT
HETATM    1  C   UNL     1      -8.333   5.679  64.872  1.00  0.00    -0.139 C  
HETATM    2  C   UNL     1      -7.729   6.720  65.805  1.00  0.00    -0.096 C  
ENDROOT
BRANCH   2   3
HETATM    3  C   UNL     1      -8.302   8.106  65.508  1.00  0.00    -0.153 C  
BRANCH   3   4
HETATM    4  N   UNL     1      -9.703   8.205  65.934  1.00  0.00    -0.447 NA 
HETATM    5  H   UNL     1     -10.218   7.353  65.711  1.00  0.00     0.000 HD 
BRANCH   4   6
HETATM    6  C   UNL     1      -9.825   8.544  67.367  1.00  0.00    -0.187 C  
HETATM    7  C   UNL     1     -10.799   9.729  67.608  1.00  0.00    -0.301 C  
HETATM    8  C   UNL     1     -10.777  10.177  69.076  1.00  0.00    -0.249 C  
HETATM    9  C   UNL     1     -10.893   9.011  69.988  1.00  0.00    -0.231 A  
HETATM   10  C   UNL     1     -10.654   7.715  69.583  1.00  0.00    -0.243 A  
HETATM   11  S   UNL     1     -10.886   6.652  70.892  1.00  0.00    -0.266 SA 
HETATM   12  C   UNL     1     -10.297   7.300  68.190  1.00  0.00    -0.234 C  
HETATM   13  C   UNL     1     -11.287   8.000  71.893  1.00  0.00    -0.283 A  
HETATM   14  N   UNL     1     -11.612   7.847  73.187  1.00  0.00    -0.599 NA 
HETATM   15  N   UNL     1     -11.232   9.171  71.311  1.00  0.00    -0.306 NA 
HETATM   16  H1  UNL     1     -11.849   8.644  73.778  1.00  0.00     0.000 HD 
HETATM   17  H2  UNL     1     -11.622   6.910  73.589  1.00  0.00     0.000 HD 
ENDBRANCH   4   6
ENDBRANCH   3   4
ENDBRANCH   2   3
TORSDOF 3
ENDMDL
MODEL      144
REMARK 921   NORMALIZED FREE ENERGY PREDICTED BY IDOCK:   -3.14 KCAL/MOL
REMARK 922        TOTAL FREE ENERGY PREDICTED BY IDOCK:   -3.92 KCAL/MOL
REMARK 923 INTER-LIGAND FREE ENERGY PREDICTED BY IDOCK:   -3.61 KCAL/MOL
REMARK 924 INTRA-LIGAND FREE ENERGY PREDICTED BY IDOCK:   -0.31 KCAL/MOL
REMARK 927      BINDING AFFINITY PREDICTED BY RF-SCORE:    0.00 PKD
ROOT
HETATM    1  C   UNL     1     -12.948   9.270  71.485  1.00  0.00    -0.429 C  
HETATM    2  C   UNL     1     -12.359   7.988  72.058  1.00  0.00    -0.366 C  
ENDROOT
BRANCH   2   3
HETATM    3  C   UNL     1     -10.873   7.878  71.718  1.00  0.00    -0.237 C  
BRANCH   3   4
HETATM    4  N   UNL     1     -10.614   6.738  70.830  1.00  0.00    -0.217 NA 
HETATM    5  H   UNL     1     -11.432   6.134  70.755  1.00  0.00     0.000 HD 
BRANCH   4   6
HETATM    6  C   UNL     1     -10.142   7.169  69.498  1.00  0.00    -0.179 C  
HETATM    7  C   UNL     1     -11.098   6.714  68.362  1.00  0.00    -0.281 C  
HETATM    8  C   UNL     1     -10.503   7.016  66.980  1.00  0.00    -0.386 C  
HETATM    9  C   UNL     1      -9.993   8.410  66.916  1.00  0.00    -0.271 A  
HETATM   10  C   UNL     1      -9.736   9.167  68.039  1.00  0.00    -0.154 A  
HETATM   11  S   UNL     1      -9.168  10.704  67.578  1.00  0.00    -0.142 SA 
HETATM   12  C   UNL     1      -9.970   8.723  69.449  1.00  0.00    -0.196 C  
HETATM   13  C   UNL     1      -9.312  10.241  65.922  1.00  0.00    -0.180 A  
HETATM   14  N   UNL     1      -8.994  11.080  64.923  1.00  0.00    -0.326 NA 
HETATM   15  N   UNL     1      -9.729   9.018  65.711  1.00  0.00    -0.242 NA 
HETATM   16  H1  UNL     1      -9.079  10.806  63.944  1.00  0.00     0.000 HD 
HETATM   17  H2  UNL     1      -8.658  12.016  65.149  1.00  0.00     0.000 HD 
ENDBRANCH   4   6
ENDBRANCH   3   4
ENDBRANCH   2   3
TORSDOF 3
ENDMDL
MODEL      145
REMARK 921   NORMALIZED FREE ENERGY PREDICTED BY IDOCK:   -3.13 KCAL/MOL
REMARK 922        TOTAL FREE ENERGY PREDICTED BY IDOCK:   -3.92 KCAL/MOL
REMARK 923 INTER-LIGAND FREE ENERGY PREDICTED BY IDOCK:   -3.55 KCAL/MOL
REMARK 924 INTRA-LIGAND FREE ENERGY PREDICTED BY IDOCK:   -0.36 KCAL/MOL
REMARK 927      BINDING AFFINITY PREDICTED BY RF-SCORE:    0.00 PKD
ROOT
HETATM    1  C   UNL     1     -10.397   8.752  67.062  1.00  0.00    -0.353 C  
HETATM    2  C   UNL     1     -10.486  10.076  67.811  1.00  0.00    -0.282 C  
ENDROOT
BRANCH   2   3
HETATM    3  C   UNL     1      -9.634  10.036  69.079  1.00  0.00    -0.196 C  
BRANCH   3   4
HETATM    4  N   UNL     1     -10.387  10.522  70.241  1.00  0.00    -0.399 NA 
HETATM    5  H   UNL     1     -11.206  11.057  69.953  1.00  0.00     0.000 HD 
BRANCH   4   6
HETATM    6  C   UNL     1     -10.759   9.426  71.160  1.00  0.00    -0.347 C  
HETATM    7  C   UNL     1     -12.253   9.028  71.023  1.00  0.00    -0.275 C  
HETATM    8  C   UNL     1     -12.660   8.016  72.103  1.00  0.00    -0.316 C  
HETATM    9  C   UNL     1     -11.671   6.910  72.192  1.00  0.00    -0.288 A  
HETATM   10  C   UNL     1     -10.399   6.998  71.670  1.00  0.00    -0.198 A  
HETATM   11  S   UNL     1      -9.558   5.547  71.959  1.00  0.00    -0.152 SA 
HETATM   12  C   UNL     1      -9.856   8.172  70.916  1.00  0.00    -0.203 C  
HETATM   13  C   UNL     1     -10.954   4.917  72.754  1.00  0.00    -0.225 A  
HETATM   14  N   UNL     1     -10.971   3.680  73.277  1.00  0.00    -0.193 NA 
HETATM   15  N   UNL     1     -11.977   5.731  72.829  1.00  0.00    -0.126 NA 
HETATM   16  H1  UNL     1     -11.796   3.308  73.747  1.00  0.00     0.000 HD 
HETATM   17  H2  UNL     1     -10.138   3.098  73.202  1.00  0.00     0.000 HD 
ENDBRANCH   4   6
ENDBRANCH   3   4
ENDBRANCH   2   3
TORSDOF 3
ENDMDL
MODEL      146
REMARK 921   NORMALIZED FREE ENERGY PREDICTED BY IDOCK:   -3.11 KCAL/MOL
REMARK 922        TOTAL FREE ENERGY PREDICTED BY IDOCK:   -3.89 KCAL/MOL
REMARK 923 INTER-LIGAND FREE ENERGY PREDICTED BY IDOCK:   -3.71 KCAL/MOL
REMARK 924 INTRA-LIGAND FREE ENERGY PREDICTED BY IDOCK:   -0.18 KCAL/MOL
REMARK 927      BINDING AFFINITY PREDICTED BY RF-SCORE:    0.00 PKD
ROOT
HETATM    1  C   UNL     1     -10.756  11.180  63.560  1.00  0.00    -0.340 C  
HETATM    2  C   UNL     1     -11.254  12.619  63.585  1.00  0.00    -0.525 C  
ENDROOT
BRANCH   2   3
HETATM    3  C   UNL     1     -12.391  12.779  64.594  1.00  0.00    -0.459 C  
BRANCH   3   4
HETATM    4  N   UNL     1     -11.965  13.571  65.754  1.00  0.00    -0.380 NA 
HETATM    5  H   UNL     1     -12.701  13.620  66.458  1.00  0.00     0.000 HD 
BRANCH   4   6
HETATM    6  C   UNL     1     -10.701  13.073  66.333  1.00  0.00    -0.282 C  
HETATM    7  C   UNL     1      -9.846  14.215  66.946  1.00  0.00    -0.265 C  
HETATM    8  C   UNL     1      -8.466  13.704  67.383  1.00  0.00    -0.206 C  
HETATM    9  C   UNL     1      -8.590  12.453  68.174  1.00  0.00    -0.185 A  
HETATM   10  C   UNL     1      -9.726  11.672  68.170  1.00  0.00    -0.189 A  
HETATM   11  S   UNL     1      -9.503  10.328  69.190  1.00  0.00    -0.218 SA 
HETATM   12  C   UNL     1     -10.984  11.986  67.421  1.00  0.00    -0.311 C  
HETATM   13  C   UNL     1      -7.915  10.893  69.558  1.00  0.00     0.066 A  
HETATM   14  N   UNL     1      -7.105  10.228  70.398  1.00  0.00    -0.351 NA 
HETATM   15  N   UNL     1      -7.552  11.994  68.950  1.00  0.00    -0.066 NA 
HETATM   16  H1  UNL     1      -6.166  10.563  70.616  1.00  0.00     0.000 HD 
HETATM   17  H2  UNL     1      -7.438   9.367  70.830  1.00  0.00     0.000 HD 
ENDBRANCH   4   6
ENDBRANCH   3   4
ENDBRANCH   2   3
TORSDOF 3
ENDMDL
MODEL      147
REMARK 921   NORMALIZED FREE ENERGY PREDICTED BY IDOCK:   -3.10 KCAL/MOL
REMARK 922        TOTAL FREE ENERGY PREDICTED BY IDOCK:   -3.89 KCAL/MOL
REMARK 923 INTER-LIGAND FREE ENERGY PREDICTED BY IDOCK:   -3.57 KCAL/MOL
REMARK 924 INTRA-LIGAND FREE ENERGY PREDICTED BY IDOCK:   -0.31 KCAL/MOL
REMARK 927      BINDING AFFINITY PREDICTED BY RF-SCORE:    0.00 PKD
ROOT
HETATM    1  C   UNL     1      -9.982   9.594  65.662  1.00  0.00    -0.321 C  
HETATM    2  C   UNL     1      -9.693  10.443  64.431  1.00  0.00    -0.396 C  
ENDROOT
BRANCH   2   3
HETATM    3  C   UNL     1     -10.362  11.813  64.553  1.00  0.00    -0.294 C  
BRANCH   3   4
HETATM    4  N   UNL     1     -11.036  11.962  65.848  1.00  0.00    -0.298 NA 
HETATM    5  H   UNL     1     -10.715  11.260  66.515  1.00  0.00     0.000 HD 
BRANCH   4   6
HETATM    6  C   UNL     1     -10.890  13.327  66.395  1.00  0.00    -0.288 C  
HETATM    7  C   UNL     1      -9.608  13.479  67.257  1.00  0.00    -0.235 C  
HETATM    8  C   UNL     1      -9.567  14.845  67.957  1.00  0.00    -0.207 C  
HETATM    9  C   UNL     1      -9.873  15.939  67.000  1.00  0.00    -0.232 A  
HETATM   10  C   UNL     1     -10.485  15.724  65.784  1.00  0.00    -0.367 A  
HETATM   11  S   UNL     1     -10.671  17.204  64.964  1.00  0.00     0.392 SA 
HETATM   12  C   UNL     1     -10.880  14.385  65.244  1.00  0.00    -0.370 C  
HETATM   13  C   UNL     1      -9.921  18.013  66.291  1.00  0.00    -0.337 A  
HETATM   14  N   UNL     1      -9.731  19.342  66.292  1.00  0.00    -0.371 NA 
HETATM   15  N   UNL     1      -9.573  17.248  67.295  1.00  0.00    -0.249 NA 
HETATM   16  H1  UNL     1      -9.287  19.820  67.076  1.00  0.00     0.000 HD 
HETATM   17  H2  UNL     1     -10.038  19.888  65.487  1.00  0.00     0.000 HD 
ENDBRANCH   4   6
ENDBRANCH   3   4
ENDBRANCH   2   3
TORSDOF 3
ENDMDL
MODEL      148
REMARK 921   NORMALIZED FREE ENERGY PREDICTED BY IDOCK:   -3.08 KCAL/MOL
REMARK 922        TOTAL FREE ENERGY PREDICTED BY IDOCK:   -3.86 KCAL/MOL
REMARK 923 INTER-LIGAND FREE ENERGY PREDICTED BY IDOCK:   -3.65 KCAL/MOL
REMARK 924 INTRA-LIGAND FREE ENERGY PREDICTED BY IDOCK:   -0.21 KCAL/MOL
REMARK 927      BINDING AFFINITY PREDICTED BY RF-SCORE:    0.00 PKD
ROOT
HETATM    1  C   UNL     1     -10.709   7.832  67.677  1.00  0.00    -0.227 C  
HETATM    2  C   UNL     1      -9.376   8.224  67.053  1.00  0.00    -0.203 C  
ENDROOT
BRANCH   2   3
HETATM    3  C   UNL     1      -9.590   9.187  65.885  1.00  0.00    -0.273 C  
BRANCH   3   4
HETATM    4  N   UNL     1      -8.702  10.351  65.987  1.00  0.00    -0.147 NA 
HETATM    5  H   UNL     1      -8.032  10.373  65.218  1.00  0.00     0.000 HD 
BRANCH   4   6
HETATM    6  C   UNL     1      -9.455  11.619  66.077  1.00  0.00    -0.229 C  
HETATM    7  C   UNL     1     -10.766  11.464  66.895  1.00  0.00    -0.308 C  
HETATM    8  C   UNL     1     -11.617  12.740  66.828  1.00  0.00    -0.431 C  
HETATM    9  C   UNL     1     -10.789  13.943  67.099  1.00  0.00    -0.284 A  
HETATM   10  C   UNL     1      -9.413  13.940  67.023  1.00  0.00    -0.254 A  
HETATM   11  S   UNL     1      -8.813  15.488  67.398  1.00  0.00    -0.199 SA 
HETATM   12  C   UNL     1      -8.571  12.743  66.709  1.00  0.00    -0.084 C  
HETATM   13  C   UNL     1     -10.431  16.039  67.634  1.00  0.00    -0.292 A  
HETATM   14  N   UNL     1     -10.702  17.306  67.986  1.00  0.00    -0.389 NA 
HETATM   15  N   UNL     1     -11.367  15.147  67.426  1.00  0.00    -0.327 NA 
HETATM   16  H1  UNL     1     -11.659  17.631  68.125  1.00  0.00     0.000 HD 
HETATM   17  H2  UNL     1      -9.931  17.960  68.118  1.00  0.00     0.000 HD 
ENDBRANCH   4   6
ENDBRANCH   3   4
ENDBRANCH   2   3
TORSDOF 3
ENDMDL
MODEL      149
REMARK 921   NORMALIZED FREE ENERGY PREDICTED BY IDOCK:   -3.06 KCAL/MOL
REMARK 922        TOTAL FREE ENERGY PREDICTED BY IDOCK:   -3.84 KCAL/MOL
REMARK 923 INTER-LIGAND FREE ENERGY PREDICTED BY IDOCK:   -3.71 KCAL/MOL
REMARK 924 INTRA-LIGAND FREE ENERGY PREDICTED BY IDOCK:   -0.12 KCAL/MOL
REMARK 927      BINDING AFFINITY PREDICTED BY RF-SCORE:    0.00 PKD
ROOT
HETATM    1  C   UNL     1      -9.341  19.617  66.737  1.00  0.00    -0.451 C  
HETATM    2  C   UNL     1      -9.032  18.157  66.434  1.00  0.00    -0.256 C  
ENDROOT
BRANCH   2   3
HETATM    3  C   UNL     1     -10.135  17.248  66.977  1.00  0.00    -0.303 C  
BRANCH   3   4
HETATM    4  N   UNL     1      -9.636  16.400  68.066  1.00  0.00    -0.223 NA 
HETATM    5  H   UNL     1      -9.786  16.839  68.974  1.00  0.00     0.000 HD 
BRANCH   4   6
HETATM    6  C   UNL     1     -10.219  15.043  68.024  1.00  0.00    -0.228 C  
HETATM    7  C   UNL     1      -9.133  13.942  67.884  1.00  0.00    -0.194 C  
HETATM    8  C   UNL     1      -9.766  12.561  67.666  1.00  0.00    -0.196 C  
HETATM    9  C   UNL     1     -10.854  12.316  68.648  1.00  0.00    -0.236 A  
HETATM   10  C   UNL     1     -11.455  13.325  69.368  1.00  0.00    -0.263 A  
HETATM   11  S   UNL     1     -12.650  12.670  70.389  1.00  0.00     0.046 SA 
HETATM   12  C   UNL     1     -11.079  14.773  69.302  1.00  0.00    -0.283 C  
HETATM   13  C   UNL     1     -12.270  11.095  69.792  1.00  0.00    -0.300 A  
HETATM   14  N   UNL     1     -12.911  10.000  70.231  1.00  0.00    -0.571 NA 
HETATM   15  N   UNL     1     -11.336  11.049  68.876  1.00  0.00    -0.254 NA 
HETATM   16  H1  UNL     1     -12.687   9.070  69.878  1.00  0.00     0.000 HD 
HETATM   17  H2  UNL     1     -13.642  10.101  70.934  1.00  0.00     0.000 HD 
ENDBRANCH   4   6
ENDBRANCH   3   4
ENDBRANCH   2   3
TORSDOF 3
ENDMDL
MODEL      150
REMARK 921   NORMALIZED FREE ENERGY PREDICTED BY IDOCK:   -3.06 KCAL/MOL
REMARK 922        TOTAL FREE ENERGY PREDICTED BY IDOCK:   -3.83 KCAL/MOL
REMARK 923 INTER-LIGAND FREE ENERGY PREDICTED BY IDOCK:   -3.57 KCAL/MOL
REMARK 924 INTRA-LIGAND FREE ENERGY PREDICTED BY IDOCK:   -0.26 KCAL/MOL
REMARK 927      BINDING AFFINITY PREDICTED BY RF-SCORE:    0.00 PKD
ROOT
HETATM    1  C   UNL     1      -7.160  18.669  66.561  1.00  0.00    -0.244 C  
HETATM    2  C   UNL     1      -6.372  17.491  67.117  1.00  0.00    -0.184 C  
ENDROOT
BRANCH   2   3
HETATM    3  C   UNL     1      -7.283  16.281  67.322  1.00  0.00    -0.188 C  
BRANCH   3   4
HETATM    4  N   UNL     1      -8.575  16.470  66.651  1.00  0.00    -0.226 NA 
HETATM    5  H   UNL     1      -8.484  16.378  65.639  1.00  0.00     0.000 HD 
BRANCH   4   6
HETATM    6  C   UNL     1      -9.614  15.562  67.179  1.00  0.00    -0.222 C  
HETATM    7  C   UNL     1      -9.174  14.074  67.125  1.00  0.00    -0.240 C  
HETATM    8  C   UNL     1     -10.328  13.138  67.512  1.00  0.00    -0.225 C  
HETATM    9  C   UNL     1     -10.990  13.601  68.757  1.00  0.00    -0.264 A  
HETATM   10  C   UNL     1     -10.846  14.879  69.253  1.00  0.00    -0.266 A  
HETATM   11  S   UNL     1     -11.746  15.044  70.689  1.00  0.00    -0.333 SA 
HETATM   12  C   UNL     1      -9.987  15.946  68.649  1.00  0.00    -0.214 C  
HETATM   13  C   UNL     1     -12.253  13.401  70.538  1.00  0.00    -0.352 A  
HETATM   14  N   UNL     1     -13.066  12.827  71.440  1.00  0.00    -0.290 NA 
HETATM   15  N   UNL     1     -11.811  12.768  69.481  1.00  0.00    -0.320 NA 
HETATM   16  H1  UNL     1     -13.366  11.857  71.350  1.00  0.00     0.000 HD 
HETATM   17  H2  UNL     1     -13.391  13.376  72.235  1.00  0.00     0.000 HD 
ENDBRANCH   4   6
ENDBRANCH   3   4
ENDBRANCH   2   3
TORSDOF 3
ENDMDL
MODEL      151
REMARK 921   NORMALIZED FREE ENERGY PREDICTED BY IDOCK:   -3.05 KCAL/MOL
REMARK 922        TOTAL FREE ENERGY PREDICTED BY IDOCK:   -3.82 KCAL/MOL
REMARK 923 INTER-LIGAND FREE ENERGY PREDICTED BY IDOCK:   -3.54 KCAL/MOL
REMARK 924 INTRA-LIGAND FREE ENERGY PREDICTED BY IDOCK:   -0.29 KCAL/MOL
REMARK 927      BINDING AFFINITY PREDICTED BY RF-SCORE:    0.00 PKD
ROOT
HETATM    1  C   UNL     1     -12.696  11.797  71.235  1.00  0.00    -0.420 C  
HETATM    2  C   UNL     1     -12.523  10.380  70.703  1.00  0.00    -0.437 C  
ENDROOT
BRANCH   2   3
HETATM    3  C   UNL     1     -13.635   9.469  71.224  1.00  0.00    -0.232 C  
BRANCH   3   4
HETATM    4  N   UNL     1     -13.186   8.074  71.301  1.00  0.00    -0.521 NA 
HETATM    5  H   UNL     1     -13.491   7.542  70.486  1.00  0.00     0.000 HD 
BRANCH   4   6
HETATM    6  C   UNL     1     -11.725   7.970  71.492  1.00  0.00    -0.284 C  
HETATM    7  C   UNL     1     -11.353   7.468  72.913  1.00  0.00    -0.355 C  
HETATM    8  C   UNL     1      -9.838   7.535  73.148  1.00  0.00    -0.316 C  
HETATM    9  C   UNL     1      -9.098   6.939  72.007  1.00  0.00    -0.136 A  
HETATM   10  C   UNL     1      -9.669   6.730  70.770  1.00  0.00    -0.179 A  
HETATM   11  S   UNL     1      -8.525   6.032  69.719  1.00  0.00    -0.128 SA 
HETATM   12  C   UNL     1     -11.094   7.023  70.419  1.00  0.00    -0.323 C  
HETATM   13  C   UNL     1      -7.362   6.063  70.994  1.00  0.00    -0.080 A  
HETATM   14  N   UNL     1      -6.112   5.605  70.821  1.00  0.00    -0.028 NA 
HETATM   15  N   UNL     1      -7.776   6.578  72.124  1.00  0.00    -0.097 NA 
HETATM   16  H1  UNL     1      -5.425   5.623  71.574  1.00  0.00     0.000 HD 
HETATM   17  H2  UNL     1      -5.842   5.230  69.912  1.00  0.00     0.000 HD 
ENDBRANCH   4   6
ENDBRANCH   3   4
ENDBRANCH   2   3
TORSDOF 3
ENDMDL
MODEL      152
REMARK 921   NORMALIZED FREE ENERGY PREDICTED BY IDOCK:   -3.03 KCAL/MOL
REMARK 922        TOTAL FREE ENERGY PREDICTED BY IDOCK:   -3.80 KCAL/MOL
REMARK 923 INTER-LIGAND FREE ENERGY PREDICTED BY IDOCK:   -3.46 KCAL/MOL
REMARK 924 INTRA-LIGAND FREE ENERGY PREDICTED BY IDOCK:   -0.35 KCAL/MOL
REMARK 927      BINDING AFFINITY PREDICTED BY RF-SCORE:    0.00 PKD
ROOT
HETATM    1  C   UNL     1      -7.569  11.826  66.853  1.00  0.00    -0.119 C  
HETATM    2  C   UNL     1      -7.260  10.336  66.803  1.00  0.00    -0.105 C  
ENDROOT
BRANCH   2   3
HETATM    3  C   UNL     1      -8.379   9.577  66.090  1.00  0.00    -0.115 C  
BRANCH   3   4
HETATM    4  N   UNL     1      -9.700  10.056  66.515  1.00  0.00    -0.189 NA 
HETATM    5  H   UNL     1     -10.268  10.333  65.714  1.00  0.00     0.000 HD 
BRANCH   4   6
HETATM    6  C   UNL     1     -10.406   9.065  67.353  1.00  0.00    -0.268 C  
HETATM    7  C   UNL     1      -9.882   7.622  67.124  1.00  0.00    -0.265 C  
HETATM    8  C   UNL     1     -10.743   6.592  67.869  1.00  0.00    -0.341 C  
HETATM    9  C   UNL     1     -10.972   7.012  69.275  1.00  0.00    -0.178 A  
HETATM   10  C   UNL     1     -10.779   8.305  69.713  1.00  0.00    -0.221 A  
HETATM   11  S   UNL     1     -11.138   8.409  71.374  1.00  0.00    -0.271 SA 
HETATM   12  C   UNL     1     -10.281   9.435  68.868  1.00  0.00    -0.215 C  
HETATM   13  C   UNL     1     -11.518   6.725  71.379  1.00  0.00    -0.292 A  
HETATM   14  N   UNL     1     -11.914   6.094  72.496  1.00  0.00    -0.526 NA 
HETATM   15  N   UNL     1     -11.414   6.119  70.223  1.00  0.00    -0.352 NA 
HETATM   16  H1  UNL     1     -12.139   5.099  72.498  1.00  0.00     0.000 HD 
HETATM   17  H2  UNL     1     -11.992   6.622  73.364  1.00  0.00     0.000 HD 
ENDBRANCH   4   6
ENDBRANCH   3   4
ENDBRANCH   2   3
TORSDOF 3
ENDMDL
MODEL      153
REMARK 921   NORMALIZED FREE ENERGY PREDICTED BY IDOCK:   -3.02 KCAL/MOL
REMARK 922        TOTAL FREE ENERGY PREDICTED BY IDOCK:   -3.79 KCAL/MOL
REMARK 923 INTER-LIGAND FREE ENERGY PREDICTED BY IDOCK:   -3.57 KCAL/MOL
REMARK 924 INTRA-LIGAND FREE ENERGY PREDICTED BY IDOCK:   -0.22 KCAL/MOL
REMARK 927      BINDING AFFINITY PREDICTED BY RF-SCORE:    0.00 PKD
ROOT
HETATM    1  C   UNL     1      -8.000   5.755  68.930  1.00  0.00    -0.098 C  
HETATM    2  C   UNL     1      -8.939   6.299  69.999  1.00  0.00    -0.149 C  
ENDROOT
BRANCH   2   3
HETATM    3  C   UNL     1     -10.186   6.911  69.361  1.00  0.00    -0.182 C  
BRANCH   3   4
HETATM    4  N   UNL     1     -11.391   6.593  70.136  1.00  0.00    -0.357 NA 
HETATM    5  H   UNL     1     -11.165   6.030  70.956  1.00  0.00     0.000 HD 
BRANCH   4   6
HETATM    6  C   UNL     1     -12.145   7.806  70.512  1.00  0.00     0.090 C  
HETATM    7  C   UNL     1     -12.487   7.839  72.026  1.00  0.00    -0.318 C  
HETATM    8  C   UNL     1     -13.418   9.013  72.361  1.00  0.00    -0.524 C  
HETATM    9  C   UNL     1     -12.920  10.273  71.754  1.00  0.00    -0.469 A  
HETATM   10  C   UNL     1     -11.998  10.300  70.729  1.00  0.00    -0.360 A  
HETATM   11  S   UNL     1     -11.668  11.912  70.295  1.00  0.00    -0.089 SA 
HETATM   12  C   UNL     1     -11.347   9.094  70.126  1.00  0.00    -0.164 C  
HETATM   13  C   UNL     1     -12.776  12.446  71.505  1.00  0.00    -0.228 A  
HETATM   14  N   UNL     1     -13.013  13.751  71.719  1.00  0.00    -0.350 NA 
HETATM   15  N   UNL     1     -13.378  11.498  72.178  1.00  0.00    -0.374 NA 
HETATM   16  H1  UNL     1     -13.668  14.066  72.435  1.00  0.00     0.000 HD 
HETATM   17  H2  UNL     1     -12.526  14.443  71.152  1.00  0.00     0.000 HD 
ENDBRANCH   4   6
ENDBRANCH   3   4
ENDBRANCH   2   3
TORSDOF 3
ENDMDL
MODEL      154
REMARK 921   NORMALIZED FREE ENERGY PREDICTED BY IDOCK:   -3.01 KCAL/MOL
REMARK 922        TOTAL FREE ENERGY PREDICTED BY IDOCK:   -3.78 KCAL/MOL
REMARK 923 INTER-LIGAND FREE ENERGY PREDICTED BY IDOCK:   -3.63 KCAL/MOL
REMARK 924 INTRA-LIGAND FREE ENERGY PREDICTED BY IDOCK:   -0.15 KCAL/MOL
REMARK 927      BINDING AFFINITY PREDICTED BY RF-SCORE:    0.00 PKD
ROOT
HETATM    1  C   UNL     1     -12.474  13.473  70.936  1.00  0.00    -0.448 C  
HETATM    2  C   UNL     1     -12.089  12.353  69.978  1.00  0.00    -0.335 C  
ENDROOT
BRANCH   2   3
HETATM    3  C   UNL     1     -12.576  11.003  70.505  1.00  0.00    -0.304 C  
BRANCH   3   4
HETATM    4  N   UNL     1     -11.749   9.904  69.993  1.00  0.00    -0.421 NA 
HETATM    5  H   UNL     1     -10.930  10.257  69.498  1.00  0.00     0.000 HD 
BRANCH   4   6
HETATM    6  C   UNL     1     -11.363   8.956  71.059  1.00  0.00    -0.291 C  
HETATM    7  C   UNL     1     -11.684   7.485  70.680  1.00  0.00    -0.240 C  
HETATM    8  C   UNL     1     -11.440   6.540  71.864  1.00  0.00    -0.345 C  
HETATM    9  C   UNL     1     -10.119   6.803  72.489  1.00  0.00    -0.172 A  
HETATM   10  C   UNL     1      -9.413   7.970  72.286  1.00  0.00    -0.209 A  
HETATM   11  S   UNL     1      -7.951   7.915  73.157  1.00  0.00    -0.163 SA 
HETATM   12  C   UNL     1      -9.842   9.092  71.394  1.00  0.00    -0.354 C  
HETATM   13  C   UNL     1      -8.373   6.344  73.733  1.00  0.00    -0.115 A  
HETATM   14  N   UNL     1      -7.567   5.652  74.554  1.00  0.00    -0.094 NA 
HETATM   15  N   UNL     1      -9.533   5.888  73.332  1.00  0.00    -0.138 NA 
HETATM   16  H1  UNL     1      -7.817   4.723  74.894  1.00  0.00     0.000 HD 
HETATM   17  H2  UNL     1      -6.682   6.066  74.846  1.00  0.00     0.000 HD 
ENDBRANCH   4   6
ENDBRANCH   3   4
ENDBRANCH   2   3
TORSDOF 3
ENDMDL
MODEL      155
REMARK 921   NORMALIZED FREE ENERGY PREDICTED BY IDOCK:   -3.01 KCAL/MOL
REMARK 922        TOTAL FREE ENERGY PREDICTED BY IDOCK:   -3.78 KCAL/MOL
REMARK 923 INTER-LIGAND FREE ENERGY PREDICTED BY IDOCK:   -3.52 KCAL/MOL
REMARK 924 INTRA-LIGAND FREE ENERGY PREDICTED BY IDOCK:   -0.26 KCAL/MOL
REMARK 927      BINDING AFFINITY PREDICTED BY RF-SCORE:    0.00 PKD
ROOT
HETATM    1  C   UNL     1     -12.888  10.801  71.640  1.00  0.00    -0.562 C  
HETATM    2  C   UNL     1     -13.693   9.522  71.833  1.00  0.00    -0.410 C  
ENDROOT
BRANCH   2   3
HETATM    3  C   UNL     1     -12.772   8.355  72.189  1.00  0.00    -0.356 C  
BRANCH   3   4
HETATM    4  N   UNL     1     -12.623   7.431  71.058  1.00  0.00    -0.535 NA 
HETATM    5  H   UNL     1     -13.067   7.801  70.218  1.00  0.00     0.000 HD 
BRANCH   4   6
HETATM    6  C   UNL     1     -11.209   7.084  70.808  1.00  0.00    -0.285 C  
HETATM    7  C   UNL     1     -11.064   5.768  69.995  1.00  0.00    -0.329 C  
HETATM    8  C   UNL     1      -9.594   5.334  69.899  1.00  0.00    -0.241 C  
HETATM    9  C   UNL     1      -8.730   6.475  69.499  1.00  0.00    -0.134 A  
HETATM   10  C   UNL     1      -9.132   7.790  69.594  1.00  0.00    -0.146 A  
HETATM   11  S   UNL     1      -7.886   8.812  69.047  1.00  0.00    -0.097 SA 
HETATM   12  C   UNL     1     -10.479   8.247  70.060  1.00  0.00    -0.231 C  
HETATM   13  C   UNL     1      -6.913   7.424  68.725  1.00  0.00    -0.078 A  
HETATM   14  N   UNL     1      -5.673   7.532  68.221  1.00  0.00    -0.026 NA 
HETATM   15  N   UNL     1      -7.456   6.271  69.023  1.00  0.00    -0.089 NA 
HETATM   16  H1  UNL     1      -5.097   6.712  68.031  1.00  0.00     0.000 HD 
HETATM   17  H2  UNL     1      -5.296   8.459  68.023  1.00  0.00     0.000 HD 
ENDBRANCH   4   6
ENDBRANCH   3   4
ENDBRANCH   2   3
TORSDOF 3
ENDMDL
MODEL      156
REMARK 921   NORMALIZED FREE ENERGY PREDICTED BY IDOCK:   -3.01 KCAL/MOL
REMARK 922        TOTAL FREE ENERGY PREDICTED BY IDOCK:   -3.77 KCAL/MOL
REMARK 923 INTER-LIGAND FREE ENERGY PREDICTED BY IDOCK:   -3.52 KCAL/MOL
REMARK 924 INTRA-LIGAND FREE ENERGY PREDICTED BY IDOCK:   -0.25 KCAL/MOL
REMARK 927      BINDING AFFINITY PREDICTED BY RF-SCORE:    0.00 PKD
ROOT
HETATM    1  C   UNL     1      -6.008   6.997  66.840  1.00  0.00    -0.030 C  
HETATM    2  C   UNL     1      -6.191   6.565  65.391  1.00  0.00    -0.034 C  
ENDROOT
BRANCH   2   3
HETATM    3  C   UNL     1      -7.107   7.540  64.650  1.00  0.00    -0.064 C  
BRANCH   3   4
HETATM    4  N   UNL     1      -6.725   8.932  64.913  1.00  0.00    -0.069 NA 
HETATM    5  H   UNL     1      -5.819   9.152  64.499  1.00  0.00     0.000 HD 
BRANCH   4   6
HETATM    6  C   UNL     1      -7.763   9.886  64.469  1.00  0.00    -0.142 C  
HETATM    7  C   UNL     1      -8.496   9.401  63.189  1.00  0.00    -0.205 C  
HETATM    8  C   UNL     1      -9.441  10.482  62.647  1.00  0.00    -0.326 C  
HETATM    9  C   UNL     1     -10.282  11.044  63.735  1.00  0.00    -0.364 A  
HETATM   10  C   UNL     1      -9.975  10.901  65.071  1.00  0.00    -0.298 A  
HETATM   11  S   UNL     1     -11.160  11.672  66.019  1.00  0.00    -0.228 SA 
HETATM   12  C   UNL     1      -8.804  10.138  65.608  1.00  0.00    -0.185 C  
HETATM   13  C   UNL     1     -11.988  12.133  64.577  1.00  0.00    -0.337 A  
HETATM   14  N   UNL     1     -13.129  12.840  64.613  1.00  0.00    -0.810 NA 
HETATM   15  N   UNL     1     -11.418  11.766  63.456  1.00  0.00    -0.424 NA 
HETATM   16  H1  UNL     1     -13.618  13.113  63.761  1.00  0.00     0.000 HD 
HETATM   17  H2  UNL     1     -13.516  13.112  65.516  1.00  0.00     0.000 HD 
ENDBRANCH   4   6
ENDBRANCH   3   4
ENDBRANCH   2   3
TORSDOF 3
ENDMDL
MODEL      157
REMARK 921   NORMALIZED FREE ENERGY PREDICTED BY IDOCK:   -3.00 KCAL/MOL
REMARK 922        TOTAL FREE ENERGY PREDICTED BY IDOCK:   -3.76 KCAL/MOL
REMARK 923 INTER-LIGAND FREE ENERGY PREDICTED BY IDOCK:   -3.56 KCAL/MOL
REMARK 924 INTRA-LIGAND FREE ENERGY PREDICTED BY IDOCK:   -0.21 KCAL/MOL
REMARK 927      BINDING AFFINITY PREDICTED BY RF-SCORE:    0.00 PKD
ROOT
HETATM    1  C   UNL     1     -10.464   3.446  63.487  1.00  0.00    -0.248 C  
HETATM    2  C   UNL     1      -9.895   3.373  64.898  1.00  0.00    -0.097 C  
ENDROOT
BRANCH   2   3
HETATM    3  C   UNL     1      -9.765   4.772  65.499  1.00  0.00    -0.152 C  
BRANCH   3   4
HETATM    4  N   UNL     1     -11.037   5.223  66.075  1.00  0.00    -0.793 NA 
HETATM    5  H   UNL     1     -11.544   4.449  66.504  1.00  0.00     0.000 HD 
BRANCH   4   6
HETATM    6  C   UNL     1     -10.852   6.336  67.030  1.00  0.00    -0.383 C  
HETATM    7  C   UNL     1     -10.966   5.867  68.506  1.00  0.00    -0.277 C  
HETATM    8  C   UNL     1     -10.946   7.061  69.471  1.00  0.00    -0.251 C  
HETATM    9  C   UNL     1      -9.835   7.990  69.141  1.00  0.00    -0.178 A  
HETATM   10  C   UNL     1      -9.187   7.982  67.925  1.00  0.00    -0.131 A  
HETATM   11  S   UNL     1      -7.976   9.179  67.912  1.00  0.00    -0.101 SA 
HETATM   12  C   UNL     1      -9.469   7.031  66.804  1.00  0.00    -0.205 C  
HETATM   13  C   UNL     1      -8.410   9.611  69.525  1.00  0.00    -0.152 A  
HETATM   14  N   UNL     1      -7.777  10.591  70.189  1.00  0.00    -0.421 NA 
HETATM   15  N   UNL     1      -9.404   8.934  70.043  1.00  0.00    -0.166 NA 
HETATM   16  H1  UNL     1      -8.033  10.846  71.142  1.00  0.00     0.000 HD 
HETATM   17  H2  UNL     1      -7.020  11.094  69.727  1.00  0.00     0.000 HD 
ENDBRANCH   4   6
ENDBRANCH   3   4
ENDBRANCH   2   3
TORSDOF 3
ENDMDL
MODEL      158
REMARK 921   NORMALIZED FREE ENERGY PREDICTED BY IDOCK:   -2.99 KCAL/MOL
REMARK 922        TOTAL FREE ENERGY PREDICTED BY IDOCK:   -3.75 KCAL/MOL
REMARK 923 INTER-LIGAND FREE ENERGY PREDICTED BY IDOCK:   -3.49 KCAL/MOL
REMARK 924 INTRA-LIGAND FREE ENERGY PREDICTED BY IDOCK:   -0.26 KCAL/MOL
REMARK 927      BINDING AFFINITY PREDICTED BY RF-SCORE:    0.00 PKD
ROOT
HETATM    1  C   UNL     1     -10.460  11.238  63.666  1.00  0.00    -0.464 C  
HETATM    2  C   UNL     1     -10.840  12.448  64.508  1.00  0.00    -0.358 C  
ENDROOT
BRANCH   2   3
HETATM    3  C   UNL     1     -11.516  12.010  65.807  1.00  0.00    -0.320 C  
BRANCH   3   4
HETATM    4  N   UNL     1     -11.763  13.156  66.691  1.00  0.00    -0.356 NA 
HETATM    5  H   UNL     1     -12.075  12.852  67.613  1.00  0.00     0.000 HD 
BRANCH   4   6
HETATM    6  C   UNL     1     -10.586  14.045  66.790  1.00  0.00    -0.277 C  
HETATM    7  C   UNL     1     -10.980  15.546  66.742  1.00  0.00    -0.257 C  
HETATM    8  C   UNL     1      -9.737  16.444  66.668  1.00  0.00    -0.272 C  
HETATM    9  C   UNL     1      -8.732  16.041  67.684  1.00  0.00    -0.173 A  
HETATM   10  C   UNL     1      -8.749  14.814  68.312  1.00  0.00    -0.170 A  
HETATM   11  S   UNL     1      -7.451  14.710  69.408  1.00  0.00    -0.066 SA 
HETATM   12  C   UNL     1      -9.784  13.753  68.100  1.00  0.00    -0.227 C  
HETATM   13  C   UNL     1      -6.970  16.307  68.962  1.00  0.00    -0.188 A  
HETATM   14  N   UNL     1      -5.901  16.903  69.514  1.00  0.00    -0.187 NA 
HETATM   15  N   UNL     1      -7.703  16.881  68.042  1.00  0.00    -0.173 NA 
HETATM   16  H1  UNL     1      -5.617  17.846  69.251  1.00  0.00     0.000 HD 
HETATM   17  H2  UNL     1      -5.359  16.398  70.215  1.00  0.00     0.000 HD 
ENDBRANCH   4   6
ENDBRANCH   3   4
ENDBRANCH   2   3
TORSDOF 3
ENDMDL
MODEL      159
REMARK 921   NORMALIZED FREE ENERGY PREDICTED BY IDOCK:   -2.98 KCAL/MOL
REMARK 922        TOTAL FREE ENERGY PREDICTED BY IDOCK:   -3.74 KCAL/MOL
REMARK 923 INTER-LIGAND FREE ENERGY PREDICTED BY IDOCK:   -3.45 KCAL/MOL
REMARK 924 INTRA-LIGAND FREE ENERGY PREDICTED BY IDOCK:   -0.29 KCAL/MOL
REMARK 927      BINDING AFFINITY PREDICTED BY RF-SCORE:    0.00 PKD
ROOT
HETATM    1  C   UNL     1     -10.426  16.457  65.528  1.00  0.00    -0.349 C  
HETATM    2  C   UNL     1     -11.231  15.430  64.742  1.00  0.00    -0.404 C  
ENDROOT
BRANCH   2   3
HETATM    3  C   UNL     1     -10.986  14.022  65.286  1.00  0.00    -0.334 C  
BRANCH   3   4
HETATM    4  N   UNL     1     -11.902  13.712  66.389  1.00  0.00    -0.376 NA 
HETATM    5  H   UNL     1     -12.739  13.236  66.052  1.00  0.00     0.000 HD 
BRANCH   4   6
HETATM    6  C   UNL     1     -11.241  12.937  67.459  1.00  0.00    -0.290 C  
HETATM    7  C   UNL     1     -11.732  11.464  67.506  1.00  0.00    -0.220 C  
HETATM    8  C   UNL     1     -11.167  10.728  68.729  1.00  0.00    -0.331 C  
HETATM    9  C   UNL     1      -9.705  10.957  68.856  1.00  0.00    -0.187 A  
HETATM   10  C   UNL     1      -9.048  11.984  68.213  1.00  0.00    -0.190 A  
HETATM   11  S   UNL     1      -7.389  11.931  68.592  1.00  0.00    -0.109 SA 
HETATM   12  C   UNL     1      -9.687  12.967  67.282  1.00  0.00    -0.220 C  
HETATM   13  C   UNL     1      -7.677  10.545  69.578  1.00  0.00    -0.136 A  
HETATM   14  N   UNL     1      -6.683   9.930  70.240  1.00  0.00    -0.110 NA 
HETATM   15  N   UNL     1      -8.923  10.152  69.650  1.00  0.00    -0.196 NA 
HETATM   16  H1  UNL     1      -6.853   9.111  70.823  1.00  0.00     0.000 HD 
HETATM   17  H2  UNL     1      -5.734  10.292  70.158  1.00  0.00     0.000 HD 
ENDBRANCH   4   6
ENDBRANCH   3   4
ENDBRANCH   2   3
TORSDOF 3
ENDMDL
MODEL      160
REMARK 921   NORMALIZED FREE ENERGY PREDICTED BY IDOCK:   -2.97 KCAL/MOL
REMARK 922        TOTAL FREE ENERGY PREDICTED BY IDOCK:   -3.73 KCAL/MOL
REMARK 923 INTER-LIGAND FREE ENERGY PREDICTED BY IDOCK:   -3.47 KCAL/MOL
REMARK 924 INTRA-LIGAND FREE ENERGY PREDICTED BY IDOCK:   -0.26 KCAL/MOL
REMARK 927      BINDING AFFINITY PREDICTED BY RF-SCORE:    0.00 PKD
ROOT
HETATM    1  C   UNL     1     -11.540  15.931  64.545  1.00  0.00    -0.232 C  
HETATM    2  C   UNL     1     -11.971  14.471  64.573  1.00  0.00    -0.482 C  
ENDROOT
BRANCH   2   3
HETATM    3  C   UNL     1     -11.652  13.840  65.928  1.00  0.00    -0.333 C  
BRANCH   3   4
HETATM    4  N   UNL     1     -12.113  12.448  65.988  1.00  0.00    -0.638 NA 
HETATM    5  H   UNL     1     -12.718  12.225  65.198  1.00  0.00     0.000 HD 
BRANCH   4   6
HETATM    6  C   UNL     1     -10.989  11.494  66.088  1.00  0.00    -0.266 C  
HETATM    7  C   UNL     1     -10.397  11.138  64.698  1.00  0.00    -0.393 C  
HETATM    8  C   UNL     1      -9.353  10.018  64.809  1.00  0.00    -0.330 C  
HETATM    9  C   UNL     1      -8.388  10.300  65.902  1.00  0.00    -0.145 A  
HETATM   10  C   UNL     1      -8.635  11.214  66.904  1.00  0.00    -0.148 A  
HETATM   11  S   UNL     1      -7.310  11.270  67.971  1.00  0.00    -0.097 SA 
HETATM   12  C   UNL     1      -9.861  12.066  67.008  1.00  0.00    -0.205 C  
HETATM   13  C   UNL     1      -6.512  10.075  67.014  1.00  0.00    -0.069 A  
HETATM   14  N   UNL     1      -5.290   9.618  67.329  1.00  0.00    -0.036 NA 
HETATM   15  N   UNL     1      -7.186   9.637  65.980  1.00  0.00    -0.096 NA 
HETATM   16  H1  UNL     1      -4.818   8.912  66.764  1.00  0.00     0.000 HD 
HETATM   17  H2  UNL     1      -4.821   9.986  68.157  1.00  0.00     0.000 HD 
ENDBRANCH   4   6
ENDBRANCH   3   4
ENDBRANCH   2   3
TORSDOF 3
ENDMDL
MODEL      161
REMARK 921   NORMALIZED FREE ENERGY PREDICTED BY IDOCK:   -2.95 KCAL/MOL
REMARK 922        TOTAL FREE ENERGY PREDICTED BY IDOCK:   -3.71 KCAL/MOL
REMARK 923 INTER-LIGAND FREE ENERGY PREDICTED BY IDOCK:   -3.59 KCAL/MOL
REMARK 924 INTRA-LIGAND FREE ENERGY PREDICTED BY IDOCK:   -0.12 KCAL/MOL
REMARK 927      BINDING AFFINITY PREDICTED BY RF-SCORE:    0.00 PKD
ROOT
HETATM    1  C   UNL     1      -9.905   7.687  68.193  1.00  0.00    -0.186 C  
HETATM    2  C   UNL     1      -9.672   8.187  66.774  1.00  0.00    -0.303 C  
ENDROOT
BRANCH   2   3
HETATM    3  C   UNL     1     -10.410   9.505  66.539  1.00  0.00    -0.193 C  
BRANCH   3   4
HETATM    4  N   UNL     1      -9.595  10.436  65.749  1.00  0.00    -0.201 NA 
HETATM    5  H   UNL     1      -9.717  10.276  64.749  1.00  0.00     0.000 HD 
BRANCH   4   6
HETATM    6  C   UNL     1      -9.863  11.845  66.102  1.00  0.00    -0.232 C  
HETATM    7  C   UNL     1      -8.598  12.565  66.641  1.00  0.00    -0.057 C  
HETATM    8  C   UNL     1      -8.937  13.968  67.164  1.00  0.00    -0.241 C  
HETATM    9  C   UNL     1      -9.772  14.711  66.186  1.00  0.00    -0.319 A  
HETATM   10  C   UNL     1     -10.458  14.093  65.163  1.00  0.00    -0.402 A  
HETATM   11  S   UNL     1     -11.299  15.257  64.249  1.00  0.00     0.030 SA 
HETATM   12  C   UNL     1     -10.427  12.625  64.869  1.00  0.00    -0.331 C  
HETATM   13  C   UNL     1     -10.682  16.491  65.286  1.00  0.00    -0.254 A  
HETATM   14  N   UNL     1     -10.987  17.785  65.103  1.00  0.00    -0.609 NA 
HETATM   15  N   UNL     1      -9.919  16.076  66.266  1.00  0.00    -0.288 NA 
HETATM   16  H1  UNL     1     -10.622  18.515  65.715  1.00  0.00     0.000 HD 
HETATM   17  H2  UNL     1     -11.600  18.047  64.331  1.00  0.00     0.000 HD 
ENDBRANCH   4   6
ENDBRANCH   3   4
ENDBRANCH   2   3
TORSDOF 3
ENDMDL
MODEL      162
REMARK 921   NORMALIZED FREE ENERGY PREDICTED BY IDOCK:   -2.94 KCAL/MOL
REMARK 922        TOTAL FREE ENERGY PREDICTED BY IDOCK:   -3.70 KCAL/MOL
REMARK 923 INTER-LIGAND FREE ENERGY PREDICTED BY IDOCK:   -3.38 KCAL/MOL
REMARK 924 INTRA-LIGAND FREE ENERGY PREDICTED BY IDOCK:   -0.31 KCAL/MOL
REMARK 927      BINDING AFFINITY PREDICTED BY RF-SCORE:    0.00 PKD
ROOT
HETATM    1  C   UNL     1     -13.040  14.085  71.710  1.00  0.00    -0.449 C  
HETATM    2  C   UNL     1     -13.391  12.632  72.001  1.00  0.00    -0.555 C  
ENDROOT
BRANCH   2   3
HETATM    3  C   UNL     1     -12.399  11.691  71.318  1.00  0.00    -0.181 C  
BRANCH   3   4
HETATM    4  N   UNL     1     -12.991  11.067  70.128  1.00  0.00    -0.083 NA 
HETATM    5  H   UNL     1     -13.852  11.539  69.853  1.00  0.00     0.000 HD 
BRANCH   4   6
HETATM    6  C   UNL     1     -12.036  10.998  69.003  1.00  0.00    -0.293 C  
HETATM    7  C   UNL     1     -11.826  12.380  68.327  1.00  0.00    -0.364 C  
HETATM    8  C   UNL     1     -10.971  12.254  67.058  1.00  0.00    -0.314 C  
HETATM    9  C   UNL     1      -9.758  11.437  67.316  1.00  0.00    -0.185 A  
HETATM   10  C   UNL     1      -9.634  10.602  68.405  1.00  0.00    -0.168 A  
HETATM   11  S   UNL     1      -8.114   9.834  68.370  1.00  0.00    -0.105 SA 
HETATM   12  C   UNL     1     -10.658  10.434  69.484  1.00  0.00    -0.274 C  
HETATM   13  C   UNL     1      -7.743  10.676  66.910  1.00  0.00    -0.122 A  
HETATM   14  N   UNL     1      -6.568  10.513  66.281  1.00  0.00    -0.110 NA 
HETATM   15  N   UNL     1      -8.687  11.460  66.454  1.00  0.00    -0.184 NA 
HETATM   16  H1  UNL     1      -6.348  11.011  65.418  1.00  0.00     0.000 HD 
HETATM   17  H2  UNL     1      -5.877   9.876  66.676  1.00  0.00     0.000 HD 
ENDBRANCH   4   6
ENDBRANCH   3   4
ENDBRANCH   2   3
TORSDOF 3
ENDMDL
MODEL      163
REMARK 921   NORMALIZED FREE ENERGY PREDICTED BY IDOCK:   -2.94 KCAL/MOL
REMARK 922        TOTAL FREE ENERGY PREDICTED BY IDOCK:   -3.69 KCAL/MOL
REMARK 923 INTER-LIGAND FREE ENERGY PREDICTED BY IDOCK:   -3.48 KCAL/MOL
REMARK 924 INTRA-LIGAND FREE ENERGY PREDICTED BY IDOCK:   -0.21 KCAL/MOL
REMARK 927      BINDING AFFINITY PREDICTED BY RF-SCORE:    0.00 PKD
ROOT
HETATM    1  C   UNL     1     -13.722   8.234  71.839  1.00  0.00    -0.411 C  
HETATM    2  C   UNL     1     -12.264   7.882  72.100  1.00  0.00    -0.353 C  
ENDROOT
BRANCH   2   3
HETATM    3  C   UNL     1     -11.336   8.868  71.391  1.00  0.00    -0.309 C  
BRANCH   3   4
HETATM    4  N   UNL     1     -11.898   9.295  70.104  1.00  0.00    -0.462 NA 
HETATM    5  H   UNL     1     -12.724   9.878  70.236  1.00  0.00     0.000 HD 
BRANCH   4   6
HETATM    6  C   UNL     1     -10.894   9.972  69.257  1.00  0.00    -0.230 C  
HETATM    7  C   UNL     1      -9.497  10.027  69.933  1.00  0.00    -0.221 C  
HETATM    8  C   UNL     1      -8.519  10.884  69.119  1.00  0.00    -0.064 C  
HETATM    9  C   UNL     1      -8.560  10.514  67.681  1.00  0.00    -0.118 A  
HETATM   10  C   UNL     1      -9.596   9.799  67.120  1.00  0.00    -0.169 A  
HETATM   11  S   UNL     1      -9.298   9.563  65.460  1.00  0.00    -0.263 SA 
HETATM   12  C   UNL     1     -10.778   9.266  67.867  1.00  0.00    -0.248 C  
HETATM   13  C   UNL     1      -7.814  10.429  65.621  1.00  0.00    -0.154 A  
HETATM   14  N   UNL     1      -6.996  10.628  64.576  1.00  0.00    -0.350 NA 
HETATM   15  N   UNL     1      -7.556  10.890  66.819  1.00  0.00    -0.128 NA 
HETATM   16  H1  UNL     1      -6.119  11.140  64.671  1.00  0.00     0.000 HD 
HETATM   17  H2  UNL     1      -7.258  10.259  63.663  1.00  0.00     0.000 HD 
ENDBRANCH   4   6
ENDBRANCH   3   4
ENDBRANCH   2   3
TORSDOF 3
ENDMDL
MODEL      164
REMARK 921   NORMALIZED FREE ENERGY PREDICTED BY IDOCK:   -2.94 KCAL/MOL
REMARK 922        TOTAL FREE ENERGY PREDICTED BY IDOCK:   -3.69 KCAL/MOL
REMARK 923 INTER-LIGAND FREE ENERGY PREDICTED BY IDOCK:   -3.43 KCAL/MOL
REMARK 924 INTRA-LIGAND FREE ENERGY PREDICTED BY IDOCK:   -0.26 KCAL/MOL
REMARK 927      BINDING AFFINITY PREDICTED BY RF-SCORE:    0.00 PKD
ROOT
HETATM    1  C   UNL     1      -7.016   9.500  66.396  1.00  0.00    -0.088 C  
HETATM    2  C   UNL     1      -7.955   9.564  67.593  1.00  0.00    -0.106 C  
ENDROOT
BRANCH   2   3
HETATM    3  C   UNL     1      -7.414  10.526  68.651  1.00  0.00    -0.095 C  
BRANCH   3   4
HETATM    4  N   UNL     1      -8.396  11.568  68.973  1.00  0.00    -0.368 NA 
HETATM    5  H   UNL     1      -8.245  11.941  69.911  1.00  0.00     0.000 HD 
BRANCH   4   6
HETATM    6  C   UNL     1      -8.413  12.647  67.964  1.00  0.00    -0.177 C  
HETATM    7  C   UNL     1      -9.848  13.171  67.690  1.00  0.00    -0.219 C  
HETATM    8  C   UNL     1      -9.863  14.162  66.518  1.00  0.00    -0.298 C  
HETATM    9  C   UNL     1      -8.790  15.178  66.669  1.00  0.00    -0.286 A  
HETATM   10  C   UNL     1      -7.713  15.011  67.512  1.00  0.00    -0.185 A  
HETATM   11  S   UNL     1      -6.697  16.375  67.424  1.00  0.00    -0.186 SA 
HETATM   12  C   UNL     1      -7.496  13.833  68.410  1.00  0.00    -0.119 C  
HETATM   13  C   UNL     1      -7.773  17.079  66.272  1.00  0.00    -0.311 A  
HETATM   14  N   UNL     1      -7.540  18.287  65.735  1.00  0.00    -0.534 NA 
HETATM   15  N   UNL     1      -8.810  16.348  65.947  1.00  0.00    -0.456 NA 
HETATM   16  H1  UNL     1      -8.176  18.703  65.055  1.00  0.00     0.000 HD 
HETATM   17  H2  UNL     1      -6.707  18.803  66.015  1.00  0.00     0.000 HD 
ENDBRANCH   4   6
ENDBRANCH   3   4
ENDBRANCH   2   3
TORSDOF 3
ENDMDL
MODEL      165
REMARK 921   NORMALIZED FREE ENERGY PREDICTED BY IDOCK:   -2.94 KCAL/MOL
REMARK 922        TOTAL FREE ENERGY PREDICTED BY IDOCK:   -3.69 KCAL/MOL
REMARK 923 INTER-LIGAND FREE ENERGY PREDICTED BY IDOCK:   -3.53 KCAL/MOL
REMARK 924 INTRA-LIGAND FREE ENERGY PREDICTED BY IDOCK:   -0.16 KCAL/MOL
REMARK 927      BINDING AFFINITY PREDICTED BY RF-SCORE:    0.00 PKD
ROOT
HETATM    1  C   UNL     1      -9.598  19.742  68.373  1.00  0.00    -0.454 C  
HETATM    2  C   UNL     1     -10.723  19.683  67.348  1.00  0.00    -0.563 C  
ENDROOT
BRANCH   2   3
HETATM    3  C   UNL     1     -10.464  18.575  66.327  1.00  0.00    -0.406 C  
BRANCH   3   4
HETATM    4  N   UNL     1      -9.177  17.914  66.576  1.00  0.00    -0.288 NA 
HETATM    5  H   UNL     1      -8.595  18.464  67.207  1.00  0.00     0.000 HD 
BRANCH   4   6
HETATM    6  C   UNL     1      -9.349  16.533  67.072  1.00  0.00    -0.230 C  
HETATM    7  C   UNL     1      -9.699  15.539  65.931  1.00  0.00    -0.392 C  
HETATM    8  C   UNL     1     -10.045  14.152  66.489  1.00  0.00    -0.283 C  
HETATM    9  C   UNL     1      -9.031  13.712  67.482  1.00  0.00    -0.209 A  
HETATM   10  C   UNL     1      -8.151  14.580  68.090  1.00  0.00    -0.137 A  
HETATM   11  S   UNL     1      -7.143  13.721  69.160  1.00  0.00    -0.000 SA 
HETATM   12  C   UNL     1      -8.061  16.049  67.814  1.00  0.00    -0.154 C  
HETATM   13  C   UNL     1      -7.956  12.262  68.726  1.00  0.00     0.025 A  
HETATM   14  N   UNL     1      -7.617  11.078  69.261  1.00  0.00    -0.263 NA 
HETATM   15  N   UNL     1      -8.932  12.394  67.863  1.00  0.00    -0.176 NA 
HETATM   16  H1  UNL     1      -8.098  10.216  69.005  1.00  0.00     0.000 HD 
HETATM   17  H2  UNL     1      -6.859  11.040  69.942  1.00  0.00     0.000 HD 
ENDBRANCH   4   6
ENDBRANCH   3   4
ENDBRANCH   2   3
TORSDOF 3
ENDMDL
MODEL      166
REMARK 921   NORMALIZED FREE ENERGY PREDICTED BY IDOCK:   -2.93 KCAL/MOL
REMARK 922        TOTAL FREE ENERGY PREDICTED BY IDOCK:   -3.68 KCAL/MOL
REMARK 923 INTER-LIGAND FREE ENERGY PREDICTED BY IDOCK:   -3.42 KCAL/MOL
REMARK 924 INTRA-LIGAND FREE ENERGY PREDICTED BY IDOCK:   -0.26 KCAL/MOL
REMARK 927      BINDING AFFINITY PREDICTED BY RF-SCORE:    0.00 PKD
ROOT
HETATM    1  C   UNL     1      -9.833  20.007  68.204  1.00  0.00    -0.499 C  
HETATM    2  C   UNL     1     -10.454  19.916  66.816  1.00  0.00    -0.575 C  
ENDROOT
BRANCH   2   3
HETATM    3  C   UNL     1     -10.430  18.475  66.308  1.00  0.00    -0.406 C  
BRANCH   3   4
HETATM    4  N   UNL     1     -10.239  17.526  67.411  1.00  0.00    -0.325 NA 
HETATM    5  H   UNL     1     -11.116  17.069  67.661  1.00  0.00     0.000 HD 
BRANCH   4   6
HETATM    6  C   UNL     1      -9.184  16.535  67.115  1.00  0.00    -0.214 C  
HETATM    7  C   UNL     1      -7.762  17.093  67.391  1.00  0.00    -0.191 C  
HETATM    8  C   UNL     1      -6.679  16.116  66.912  1.00  0.00    -0.100 C  
HETATM    9  C   UNL     1      -6.966  14.736  67.381  1.00  0.00    -0.110 A  
HETATM   10  C   UNL     1      -8.208  14.339  67.827  1.00  0.00    -0.174 A  
HETATM   11  S   UNL     1      -8.158  12.698  68.281  1.00  0.00    -0.149 SA 
HETATM   12  C   UNL     1      -9.406  15.228  67.945  1.00  0.00    -0.189 C  
HETATM   13  C   UNL     1      -6.488  12.648  67.850  1.00  0.00    -0.113 A  
HETATM   14  N   UNL     1      -5.758  11.528  67.977  1.00  0.00    -0.043 NA 
HETATM   15  N   UNL     1      -5.993  13.764  67.375  1.00  0.00    -0.333 NA 
HETATM   16  H1  UNL     1      -4.771  11.499  67.722  1.00  0.00     0.000 HD 
HETATM   17  H2  UNL     1      -6.203  10.685  68.338  1.00  0.00     0.000 HD 
ENDBRANCH   4   6
ENDBRANCH   3   4
ENDBRANCH   2   3
TORSDOF 3
ENDMDL
MODEL      167
REMARK 921   NORMALIZED FREE ENERGY PREDICTED BY IDOCK:   -2.92 KCAL/MOL
REMARK 922        TOTAL FREE ENERGY PREDICTED BY IDOCK:   -3.67 KCAL/MOL
REMARK 923 INTER-LIGAND FREE ENERGY PREDICTED BY IDOCK:   -3.38 KCAL/MOL
REMARK 924 INTRA-LIGAND FREE ENERGY PREDICTED BY IDOCK:   -0.28 KCAL/MOL
REMARK 927      BINDING AFFINITY PREDICTED BY RF-SCORE:    0.00 PKD
ROOT
HETATM    1  C   UNL     1     -10.693   3.748  73.447  1.00  0.00    -0.297 C  
HETATM    2  C   UNL     1     -11.070   5.146  72.974  1.00  0.00    -0.379 C  
ENDROOT
BRANCH   2   3
HETATM    3  C   UNL     1      -9.969   6.148  73.319  1.00  0.00    -0.181 C  
BRANCH   3   4
HETATM    4  N   UNL     1      -9.113   6.417  72.158  1.00  0.00    -0.141 NA 
HETATM    5  H   UNL     1      -8.250   5.876  72.201  1.00  0.00     0.000 HD 
BRANCH   4   6
HETATM    6  C   UNL     1      -9.822   6.194  70.881  1.00  0.00    -0.182 C  
HETATM    7  C   UNL     1     -10.006   7.508  70.075  1.00  0.00    -0.186 C  
HETATM    8  C   UNL     1     -10.895   7.284  68.843  1.00  0.00    -0.119 C  
HETATM    9  C   UNL     1     -10.458   6.082  68.086  1.00  0.00    -0.236 A  
HETATM   10  C   UNL     1      -9.646   5.109  68.628  1.00  0.00    -0.142 A  
HETATM   11  S   UNL     1      -9.357   3.893  67.472  1.00  0.00    -0.194 SA 
HETATM   12  C   UNL     1      -9.063   5.142  70.006  1.00  0.00    -0.163 C  
HETATM   13  C   UNL     1     -10.334   4.759  66.343  1.00  0.00    -0.273 A  
HETATM   14  N   UNL     1     -10.544   4.306  65.097  1.00  0.00    -0.585 NA 
HETATM   15  N   UNL     1     -10.866   5.869  66.791  1.00  0.00    -0.307 NA 
HETATM   16  H1  UNL     1     -11.121   4.818  64.430  1.00  0.00     0.000 HD 
HETATM   17  H2  UNL     1     -10.116   3.426  64.810  1.00  0.00     0.000 HD 
ENDBRANCH   4   6
ENDBRANCH   3   4
ENDBRANCH   2   3
TORSDOF 3
ENDMDL
MODEL      168
REMARK 921   NORMALIZED FREE ENERGY PREDICTED BY IDOCK:   -2.92 KCAL/MOL
REMARK 922        TOTAL FREE ENERGY PREDICTED BY IDOCK:   -3.66 KCAL/MOL
REMARK 923 INTER-LIGAND FREE ENERGY PREDICTED BY IDOCK:   -3.46 KCAL/MOL
REMARK 924 INTRA-LIGAND FREE ENERGY PREDICTED BY IDOCK:   -0.21 KCAL/MOL
REMARK 927      BINDING AFFINITY PREDICTED BY RF-SCORE:    0.00 PKD
ROOT
HETATM    1  C   UNL     1     -13.257  10.645  71.618  1.00  0.00    -0.495 C  
HETATM    2  C   UNL     1     -12.119   9.751  71.144  1.00  0.00    -0.460 C  
ENDROOT
BRANCH   2   3
HETATM    3  C   UNL     1     -12.349   8.306  71.585  1.00  0.00    -0.315 C  
BRANCH   3   4
HETATM    4  N   UNL     1     -11.983   8.116  72.994  1.00  0.00    -0.596 NA 
HETATM    5  H   UNL     1     -12.809   7.962  73.572  1.00  0.00     0.000 HD 
BRANCH   4   6
HETATM    6  C   UNL     1     -10.995   7.031  73.170  1.00  0.00    -0.281 C  
HETATM    7  C   UNL     1     -11.518   5.670  72.636  1.00  0.00    -0.339 C  
HETATM    8  C   UNL     1     -10.553   4.528  72.986  1.00  0.00    -0.272 C  
HETATM    9  C   UNL     1      -9.154   4.894  72.648  1.00  0.00    -0.131 A  
HETATM   10  C   UNL     1      -8.750   6.194  72.432  1.00  0.00    -0.125 A  
HETATM   11  S   UNL     1      -7.088   6.227  72.068  1.00  0.00    -0.083 SA 
HETATM   12  C   UNL     1      -9.649   7.392  72.461  1.00  0.00    -0.199 C  
HETATM   13  C   UNL     1      -7.038   4.509  72.225  1.00  0.00    -0.062 A  
HETATM   14  N   UNL     1      -5.903   3.815  72.044  1.00  0.00    -0.008 NA 
HETATM   15  N   UNL     1      -8.171   3.938  72.551  1.00  0.00    -0.092 NA 
HETATM   16  H1  UNL     1      -5.874   2.800  72.137  1.00  0.00     0.000 HD 
HETATM   17  H2  UNL     1      -5.047   4.317  71.808  1.00  0.00     0.000 HD 
ENDBRANCH   4   6
ENDBRANCH   3   4
ENDBRANCH   2   3
TORSDOF 3
ENDMDL
MODEL      169
REMARK 921   NORMALIZED FREE ENERGY PREDICTED BY IDOCK:   -2.90 KCAL/MOL
REMARK 922        TOTAL FREE ENERGY PREDICTED BY IDOCK:   -3.65 KCAL/MOL
REMARK 923 INTER-LIGAND FREE ENERGY PREDICTED BY IDOCK:   -3.31 KCAL/MOL
REMARK 924 INTRA-LIGAND FREE ENERGY PREDICTED BY IDOCK:   -0.34 KCAL/MOL
REMARK 927      BINDING AFFINITY PREDICTED BY RF-SCORE:    0.00 PKD
ROOT
HETATM    1  C   UNL     1     -12.193   9.941  71.457  1.00  0.00    -0.505 C  
HETATM    2  C   UNL     1     -12.297   8.556  72.082  1.00  0.00    -0.444 C  
ENDROOT
BRANCH   2   3
HETATM    3  C   UNL     1     -10.911   7.935  72.249  1.00  0.00    -0.293 C  
BRANCH   3   4
HETATM    4  N   UNL     1     -10.911   6.521  71.855  1.00  0.00    -0.230 NA 
HETATM    5  H   UNL     1     -11.847   6.120  71.916  1.00  0.00     0.000 HD 
BRANCH   4   6
HETATM    6  C   UNL     1     -10.328   6.318  70.513  1.00  0.00    -0.204 C  
HETATM    7  C   UNL     1     -11.403   6.361  69.394  1.00  0.00    -0.443 C  
HETATM    8  C   UNL     1     -10.805   5.974  68.034  1.00  0.00    -0.374 C  
HETATM    9  C   UNL     1      -9.539   6.710  67.783  1.00  0.00    -0.123 A  
HETATM   10  C   UNL     1      -8.821   7.329  68.783  1.00  0.00    -0.127 A  
HETATM   11  S   UNL     1      -7.436   8.067  68.124  1.00  0.00    -0.102 SA 
HETATM   12  C   UNL     1      -9.224   7.388  70.224  1.00  0.00    -0.154 C  
HETATM   13  C   UNL     1      -7.904   7.506  66.560  1.00  0.00    -0.102 A  
HETATM   14  N   UNL     1      -7.171   7.770  65.466  1.00  0.00    -0.063 NA 
HETATM   15  N   UNL     1      -9.002   6.794  66.521  1.00  0.00    -0.144 NA 
HETATM   16  H1  UNL     1      -7.447   7.439  64.542  1.00  0.00     0.000 HD 
HETATM   17  H2  UNL     1      -6.315   8.317  65.562  1.00  0.00     0.000 HD 
ENDBRANCH   4   6
ENDBRANCH   3   4
ENDBRANCH   2   3
TORSDOF 3
ENDMDL
MODEL      170
REMARK 921   NORMALIZED FREE ENERGY PREDICTED BY IDOCK:   -2.88 KCAL/MOL
REMARK 922        TOTAL FREE ENERGY PREDICTED BY IDOCK:   -3.63 KCAL/MOL
REMARK 923 INTER-LIGAND FREE ENERGY PREDICTED BY IDOCK:   -3.49 KCAL/MOL
REMARK 924 INTRA-LIGAND FREE ENERGY PREDICTED BY IDOCK:   -0.14 KCAL/MOL
REMARK 927      BINDING AFFINITY PREDICTED BY RF-SCORE:    0.00 PKD
ROOT
HETATM    1  C   UNL     1     -13.542  14.411  71.982  1.00  0.00    -0.514 C  
HETATM    2  C   UNL     1     -12.485  13.799  71.072  1.00  0.00    -0.458 C  
ENDROOT
BRANCH   2   3
HETATM    3  C   UNL     1     -12.370  14.592  69.770  1.00  0.00    -0.272 C  
BRANCH   3   4
HETATM    4  N   UNL     1     -12.046  13.713  68.639  1.00  0.00    -0.360 NA 
HETATM    5  H   UNL     1     -11.591  14.231  67.888  1.00  0.00     0.000 HD 
BRANCH   4   6
HETATM    6  C   UNL     1     -11.236  12.549  69.055  1.00  0.00    -0.268 C  
HETATM    7  C   UNL     1     -12.023  11.216  68.939  1.00  0.00    -0.367 C  
HETATM    8  C   UNL     1     -11.228  10.047  69.538  1.00  0.00    -0.254 C  
HETATM    9  C   UNL     1      -9.827  10.051  69.045  1.00  0.00    -0.199 A  
HETATM   10  C   UNL     1      -9.240  11.154  68.463  1.00  0.00    -0.183 A  
HETATM   11  S   UNL     1      -7.637  10.786  68.023  1.00  0.00    -0.094 SA 
HETATM   12  C   UNL     1      -9.923  12.461  68.209  1.00  0.00    -0.224 C  
HETATM   13  C   UNL     1      -7.853   9.188  68.639  1.00  0.00    -0.097 A  
HETATM   14  N   UNL     1      -6.869   8.276  68.598  1.00  0.00    -0.062 NA 
HETATM   15  N   UNL     1      -9.027   8.939  69.163  1.00  0.00    -0.139 NA 
HETATM   16  H1  UNL     1      -6.997   7.332  68.962  1.00  0.00     0.000 HD 
HETATM   17  H2  UNL     1      -5.970   8.533  68.192  1.00  0.00     0.000 HD 
ENDBRANCH   4   6
ENDBRANCH   3   4
ENDBRANCH   2   3
TORSDOF 3
ENDMDL
MODEL      171
REMARK 921   NORMALIZED FREE ENERGY PREDICTED BY IDOCK:   -2.87 KCAL/MOL
REMARK 922        TOTAL FREE ENERGY PREDICTED BY IDOCK:   -3.62 KCAL/MOL
REMARK 923 INTER-LIGAND FREE ENERGY PREDICTED BY IDOCK:   -3.45 KCAL/MOL
REMARK 924 INTRA-LIGAND FREE ENERGY PREDICTED BY IDOCK:   -0.17 KCAL/MOL
REMARK 927      BINDING AFFINITY PREDICTED BY RF-SCORE:    0.00 PKD
ROOT
HETATM    1  C   UNL     1     -13.517  13.527  72.072  1.00  0.00    -0.584 C  
HETATM    2  C   UNL     1     -12.517  13.959  71.008  1.00  0.00    -0.452 C  
ENDROOT
BRANCH   2   3
HETATM    3  C   UNL     1     -12.347  12.867  69.953  1.00  0.00    -0.088 C  
BRANCH   3   4
HETATM    4  N   UNL     1     -10.954  12.777  69.500  1.00  0.00    -0.454 NA 
HETATM    5  H   UNL     1     -10.304  12.950  70.267  1.00  0.00     0.000 HD 
BRANCH   4   6
HETATM    6  C   UNL     1     -10.668  11.489  68.836  1.00  0.00    -0.207 C  
HETATM    7  C   UNL     1      -9.251  11.459  68.201  1.00  0.00    -0.178 C  
HETATM    8  C   UNL     1      -9.042  10.185  67.369  1.00  0.00    -0.149 C  
HETATM    9  C   UNL     1      -9.468   8.981  68.128  1.00  0.00    -0.142 A  
HETATM   10  C   UNL     1     -10.287   9.043  69.235  1.00  0.00    -0.219 A  
HETATM   11  S   UNL     1     -10.557   7.474  69.838  1.00  0.00    -0.239 SA 
HETATM   12  C   UNL     1     -10.816  10.303  69.845  1.00  0.00    -0.355 C  
HETATM   13  C   UNL     1      -9.561   6.839  68.580  1.00  0.00    -0.130 A  
HETATM   14  N   UNL     1      -9.326   5.522  68.462  1.00  0.00    -0.118 NA 
HETATM   15  N   UNL     1      -9.074   7.721  67.744  1.00  0.00    -0.134 NA 
HETATM   16  H1  UNL     1      -8.737   5.146  67.719  1.00  0.00     0.000 HD 
HETATM   17  H2  UNL     1      -9.746   4.881  69.134  1.00  0.00     0.000 HD 
ENDBRANCH   4   6
ENDBRANCH   3   4
ENDBRANCH   2   3
TORSDOF 3
ENDMDL
MODEL      172
REMARK 921   NORMALIZED FREE ENERGY PREDICTED BY IDOCK:   -2.87 KCAL/MOL
REMARK 922        TOTAL FREE ENERGY PREDICTED BY IDOCK:   -3.61 KCAL/MOL
REMARK 923 INTER-LIGAND FREE ENERGY PREDICTED BY IDOCK:   -3.57 KCAL/MOL
REMARK 924 INTRA-LIGAND FREE ENERGY PREDICTED BY IDOCK:   -0.04 KCAL/MOL
REMARK 927      BINDING AFFINITY PREDICTED BY RF-SCORE:    0.00 PKD
ROOT
HETATM    1  C   UNL     1     -10.772  10.461  66.587  1.00  0.00    -0.198 C  
HETATM    2  C   UNL     1      -9.596  11.345  66.979  1.00  0.00    -0.192 C  
ENDROOT
BRANCH   2   3
HETATM    3  C   UNL     1      -9.605  11.620  68.482  1.00  0.00    -0.178 C  
BRANCH   3   4
HETATM    4  N   UNL     1      -8.864  10.587  69.216  1.00  0.00    -0.289 NA 
HETATM    5  H   UNL     1      -8.340  10.989  69.993  1.00  0.00     0.000 HD 
BRANCH   4   6
HETATM    6  C   UNL     1      -9.743   9.491  69.672  1.00  0.00    -0.200 C  
HETATM    7  C   UNL     1      -9.548   8.196  68.837  1.00  0.00    -0.153 C  
HETATM    8  C   UNL     1     -10.589   7.132  69.210  1.00  0.00    -0.233 C  
HETATM    9  C   UNL     1     -10.683   6.977  70.684  1.00  0.00    -0.231 A  
HETATM   10  C   UNL     1     -10.205   7.919  71.570  1.00  0.00    -0.190 A  
HETATM   11  S   UNL     1     -10.486   7.401  73.167  1.00  0.00    -0.379 SA 
HETATM   12  C   UNL     1      -9.498   9.181  71.186  1.00  0.00    -0.331 C  
HETATM   13  C   UNL     1     -11.219   5.965  72.554  1.00  0.00    -0.294 A  
HETATM   14  N   UNL     1     -11.711   5.018  73.370  1.00  0.00    -0.449 NA 
HETATM   15  N   UNL     1     -11.280   5.875  71.249  1.00  0.00    -0.251 NA 
HETATM   16  H1  UNL     1     -12.144   4.169  73.007  1.00  0.00     0.000 HD 
HETATM   17  H2  UNL     1     -11.649   5.152  74.379  1.00  0.00     0.000 HD 
ENDBRANCH   4   6
ENDBRANCH   3   4
ENDBRANCH   2   3
TORSDOF 3
ENDMDL
MODEL      173
REMARK 921   NORMALIZED FREE ENERGY PREDICTED BY IDOCK:   -2.84 KCAL/MOL
REMARK 922        TOTAL FREE ENERGY PREDICTED BY IDOCK:   -3.57 KCAL/MOL
REMARK 923 INTER-LIGAND FREE ENERGY PREDICTED BY IDOCK:   -3.28 KCAL/MOL
REMARK 924 INTRA-LIGAND FREE ENERGY PREDICTED BY IDOCK:   -0.29 KCAL/MOL
REMARK 927      BINDING AFFINITY PREDICTED BY RF-SCORE:    0.00 PKD
ROOT
HETATM    1  C   UNL     1      -8.566   5.173  63.276  1.00  0.00    -0.085 C  
HETATM    2  C   UNL     1      -9.680   4.152  63.464  1.00  0.00    -0.110 C  
ENDROOT
BRANCH   2   3
HETATM    3  C   UNL     1     -10.022   3.995  64.946  1.00  0.00    -0.205 C  
BRANCH   3   4
HETATM    4  N   UNL     1     -11.055   4.953  65.357  1.00  0.00    -0.842 NA 
HETATM    5  H   UNL     1     -11.990   4.579  65.200  1.00  0.00     0.000 HD 
BRANCH   4   6
HETATM    6  C   UNL     1     -10.881   5.389  66.758  1.00  0.00    -0.106 C  
HETATM    7  C   UNL     1      -9.675   4.693  67.444  1.00  0.00    -0.215 C  
HETATM    8  C   UNL     1      -9.619   5.024  68.942  1.00  0.00    -0.213 C  
HETATM    9  C   UNL     1      -9.774   6.484  69.167  1.00  0.00    -0.136 A  
HETATM   10  C   UNL     1     -10.285   7.340  68.215  1.00  0.00    -0.180 A  
HETATM   11  S   UNL     1     -10.310   8.929  68.826  1.00  0.00    -0.198 SA 
HETATM   12  C   UNL     1     -10.705   6.941  66.835  1.00  0.00    -0.386 C  
HETATM   13  C   UNL     1      -9.637   8.352  70.307  1.00  0.00    -0.165 A  
HETATM   14  N   UNL     1      -9.372   9.178  71.331  1.00  0.00    -0.278 NA 
HETATM   15  N   UNL     1      -9.426   7.061  70.366  1.00  0.00    -0.163 NA 
HETATM   16  H1  UNL     1      -8.974   8.837  72.206  1.00  0.00     0.000 HD 
HETATM   17  H2  UNL     1      -9.573  10.172  71.232  1.00  0.00     0.000 HD 
ENDBRANCH   4   6
ENDBRANCH   3   4
ENDBRANCH   2   3
TORSDOF 3
ENDMDL
MODEL      174
REMARK 921   NORMALIZED FREE ENERGY PREDICTED BY IDOCK:   -2.83 KCAL/MOL
REMARK 922        TOTAL FREE ENERGY PREDICTED BY IDOCK:   -3.56 KCAL/MOL
REMARK 923 INTER-LIGAND FREE ENERGY PREDICTED BY IDOCK:   -3.36 KCAL/MOL
REMARK 924 INTRA-LIGAND FREE ENERGY PREDICTED BY IDOCK:   -0.20 KCAL/MOL
REMARK 927      BINDING AFFINITY PREDICTED BY RF-SCORE:    0.00 PKD
ROOT
HETATM    1  C   UNL     1     -11.327  15.843  69.494  1.00  0.00    -0.335 C  
HETATM    2  C   UNL     1     -11.725  14.377  69.605  1.00  0.00    -0.362 C  
ENDROOT
BRANCH   2   3
HETATM    3  C   UNL     1     -11.956  13.776  68.219  1.00  0.00    -0.357 C  
BRANCH   3   4
HETATM    4  N   UNL     1     -10.716  13.755  67.435  1.00  0.00    -0.273 NA 
HETATM    5  H   UNL     1     -10.003  14.351  67.855  1.00  0.00     0.000 HD 
BRANCH   4   6
HETATM    6  C   UNL     1     -10.212  12.381  67.228  1.00  0.00    -0.215 C  
HETATM    7  C   UNL     1     -11.344  11.322  67.319  1.00  0.00    -0.329 C  
HETATM    8  C   UNL     1     -10.777   9.896  67.278  1.00  0.00    -0.304 C  
HETATM    9  C   UNL     1      -9.799   9.747  66.170  1.00  0.00    -0.263 A  
HETATM   10  C   UNL     1      -9.207  10.822  65.542  1.00  0.00    -0.202 A  
HETATM   11  S   UNL     1      -8.150  10.268  64.328  1.00  0.00    -0.108 SA 
HETATM   12  C   UNL     1      -9.489  12.260  65.847  1.00  0.00    -0.160 C  
HETATM   13  C   UNL     1      -8.566   8.643  64.732  1.00  0.00    -0.111 A  
HETATM   14  N   UNL     1      -8.033   7.595  64.084  1.00  0.00    -0.214 NA 
HETATM   15  N   UNL     1      -9.415   8.506  65.720  1.00  0.00    -0.129 NA 
HETATM   16  H1  UNL     1      -8.279   6.634  64.323  1.00  0.00     0.000 HD 
HETATM   17  H2  UNL     1      -7.364   7.764  63.333  1.00  0.00     0.000 HD 
ENDBRANCH   4   6
ENDBRANCH   3   4
ENDBRANCH   2   3
TORSDOF 3
ENDMDL
MODEL      175
REMARK 921   NORMALIZED FREE ENERGY PREDICTED BY IDOCK:   -2.83 KCAL/MOL
REMARK 922        TOTAL FREE ENERGY PREDICTED BY IDOCK:   -3.56 KCAL/MOL
REMARK 923 INTER-LIGAND FREE ENERGY PREDICTED BY IDOCK:   -3.36 KCAL/MOL
REMARK 924 INTRA-LIGAND FREE ENERGY PREDICTED BY IDOCK:   -0.20 KCAL/MOL
REMARK 927      BINDING AFFINITY PREDICTED BY RF-SCORE:    0.00 PKD
ROOT
HETATM    1  C   UNL     1     -10.716   9.633  68.151  1.00  0.00    -0.266 C  
HETATM    2  C   UNL     1     -10.366  10.760  69.114  1.00  0.00    -0.238 C  
ENDROOT
BRANCH   2   3
HETATM    3  C   UNL     1     -10.006  12.032  68.346  1.00  0.00    -0.208 C  
BRANCH   3   4
HETATM    4  N   UNL     1      -8.627  12.449  68.626  1.00  0.00    -0.361 NA 
HETATM    5  H   UNL     1      -7.966  11.979  68.008  1.00  0.00     0.000 HD 
BRANCH   4   6
HETATM    6  C   UNL     1      -8.467  13.917  68.564  1.00  0.00    -0.127 C  
HETATM    7  C   UNL     1      -7.671  14.367  67.309  1.00  0.00    -0.164 C  
HETATM    8  C   UNL     1      -7.366  15.871  67.355  1.00  0.00    -0.224 C  
HETATM    9  C   UNL     1      -8.584  16.649  67.698  1.00  0.00    -0.200 A  
HETATM   10  C   UNL     1      -9.701  16.079  68.272  1.00  0.00    -0.214 A  
HETATM   11  S   UNL     1     -10.891  17.271  68.518  1.00  0.00    -0.150 SA 
HETATM   12  C   UNL     1      -9.862  14.624  68.584  1.00  0.00    -0.224 C  
HETATM   13  C   UNL     1      -9.828  18.448  67.839  1.00  0.00    -0.329 A  
HETATM   14  N   UNL     1     -10.185  19.737  67.719  1.00  0.00    -0.417 NA 
HETATM   15  N   UNL     1      -8.652  18.003  67.472  1.00  0.00    -0.242 NA 
HETATM   16  H1  UNL     1      -9.556  20.433  67.317  1.00  0.00     0.000 HD 
HETATM   17  H2  UNL     1     -11.108  20.028  68.037  1.00  0.00     0.000 HD 
ENDBRANCH   4   6
ENDBRANCH   3   4
ENDBRANCH   2   3
TORSDOF 3
ENDMDL
MODEL      176
REMARK 921   NORMALIZED FREE ENERGY PREDICTED BY IDOCK:   -2.83 KCAL/MOL
REMARK 922        TOTAL FREE ENERGY PREDICTED BY IDOCK:   -3.56 KCAL/MOL
REMARK 923 INTER-LIGAND FREE ENERGY PREDICTED BY IDOCK:   -3.40 KCAL/MOL
REMARK 924 INTRA-LIGAND FREE ENERGY PREDICTED BY IDOCK:   -0.16 KCAL/MOL
REMARK 927      BINDING AFFINITY PREDICTED BY RF-SCORE:    0.00 PKD
ROOT
HETATM    1  C   UNL     1      -5.516  14.531  68.857  1.00  0.00    -0.087 C  
HETATM    2  C   UNL     1      -6.165  13.345  68.155  1.00  0.00    -0.111 C  
ENDROOT
BRANCH   2   3
HETATM    3  C   UNL     1      -6.525  12.254  69.162  1.00  0.00    -0.100 C  
BRANCH   3   4
HETATM    4  N   UNL     1      -7.389  11.234  68.555  1.00  0.00    -0.099 NA 
HETATM    5  H   UNL     1      -7.893  10.706  69.267  1.00  0.00     0.000 HD 
BRANCH   4   6
HETATM    6  C   UNL     1      -8.317  11.813  67.561  1.00  0.00    -0.154 C  
HETATM    7  C   UNL     1      -8.893  10.738  66.601  1.00  0.00    -0.151 C  
HETATM    8  C   UNL     1      -9.711  11.381  65.473  1.00  0.00    -0.263 C  
HETATM    9  C   UNL     1     -10.664  12.383  66.014  1.00  0.00    -0.261 A  
HETATM   10  C   UNL     1     -10.544  12.927  67.275  1.00  0.00    -0.234 A  
HETATM   11  S   UNL     1     -11.811  14.031  67.548  1.00  0.00    -0.402 SA 
HETATM   12  C   UNL     1      -9.489  12.564  68.273  1.00  0.00    -0.201 C  
HETATM   13  C   UNL     1     -12.419  13.695  65.968  1.00  0.00    -0.426 A  
HETATM   14  N   UNL     1     -13.524  14.294  65.494  1.00  0.00    -0.568 NA 
HETATM   15  N   UNL     1     -11.722  12.840  65.264  1.00  0.00    -0.348 NA 
HETATM   16  H1  UNL     1     -13.884  14.095  64.561  1.00  0.00     0.000 HD 
HETATM   17  H2  UNL     1     -14.017  14.965  66.083  1.00  0.00     0.000 HD 
ENDBRANCH   4   6
ENDBRANCH   3   4
ENDBRANCH   2   3
TORSDOF 3
ENDMDL
MODEL      177
REMARK 921   NORMALIZED FREE ENERGY PREDICTED BY IDOCK:   -2.79 KCAL/MOL
REMARK 922        TOTAL FREE ENERGY PREDICTED BY IDOCK:   -3.52 KCAL/MOL
REMARK 923 INTER-LIGAND FREE ENERGY PREDICTED BY IDOCK:   -3.28 KCAL/MOL
REMARK 924 INTRA-LIGAND FREE ENERGY PREDICTED BY IDOCK:   -0.24 KCAL/MOL
REMARK 927      BINDING AFFINITY PREDICTED BY RF-SCORE:    0.00 PKD
ROOT
HETATM    1  C   UNL     1      -8.124   6.487  64.925  1.00  0.00    -0.119 C  
HETATM    2  C   UNL     1      -7.593   7.276  63.735  1.00  0.00    -0.110 C  
ENDROOT
BRANCH   2   3
HETATM    3  C   UNL     1      -8.218   8.669  63.690  1.00  0.00    -0.148 C  
BRANCH   3   4
HETATM    4  N   UNL     1      -7.709   9.516  64.776  1.00  0.00    -0.114 NA 
HETATM    5  H   UNL     1      -6.735   9.773  64.618  1.00  0.00     0.000 HD 
BRANCH   4   6
HETATM    6  C   UNL     1      -8.551  10.711  64.990  1.00  0.00    -0.160 C  
HETATM    7  C   UNL     1     -10.017  10.485  64.533  1.00  0.00    -0.413 C  
HETATM    8  C   UNL     1     -10.828  11.787  64.599  1.00  0.00    -0.363 C  
HETATM    9  C   UNL     1     -10.623  12.473  65.901  1.00  0.00    -0.265 A  
HETATM   10  C   UNL     1      -9.569  12.187  66.742  1.00  0.00    -0.211 A  
HETATM   11  S   UNL     1      -9.663  13.164  68.133  1.00  0.00    -0.226 SA 
HETATM   12  C   UNL     1      -8.529  11.140  66.493  1.00  0.00    -0.165 C  
HETATM   13  C   UNL     1     -11.099  13.887  67.507  1.00  0.00    -0.286 A  
HETATM   14  N   UNL     1     -11.761  14.841  68.181  1.00  0.00    -0.388 NA 
HETATM   15  N   UNL     1     -11.481  13.458  66.330  1.00  0.00    -0.317 NA 
HETATM   16  H1  UNL     1     -12.610  15.268  67.810  1.00  0.00     0.000 HD 
HETATM   17  H2  UNL     1     -11.406  15.146  69.086  1.00  0.00     0.000 HD 
ENDBRANCH   4   6
ENDBRANCH   3   4
ENDBRANCH   2   3
TORSDOF 3
ENDMDL
MODEL      178
REMARK 921   NORMALIZED FREE ENERGY PREDICTED BY IDOCK:   -2.78 KCAL/MOL
REMARK 922        TOTAL FREE ENERGY PREDICTED BY IDOCK:   -3.50 KCAL/MOL
REMARK 923 INTER-LIGAND FREE ENERGY PREDICTED BY IDOCK:   -3.20 KCAL/MOL
REMARK 924 INTRA-LIGAND FREE ENERGY PREDICTED BY IDOCK:   -0.30 KCAL/MOL
REMARK 927      BINDING AFFINITY PREDICTED BY RF-SCORE:    0.00 PKD
ROOT
HETATM    1  C   UNL     1     -11.549  15.600  69.306  1.00  0.00    -0.375 C  
HETATM    2  C   UNL     1     -11.831  14.104  69.352  1.00  0.00    -0.378 C  
ENDROOT
BRANCH   2   3
HETATM    3  C   UNL     1     -12.122  13.568  67.950  1.00  0.00    -0.269 C  
BRANCH   3   4
HETATM    4  N   UNL     1     -11.037  13.900  67.019  1.00  0.00    -0.295 NA 
HETATM    5  H   UNL     1     -10.485  14.687  67.360  1.00  0.00     0.000 HD 
BRANCH   4   6
HETATM    6  C   UNL     1     -10.180  12.734  66.724  1.00  0.00    -0.239 C  
HETATM    7  C   UNL     1      -8.800  12.827  67.428  1.00  0.00    -0.190 C  
HETATM    8  C   UNL     1      -7.864  11.699  66.970  1.00  0.00    -0.164 C  
HETATM    9  C   UNL     1      -8.558  10.386  67.013  1.00  0.00    -0.130 A  
HETATM   10  C   UNL     1      -9.929  10.264  67.070  1.00  0.00    -0.201 A  
HETATM   11  S   UNL     1     -10.358   8.616  67.108  1.00  0.00    -0.292 SA 
HETATM   12  C   UNL     1     -10.894  11.406  67.140  1.00  0.00    -0.316 C  
HETATM   13  C   UNL     1      -8.685   8.198  67.048  1.00  0.00    -0.131 A  
HETATM   14  N   UNL     1      -8.276   6.919  67.051  1.00  0.00    -0.119 NA 
HETATM   15  N   UNL     1      -7.852   9.206  66.979  1.00  0.00    -0.101 NA 
HETATM   16  H1  UNL     1      -7.287   6.672  67.016  1.00  0.00     0.000 HD 
HETATM   17  H2  UNL     1      -8.972   6.175  67.090  1.00  0.00     0.000 HD 
ENDBRANCH   4   6
ENDBRANCH   3   4
ENDBRANCH   2   3
TORSDOF 3
ENDMDL
MODEL      179
REMARK 921   NORMALIZED FREE ENERGY PREDICTED BY IDOCK:   -2.78 KCAL/MOL
REMARK 922        TOTAL FREE ENERGY PREDICTED BY IDOCK:   -3.50 KCAL/MOL
REMARK 923 INTER-LIGAND FREE ENERGY PREDICTED BY IDOCK:   -3.29 KCAL/MOL
REMARK 924 INTRA-LIGAND FREE ENERGY PREDICTED BY IDOCK:   -0.21 KCAL/MOL
REMARK 927      BINDING AFFINITY PREDICTED BY RF-SCORE:    0.00 PKD
ROOT
HETATM    1  C   UNL     1     -10.580  16.214  65.602  1.00  0.00    -0.377 C  
HETATM    2  C   UNL     1     -11.101  14.875  65.099  1.00  0.00    -0.399 C  
ENDROOT
BRANCH   2   3
HETATM    3  C   UNL     1     -10.805  13.767  66.109  1.00  0.00    -0.279 C  
BRANCH   3   4
HETATM    4  N   UNL     1     -10.172  12.612  65.461  1.00  0.00    -0.279 NA 
HETATM    5  H   UNL     1      -9.541  12.906  64.716  1.00  0.00     0.000 HD 
BRANCH   4   6
HETATM    6  C   UNL     1      -9.484  11.737  66.433  1.00  0.00    -0.221 C  
HETATM    7  C   UNL     1      -8.188  12.387  66.990  1.00  0.00    -0.141 C  
HETATM    8  C   UNL     1      -7.400  11.396  67.859  1.00  0.00    -0.093 C  
HETATM    9  C   UNL     1      -8.292  10.721  68.836  1.00  0.00    -0.147 A  
HETATM   10  C   UNL     1      -9.664  10.697  68.706  1.00  0.00    -0.189 A  
HETATM   11  S   UNL     1     -10.349   9.838  70.007  1.00  0.00    -0.279 SA 
HETATM   12  C   UNL     1     -10.438  11.368  67.615  1.00  0.00    -0.225 C  
HETATM   13  C   UNL     1      -8.765   9.569  70.640  1.00  0.00    -0.133 A  
HETATM   14  N   UNL     1      -8.566   8.884  71.777  1.00  0.00    -0.358 NA 
HETATM   15  N   UNL     1      -7.782  10.059  69.927  1.00  0.00    -0.166 NA 
HETATM   16  H1  UNL     1      -7.630   8.725  72.150  1.00  0.00     0.000 HD 
HETATM   17  H2  UNL     1      -9.371   8.512  72.280  1.00  0.00     0.000 HD 
ENDBRANCH   4   6
ENDBRANCH   3   4
ENDBRANCH   2   3
TORSDOF 3
ENDMDL
MODEL      180
REMARK 921   NORMALIZED FREE ENERGY PREDICTED BY IDOCK:   -2.77 KCAL/MOL
REMARK 922        TOTAL FREE ENERGY PREDICTED BY IDOCK:   -3.49 KCAL/MOL
REMARK 923 INTER-LIGAND FREE ENERGY PREDICTED BY IDOCK:   -3.23 KCAL/MOL
REMARK 924 INTRA-LIGAND FREE ENERGY PREDICTED BY IDOCK:   -0.26 KCAL/MOL
REMARK 927      BINDING AFFINITY PREDICTED BY RF-SCORE:    0.00 PKD
ROOT
HETATM    1  C   UNL     1     -12.637  12.330  63.628  1.00  0.00    -0.599 C  
HETATM    2  C   UNL     1     -11.293  11.641  63.431  1.00  0.00    -0.380 C  
ENDROOT
BRANCH   2   3
HETATM    3  C   UNL     1     -10.211  12.321  64.271  1.00  0.00    -0.330 C  
BRANCH   3   4
HETATM    4  N   UNL     1     -10.795  13.035  65.413  1.00  0.00    -0.280 NA 
HETATM    5  H   UNL     1     -11.814  13.010  65.382  1.00  0.00     0.000 HD 
BRANCH   4   6
HETATM    6  C   UNL     1     -10.286  12.529  66.704  1.00  0.00    -0.230 C  
HETATM    7  C   UNL     1     -10.463  10.993  66.843  1.00  0.00    -0.293 C  
HETATM    8  C   UNL     1     -10.091  10.516  68.254  1.00  0.00    -0.180 C  
HETATM    9  C   UNL     1      -8.788  11.087  68.680  1.00  0.00    -0.164 A  
HETATM   10  C   UNL     1      -8.212  12.180  68.069  1.00  0.00    -0.158 A  
HETATM   11  S   UNL     1      -6.730  12.546  68.822  1.00  0.00    -0.097 SA 
HETATM   12  C   UNL     1      -8.779  12.904  66.887  1.00  0.00    -0.164 C  
HETATM   13  C   UNL     1      -6.972  11.220  69.901  1.00  0.00     0.063 A  
HETATM   14  N   UNL     1      -6.077  10.912  70.853  1.00  0.00    -0.359 NA 
HETATM   15  N   UNL     1      -8.089  10.556  69.738  1.00  0.00    -0.059 NA 
HETATM   16  H1  UNL     1      -6.220  10.129  71.491  1.00  0.00     0.000 HD 
HETATM   17  H2  UNL     1      -5.233  11.476  70.942  1.00  0.00     0.000 HD 
ENDBRANCH   4   6
ENDBRANCH   3   4
ENDBRANCH   2   3
TORSDOF 3
ENDMDL
MODEL      181
REMARK 921   NORMALIZED FREE ENERGY PREDICTED BY IDOCK:   -2.73 KCAL/MOL
REMARK 922        TOTAL FREE ENERGY PREDICTED BY IDOCK:   -3.45 KCAL/MOL
REMARK 923 INTER-LIGAND FREE ENERGY PREDICTED BY IDOCK:   -3.34 KCAL/MOL
REMARK 924 INTRA-LIGAND FREE ENERGY PREDICTED BY IDOCK:   -0.10 KCAL/MOL
REMARK 927      BINDING AFFINITY PREDICTED BY RF-SCORE:    0.00 PKD
ROOT
HETATM    1  C   UNL     1     -12.095   8.176  72.219  1.00  0.00    -0.419 C  
HETATM    2  C   UNL     1     -10.665   8.448  71.771  1.00  0.00    -0.355 C  
ENDROOT
BRANCH   2   3
HETATM    3  C   UNL     1     -10.424   7.889  70.369  1.00  0.00    -0.218 C  
BRANCH   3   4
HETATM    4  N   UNL     1      -9.208   8.456  69.773  1.00  0.00    -0.156 NA 
HETATM    5  H   UNL     1      -8.581   7.722  69.444  1.00  0.00     0.000 HD 
BRANCH   4   6
HETATM    6  C   UNL     1      -9.515   9.420  68.697  1.00  0.00    -0.146 C  
HETATM    7  C   UNL     1     -10.965   9.967  68.795  1.00  0.00    -0.217 C  
HETATM    8  C   UNL     1     -11.319  10.827  67.574  1.00  0.00    -0.283 C  
HETATM    9  C   UNL     1     -10.244  11.811  67.289  1.00  0.00    -0.203 A  
HETATM   10  C   UNL     1      -8.967  11.694  67.795  1.00  0.00    -0.170 A  
HETATM   11  S   UNL     1      -8.015  13.000  67.260  1.00  0.00    -0.095 SA 
HETATM   12  C   UNL     1      -8.502  10.611  68.718  1.00  0.00    -0.149 C  
HETATM   13  C   UNL     1      -9.378  13.618  66.400  1.00  0.00    -0.186 A  
HETATM   14  N   UNL     1      -9.307  14.752  65.685  1.00  0.00    -0.484 NA 
HETATM   15  N   UNL     1     -10.468  12.897  66.477  1.00  0.00    -0.262 NA 
HETATM   16  H1  UNL     1     -10.113  15.117  65.177  1.00  0.00     0.000 HD 
HETATM   17  H2  UNL     1      -8.425  15.262  65.650  1.00  0.00     0.000 HD 
ENDBRANCH   4   6
ENDBRANCH   3   4
ENDBRANCH   2   3
TORSDOF 3
ENDMDL
MODEL      182
REMARK 921   NORMALIZED FREE ENERGY PREDICTED BY IDOCK:   -2.70 KCAL/MOL
REMARK 922        TOTAL FREE ENERGY PREDICTED BY IDOCK:   -3.41 KCAL/MOL
REMARK 923 INTER-LIGAND FREE ENERGY PREDICTED BY IDOCK:   -3.27 KCAL/MOL
REMARK 924 INTRA-LIGAND FREE ENERGY PREDICTED BY IDOCK:   -0.14 KCAL/MOL
REMARK 927      BINDING AFFINITY PREDICTED BY RF-SCORE:    0.00 PKD
ROOT
HETATM    1  C   UNL     1     -10.643  16.225  65.417  1.00  0.00    -0.371 C  
HETATM    2  C   UNL     1     -11.353  14.897  65.188  1.00  0.00    -0.379 C  
ENDROOT
BRANCH   2   3
HETATM    3  C   UNL     1     -10.416  13.895  64.514  1.00  0.00    -0.310 C  
BRANCH   3   4
HETATM    4  N   UNL     1     -10.986  12.543  64.527  1.00  0.00    -0.304 NA 
HETATM    5  H   UNL     1     -11.190  12.218  63.582  1.00  0.00     0.000 HD 
BRANCH   4   6
HETATM    6  C   UNL     1     -10.124  11.584  65.248  1.00  0.00    -0.269 C  
HETATM    7  C   UNL     1     -10.848  10.942  66.463  1.00  0.00    -0.234 C  
HETATM    8  C   UNL     1      -9.884  10.088  67.297  1.00  0.00    -0.225 C  
HETATM    9  C   UNL     1      -9.091   9.182  66.428  1.00  0.00    -0.170 A  
HETATM   10  C   UNL     1      -8.961   9.370  65.068  1.00  0.00    -0.211 A  
HETATM   11  S   UNL     1      -7.986   8.141  64.408  1.00  0.00    -0.132 SA 
HETATM   12  C   UNL     1      -9.620  10.461  64.283  1.00  0.00    -0.377 C  
HETATM   13  C   UNL     1      -7.816   7.455  65.983  1.00  0.00    -0.102 A  
HETATM   14  N   UNL     1      -7.094   6.343  66.195  1.00  0.00    -0.066 NA 
HETATM   15  N   UNL     1      -8.419   8.101  66.949  1.00  0.00    -0.118 NA 
HETATM   16  H1  UNL     1      -6.994   5.938  67.125  1.00  0.00     0.000 HD 
HETATM   17  H2  UNL     1      -6.633   5.892  65.405  1.00  0.00     0.000 HD 
ENDBRANCH   4   6
ENDBRANCH   3   4
ENDBRANCH   2   3
TORSDOF 3
ENDMDL
MODEL      183
REMARK 921   NORMALIZED FREE ENERGY PREDICTED BY IDOCK:   -2.69 KCAL/MOL
REMARK 922        TOTAL FREE ENERGY PREDICTED BY IDOCK:   -3.39 KCAL/MOL
REMARK 923 INTER-LIGAND FREE ENERGY PREDICTED BY IDOCK:   -3.21 KCAL/MOL
REMARK 924 INTRA-LIGAND FREE ENERGY PREDICTED BY IDOCK:   -0.19 KCAL/MOL
REMARK 927      BINDING AFFINITY PREDICTED BY RF-SCORE:    0.00 PKD
ROOT
HETATM    1  C   UNL     1      -7.951  17.690  68.637  1.00  0.00    -0.275 C  
HETATM    2  C   UNL     1      -9.077  17.783  67.616  1.00  0.00    -0.246 C  
ENDROOT
BRANCH   2   3
HETATM    3  C   UNL     1      -9.779  16.434  67.462  1.00  0.00    -0.231 C  
BRANCH   3   4
HETATM    4  N   UNL     1      -9.138  15.405  68.289  1.00  0.00    -0.184 NA 
HETATM    5  H   UNL     1      -9.474  15.441  69.251  1.00  0.00     0.000 HD 
BRANCH   4   6
HETATM    6  C   UNL     1      -9.298  14.052  67.716  1.00  0.00    -0.205 C  
HETATM    7  C   UNL     1      -7.951  13.286  67.634  1.00  0.00    -0.176 C  
HETATM    8  C   UNL     1      -8.110  11.960  66.878  1.00  0.00    -0.146 C  
HETATM    9  C   UNL     1      -9.288  11.204  67.376  1.00  0.00    -0.164 A  
HETATM   10  C   UNL     1     -10.296  11.787  68.113  1.00  0.00    -0.200 A  
HETATM   11  S   UNL     1     -11.470  10.619  68.506  1.00  0.00    -0.209 SA 
HETATM   12  C   UNL     1     -10.328  13.219  68.548  1.00  0.00    -0.244 C  
HETATM   13  C   UNL     1     -10.543   9.431  67.665  1.00  0.00    -0.271 A  
HETATM   14  N   UNL     1     -10.944   8.152  67.581  1.00  0.00    -0.502 NA 
HETATM   15  N   UNL     1      -9.443   9.865  67.104  1.00  0.00    -0.155 NA 
HETATM   16  H1  UNL     1     -10.396   7.449  67.085  1.00  0.00     0.000 HD 
HETATM   17  H2  UNL     1     -11.819   7.875  68.026  1.00  0.00     0.000 HD 
ENDBRANCH   4   6
ENDBRANCH   3   4
ENDBRANCH   2   3
TORSDOF 3
ENDMDL
MODEL      184
REMARK 921   NORMALIZED FREE ENERGY PREDICTED BY IDOCK:   -2.68 KCAL/MOL
REMARK 922        TOTAL FREE ENERGY PREDICTED BY IDOCK:   -3.39 KCAL/MOL
REMARK 923 INTER-LIGAND FREE ENERGY PREDICTED BY IDOCK:   -3.11 KCAL/MOL
REMARK 924 INTRA-LIGAND FREE ENERGY PREDICTED BY IDOCK:   -0.28 KCAL/MOL
REMARK 927      BINDING AFFINITY PREDICTED BY RF-SCORE:    0.00 PKD
ROOT
HETATM    1  C   UNL     1     -11.553  13.013  66.376  1.00  0.00    -0.413 C  
HETATM    2  C   UNL     1     -10.477  11.952  66.193  1.00  0.00    -0.272 C  
ENDROOT
BRANCH   2   3
HETATM    3  C   UNL     1      -9.107  12.498  66.593  1.00  0.00    -0.203 C  
BRANCH   3   4
HETATM    4  N   UNL     1      -8.283  11.459  67.222  1.00  0.00    -0.144 NA 
HETATM    5  H   UNL     1      -7.720  11.842  67.981  1.00  0.00     0.000 HD 
BRANCH   4   6
HETATM    6  C   UNL     1      -9.091  10.311  67.681  1.00  0.00    -0.137 C  
HETATM    7  C   UNL     1      -8.421   8.951  67.348  1.00  0.00    -0.115 C  
HETATM    8  C   UNL     1      -9.355   7.776  67.673  1.00  0.00    -0.160 C  
HETATM    9  C   UNL     1      -9.941   7.926  69.030  1.00  0.00    -0.187 A  
HETATM   10  C   UNL     1      -9.955   9.123  69.713  1.00  0.00    -0.193 A  
HETATM   11  S   UNL     1     -10.703   8.912  71.227  1.00  0.00    -0.316 SA 
HETATM   12  C   UNL     1      -9.356  10.403  69.220  1.00  0.00    -0.202 C  
HETATM   13  C   UNL     1     -10.947   7.245  70.854  1.00  0.00    -0.253 A  
HETATM   14  N   UNL     1     -11.548   6.409  71.716  1.00  0.00    -0.304 NA 
HETATM   15  N   UNL     1     -10.528   6.863  69.674  1.00  0.00    -0.209 NA 
HETATM   16  H1  UNL     1     -11.692   5.423  71.495  1.00  0.00     0.000 HD 
HETATM   17  H2  UNL     1     -11.869   6.768  72.615  1.00  0.00     0.000 HD 
ENDBRANCH   4   6
ENDBRANCH   3   4
ENDBRANCH   2   3
TORSDOF 3
ENDMDL
MODEL      185
REMARK 921   NORMALIZED FREE ENERGY PREDICTED BY IDOCK:   -2.67 KCAL/MOL
REMARK 922        TOTAL FREE ENERGY PREDICTED BY IDOCK:   -3.38 KCAL/MOL
REMARK 923 INTER-LIGAND FREE ENERGY PREDICTED BY IDOCK:   -3.13 KCAL/MOL
REMARK 924 INTRA-LIGAND FREE ENERGY PREDICTED BY IDOCK:   -0.25 KCAL/MOL
REMARK 927      BINDING AFFINITY PREDICTED BY RF-SCORE:    0.00 PKD
ROOT
HETATM    1  C   UNL     1      -7.690  10.421  62.814  1.00  0.00    -0.145 C  
HETATM    2  C   UNL     1      -9.197  10.600  62.939  1.00  0.00    -0.317 C  
ENDROOT
BRANCH   2   3
HETATM    3  C   UNL     1      -9.600  10.773  64.403  1.00  0.00    -0.279 C  
BRANCH   3   4
HETATM    4  N   UNL     1      -9.827   9.475  65.049  1.00  0.00    -0.420 NA 
HETATM    5  H   UNL     1      -9.544   8.706  64.442  1.00  0.00     0.000 HD 
BRANCH   4   6
HETATM    6  C   UNL     1      -9.167   9.388  66.368  1.00  0.00    -0.169 C  
HETATM    7  C   UNL     1      -8.801  10.786  66.934  1.00  0.00    -0.144 C  
HETATM    8  C   UNL     1      -7.963  10.666  68.215  1.00  0.00    -0.116 C  
HETATM    9  C   UNL     1      -8.573   9.694  69.157  1.00  0.00    -0.146 A  
HETATM   10  C   UNL     1      -9.513   8.763  68.771  1.00  0.00    -0.142 A  
HETATM   11  S   UNL     1      -9.982   7.827  70.114  1.00  0.00    -0.188 SA 
HETATM   12  C   UNL     1     -10.075   8.628  67.390  1.00  0.00    -0.292 C  
HETATM   13  C   UNL     1      -8.900   8.738  71.103  1.00  0.00    -0.219 A  
HETATM   14  N   UNL     1      -8.766   8.491  72.416  1.00  0.00    -0.326 NA 
HETATM   15  N   UNL     1      -8.210   9.662  70.483  1.00  0.00    -0.230 NA 
HETATM   16  H1  UNL     1      -8.126   9.029  73.000  1.00  0.00     0.000 HD 
HETATM   17  H2  UNL     1      -9.318   7.746  72.840  1.00  0.00     0.000 HD 
ENDBRANCH   4   6
ENDBRANCH   3   4
ENDBRANCH   2   3
TORSDOF 3
ENDMDL
MODEL      186
REMARK 921   NORMALIZED FREE ENERGY PREDICTED BY IDOCK:   -2.66 KCAL/MOL
REMARK 922        TOTAL FREE ENERGY PREDICTED BY IDOCK:   -3.36 KCAL/MOL
REMARK 923 INTER-LIGAND FREE ENERGY PREDICTED BY IDOCK:   -3.13 KCAL/MOL
REMARK 924 INTRA-LIGAND FREE ENERGY PREDICTED BY IDOCK:   -0.24 KCAL/MOL
REMARK 927      BINDING AFFINITY PREDICTED BY RF-SCORE:    0.00 PKD
ROOT
HETATM    1  C   UNL     1     -11.997  14.413  69.250  1.00  0.00    -0.362 C  
HETATM    2  C   UNL     1     -11.671  12.953  69.536  1.00  0.00    -0.387 C  
ENDROOT
BRANCH   2   3
HETATM    3  C   UNL     1     -11.532  12.166  68.234  1.00  0.00    -0.305 C  
BRANCH   3   4
HETATM    4  N   UNL     1     -12.189  10.857  68.330  1.00  0.00    -0.810 NA 
HETATM    5  H   UNL     1     -12.964  10.783  67.670  1.00  0.00     0.000 HD 
BRANCH   4   6
HETATM    6  C   UNL     1     -11.235   9.742  68.163  1.00  0.00    -0.008 C  
HETATM    7  C   UNL     1      -9.886  10.211  67.552  1.00  0.00    -0.211 C  
HETATM    8  C   UNL     1      -8.979   9.017  67.225  1.00  0.00    -0.139 C  
HETATM    9  C   UNL     1      -8.911   8.074  68.370  1.00  0.00    -0.134 A  
HETATM   10  C   UNL     1      -9.829   8.075  69.398  1.00  0.00    -0.181 A  
HETATM   11  S   UNL     1      -9.430   6.863  70.525  1.00  0.00    -0.168 SA 
HETATM   12  C   UNL     1     -10.973   9.030  69.530  1.00  0.00    -0.118 C  
HETATM   13  C   UNL     1      -8.067   6.435  69.557  1.00  0.00    -0.118 A  
HETATM   14  N   UNL     1      -7.230   5.446  69.911  1.00  0.00    -0.062 NA 
HETATM   15  N   UNL     1      -7.920   7.124  68.453  1.00  0.00    -0.122 NA 
HETATM   16  H1  UNL     1      -6.425   5.194  69.339  1.00  0.00     0.000 HD 
HETATM   17  H2  UNL     1      -7.405   4.934  70.776  1.00  0.00     0.000 HD 
ENDBRANCH   4   6
ENDBRANCH   3   4
ENDBRANCH   2   3
TORSDOF 3
ENDMDL
MODEL      187
REMARK 921   NORMALIZED FREE ENERGY PREDICTED BY IDOCK:   -2.63 KCAL/MOL
REMARK 922        TOTAL FREE ENERGY PREDICTED BY IDOCK:   -3.33 KCAL/MOL
REMARK 923 INTER-LIGAND FREE ENERGY PREDICTED BY IDOCK:   -3.14 KCAL/MOL
REMARK 924 INTRA-LIGAND FREE ENERGY PREDICTED BY IDOCK:   -0.19 KCAL/MOL
REMARK 927      BINDING AFFINITY PREDICTED BY RF-SCORE:    0.00 PKD
ROOT
HETATM    1  C   UNL     1      -9.924  15.420  65.759  1.00  0.00    -0.393 C  
HETATM    2  C   UNL     1     -10.582  14.152  65.229  1.00  0.00    -0.387 C  
ENDROOT
BRANCH   2   3
HETATM    3  C   UNL     1      -9.860  12.911  65.752  1.00  0.00    -0.209 C  
BRANCH   3   4
HETATM    4  N   UNL     1      -9.595  11.955  64.670  1.00  0.00    -0.432 NA 
HETATM    5  H   UNL     1      -9.001  12.367  63.950  1.00  0.00     0.000 HD 
BRANCH   4   6
HETATM    6  C   UNL     1      -9.025  10.689  65.175  1.00  0.00    -0.198 C  
HETATM    7  C   UNL     1      -7.893  10.927  66.210  1.00  0.00    -0.158 C  
HETATM    8  C   UNL     1      -7.199   9.611  66.588  1.00  0.00    -0.086 C  
HETATM    9  C   UNL     1      -8.197   8.558  66.908  1.00  0.00    -0.106 A  
HETATM   10  C   UNL     1      -9.521   8.642  66.535  1.00  0.00    -0.216 A  
HETATM   11  S   UNL     1     -10.358   7.261  67.074  1.00  0.00    -0.312 SA 
HETATM   12  C   UNL     1     -10.141   9.797  65.812  1.00  0.00    -0.308 C  
HETATM   13  C   UNL     1      -8.893   6.663  67.762  1.00  0.00    -0.114 A  
HETATM   14  N   UNL     1      -8.845   5.489  68.412  1.00  0.00    -0.108 NA 
HETATM   15  N   UNL     1      -7.838   7.418  67.588  1.00  0.00    -0.111 NA 
HETATM   16  H1  UNL     1      -7.979   5.136  68.818  1.00  0.00     0.000 HD 
HETATM   17  H2  UNL     1      -9.697   4.936  68.501  1.00  0.00     0.000 HD 
ENDBRANCH   4   6
ENDBRANCH   3   4
ENDBRANCH   2   3
TORSDOF 3
ENDMDL
MODEL      188
REMARK 921   NORMALIZED FREE ENERGY PREDICTED BY IDOCK:   -2.63 KCAL/MOL
REMARK 922        TOTAL FREE ENERGY PREDICTED BY IDOCK:   -3.33 KCAL/MOL
REMARK 923 INTER-LIGAND FREE ENERGY PREDICTED BY IDOCK:   -3.19 KCAL/MOL
REMARK 924 INTRA-LIGAND FREE ENERGY PREDICTED BY IDOCK:   -0.14 KCAL/MOL
REMARK 927      BINDING AFFINITY PREDICTED BY RF-SCORE:    0.00 PKD
ROOT
HETATM    1  C   UNL     1     -12.202  14.911  69.668  1.00  0.00    -0.299 C  
HETATM    2  C   UNL     1     -11.967  13.514  70.228  1.00  0.00    -0.386 C  
ENDROOT
BRANCH   2   3
HETATM    3  C   UNL     1     -11.761  12.507  69.097  1.00  0.00    -0.321 C  
BRANCH   3   4
HETATM    4  N   UNL     1     -12.208  11.166  69.492  1.00  0.00    -0.311 NA 
HETATM    5  H   UNL     1     -12.876  10.787  68.821  1.00  0.00     0.000 HD 
BRANCH   4   6
HETATM    6  C   UNL     1     -11.075  10.241  69.700  1.00  0.00    -0.274 C  
HETATM    7  C   UNL     1     -11.414   9.117  70.715  1.00  0.00    -0.337 C  
HETATM    8  C   UNL     1     -10.174   8.276  71.049  1.00  0.00    -0.230 C  
HETATM    9  C   UNL     1      -9.457   7.875  69.811  1.00  0.00    -0.163 A  
HETATM   10  C   UNL     1      -9.654   8.496  68.596  1.00  0.00    -0.149 A  
HETATM   11  S   UNL     1      -8.667   7.770  67.414  1.00  0.00    -0.129 SA 
HETATM   12  C   UNL     1     -10.625   9.606  68.343  1.00  0.00    -0.264 C  
HETATM   13  C   UNL     1      -8.060   6.687  68.612  1.00  0.00    -0.119 A  
HETATM   14  N   UNL     1      -7.147   5.747  68.317  1.00  0.00    -0.072 NA 
HETATM   15  N   UNL     1      -8.532   6.859  69.821  1.00  0.00    -0.132 NA 
HETATM   16  H1  UNL     1      -6.788   5.106  69.025  1.00  0.00     0.000 HD 
HETATM   17  H2  UNL     1      -6.804   5.671  67.360  1.00  0.00     0.000 HD 
ENDBRANCH   4   6
ENDBRANCH   3   4
ENDBRANCH   2   3
TORSDOF 3
ENDMDL
MODEL      189
REMARK 921   NORMALIZED FREE ENERGY PREDICTED BY IDOCK:   -2.61 KCAL/MOL
REMARK 922        TOTAL FREE ENERGY PREDICTED BY IDOCK:   -3.31 KCAL/MOL
REMARK 923 INTER-LIGAND FREE ENERGY PREDICTED BY IDOCK:   -3.10 KCAL/MOL
REMARK 924 INTRA-LIGAND FREE ENERGY PREDICTED BY IDOCK:   -0.21 KCAL/MOL
REMARK 927      BINDING AFFINITY PREDICTED BY RF-SCORE:    0.00 PKD
ROOT
HETATM    1  C   UNL     1      -7.991   6.259  70.281  1.00  0.00    -0.112 C  
HETATM    2  C   UNL     1      -7.013   7.332  70.741  1.00  0.00    -0.056 C  
ENDROOT
BRANCH   2   3
HETATM    3  C   UNL     1      -7.535   8.724  70.388  1.00  0.00    -0.072 C  
BRANCH   3   4
HETATM    4  N   UNL     1      -8.870   8.653  69.781  1.00  0.00    -0.135 NA 
HETATM    5  H   UNL     1      -9.575   9.069  70.389  1.00  0.00     0.000 HD 
BRANCH   4   6
HETATM    6  C   UNL     1      -8.900   9.258  68.433  1.00  0.00    -0.129 C  
HETATM    7  C   UNL     1      -9.868   8.511  67.477  1.00  0.00    -0.231 C  
HETATM    8  C   UNL     1      -9.753   9.043  66.042  1.00  0.00    -0.339 C  
HETATM    9  C   UNL     1      -9.795  10.527  66.022  1.00  0.00    -0.222 A  
HETATM   10  C   UNL     1      -9.570  11.299  67.142  1.00  0.00    -0.177 A  
HETATM   11  S   UNL     1      -9.702  12.948  66.739  1.00  0.00    -0.251 SA 
HETATM   12  C   UNL     1      -9.302  10.767  68.515  1.00  0.00    -0.174 C  
HETATM   13  C   UNL     1     -10.050  12.503  65.109  1.00  0.00    -0.246 A  
HETATM   14  N   UNL     1     -10.286  13.425  64.160  1.00  0.00    -0.690 NA 
HETATM   15  N   UNL     1     -10.047  11.218  64.860  1.00  0.00    -0.262 NA 
HETATM   16  H1  UNL     1     -10.492  13.162  63.197  1.00  0.00     0.000 HD 
HETATM   17  H2  UNL     1     -10.259  14.413  64.410  1.00  0.00     0.000 HD 
ENDBRANCH   4   6
ENDBRANCH   3   4
ENDBRANCH   2   3
TORSDOF 3
ENDMDL
MODEL      190
REMARK 921   NORMALIZED FREE ENERGY PREDICTED BY IDOCK:   -2.61 KCAL/MOL
REMARK 922        TOTAL FREE ENERGY PREDICTED BY IDOCK:   -3.31 KCAL/MOL
REMARK 923 INTER-LIGAND FREE ENERGY PREDICTED BY IDOCK:   -3.15 KCAL/MOL
REMARK 924 INTRA-LIGAND FREE ENERGY PREDICTED BY IDOCK:   -0.15 KCAL/MOL
REMARK 927      BINDING AFFINITY PREDICTED BY RF-SCORE:    0.00 PKD
ROOT
HETATM    1  C   UNL     1     -11.361   5.019  73.089  1.00  0.00    -0.397 C  
HETATM    2  C   UNL     1     -10.013   4.670  72.474  1.00  0.00    -0.220 C  
ENDROOT
BRANCH   2   3
HETATM    3  C   UNL     1      -9.831   5.381  71.133  1.00  0.00    -0.185 C  
BRANCH   3   4
HETATM    4  N   UNL     1      -9.355   6.756  71.321  1.00  0.00    -0.165 NA 
HETATM    5  H   UNL     1      -8.337   6.790  71.377  1.00  0.00     0.000 HD 
BRANCH   4   6
HETATM    6  C   UNL     1      -9.865   7.669  70.277  1.00  0.00    -0.180 C  
HETATM    7  C   UNL     1      -9.633   9.161  70.639  1.00  0.00    -0.312 C  
HETATM    8  C   UNL     1     -10.323  10.091  69.631  1.00  0.00    -0.274 C  
HETATM    9  C   UNL     1     -10.022   9.678  68.236  1.00  0.00    -0.155 A  
HETATM   10  C   UNL     1      -9.534   8.430  67.912  1.00  0.00    -0.146 A  
HETATM   11  S   UNL     1      -9.309   8.321  66.228  1.00  0.00    -0.187 SA 
HETATM   12  C   UNL     1      -9.202   7.353  68.897  1.00  0.00    -0.142 C  
HETATM   13  C   UNL     1      -9.877   9.942  66.065  1.00  0.00    -0.264 A  
HETATM   14  N   UNL     1      -9.960  10.545  64.868  1.00  0.00    -0.313 NA 
HETATM   15  N   UNL     1     -10.237  10.530  67.179  1.00  0.00    -0.212 NA 
HETATM   16  H1  UNL     1     -10.295  11.503  64.772  1.00  0.00     0.000 HD 
HETATM   17  H2  UNL     1      -9.680  10.031  64.033  1.00  0.00     0.000 HD 
ENDBRANCH   4   6
ENDBRANCH   3   4
ENDBRANCH   2   3
TORSDOF 3
ENDMDL
MODEL      191
REMARK 921   NORMALIZED FREE ENERGY PREDICTED BY IDOCK:   -2.59 KCAL/MOL
REMARK 922        TOTAL FREE ENERGY PREDICTED BY IDOCK:   -3.29 KCAL/MOL
REMARK 923 INTER-LIGAND FREE ENERGY PREDICTED BY IDOCK:   -3.08 KCAL/MOL
REMARK 924 INTRA-LIGAND FREE ENERGY PREDICTED BY IDOCK:   -0.21 KCAL/MOL
REMARK 927      BINDING AFFINITY PREDICTED BY RF-SCORE:    0.00 PKD
ROOT
HETATM    1  C   UNL     1     -14.227   8.816  72.175  1.00  0.00    -0.504 C  
HETATM    2  C   UNL     1     -12.916   9.491  72.555  1.00  0.00    -0.290 C  
ENDROOT
BRANCH   2   3
HETATM    3  C   UNL     1     -11.726   8.618  72.157  1.00  0.00    -0.371 C  
BRANCH   3   4
HETATM    4  N   UNL     1     -11.802   8.228  70.744  1.00  0.00    -0.449 NA 
HETATM    5  H   UNL     1     -12.672   8.548  70.319  1.00  0.00     0.000 HD 
BRANCH   4   6
HETATM    6  C   UNL     1     -10.628   8.691  69.976  1.00  0.00    -0.227 C  
HETATM    7  C   UNL     1      -9.470   9.157  70.900  1.00  0.00    -0.343 C  
HETATM    8  C   UNL     1      -8.334   9.796  70.088  1.00  0.00    -0.201 C  
HETATM    9  C   UNL     1      -7.971   8.945  68.926  1.00  0.00    -0.104 A  
HETATM   10  C   UNL     1      -8.792   7.952  68.437  1.00  0.00    -0.130 A  
HETATM   11  S   UNL     1      -8.047   7.192  67.108  1.00  0.00    -0.115 SA 
HETATM   12  C   UNL     1     -10.116   7.565  69.019  1.00  0.00    -0.192 C  
HETATM   13  C   UNL     1      -6.691   8.243  67.290  1.00  0.00    -0.063 A  
HETATM   14  N   UNL     1      -5.625   8.169  66.476  1.00  0.00    -0.031 NA 
HETATM   15  N   UNL     1      -6.783   9.123  68.256  1.00  0.00    -0.060 NA 
HETATM   16  H1  UNL     1      -4.824   8.791  66.584  1.00  0.00     0.000 HD 
HETATM   17  H2  UNL     1      -5.617   7.474  65.731  1.00  0.00     0.000 HD 
ENDBRANCH   4   6
ENDBRANCH   3   4
ENDBRANCH   2   3
TORSDOF 3
ENDMDL
MODEL      192
REMARK 921   NORMALIZED FREE ENERGY PREDICTED BY IDOCK:   -2.59 KCAL/MOL
REMARK 922        TOTAL FREE ENERGY PREDICTED BY IDOCK:   -3.28 KCAL/MOL
REMARK 923 INTER-LIGAND FREE ENERGY PREDICTED BY IDOCK:   -3.29 KCAL/MOL
REMARK 924 INTRA-LIGAND FREE ENERGY PREDICTED BY IDOCK:    0.01 KCAL/MOL
REMARK 927      BINDING AFFINITY PREDICTED BY RF-SCORE:    0.00 PKD
ROOT
HETATM    1  C   UNL     1      -6.528   9.216  68.096  1.00  0.00    -0.059 C  
HETATM    2  C   UNL     1      -7.058   7.827  68.427  1.00  0.00    -0.077 C  
ENDROOT
BRANCH   2   3
HETATM    3  C   UNL     1      -8.196   7.445  67.481  1.00  0.00    -0.113 C  
BRANCH   3   4
HETATM    4  N   UNL     1      -9.489   7.928  67.983  1.00  0.00    -0.148 NA 
HETATM    5  H   UNL     1      -9.620   7.681  68.964  1.00  0.00     0.000 HD 
BRANCH   4   6
HETATM    6  C   UNL     1      -9.661   9.379  67.768  1.00  0.00    -0.151 C  
HETATM    7  C   UNL     1     -10.065   9.711  66.306  1.00  0.00    -0.322 C  
HETATM    8  C   UNL     1     -10.067  11.227  66.060  1.00  0.00    -0.283 C  
HETATM    9  C   UNL     1     -10.797  11.938  67.141  1.00  0.00    -0.255 A  
HETATM   10  C   UNL     1     -11.074  11.363  68.363  1.00  0.00    -0.242 A  
HETATM   11  S   UNL     1     -11.920  12.471  69.340  1.00  0.00    -0.209 SA 
HETATM   12  C   UNL     1     -10.729   9.960  68.753  1.00  0.00    -0.247 C  
HETATM   13  C   UNL     1     -11.853  13.625  68.059  1.00  0.00    -0.362 A  
HETATM   14  N   UNL     1     -12.395  14.848  68.180  1.00  0.00    -0.538 NA 
HETATM   15  N   UNL     1     -11.223  13.235  66.979  1.00  0.00    -0.283 NA 
HETATM   16  H1  UNL     1     -12.355  15.530  67.423  1.00  0.00     0.000 HD 
HETATM   17  H2  UNL     1     -12.859  15.100  69.052  1.00  0.00     0.000 HD 
ENDBRANCH   4   6
ENDBRANCH   3   4
ENDBRANCH   2   3
TORSDOF 3
ENDMDL
MODEL      193
REMARK 921   NORMALIZED FREE ENERGY PREDICTED BY IDOCK:   -2.59 KCAL/MOL
REMARK 922        TOTAL FREE ENERGY PREDICTED BY IDOCK:   -3.28 KCAL/MOL
REMARK 923 INTER-LIGAND FREE ENERGY PREDICTED BY IDOCK:   -3.09 KCAL/MOL
REMARK 924 INTRA-LIGAND FREE ENERGY PREDICTED BY IDOCK:   -0.19 KCAL/MOL
REMARK 927      BINDING AFFINITY PREDICTED BY RF-SCORE:    0.00 PKD
ROOT
HETATM    1  C   UNL     1     -12.860  15.532  71.794  1.00  0.00    -0.512 C  
HETATM    2  C   UNL     1     -13.389  14.105  71.836  1.00  0.00    -0.476 C  
ENDROOT
BRANCH   2   3
HETATM    3  C   UNL     1     -12.416  13.149  71.145  1.00  0.00    -0.287 C  
BRANCH   3   4
HETATM    4  N   UNL     1     -12.940  11.778  71.130  1.00  0.00    -0.264 NA 
HETATM    5  H   UNL     1     -13.953  11.768  71.248  1.00  0.00     0.000 HD 
BRANCH   4   6
HETATM    6  C   UNL     1     -12.535  11.043  69.914  1.00  0.00    -0.219 C  
HETATM    7  C   UNL     1     -11.510  11.838  69.062  1.00  0.00    -0.358 C  
HETATM    8  C   UNL     1     -11.238  11.139  67.722  1.00  0.00    -0.359 C  
HETATM    9  C   UNL     1     -10.970   9.692  67.925  1.00  0.00    -0.145 A  
HETATM   10  C   UNL     1     -11.308   9.021  69.081  1.00  0.00     0.366 A  
HETATM   11  S   UNL     1     -10.848   7.387  68.952  1.00  0.00     0.013 SA 
HETATM   12  C   UNL     1     -11.938   9.646  70.287  1.00  0.00    -0.101 C  
HETATM   13  C   UNL     1     -10.234   7.703  67.371  1.00  0.00    -0.251 A  
HETATM   14  N   UNL     1      -9.667   6.739  66.627  1.00  0.00    -0.229 NA 
HETATM   15  N   UNL     1     -10.377   8.933  66.944  1.00  0.00    -0.271 NA 
HETATM   16  H1  UNL     1      -9.304   6.926  65.693  1.00  0.00     0.000 HD 
HETATM   17  H2  UNL     1      -9.598   5.796  67.008  1.00  0.00     0.000 HD 
ENDBRANCH   4   6
ENDBRANCH   3   4
ENDBRANCH   2   3
TORSDOF 3
ENDMDL
MODEL      194
REMARK 921   NORMALIZED FREE ENERGY PREDICTED BY IDOCK:   -2.52 KCAL/MOL
REMARK 922        TOTAL FREE ENERGY PREDICTED BY IDOCK:   -3.20 KCAL/MOL
REMARK 923 INTER-LIGAND FREE ENERGY PREDICTED BY IDOCK:   -2.97 KCAL/MOL
REMARK 924 INTRA-LIGAND FREE ENERGY PREDICTED BY IDOCK:   -0.23 KCAL/MOL
REMARK 927      BINDING AFFINITY PREDICTED BY RF-SCORE:    0.00 PKD
ROOT
HETATM    1  C   UNL     1     -12.072  10.347  71.071  1.00  0.00    -0.488 C  
HETATM    2  C   UNL     1     -11.820   8.853  71.230  1.00  0.00    -0.371 C  
ENDROOT
BRANCH   2   3
HETATM    3  C   UNL     1     -11.019   8.312  70.045  1.00  0.00    -0.197 C  
BRANCH   3   4
HETATM    4  N   UNL     1     -11.197   9.154  68.856  1.00  0.00    -0.431 NA 
HETATM    5  H   UNL     1     -10.861  10.102  69.021  1.00  0.00     0.000 HD 
BRANCH   4   6
HETATM    6  C   UNL     1     -10.565   8.562  67.658  1.00  0.00    -0.198 C  
HETATM    7  C   UNL     1      -9.581   9.546  66.969  1.00  0.00    -0.214 C  
HETATM    8  C   UNL     1      -9.072   8.979  65.636  1.00  0.00    -0.278 C  
HETATM    9  C   UNL     1      -8.621   7.573  65.795  1.00  0.00    -0.142 A  
HETATM   10  C   UNL     1      -8.979   6.788  66.870  1.00  0.00    -0.128 A  
HETATM   11  S   UNL     1      -8.277   5.245  66.713  1.00  0.00    -0.108 SA 
HETATM   12  C   UNL     1      -9.815   7.240  68.026  1.00  0.00    -0.167 C  
HETATM   13  C   UNL     1      -7.552   5.745  65.229  1.00  0.00    -0.085 A  
HETATM   14  N   UNL     1      -6.777   4.919  64.508  1.00  0.00    -0.046 NA 
HETATM   15  N   UNL     1      -7.826   6.968  64.851  1.00  0.00    -0.120 NA 
HETATM   16  H1  UNL     1      -6.349   5.215  63.631  1.00  0.00     0.000 HD 
HETATM   17  H2  UNL     1      -6.613   3.971  64.846  1.00  0.00     0.000 HD 
ENDBRANCH   4   6
ENDBRANCH   3   4
ENDBRANCH   2   3
TORSDOF 3
ENDMDL
MODEL      195
REMARK 921   NORMALIZED FREE ENERGY PREDICTED BY IDOCK:   -2.51 KCAL/MOL
REMARK 922        TOTAL FREE ENERGY PREDICTED BY IDOCK:   -3.19 KCAL/MOL
REMARK 923 INTER-LIGAND FREE ENERGY PREDICTED BY IDOCK:   -2.97 KCAL/MOL
REMARK 924 INTRA-LIGAND FREE ENERGY PREDICTED BY IDOCK:   -0.22 KCAL/MOL
REMARK 927      BINDING AFFINITY PREDICTED BY RF-SCORE:    0.00 PKD
ROOT
HETATM    1  C   UNL     1      -6.372   3.210  72.929  1.00  0.00    -0.009 C  
HETATM    2  C   UNL     1      -7.157   4.392  73.483  1.00  0.00    -0.070 C  
ENDROOT
BRANCH   2   3
HETATM    3  C   UNL     1      -8.056   4.995  72.405  1.00  0.00    -0.109 C  
BRANCH   3   4
HETATM    4  N   UNL     1      -9.475   4.808  72.730  1.00  0.00    -0.132 NA 
HETATM    5  H   UNL     1      -9.610   4.670  73.731  1.00  0.00     0.000 HD 
BRANCH   4   6
HETATM    6  C   UNL     1     -10.312   5.915  72.224  1.00  0.00    -0.198 C  
HETATM    7  C   UNL     1     -10.507   7.034  73.283  1.00  0.00    -0.365 C  
HETATM    8  C   UNL     1     -11.517   8.085  72.802  1.00  0.00    -0.420 C  
HETATM    9  C   UNL     1     -11.215   8.515  71.413  1.00  0.00    -0.266 A  
HETATM   10  C   UNL     1     -10.404   7.792  70.564  1.00  0.00    -0.205 A  
HETATM   11  S   UNL     1     -10.287   8.590  69.065  1.00  0.00    -0.201 SA 
HETATM   12  C   UNL     1      -9.693   6.525  70.923  1.00  0.00    -0.190 C  
HETATM   13  C   UNL     1     -11.321   9.833  69.665  1.00  0.00    -0.122 A  
HETATM   14  N   UNL     1     -11.671  10.887  68.910  1.00  0.00    -0.376 NA 
HETATM   15  N   UNL     1     -11.753   9.666  70.890  1.00  0.00    -0.310 NA 
HETATM   16  H1  UNL     1     -12.282  11.622  69.265  1.00  0.00     0.000 HD 
HETATM   17  H2  UNL     1     -11.316  10.955  67.957  1.00  0.00     0.000 HD 
ENDBRANCH   4   6
ENDBRANCH   3   4
ENDBRANCH   2   3
TORSDOF 3
ENDMDL
MODEL      196
REMARK 921   NORMALIZED FREE ENERGY PREDICTED BY IDOCK:   -2.50 KCAL/MOL
REMARK 922        TOTAL FREE ENERGY PREDICTED BY IDOCK:   -3.17 KCAL/MOL
REMARK 923 INTER-LIGAND FREE ENERGY PREDICTED BY IDOCK:   -3.21 KCAL/MOL
REMARK 924 INTRA-LIGAND FREE ENERGY PREDICTED BY IDOCK:    0.03 KCAL/MOL
REMARK 927      BINDING AFFINITY PREDICTED BY RF-SCORE:    0.00 PKD
ROOT
HETATM    1  C   UNL     1     -11.533  10.743  70.291  1.00  0.00    -0.406 C  
HETATM    2  C   UNL     1     -11.406   9.426  71.046  1.00  0.00    -0.407 C  
ENDROOT
BRANCH   2   3
HETATM    3  C   UNL     1     -10.799   8.347  70.149  1.00  0.00    -0.236 C  
BRANCH   3   4
HETATM    4  N   UNL     1     -11.084   8.610  68.734  1.00  0.00    -0.417 NA 
HETATM    5  H   UNL     1     -11.907   9.202  68.626  1.00  0.00     0.000 HD 
BRANCH   4   6
HETATM    6  C   UNL     1      -9.918   9.182  68.030  1.00  0.00    -0.178 C  
HETATM    7  C   UNL     1      -8.623   8.361  68.277  1.00  0.00    -0.139 C  
HETATM    8  C   UNL     1      -7.395   9.067  67.684  1.00  0.00    -0.084 C  
HETATM    9  C   UNL     1      -7.660   9.509  66.291  1.00  0.00    -0.097 A  
HETATM   10  C   UNL     1      -8.930   9.621  65.768  1.00  0.00    -0.169 A  
HETATM   11  S   UNL     1      -8.841  10.151  64.152  1.00  0.00    -0.242 SA 
HETATM   12  C   UNL     1     -10.194   9.279  66.493  1.00  0.00    -0.316 C  
HETATM   13  C   UNL     1      -7.120  10.187  64.277  1.00  0.00    -0.102 A  
HETATM   14  N   UNL     1      -6.345  10.554  63.245  1.00  0.00    -0.321 NA 
HETATM   15  N   UNL     1      -6.632   9.853  65.445  1.00  0.00    -0.092 NA 
HETATM   16  H1  UNL     1      -5.328  10.575  63.319  1.00  0.00     0.000 HD 
HETATM   17  H2  UNL     1      -6.784  10.819  62.364  1.00  0.00     0.000 HD 
ENDBRANCH   4   6
ENDBRANCH   3   4
ENDBRANCH   2   3
TORSDOF 3
ENDMDL
MODEL      197
REMARK 921   NORMALIZED FREE ENERGY PREDICTED BY IDOCK:   -2.50 KCAL/MOL
REMARK 922        TOTAL FREE ENERGY PREDICTED BY IDOCK:   -3.17 KCAL/MOL
REMARK 923 INTER-LIGAND FREE ENERGY PREDICTED BY IDOCK:   -2.93 KCAL/MOL
REMARK 924 INTRA-LIGAND FREE ENERGY PREDICTED BY IDOCK:   -0.24 KCAL/MOL
REMARK 927      BINDING AFFINITY PREDICTED BY RF-SCORE:    0.00 PKD
ROOT
HETATM    1  C   UNL     1     -10.302   5.245  70.132  1.00  0.00    -0.354 C  
HETATM    2  C   UNL     1     -10.596   6.455  69.255  1.00  0.00    -0.311 C  
ENDROOT
BRANCH   2   3
HETATM    3  C   UNL     1     -10.500   6.084  67.775  1.00  0.00    -0.239 C  
BRANCH   3   4
HETATM    4  N   UNL     1      -9.292   6.648  67.163  1.00  0.00    -0.131 NA 
HETATM    5  H   UNL     1      -9.215   6.380  66.182  1.00  0.00     0.000 HD 
BRANCH   4   6
HETATM    6  C   UNL     1      -9.220   8.115  67.324  1.00  0.00    -0.138 C  
HETATM    7  C   UNL     1      -7.781   8.659  67.111  1.00  0.00    -0.096 C  
HETATM    8  C   UNL     1      -7.694  10.152  67.455  1.00  0.00    -0.091 C  
HETATM    9  C   UNL     1      -8.803  10.908  66.818  1.00  0.00    -0.145 A  
HETATM   10  C   UNL     1      -9.943  10.302  66.334  1.00  0.00    -0.229 A  
HETATM   11  S   UNL     1     -10.984  11.477  65.677  1.00  0.00    -0.189 SA 
HETATM   12  C   UNL     1     -10.202   8.827  66.338  1.00  0.00    -0.256 C  
HETATM   13  C   UNL     1      -9.835  12.698  66.087  1.00  0.00    -0.259 A  
HETATM   14  N   UNL     1     -10.055  13.995  65.815  1.00  0.00    -0.321 NA 
HETATM   15  N   UNL     1      -8.755  12.276  66.696  1.00  0.00    -0.171 NA 
HETATM   16  H1  UNL     1      -9.376  14.716  66.057  1.00  0.00     0.000 HD 
HETATM   17  H2  UNL     1     -10.923  14.265  65.353  1.00  0.00     0.000 HD 
ENDBRANCH   4   6
ENDBRANCH   3   4
ENDBRANCH   2   3
TORSDOF 3
ENDMDL
MODEL      198
REMARK 921   NORMALIZED FREE ENERGY PREDICTED BY IDOCK:   -2.49 KCAL/MOL
REMARK 922        TOTAL FREE ENERGY PREDICTED BY IDOCK:   -3.16 KCAL/MOL
REMARK 923 INTER-LIGAND FREE ENERGY PREDICTED BY IDOCK:   -2.91 KCAL/MOL
REMARK 924 INTRA-LIGAND FREE ENERGY PREDICTED BY IDOCK:   -0.25 KCAL/MOL
REMARK 927      BINDING AFFINITY PREDICTED BY RF-SCORE:    0.00 PKD
ROOT
HETATM    1  C   UNL     1      -7.925  17.596  68.806  1.00  0.00    -0.244 C  
HETATM    2  C   UNL     1      -9.063  17.738  67.804  1.00  0.00    -0.249 C  
ENDROOT
BRANCH   2   3
HETATM    3  C   UNL     1      -9.827  16.421  67.666  1.00  0.00    -0.243 C  
BRANCH   3   4
HETATM    4  N   UNL     1      -9.171  15.345  68.418  1.00  0.00    -0.187 NA 
HETATM    5  H   UNL     1      -9.391  15.401  69.412  1.00  0.00     0.000 HD 
BRANCH   4   6
HETATM    6  C   UNL     1      -9.493  14.010  67.872  1.00  0.00    -0.210 C  
HETATM    7  C   UNL     1     -10.230  14.096  66.508  1.00  0.00    -0.278 C  
HETATM    8  C   UNL     1     -10.709  12.713  66.046  1.00  0.00    -0.295 C  
HETATM    9  C   UNL     1      -9.621  11.709  66.164  1.00  0.00    -0.232 A  
HETATM   10  C   UNL     1      -8.497  11.908  66.937  1.00  0.00    -0.174 A  
HETATM   11  S   UNL     1      -7.475  10.551  66.826  1.00  0.00    -0.121 SA 
HETATM   12  C   UNL     1      -8.195  13.151  67.715  1.00  0.00    -0.168 C  
HETATM   13  C   UNL     1      -8.609   9.808  65.757  1.00  0.00    -0.135 A  
HETATM   14  N   UNL     1      -8.394   8.589  65.236  1.00  0.00    -0.152 NA 
HETATM   15  N   UNL     1      -9.691  10.502  65.510  1.00  0.00    -0.223 NA 
HETATM   16  H1  UNL     1      -9.063   8.150  64.604  1.00  0.00     0.000 HD 
HETATM   17  H2  UNL     1      -7.538   8.089  65.477  1.00  0.00     0.000 HD 
ENDBRANCH   4   6
ENDBRANCH   3   4
ENDBRANCH   2   3
TORSDOF 3
ENDMDL
MODEL      199
REMARK 921   NORMALIZED FREE ENERGY PREDICTED BY IDOCK:   -2.49 KCAL/MOL
REMARK 922        TOTAL FREE ENERGY PREDICTED BY IDOCK:   -3.16 KCAL/MOL
REMARK 923 INTER-LIGAND FREE ENERGY PREDICTED BY IDOCK:   -3.01 KCAL/MOL
REMARK 924 INTRA-LIGAND FREE ENERGY PREDICTED BY IDOCK:   -0.16 KCAL/MOL
REMARK 927      BINDING AFFINITY PREDICTED BY RF-SCORE:    0.00 PKD
ROOT
HETATM    1  C   UNL     1      -8.614   4.466  63.787  1.00  0.00    -0.122 C  
HETATM    2  C   UNL     1     -10.061   4.090  64.078  1.00  0.00    -0.162 C  
ENDROOT
BRANCH   2   3
HETATM    3  C   UNL     1     -10.357   4.202  65.574  1.00  0.00    -0.124 C  
BRANCH   3   4
HETATM    4  N   UNL     1     -11.133   5.412  65.873  1.00  0.00    -0.769 NA 
HETATM    5  H   UNL     1     -12.121   5.193  66.005  1.00  0.00     0.000 HD 
BRANCH   4   6
HETATM    6  C   UNL     1     -10.588   6.149  67.031  1.00  0.00    -0.315 C  
HETATM    7  C   UNL     1     -10.679   7.688  66.841  1.00  0.00    -0.271 C  
HETATM    8  C   UNL     1      -9.951   8.431  67.971  1.00  0.00    -0.221 C  
HETATM    9  C   UNL     1     -10.341   7.890  69.298  1.00  0.00    -0.220 A  
HETATM   10  C   UNL     1     -10.945   6.661  69.459  1.00  0.00    -0.313 A  
HETATM   11  S   UNL     1     -11.243   6.380  71.111  1.00  0.00    -0.313 SA 
HETATM   12  C   UNL     1     -11.328   5.737  68.345  1.00  0.00     0.486 C  
HETATM   13  C   UNL     1     -10.547   7.915  71.480  1.00  0.00    -0.222 A  
HETATM   14  N   UNL     1     -10.459   8.366  72.742  1.00  0.00    -0.256 NA 
HETATM   15  N   UNL     1     -10.095   8.592  70.454  1.00  0.00    -0.186 NA 
HETATM   16  H1  UNL     1     -10.048   9.274  72.960  1.00  0.00     0.000 HD 
HETATM   17  H2  UNL     1     -10.814   7.787  73.502  1.00  0.00     0.000 HD 
ENDBRANCH   4   6
ENDBRANCH   3   4
ENDBRANCH   2   3
TORSDOF 3
ENDMDL
MODEL      200
REMARK 921   NORMALIZED FREE ENERGY PREDICTED BY IDOCK:   -2.48 KCAL/MOL
REMARK 922        TOTAL FREE ENERGY PREDICTED BY IDOCK:   -3.15 KCAL/MOL
REMARK 923 INTER-LIGAND FREE ENERGY PREDICTED BY IDOCK:   -2.92 KCAL/MOL
REMARK 924 INTRA-LIGAND FREE ENERGY PREDICTED BY IDOCK:   -0.23 KCAL/MOL
REMARK 927      BINDING AFFINITY PREDICTED BY RF-SCORE:    0.00 PKD
ROOT
HETATM    1  C   UNL     1      -8.973  11.934  66.839  1.00  0.00    -0.196 C  
HETATM    2  C   UNL     1      -9.298  10.492  67.206  1.00  0.00    -0.164 C  
ENDROOT
BRANCH   2   3
HETATM    3  C   UNL     1     -10.790  10.213  67.030  1.00  0.00    -0.151 C  
BRANCH   3   4
HETATM    4  N   UNL     1     -11.288   9.305  68.071  1.00  0.00    -0.268 NA 
HETATM    5  H   UNL     1     -12.283   9.117  67.953  1.00  0.00     0.000 HD 
BRANCH   4   6
HETATM    6  C   UNL     1     -10.509   8.051  68.132  1.00  0.00    -0.167 C  
HETATM    7  C   UNL     1     -10.660   7.334  69.501  1.00  0.00    -0.244 C  
HETATM    8  C   UNL     1      -9.710   6.132  69.607  1.00  0.00    -0.181 C  
HETATM    9  C   UNL     1      -9.787   5.287  68.388  1.00  0.00    -0.153 A  
HETATM   10  C   UNL     1     -10.324   5.732  67.199  1.00  0.00    -0.240 A  
HETATM   11  S   UNL     1     -10.244   4.494  66.033  1.00  0.00    -0.227 SA 
HETATM   12  C   UNL     1     -10.933   7.082  66.981  1.00  0.00    -0.357 C  
HETATM   13  C   UNL     1      -9.504   3.465  67.203  1.00  0.00    -0.162 A  
HETATM   14  N   UNL     1      -9.144   2.205  66.909  1.00  0.00    -0.259 NA 
HETATM   15  N   UNL     1      -9.301   4.001  68.380  1.00  0.00    -0.150 NA 
HETATM   16  H1  UNL     1      -8.707   1.596  67.601  1.00  0.00     0.000 HD 
HETATM   17  H2  UNL     1      -9.313   1.847  65.969  1.00  0.00     0.000 HD 
ENDBRANCH   4   6
ENDBRANCH   3   4
ENDBRANCH   2   3
TORSDOF 3
ENDMDL
MODEL      201
REMARK 921   NORMALIZED FREE ENERGY PREDICTED BY IDOCK:   -2.47 KCAL/MOL
REMARK 922        TOTAL FREE ENERGY PREDICTED BY IDOCK:   -3.14 KCAL/MOL
REMARK 923 INTER-LIGAND FREE ENERGY PREDICTED BY IDOCK:   -3.02 KCAL/MOL
REMARK 924 INTRA-LIGAND FREE ENERGY PREDICTED BY IDOCK:   -0.11 KCAL/MOL
REMARK 927      BINDING AFFINITY PREDICTED BY RF-SCORE:    0.00 PKD
ROOT
HETATM    1  C   UNL     1     -10.489   7.836  73.084  1.00  0.00    -0.413 C  
HETATM    2  C   UNL     1     -10.396   8.549  71.741  1.00  0.00    -0.354 C  
ENDROOT
BRANCH   2   3
HETATM    3  C   UNL     1     -11.534   8.113  70.819  1.00  0.00    -0.261 C  
BRANCH   3   4
HETATM    4  N   UNL     1     -11.318   6.752  70.315  1.00  0.00    -0.329 NA 
HETATM    5  H   UNL     1     -12.195   6.325  70.016  1.00  0.00     0.000 HD 
BRANCH   4   6
HETATM    6  C   UNL     1     -10.309   6.712  69.237  1.00  0.00    -0.200 C  
HETATM    7  C   UNL     1     -10.462   5.457  68.336  1.00  0.00    -0.191 C  
HETATM    8  C   UNL     1      -9.302   5.344  67.337  1.00  0.00    -0.117 C  
HETATM    9  C   UNL     1      -9.063   6.642  66.655  1.00  0.00    -0.145 A  
HETATM   10  C   UNL     1      -9.541   7.842  67.135  1.00  0.00    -0.170 A  
HETATM   11  S   UNL     1      -9.074   9.105  66.095  1.00  0.00    -0.204 SA 
HETATM   12  C   UNL     1     -10.388   8.003  68.359  1.00  0.00    -0.236 C  
HETATM   13  C   UNL     1      -8.274   7.955  65.087  1.00  0.00    -0.141 A  
HETATM   14  N   UNL     1      -7.630   8.323  63.968  1.00  0.00    -0.120 NA 
HETATM   15  N   UNL     1      -8.322   6.713  65.498  1.00  0.00    -0.145 NA 
HETATM   16  H1  UNL     1      -7.157   7.644  63.372  1.00  0.00     0.000 HD 
HETATM   17  H2  UNL     1      -7.613   9.309  63.706  1.00  0.00     0.000 HD 
ENDBRANCH   4   6
ENDBRANCH   3   4
ENDBRANCH   2   3
TORSDOF 3
ENDMDL
MODEL      202
REMARK 921   NORMALIZED FREE ENERGY PREDICTED BY IDOCK:   -2.46 KCAL/MOL
REMARK 922        TOTAL FREE ENERGY PREDICTED BY IDOCK:   -3.13 KCAL/MOL
REMARK 923 INTER-LIGAND FREE ENERGY PREDICTED BY IDOCK:   -2.85 KCAL/MOL
REMARK 924 INTRA-LIGAND FREE ENERGY PREDICTED BY IDOCK:   -0.28 KCAL/MOL
REMARK 927      BINDING AFFINITY PREDICTED BY RF-SCORE:    0.00 PKD
ROOT
HETATM    1  C   UNL     1     -10.172   8.454  72.463  1.00  0.00    -0.369 C  
HETATM    2  C   UNL     1     -10.387   8.766  70.988  1.00  0.00    -0.297 C  
ENDROOT
BRANCH   2   3
HETATM    3  C   UNL     1     -11.714   8.183  70.502  1.00  0.00    -0.063 C  
BRANCH   3   4
HETATM    4  N   UNL     1     -11.696   6.715  70.544  1.00  0.00    -0.391 NA 
HETATM    5  H   UNL     1     -12.584   6.326  70.229  1.00  0.00     0.000 HD 
BRANCH   4   6
HETATM    6  C   UNL     1     -10.563   6.152  69.782  1.00  0.00    -0.280 C  
HETATM    7  C   UNL     1     -10.011   4.852  70.427  1.00  0.00    -0.316 C  
HETATM    8  C   UNL     1      -8.731   4.382  69.723  1.00  0.00    -0.111 C  
HETATM    9  C   UNL     1      -8.906   4.383  68.248  1.00  0.00    -0.105 A  
HETATM   10  C   UNL     1      -9.915   5.074  67.613  1.00  0.00    -0.155 A  
HETATM   11  S   UNL     1      -9.801   4.841  65.930  1.00  0.00    -0.220 SA 
HETATM   12  C   UNL     1     -10.981   5.868  68.302  1.00  0.00    -0.262 C  
HETATM   13  C   UNL     1      -8.420   3.837  66.181  1.00  0.00    -0.110 A  
HETATM   14  N   UNL     1      -7.770   3.260  65.157  1.00  0.00    -0.080 NA 
HETATM   15  N   UNL     1      -8.042   3.696  67.427  1.00  0.00    -0.089 NA 
HETATM   16  H1  UNL     1      -6.954   2.667  65.306  1.00  0.00     0.000 HD 
HETATM   17  H2  UNL     1      -8.102   3.420  64.207  1.00  0.00     0.000 HD 
ENDBRANCH   4   6
ENDBRANCH   3   4
ENDBRANCH   2   3
TORSDOF 3
ENDMDL
MODEL      203
REMARK 921   NORMALIZED FREE ENERGY PREDICTED BY IDOCK:   -2.46 KCAL/MOL
REMARK 922        TOTAL FREE ENERGY PREDICTED BY IDOCK:   -3.13 KCAL/MOL
REMARK 923 INTER-LIGAND FREE ENERGY PREDICTED BY IDOCK:   -2.95 KCAL/MOL
REMARK 924 INTRA-LIGAND FREE ENERGY PREDICTED BY IDOCK:   -0.17 KCAL/MOL
REMARK 927      BINDING AFFINITY PREDICTED BY RF-SCORE:    0.00 PKD
ROOT
HETATM    1  C   UNL     1      -8.114   4.978  74.117  1.00  0.00    -0.100 C  
HETATM    2  C   UNL     1      -8.499   6.433  73.880  1.00  0.00    -0.122 C  
ENDROOT
BRANCH   2   3
HETATM    3  C   UNL     1      -9.792   6.523  73.071  1.00  0.00    -0.166 C  
BRANCH   3   4
HETATM    4  N   UNL     1     -10.118   7.917  72.744  1.00  0.00    -0.273 NA 
HETATM    5  H   UNL     1      -9.608   8.566  73.342  1.00  0.00     0.000 HD 
BRANCH   4   6
HETATM    6  C   UNL     1      -9.896   8.218  71.315  1.00  0.00    -0.175 C  
HETATM    7  C   UNL     1     -10.614   7.205  70.383  1.00  0.00    -0.242 C  
HETATM    8  C   UNL     1     -10.228   7.429  68.914  1.00  0.00    -0.200 C  
HETATM    9  C   UNL     1     -10.329   8.867  68.554  1.00  0.00    -0.198 A  
HETATM   10  C   UNL     1     -10.372   9.874  69.494  1.00  0.00    -0.229 A  
HETATM   11  S   UNL     1     -10.488  11.383  68.714  1.00  0.00    -0.194 SA 
HETATM   12  C   UNL     1     -10.370   9.670  70.977  1.00  0.00    -0.292 C  
HETATM   13  C   UNL     1     -10.474  10.575  67.189  1.00  0.00    -0.249 A  
HETATM   14  N   UNL     1     -10.549  11.251  66.031  1.00  0.00    -0.264 NA 
HETATM   15  N   UNL     1     -10.365   9.272  67.241  1.00  0.00    -0.250 NA 
HETATM   16  H1  UNL     1     -10.541  10.774  65.130  1.00  0.00     0.000 HD 
HETATM   17  H2  UNL     1     -10.616  12.268  66.054  1.00  0.00     0.000 HD 
ENDBRANCH   4   6
ENDBRANCH   3   4
ENDBRANCH   2   3
TORSDOF 3
ENDMDL
MODEL      204
REMARK 921   NORMALIZED FREE ENERGY PREDICTED BY IDOCK:   -2.42 KCAL/MOL
REMARK 922        TOTAL FREE ENERGY PREDICTED BY IDOCK:   -3.09 KCAL/MOL
REMARK 923 INTER-LIGAND FREE ENERGY PREDICTED BY IDOCK:   -3.50 KCAL/MOL
REMARK 924 INTRA-LIGAND FREE ENERGY PREDICTED BY IDOCK:    0.42 KCAL/MOL
REMARK 927      BINDING AFFINITY PREDICTED BY RF-SCORE:    0.00 PKD
ROOT
HETATM    1  C   UNL     1     -12.432   8.112  72.508  1.00  0.00    -0.249 C  
HETATM    2  C   UNL     1     -11.802   9.216  71.669  1.00  0.00    -0.443 C  
ENDROOT
BRANCH   2   3
HETATM    3  C   UNL     1     -12.864  10.212  71.203  1.00  0.00    -0.399 C  
BRANCH   3   4
HETATM    4  N   UNL     1     -12.297  11.556  71.039  1.00  0.00    -0.361 NA 
HETATM    5  H   UNL     1     -11.688  11.798  71.820  1.00  0.00     0.000 HD 
BRANCH   4   6
HETATM    6  C   UNL     1     -11.598  11.711  69.747  1.00  0.00    -0.315 C  
HETATM    7  C   UNL     1     -11.234  13.190  69.450  1.00  0.00    -0.210 C  
HETATM    8  C   UNL     1     -10.669  13.351  68.032  1.00  0.00    -0.261 C  
HETATM    9  C   UNL     1      -9.626  12.330  67.758  1.00  0.00    -0.200 A  
HETATM   10  C   UNL     1      -9.481  11.185  68.511  1.00  0.00    -0.193 A  
HETATM   11  S   UNL     1      -8.187  10.259  67.906  1.00  0.00    -0.110 SA 
HETATM   12  C   UNL     1     -10.304  10.833  69.711  1.00  0.00    -0.073 C  
HETATM   13  C   UNL     1      -7.921  11.457  66.692  1.00  0.00    -0.148 A  
HETATM   14  N   UNL     1      -6.940  11.335  65.783  1.00  0.00    -0.359 NA 
HETATM   15  N   UNL     1      -8.749  12.471  66.709  1.00  0.00    -0.183 NA 
HETATM   16  H1  UNL     1      -6.783  12.043  65.066  1.00  0.00     0.000 HD 
HETATM   17  H2  UNL     1      -6.337  10.514  65.811  1.00  0.00     0.000 HD 
ENDBRANCH   4   6
ENDBRANCH   3   4
ENDBRANCH   2   3
TORSDOF 3
ENDMDL
MODEL      205
REMARK 921   NORMALIZED FREE ENERGY PREDICTED BY IDOCK:   -2.42 KCAL/MOL
REMARK 922        TOTAL FREE ENERGY PREDICTED BY IDOCK:   -3.08 KCAL/MOL
REMARK 923 INTER-LIGAND FREE ENERGY PREDICTED BY IDOCK:   -2.85 KCAL/MOL
REMARK 924 INTRA-LIGAND FREE ENERGY PREDICTED BY IDOCK:   -0.23 KCAL/MOL
REMARK 927      BINDING AFFINITY PREDICTED BY RF-SCORE:    0.00 PKD
ROOT
HETATM    1  C   UNL     1     -12.188  12.618  63.555  1.00  0.00    -0.638 C  
HETATM    2  C   UNL     1     -11.375  11.372  63.230  1.00  0.00    -0.094 C  
ENDROOT
BRANCH   2   3
HETATM    3  C   UNL     1     -10.570  10.920  64.448  1.00  0.00    -0.273 C  
BRANCH   3   4
HETATM    4  N   UNL     1      -9.496  11.871  64.758  1.00  0.00    -0.437 NA 
HETATM    5  H   UNL     1      -9.848  12.828  64.788  1.00  0.00     0.000 HD 
BRANCH   4   6
HETATM    6  C   UNL     1      -8.787  11.522  66.006  1.00  0.00    -0.143 C  
HETATM    7  C   UNL     1      -8.869  12.655  67.064  1.00  0.00    -0.212 C  
HETATM    8  C   UNL     1      -7.983  12.346  68.280  1.00  0.00    -0.160 C  
HETATM    9  C   UNL     1      -8.205  10.958  68.758  1.00  0.00    -0.151 A  
HETATM   10  C   UNL     1      -8.809   9.987  67.988  1.00  0.00    -0.125 A  
HETATM   11  S   UNL     1      -8.892   8.529  68.864  1.00  0.00    -0.139 SA 
HETATM   12  C   UNL     1      -9.356  10.196  66.611  1.00  0.00    -0.195 C  
HETATM   13  C   UNL     1      -8.121   9.307  70.197  1.00  0.00    -0.145 A  
HETATM   14  N   UNL     1      -7.858   8.653  71.341  1.00  0.00    -0.122 NA 
HETATM   15  N   UNL     1      -7.795  10.561  70.008  1.00  0.00    -0.015 NA 
HETATM   16  H1  UNL     1      -7.402   9.113  72.129  1.00  0.00     0.000 HD 
HETATM   17  H2  UNL     1      -8.121   7.672  71.423  1.00  0.00     0.000 HD 
ENDBRANCH   4   6
ENDBRANCH   3   4
ENDBRANCH   2   3
TORSDOF 3
ENDMDL
MODEL      206
REMARK 921   NORMALIZED FREE ENERGY PREDICTED BY IDOCK:   -2.39 KCAL/MOL
REMARK 922        TOTAL FREE ENERGY PREDICTED BY IDOCK:   -3.05 KCAL/MOL
REMARK 923 INTER-LIGAND FREE ENERGY PREDICTED BY IDOCK:   -2.83 KCAL/MOL
REMARK 924 INTRA-LIGAND FREE ENERGY PREDICTED BY IDOCK:   -0.22 KCAL/MOL
REMARK 927      BINDING AFFINITY PREDICTED BY RF-SCORE:    0.00 PKD
ROOT
HETATM    1  C   UNL     1      -9.139   4.301  63.818  1.00  0.00    -0.142 C  
HETATM    2  C   UNL     1      -8.245   4.292  65.051  1.00  0.00    -0.103 C  
ENDROOT
BRANCH   2   3
HETATM    3  C   UNL     1      -7.888   5.718  65.468  1.00  0.00    -0.102 C  
BRANCH   3   4
HETATM    4  N   UNL     1      -9.088   6.555  65.581  1.00  0.00    -0.367 NA 
HETATM    5  H   UNL     1      -9.937   5.992  65.533  1.00  0.00     0.000 HD 
BRANCH   4   6
HETATM    6  C   UNL     1      -9.070   7.392  66.798  1.00  0.00    -0.151 C  
HETATM    7  C   UNL     1     -10.444   8.062  67.070  1.00  0.00    -0.410 C  
HETATM    8  C   UNL     1     -10.355   9.061  68.232  1.00  0.00    -0.252 C  
HETATM    9  C   UNL     1      -9.653   8.460  69.395  1.00  0.00    -0.170 A  
HETATM   10  C   UNL     1      -8.864   7.335  69.296  1.00  0.00    -0.136 A  
HETATM   11  S   UNL     1      -8.229   6.940  70.825  1.00  0.00    -0.123 SA 
HETATM   12  C   UNL     1      -8.640   6.548  68.042  1.00  0.00    -0.118 C  
HETATM   13  C   UNL     1      -9.057   8.297  71.498  1.00  0.00    -0.177 A  
HETATM   14  N   UNL     1      -8.978   8.595  72.805  1.00  0.00    -0.365 NA 
HETATM   15  N   UNL     1      -9.744   9.019  70.649  1.00  0.00    -0.214 NA 
HETATM   16  H1  UNL     1      -9.468   9.397  73.203  1.00  0.00     0.000 HD 
HETATM   17  H2  UNL     1      -8.414   8.005  73.416  1.00  0.00     0.000 HD 
ENDBRANCH   4   6
ENDBRANCH   3   4
ENDBRANCH   2   3
TORSDOF 3
ENDMDL
MODEL      207
REMARK 921   NORMALIZED FREE ENERGY PREDICTED BY IDOCK:   -2.39 KCAL/MOL
REMARK 922        TOTAL FREE ENERGY PREDICTED BY IDOCK:   -3.04 KCAL/MOL
REMARK 923 INTER-LIGAND FREE ENERGY PREDICTED BY IDOCK:   -2.89 KCAL/MOL
REMARK 924 INTRA-LIGAND FREE ENERGY PREDICTED BY IDOCK:   -0.15 KCAL/MOL
REMARK 927      BINDING AFFINITY PREDICTED BY RF-SCORE:    0.00 PKD
ROOT
HETATM    1  C   UNL     1      -8.055  19.925  66.531  1.00  0.00    -0.357 C  
HETATM    2  C   UNL     1      -8.925  19.673  67.756  1.00  0.00    -0.385 C  
ENDROOT
BRANCH   2   3
HETATM    3  C   UNL     1      -9.721  18.378  67.594  1.00  0.00    -0.293 C  
BRANCH   3   4
HETATM    4  N   UNL     1      -9.966  17.739  68.892  1.00  0.00    -0.352 NA 
HETATM    5  H   UNL     1     -10.965  17.670  69.087  1.00  0.00     0.000 HD 
BRANCH   4   6
HETATM    6  C   UNL     1      -9.308  16.421  68.995  1.00  0.00    -0.248 C  
HETATM    7  C   UNL     1     -10.131  15.299  68.307  1.00  0.00    -0.225 C  
HETATM    8  C   UNL     1      -9.521  13.916  68.577  1.00  0.00    -0.174 C  
HETATM    9  C   UNL     1      -8.056  13.926  68.332  1.00  0.00    -0.145 A  
HETATM   10  C   UNL     1      -7.315  15.087  68.264  1.00  0.00    -0.111 A  
HETATM   11  S   UNL     1      -5.681  14.709  67.971  1.00  0.00    -0.121 SA 
HETATM   12  C   UNL     1      -7.871  16.472  68.380  1.00  0.00    -0.187 C  
HETATM   13  C   UNL     1      -6.090  13.033  67.955  1.00  0.00    -0.131 A  
HETATM   14  N   UNL     1      -5.165  12.082  67.749  1.00  0.00    -0.060 NA 
HETATM   15  N   UNL     1      -7.351  12.756  68.177  1.00  0.00    -0.105 NA 
HETATM   16  H1  UNL     1      -5.407  11.091  67.739  1.00  0.00     0.000 HD 
HETATM   17  H2  UNL     1      -4.195  12.357  67.597  1.00  0.00     0.000 HD 
ENDBRANCH   4   6
ENDBRANCH   3   4
ENDBRANCH   2   3
TORSDOF 3
ENDMDL
MODEL      208
REMARK 921   NORMALIZED FREE ENERGY PREDICTED BY IDOCK:   -2.37 KCAL/MOL
REMARK 922        TOTAL FREE ENERGY PREDICTED BY IDOCK:   -3.02 KCAL/MOL
REMARK 923 INTER-LIGAND FREE ENERGY PREDICTED BY IDOCK:   -2.78 KCAL/MOL
REMARK 924 INTRA-LIGAND FREE ENERGY PREDICTED BY IDOCK:   -0.25 KCAL/MOL
REMARK 927      BINDING AFFINITY PREDICTED BY RF-SCORE:    0.00 PKD
ROOT
HETATM    1  C   UNL     1      -8.416   9.897  65.698  1.00  0.00    -0.152 C  
HETATM    2  C   UNL     1      -9.829  10.180  66.191  1.00  0.00    -0.297 C  
ENDROOT
BRANCH   2   3
HETATM    3  C   UNL     1     -10.068   9.523  67.550  1.00  0.00    -0.204 C  
BRANCH   3   4
HETATM    4  N   UNL     1     -10.134   8.062  67.430  1.00  0.00    -0.205 NA 
HETATM    5  H   UNL     1      -9.532   7.725  66.678  1.00  0.00     0.000 HD 
BRANCH   4   6
HETATM    6  C   UNL     1      -9.826   7.385  68.706  1.00  0.00    -0.164 C  
HETATM    7  C   UNL     1      -8.799   8.179  69.558  1.00  0.00    -0.143 C  
HETATM    8  C   UNL     1      -8.362   7.377  70.792  1.00  0.00    -0.119 C  
HETATM    9  C   UNL     1      -9.539   6.815  71.503  1.00  0.00    -0.163 A  
HETATM   10  C   UNL     1     -10.783   6.700  70.920  1.00  0.00    -0.235 A  
HETATM   11  S   UNL     1     -11.877   6.017  72.031  1.00  0.00    -0.132 SA 
HETATM   12  C   UNL     1     -11.131   7.153  69.537  1.00  0.00    -0.170 C  
HETATM   13  C   UNL     1     -10.610   5.932  73.200  1.00  0.00    -0.245 A  
HETATM   14  N   UNL     1     -10.817   5.441  74.432  1.00  0.00    -0.404 NA 
HETATM   15  N   UNL     1      -9.439   6.356  72.795  1.00  0.00    -0.144 NA 
HETATM   16  H1  UNL     1     -10.068   5.391  75.123  1.00  0.00     0.000 HD 
HETATM   17  H2  UNL     1     -11.748   5.111  74.685  1.00  0.00     0.000 HD 
ENDBRANCH   4   6
ENDBRANCH   3   4
ENDBRANCH   2   3
TORSDOF 3
ENDMDL
MODEL      209
REMARK 921   NORMALIZED FREE ENERGY PREDICTED BY IDOCK:   -2.29 KCAL/MOL
REMARK 922        TOTAL FREE ENERGY PREDICTED BY IDOCK:   -2.93 KCAL/MOL
REMARK 923 INTER-LIGAND FREE ENERGY PREDICTED BY IDOCK:   -2.69 KCAL/MOL
REMARK 924 INTRA-LIGAND FREE ENERGY PREDICTED BY IDOCK:   -0.24 KCAL/MOL
REMARK 927      BINDING AFFINITY PREDICTED BY RF-SCORE:    0.00 PKD
ROOT
HETATM    1  C   UNL     1     -11.215  12.372  65.574  1.00  0.00    -0.364 C  
HETATM    2  C   UNL     1     -10.240  11.347  66.138  1.00  0.00    -0.282 C  
ENDROOT
BRANCH   2   3
HETATM    3  C   UNL     1     -10.317  11.313  67.664  1.00  0.00    -0.184 C  
BRANCH   3   4
HETATM    4  N   UNL     1     -11.326  10.352  68.125  1.00  0.00    -0.502 NA 
HETATM    5  H   UNL     1     -11.779   9.886  67.339  1.00  0.00     0.000 HD 
BRANCH   4   6
HETATM    6  C   UNL     1     -10.767   9.373  69.079  1.00  0.00    -0.187 C  
HETATM    7  C   UNL     1     -10.774   7.929  68.509  1.00  0.00    -0.069 C  
HETATM    8  C   UNL     1     -10.355   6.907  69.576  1.00  0.00    -0.224 C  
HETATM    9  C   UNL     1      -9.124   7.350  70.278  1.00  0.00    -0.151 A  
HETATM   10  C   UNL     1      -8.670   8.651  70.248  1.00  0.00    -0.147 A  
HETATM   11  S   UNL     1      -7.238   8.782  71.160  1.00  0.00    -0.098 SA 
HETATM   12  C   UNL     1      -9.310   9.770  69.486  1.00  0.00    -0.226 C  
HETATM   13  C   UNL     1      -7.335   7.097  71.520  1.00  0.00    -0.078 A  
HETATM   14  N   UNL     1      -6.414   6.482  72.279  1.00  0.00    -0.057 NA 
HETATM   15  N   UNL     1      -8.372   6.472  71.022  1.00  0.00    -0.125 NA 
HETATM   16  H1  UNL     1      -6.471   5.487  72.492  1.00  0.00     0.000 HD 
HETATM   17  H2  UNL     1      -5.636   7.026  72.653  1.00  0.00     0.000 HD 
ENDBRANCH   4   6
ENDBRANCH   3   4
ENDBRANCH   2   3
TORSDOF 3
ENDMDL
MODEL      210
REMARK 921   NORMALIZED FREE ENERGY PREDICTED BY IDOCK:   -2.25 KCAL/MOL
REMARK 922        TOTAL FREE ENERGY PREDICTED BY IDOCK:   -2.88 KCAL/MOL
REMARK 923 INTER-LIGAND FREE ENERGY PREDICTED BY IDOCK:   -2.67 KCAL/MOL
REMARK 924 INTRA-LIGAND FREE ENERGY PREDICTED BY IDOCK:   -0.22 KCAL/MOL
REMARK 927      BINDING AFFINITY PREDICTED BY RF-SCORE:    0.00 PKD
ROOT
HETATM    1  C   UNL     1     -10.608   7.567  67.434  1.00  0.00    -0.364 C  
HETATM    2  C   UNL     1      -9.315   7.685  66.639  1.00  0.00    -0.239 C  
ENDROOT
BRANCH   2   3
HETATM    3  C   UNL     1      -9.166   9.092  66.059  1.00  0.00    -0.226 C  
BRANCH   3   4
HETATM    4  N   UNL     1      -7.903   9.710  66.482  1.00  0.00    -0.107 NA 
HETATM    5  H   UNL     1      -7.324   9.953  65.678  1.00  0.00     0.000 HD 
BRANCH   4   6
HETATM    6  C   UNL     1      -8.123  10.880  67.357  1.00  0.00    -0.114 C  
HETATM    7  C   UNL     1      -6.797  11.613  67.699  1.00  0.00    -0.094 C  
HETATM    8  C   UNL     1      -7.025  12.713  68.745  1.00  0.00    -0.096 C  
HETATM    9  C   UNL     1      -8.190  13.558  68.381  1.00  0.00    -0.141 A  
HETATM   10  C   UNL     1      -9.145  13.166  67.467  1.00  0.00    -0.205 A  
HETATM   11  S   UNL     1     -10.321  14.386  67.305  1.00  0.00    -0.261 SA 
HETATM   12  C   UNL     1      -9.123  11.883  66.696  1.00  0.00    -0.203 C  
HETATM   13  C   UNL     1      -9.465  15.340  68.461  1.00  0.00    -0.200 A  
HETATM   14  N   UNL     1      -9.896  16.557  68.831  1.00  0.00    -0.250 NA 
HETATM   15  N   UNL     1      -8.387  14.789  68.961  1.00  0.00    -0.165 NA 
HETATM   16  H1  UNL     1      -9.390  17.120  69.514  1.00  0.00     0.000 HD 
HETATM   17  H2  UNL     1     -10.751  16.927  68.418  1.00  0.00     0.000 HD 
ENDBRANCH   4   6
ENDBRANCH   3   4
ENDBRANCH   2   3
TORSDOF 3
ENDMDL
MODEL      211
REMARK 921   NORMALIZED FREE ENERGY PREDICTED BY IDOCK:   -2.24 KCAL/MOL
REMARK 922        TOTAL FREE ENERGY PREDICTED BY IDOCK:   -2.87 KCAL/MOL
REMARK 923 INTER-LIGAND FREE ENERGY PREDICTED BY IDOCK:   -2.59 KCAL/MOL
REMARK 924 INTRA-LIGAND FREE ENERGY PREDICTED BY IDOCK:   -0.28 KCAL/MOL
REMARK 927      BINDING AFFINITY PREDICTED BY RF-SCORE:    0.00 PKD
ROOT
HETATM    1  C   UNL     1      -6.389   7.160  66.451  1.00  0.00    -0.047 C  
HETATM    2  C   UNL     1      -5.947   8.122  65.356  1.00  0.00    -0.045 C  
ENDROOT
BRANCH   2   3
HETATM    3  C   UNL     1      -6.439   9.538  65.652  1.00  0.00    -0.071 C  
BRANCH   3   4
HETATM    4  N   UNL     1      -6.532   9.777  67.097  1.00  0.00    -0.069 NA 
HETATM    5  H   UNL     1      -5.617   9.983  67.498  1.00  0.00     0.000 HD 
BRANCH   4   6
HETATM    6  C   UNL     1      -7.510  10.835  67.424  1.00  0.00    -0.098 C  
HETATM    7  C   UNL     1      -6.945  12.257  67.158  1.00  0.00    -0.102 C  
HETATM    8  C   UNL     1      -7.907  13.341  67.667  1.00  0.00    -0.168 C  
HETATM    9  C   UNL     1      -9.296  13.070  67.216  1.00  0.00    -0.220 A  
HETATM   10  C   UNL     1      -9.710  11.838  66.760  1.00  0.00    -0.197 A  
HETATM   11  S   UNL     1     -11.356  11.906  66.333  1.00  0.00    -0.297 SA 
HETATM   12  C   UNL     1      -8.831  10.634  66.612  1.00  0.00    -0.149 C  
HETATM   13  C   UNL     1     -11.387  13.570  66.788  1.00  0.00    -0.328 A  
HETATM   14  N   UNL     1     -12.503  14.310  66.688  1.00  0.00    -0.543 NA 
HETATM   15  N   UNL     1     -10.260  14.050  67.252  1.00  0.00    -0.258 NA 
HETATM   16  H1  UNL     1     -12.521  15.293  66.957  1.00  0.00     0.000 HD 
HETATM   17  H2  UNL     1     -13.356  13.876  66.335  1.00  0.00     0.000 HD 
ENDBRANCH   4   6
ENDBRANCH   3   4
ENDBRANCH   2   3
TORSDOF 3
ENDMDL
MODEL      212
REMARK 921   NORMALIZED FREE ENERGY PREDICTED BY IDOCK:   -2.24 KCAL/MOL
REMARK 922        TOTAL FREE ENERGY PREDICTED BY IDOCK:   -2.87 KCAL/MOL
REMARK 923 INTER-LIGAND FREE ENERGY PREDICTED BY IDOCK:   -2.59 KCAL/MOL
REMARK 924 INTRA-LIGAND FREE ENERGY PREDICTED BY IDOCK:   -0.28 KCAL/MOL
REMARK 927      BINDING AFFINITY PREDICTED BY RF-SCORE:    0.00 PKD
ROOT
HETATM    1  C   UNL     1      -7.490   5.533  64.415  1.00  0.00    -0.068 C  
HETATM    2  C   UNL     1      -6.832   5.711  65.777  1.00  0.00    -0.057 C  
ENDROOT
BRANCH   2   3
HETATM    3  C   UNL     1      -6.982   7.152  66.264  1.00  0.00    -0.065 C  
BRANCH   3   4
HETATM    4  N   UNL     1      -8.251   7.735  65.814  1.00  0.00    -0.124 NA 
HETATM    5  H   UNL     1      -8.569   7.305  64.945  1.00  0.00     0.000 HD 
BRANCH   4   6
HETATM    6  C   UNL     1      -9.295   7.667  66.858  1.00  0.00    -0.161 C  
HETATM    7  C   UNL     1     -10.170   6.391  66.730  1.00  0.00    -0.259 C  
HETATM    8  C   UNL     1     -11.352   6.427  67.709  1.00  0.00    -0.072 C  
HETATM    9  C   UNL     1     -10.899   6.802  69.073  1.00  0.00    -0.249 A  
HETATM   10  C   UNL     1      -9.685   7.407  69.320  1.00  0.00    -0.165 A  
HETATM   11  S   UNL     1      -9.512   7.685  70.991  1.00  0.00    -0.158 SA 
HETATM   12  C   UNL     1      -8.654   7.725  68.283  1.00  0.00    -0.124 C  
HETATM   13  C   UNL     1     -11.063   6.976  71.252  1.00  0.00    -0.252 A  
HETATM   14  N   UNL     1     -11.591   6.864  72.481  1.00  0.00    -0.423 NA 
HETATM   15  N   UNL     1     -11.691   6.578  70.174  1.00  0.00    -0.411 NA 
HETATM   16  H1  UNL     1     -12.508   6.445  72.635  1.00  0.00     0.000 HD 
HETATM   17  H2  UNL     1     -11.062   7.208  73.282  1.00  0.00     0.000 HD 
ENDBRANCH   4   6
ENDBRANCH   3   4
ENDBRANCH   2   3
TORSDOF 3
ENDMDL
MODEL      213
REMARK 921   NORMALIZED FREE ENERGY PREDICTED BY IDOCK:   -2.22 KCAL/MOL
REMARK 922        TOTAL FREE ENERGY PREDICTED BY IDOCK:   -2.85 KCAL/MOL
REMARK 923 INTER-LIGAND FREE ENERGY PREDICTED BY IDOCK:   -2.63 KCAL/MOL
REMARK 924 INTRA-LIGAND FREE ENERGY PREDICTED BY IDOCK:   -0.21 KCAL/MOL
REMARK 927      BINDING AFFINITY PREDICTED BY RF-SCORE:    0.00 PKD
ROOT
HETATM    1  C   UNL     1     -14.124  12.758  72.771  1.00  0.00     0.560 C  
HETATM    2  C   UNL     1     -13.589  14.169  72.563  1.00  0.00    -0.644 C  
ENDROOT
BRANCH   2   3
HETATM    3  C   UNL     1     -13.312  14.427  71.082  1.00  0.00    -0.331 C  
BRANCH   3   4
HETATM    4  N   UNL     1     -12.986  15.838  70.840  1.00  0.00    -0.559 NA 
HETATM    5  H   UNL     1     -12.509  16.249  71.642  1.00  0.00     0.000 HD 
BRANCH   4   6
HETATM    6  C   UNL     1     -12.205  16.023  69.600  1.00  0.00    -0.001 C  
HETATM    7  C   UNL     1     -10.692  16.227  69.884  1.00  0.00    -0.322 C  
HETATM    8  C   UNL     1      -9.930  16.591  68.602  1.00  0.00    -0.248 C  
HETATM    9  C   UNL     1     -10.291  15.673  67.492  1.00  0.00    -0.277 A  
HETATM   10  C   UNL     1     -11.420  14.883  67.509  1.00  0.00    -0.348 A  
HETATM   11  S   UNL     1     -11.503  13.967  66.077  1.00  0.00    -0.352 SA 
HETATM   12  C   UNL     1     -12.399  14.804  68.639  1.00  0.00     0.005 C  
HETATM   13  C   UNL     1     -10.028  14.692  65.549  1.00  0.00    -0.352 A  
HETATM   14  N   UNL     1      -9.468  14.378  64.370  1.00  0.00     0.502 NA 
HETATM   15  N   UNL     1      -9.511  15.578  66.364  1.00  0.00    -0.266 NA 
HETATM   16  H1  UNL     1      -8.597  14.806  64.059  1.00  0.00     0.000 HD 
HETATM   17  H2  UNL     1      -9.926  13.692  63.770  1.00  0.00     0.000 HD 
ENDBRANCH   4   6
ENDBRANCH   3   4
ENDBRANCH   2   3
TORSDOF 3
ENDMDL
MODEL      214
REMARK 921   NORMALIZED FREE ENERGY PREDICTED BY IDOCK:   -2.22 KCAL/MOL
REMARK 922        TOTAL FREE ENERGY PREDICTED BY IDOCK:   -2.84 KCAL/MOL
REMARK 923 INTER-LIGAND FREE ENERGY PREDICTED BY IDOCK:   -2.56 KCAL/MOL
REMARK 924 INTRA-LIGAND FREE ENERGY PREDICTED BY IDOCK:   -0.29 KCAL/MOL
REMARK 927      BINDING AFFINITY PREDICTED BY RF-SCORE:    0.00 PKD
ROOT
HETATM    1  C   UNL     1      -8.333   5.453  62.980  1.00  0.00    -0.099 C  
HETATM    2  C   UNL     1      -8.691   4.687  64.247  1.00  0.00    -0.148 C  
ENDROOT
BRANCH   2   3
HETATM    3  C   UNL     1      -8.486   5.563  65.483  1.00  0.00    -0.144 C  
BRANCH   3   4
HETATM    4  N   UNL     1      -9.718   6.277  65.839  1.00  0.00    -0.382 NA 
HETATM    5  H   UNL     1     -10.138   5.890  66.685  1.00  0.00     0.000 HD 
BRANCH   4   6
HETATM    6  C   UNL     1      -9.500   7.732  65.967  1.00  0.00     0.012 C  
HETATM    7  C   UNL     1     -10.221   8.326  67.207  1.00  0.00    -0.344 C  
HETATM    8  C   UNL     1     -10.128   9.859  67.223  1.00  0.00    -0.264 C  
HETATM    9  C   UNL     1      -8.735  10.308  66.972  1.00  0.00    -0.129 A  
HETATM   10  C   UNL     1      -7.772   9.491  66.419  1.00  0.00    -0.097 A  
HETATM   11  S   UNL     1      -6.304  10.344  66.284  1.00  0.00    -0.107 SA 
HETATM   12  C   UNL     1      -7.972   8.056  66.042  1.00  0.00    -0.101 C  
HETATM   13  C   UNL     1      -7.067  11.730  66.974  1.00  0.00    -0.132 A  
HETATM   14  N   UNL     1      -6.399  12.877  67.173  1.00  0.00    -0.476 NA 
HETATM   15  N   UNL     1      -8.335  11.590  67.267  1.00  0.00    -0.147 NA 
HETATM   16  H1  UNL     1      -6.849  13.696  67.581  1.00  0.00     0.000 HD 
HETATM   17  H2  UNL     1      -5.415  12.931  66.910  1.00  0.00     0.000 HD 
ENDBRANCH   4   6
ENDBRANCH   3   4
ENDBRANCH   2   3
TORSDOF 3
ENDMDL
MODEL      215
REMARK 921   NORMALIZED FREE ENERGY PREDICTED BY IDOCK:   -2.21 KCAL/MOL
REMARK 922        TOTAL FREE ENERGY PREDICTED BY IDOCK:   -2.83 KCAL/MOL
REMARK 923 INTER-LIGAND FREE ENERGY PREDICTED BY IDOCK:   -2.59 KCAL/MOL
REMARK 924 INTRA-LIGAND FREE ENERGY PREDICTED BY IDOCK:   -0.24 KCAL/MOL
REMARK 927      BINDING AFFINITY PREDICTED BY RF-SCORE:    0.00 PKD
ROOT
HETATM    1  C   UNL     1     -10.516   5.436  70.428  1.00  0.00    -0.345 C  
HETATM    2  C   UNL     1     -10.329   6.940  70.574  1.00  0.00    -0.224 C  
ENDROOT
BRANCH   2   3
HETATM    3  C   UNL     1      -8.855   7.283  70.787  1.00  0.00    -0.150 C  
BRANCH   3   4
HETATM    4  N   UNL     1      -8.118   7.278  69.518  1.00  0.00    -0.127 NA 
HETATM    5  H   UNL     1      -7.964   6.327  69.184  1.00  0.00     0.000 HD 
BRANCH   4   6
HETATM    6  C   UNL     1      -8.781   8.106  68.489  1.00  0.00    -0.134 C  
HETATM    7  C   UNL     1      -8.790   9.612  68.865  1.00  0.00    -0.136 C  
HETATM    8  C   UNL     1      -9.633  10.428  67.874  1.00  0.00    -0.157 C  
HETATM    9  C   UNL     1      -9.283  10.083  66.472  1.00  0.00    -0.150 A  
HETATM   10  C   UNL     1      -8.602   8.935  66.129  1.00  0.00    -0.140 A  
HETATM   11  S   UNL     1      -8.380   8.880  64.442  1.00  0.00    -0.150 SA 
HETATM   12  C   UNL     1      -8.090   7.915  67.099  1.00  0.00    -0.117 C  
HETATM   13  C   UNL     1      -9.205  10.389  64.303  1.00  0.00    -0.255 A  
HETATM   14  N   UNL     1      -9.397  10.982  63.113  1.00  0.00    -0.296 NA 
HETATM   15  N   UNL     1      -9.644  10.899  65.426  1.00  0.00    -0.212 NA 
HETATM   16  H1  UNL     1      -9.884  11.874  63.031  1.00  0.00     0.000 HD 
HETATM   17  H2  UNL     1      -9.046  10.528  62.270  1.00  0.00     0.000 HD 
ENDBRANCH   4   6
ENDBRANCH   3   4
ENDBRANCH   2   3
TORSDOF 3
ENDMDL
MODEL      216
REMARK 921   NORMALIZED FREE ENERGY PREDICTED BY IDOCK:   -2.21 KCAL/MOL
REMARK 922        TOTAL FREE ENERGY PREDICTED BY IDOCK:   -2.83 KCAL/MOL
REMARK 923 INTER-LIGAND FREE ENERGY PREDICTED BY IDOCK:   -2.70 KCAL/MOL
REMARK 924 INTRA-LIGAND FREE ENERGY PREDICTED BY IDOCK:   -0.13 KCAL/MOL
REMARK 927      BINDING AFFINITY PREDICTED BY RF-SCORE:    0.00 PKD
ROOT
HETATM    1  C   UNL     1     -12.808  10.144  71.145  1.00  0.00    -0.494 C  
HETATM    2  C   UNL     1     -13.063   8.645  71.237  1.00  0.00    -0.192 C  
ENDROOT
BRANCH   2   3
HETATM    3  C   UNL     1     -12.016   7.974  72.126  1.00  0.00    -0.348 C  
BRANCH   3   4
HETATM    4  N   UNL     1     -12.135   6.512  72.076  1.00  0.00    -0.401 NA 
HETATM    5  H   UNL     1     -12.699   6.214  71.280  1.00  0.00     0.000 HD 
BRANCH   4   6
HETATM    6  C   UNL     1     -10.815   5.847  72.076  1.00  0.00    -0.252 C  
HETATM    7  C   UNL     1     -10.607   4.958  73.332  1.00  0.00    -0.296 C  
HETATM    8  C   UNL     1      -9.171   4.419  73.400  1.00  0.00    -0.119 C  
HETATM    9  C   UNL     1      -8.757   3.849  72.092  1.00  0.00    -0.104 A  
HETATM   10  C   UNL     1      -9.412   4.126  70.912  1.00  0.00    -0.162 A  
HETATM   11  S   UNL     1      -8.659   3.299  69.629  1.00  0.00    -0.071 SA 
HETATM   12  C   UNL     1     -10.633   4.984  70.785  1.00  0.00    -0.148 C  
HETATM   13  C   UNL     1      -7.523   2.637  70.746  1.00  0.00    -0.036 A  
HETATM   14  N   UNL     1      -6.547   1.804  70.351  1.00  0.00    -0.024 NA 
HETATM   15  N   UNL     1      -7.667   3.017  71.990  1.00  0.00    -0.053 NA 
HETATM   16  H1  UNL     1      -5.875   1.412  71.011  1.00  0.00     0.000 HD 
HETATM   17  H2  UNL     1      -6.475   1.556  69.364  1.00  0.00     0.000 HD 
ENDBRANCH   4   6
ENDBRANCH   3   4
ENDBRANCH   2   3
TORSDOF 3
ENDMDL
MODEL      217
REMARK 921   NORMALIZED FREE ENERGY PREDICTED BY IDOCK:   -2.19 KCAL/MOL
REMARK 922        TOTAL FREE ENERGY PREDICTED BY IDOCK:   -2.81 KCAL/MOL
REMARK 923 INTER-LIGAND FREE ENERGY PREDICTED BY IDOCK:   -2.59 KCAL/MOL
REMARK 924 INTRA-LIGAND FREE ENERGY PREDICTED BY IDOCK:   -0.22 KCAL/MOL
REMARK 927      BINDING AFFINITY PREDICTED BY RF-SCORE:    0.00 PKD
ROOT
HETATM    1  C   UNL     1      -8.132   7.696  62.534  1.00  0.00    -0.118 C  
HETATM    2  C   UNL     1      -7.684   8.439  63.786  1.00  0.00    -0.144 C  
ENDROOT
BRANCH   2   3
HETATM    3  C   UNL     1      -7.939   7.595  65.034  1.00  0.00    -0.131 C  
BRANCH   3   4
HETATM    4  N   UNL     1      -7.124   8.058  66.164  1.00  0.00    -0.062 NA 
HETATM    5  H   UNL     1      -6.659   8.940  65.948  1.00  0.00     0.000 HD 
BRANCH   4   6
HETATM    6  C   UNL     1      -7.910   8.159  67.411  1.00  0.00    -0.106 C  
HETATM    7  C   UNL     1      -8.807   9.426  67.438  1.00  0.00    -0.135 C  
HETATM    8  C   UNL     1      -9.478   9.604  68.807  1.00  0.00    -0.148 C  
HETATM    9  C   UNL     1     -10.092   8.332  69.265  1.00  0.00    -0.199 A  
HETATM   10  C   UNL     1      -9.762   7.104  68.731  1.00  0.00    -0.145 A  
HETATM   11  S   UNL     1     -10.665   5.882  69.499  1.00  0.00    -0.359 SA 
HETATM   12  C   UNL     1      -8.795   6.885  67.610  1.00  0.00    -0.118 C  
HETATM   13  C   UNL     1     -11.424   7.083  70.479  1.00  0.00    -0.319 A  
HETATM   14  N   UNL     1     -12.347   6.763  71.399  1.00  0.00    -0.364 NA 
HETATM   15  N   UNL     1     -11.024   8.313  70.276  1.00  0.00    -0.241 NA 
HETATM   16  H1  UNL     1     -12.796   7.473  71.978  1.00  0.00     0.000 HD 
HETATM   17  H2  UNL     1     -12.607   5.785  71.523  1.00  0.00     0.000 HD 
ENDBRANCH   4   6
ENDBRANCH   3   4
ENDBRANCH   2   3
TORSDOF 3
ENDMDL
MODEL      218
REMARK 921   NORMALIZED FREE ENERGY PREDICTED BY IDOCK:   -2.19 KCAL/MOL
REMARK 922        TOTAL FREE ENERGY PREDICTED BY IDOCK:   -2.81 KCAL/MOL
REMARK 923 INTER-LIGAND FREE ENERGY PREDICTED BY IDOCK:   -2.52 KCAL/MOL
REMARK 924 INTRA-LIGAND FREE ENERGY PREDICTED BY IDOCK:   -0.29 KCAL/MOL
REMARK 927      BINDING AFFINITY PREDICTED BY RF-SCORE:    0.00 PKD
ROOT
HETATM    1  C   UNL     1      -7.402   9.794  64.903  1.00  0.00    -0.129 C  
HETATM    2  C   UNL     1      -8.860   9.533  65.255  1.00  0.00    -0.220 C  
ENDROOT
BRANCH   2   3
HETATM    3  C   UNL     1      -9.543  10.821  65.714  1.00  0.00    -0.208 C  
BRANCH   3   4
HETATM    4  N   UNL     1      -9.963  10.730  67.118  1.00  0.00    -0.188 NA 
HETATM    5  H   UNL     1     -10.968  10.871  67.213  1.00  0.00     0.000 HD 
BRANCH   4   6
HETATM    6  C   UNL     1      -9.539   9.459  67.742  1.00  0.00    -0.134 C  
HETATM    7  C   UNL     1      -8.405   9.667  68.782  1.00  0.00    -0.111 C  
HETATM    8  C   UNL     1      -7.861   8.323  69.287  1.00  0.00    -0.108 C  
HETATM    9  C   UNL     1      -8.971   7.413  69.670  1.00  0.00    -0.141 A  
HETATM   10  C   UNL     1     -10.273   7.602  69.258  1.00  0.00    -0.210 A  
HETATM   11  S   UNL     1     -11.261   6.368  69.890  1.00  0.00    -0.437 SA 
HETATM   12  C   UNL     1     -10.754   8.748  68.424  1.00  0.00    -0.112 C  
HETATM   13  C   UNL     1      -9.879   5.682  70.663  1.00  0.00    -0.187 A  
HETATM   14  N   UNL     1      -9.967   4.570  71.411  1.00  0.00    -0.192 NA 
HETATM   15  N   UNL     1      -8.746   6.305  70.453  1.00  0.00    -0.145 NA 
HETATM   16  H1  UNL     1      -9.150   4.165  71.868  1.00  0.00     0.000 HD 
HETATM   17  H2  UNL     1     -10.874   4.120  71.526  1.00  0.00     0.000 HD 
ENDBRANCH   4   6
ENDBRANCH   3   4
ENDBRANCH   2   3
TORSDOF 3
ENDMDL
MODEL      219
REMARK 921   NORMALIZED FREE ENERGY PREDICTED BY IDOCK:   -2.12 KCAL/MOL
REMARK 922        TOTAL FREE ENERGY PREDICTED BY IDOCK:   -2.73 KCAL/MOL
REMARK 923 INTER-LIGAND FREE ENERGY PREDICTED BY IDOCK:   -2.47 KCAL/MOL
REMARK 924 INTRA-LIGAND FREE ENERGY PREDICTED BY IDOCK:   -0.25 KCAL/MOL
REMARK 927      BINDING AFFINITY PREDICTED BY RF-SCORE:    0.00 PKD
ROOT
HETATM    1  C   UNL     1      -6.423   9.722  64.742  1.00  0.00    -0.108 C  
HETATM    2  C   UNL     1      -7.140   9.678  66.085  1.00  0.00    -0.094 C  
ENDROOT
BRANCH   2   3
HETATM    3  C   UNL     1      -6.548  10.708  67.047  1.00  0.00    -0.081 C  
BRANCH   3   4
HETATM    4  N   UNL     1      -6.540  10.205  68.426  1.00  0.00    -0.053 NA 
HETATM    5  H   UNL     1      -6.369  10.957  69.092  1.00  0.00     0.000 HD 
BRANCH   4   6
HETATM    6  C   UNL     1      -7.778   9.468  68.755  1.00  0.00    -0.080 C  
HETATM    7  C   UNL     1      -7.515   8.284  69.724  1.00  0.00    -0.077 C  
HETATM    8  C   UNL     1      -8.777   7.430  69.913  1.00  0.00    -0.141 C  
HETATM    9  C   UNL     1      -9.958   8.285  70.195  1.00  0.00    -0.187 A  
HETATM   10  C   UNL     1      -9.986   9.637  69.930  1.00  0.00    -0.241 A  
HETATM   11  S   UNL     1     -11.496  10.281  70.382  1.00  0.00    -0.354 SA 
HETATM   12  C   UNL     1      -8.844  10.430  69.376  1.00  0.00    -0.138 C  
HETATM   13  C   UNL     1     -11.991   8.710  70.897  1.00  0.00    -0.191 A  
HETATM   14  N   UNL     1     -13.209   8.488  71.417  1.00  0.00    -0.477 NA 
HETATM   15  N   UNL     1     -11.111   7.755  70.726  1.00  0.00    -0.254 NA 
HETATM   16  H1  UNL     1     -13.501   7.559  71.722  1.00  0.00     0.000 HD 
HETATM   17  H2  UNL     1     -13.858   9.268  71.511  1.00  0.00     0.000 HD 
ENDBRANCH   4   6
ENDBRANCH   3   4
ENDBRANCH   2   3
TORSDOF 3
ENDMDL
MODEL      220
REMARK 921   NORMALIZED FREE ENERGY PREDICTED BY IDOCK:   -2.11 KCAL/MOL
REMARK 922        TOTAL FREE ENERGY PREDICTED BY IDOCK:   -2.72 KCAL/MOL
REMARK 923 INTER-LIGAND FREE ENERGY PREDICTED BY IDOCK:   -2.68 KCAL/MOL
REMARK 924 INTRA-LIGAND FREE ENERGY PREDICTED BY IDOCK:   -0.04 KCAL/MOL
REMARK 927      BINDING AFFINITY PREDICTED BY RF-SCORE:    0.00 PKD
ROOT
HETATM    1  C   UNL     1      -9.133  20.639  67.378  1.00  0.00    -0.392 C  
HETATM    2  C   UNL     1      -9.880  20.486  66.060  1.00  0.00    -0.108 C  
ENDROOT
BRANCH   2   3
HETATM    3  C   UNL     1      -9.650  19.096  65.469  1.00  0.00     0.724 C  
BRANCH   3   4
HETATM    4  N   UNL     1      -8.365  18.537  65.907  1.00  0.00    -0.475 NA 
HETATM    5  H   UNL     1      -7.799  19.241  66.381  1.00  0.00     0.000 HD 
BRANCH   4   6
HETATM    6  C   UNL     1      -8.541  17.335  66.749  1.00  0.00    -0.249 C  
HETATM    7  C   UNL     1      -8.203  17.609  68.239  1.00  0.00    -0.276 C  
HETATM    8  C   UNL     1      -8.221  16.312  69.060  1.00  0.00    -0.238 C  
HETATM    9  C   UNL     1      -9.448  15.524  68.779  1.00  0.00    -0.210 A  
HETATM   10  C   UNL     1     -10.236  15.734  67.668  1.00  0.00    -0.266 A  
HETATM   11  S   UNL     1     -11.550  14.651  67.682  1.00  0.00    -0.362 SA 
HETATM   12  C   UNL     1     -10.001  16.789  66.632  1.00  0.00    -0.300 C  
HETATM   13  C   UNL     1     -10.966  13.991  69.166  1.00  0.00    -0.230 A  
HETATM   14  N   UNL     1     -11.606  12.991  69.795  1.00  0.00    -0.470 NA 
HETATM   15  N   UNL     1      -9.856  14.515  69.620  1.00  0.00     0.168 NA 
HETATM   16  H1  UNL     1     -11.262  12.602  70.672  1.00  0.00     0.000 HD 
HETATM   17  H2  UNL     1     -12.459  12.613  69.384  1.00  0.00     0.000 HD 
ENDBRANCH   4   6
ENDBRANCH   3   4
ENDBRANCH   2   3
TORSDOF 3
ENDMDL
MODEL      221
REMARK 921   NORMALIZED FREE ENERGY PREDICTED BY IDOCK:   -2.10 KCAL/MOL
REMARK 922        TOTAL FREE ENERGY PREDICTED BY IDOCK:   -2.71 KCAL/MOL
REMARK 923 INTER-LIGAND FREE ENERGY PREDICTED BY IDOCK:   -2.43 KCAL/MOL
REMARK 924 INTRA-LIGAND FREE ENERGY PREDICTED BY IDOCK:   -0.28 KCAL/MOL
REMARK 927      BINDING AFFINITY PREDICTED BY RF-SCORE:    0.00 PKD
ROOT
HETATM    1  C   UNL     1      -6.101  10.133  63.283  1.00  0.00    -0.142 C  
HETATM    2  C   UNL     1      -6.307   8.624  63.315  1.00  0.00    -0.086 C  
ENDROOT
BRANCH   2   3
HETATM    3  C   UNL     1      -7.263   8.234  64.442  1.00  0.00    -0.088 C  
BRANCH   3   4
HETATM    4  N   UNL     1      -8.442   9.108  64.465  1.00  0.00    -0.173 NA 
HETATM    5  H   UNL     1      -9.092   8.871  63.716  1.00  0.00     0.000 HD 
BRANCH   4   6
HETATM    6  C   UNL     1      -9.114   9.099  65.781  1.00  0.00    -0.213 C  
HETATM    7  C   UNL     1      -9.739   7.716  66.111  1.00  0.00    -0.030 C  
HETATM    8  C   UNL     1     -10.579   7.778  67.394  1.00  0.00    -0.345 C  
HETATM    9  C   UNL     1      -9.834   8.460  68.483  1.00  0.00    -0.173 A  
HETATM   10  C   UNL     1      -8.733   9.257  68.253  1.00  0.00    -0.129 A  
HETATM   11  S   UNL     1      -8.146   9.865  69.731  1.00  0.00    -0.177 SA 
HETATM   12  C   UNL     1      -8.117   9.509  66.913  1.00  0.00    -0.109 C  
HETATM   13  C   UNL     1      -9.401   9.017  70.558  1.00  0.00    -0.219 A  
HETATM   14  N   UNL     1      -9.527   9.069  71.894  1.00  0.00    -0.344 NA 
HETATM   15  N   UNL     1     -10.225   8.343  69.796  1.00  0.00    -0.202 NA 
HETATM   16  H1  UNL     1     -10.269   8.568  72.383  1.00  0.00     0.000 HD 
HETATM   17  H2  UNL     1      -8.864   9.625  72.434  1.00  0.00     0.000 HD 
ENDBRANCH   4   6
ENDBRANCH   3   4
ENDBRANCH   2   3
TORSDOF 3
ENDMDL
MODEL      222
REMARK 921   NORMALIZED FREE ENERGY PREDICTED BY IDOCK:   -2.09 KCAL/MOL
REMARK 922        TOTAL FREE ENERGY PREDICTED BY IDOCK:   -2.69 KCAL/MOL
REMARK 923 INTER-LIGAND FREE ENERGY PREDICTED BY IDOCK:   -2.48 KCAL/MOL
REMARK 924 INTRA-LIGAND FREE ENERGY PREDICTED BY IDOCK:   -0.21 KCAL/MOL
REMARK 927      BINDING AFFINITY PREDICTED BY RF-SCORE:    0.00 PKD
ROOT
HETATM    1  C   UNL     1     -10.988   4.727  73.862  1.00  0.00    -0.325 C  
HETATM    2  C   UNL     1     -10.237   3.511  73.335  1.00  0.00    -0.222 C  
ENDROOT
BRANCH   2   3
HETATM    3  C   UNL     1      -9.904   3.684  71.853  1.00  0.00    -0.171 C  
BRANCH   3   4
HETATM    4  N   UNL     1      -8.540   4.195  71.671  1.00  0.00    -0.105 NA 
HETATM    5  H   UNL     1      -8.082   3.750  70.876  1.00  0.00     0.000 HD 
BRANCH   4   6
HETATM    6  C   UNL     1      -8.509   5.667  71.552  1.00  0.00    -0.128 C  
HETATM    7  C   UNL     1      -7.082   6.202  71.259  1.00  0.00    -0.077 C  
HETATM    8  C   UNL     1      -7.040   7.736  71.314  1.00  0.00    -0.057 C  
HETATM    9  C   UNL     1      -8.157   8.324  70.531  1.00  0.00    -0.105 A  
HETATM   10  C   UNL     1      -9.271   7.604  70.155  1.00  0.00    -0.154 A  
HETATM   11  S   UNL     1     -10.330   8.604  69.273  1.00  0.00    -0.219 SA 
HETATM   12  C   UNL     1      -9.492   6.151  70.436  1.00  0.00    -0.179 C  
HETATM   13  C   UNL     1      -9.221   9.913  69.459  1.00  0.00    -0.223 A  
HETATM   14  N   UNL     1      -9.469  11.127  68.943  1.00  0.00    -0.338 NA 
HETATM   15  N   UNL     1      -8.142   9.646  70.151  1.00  0.00    -0.177 NA 
HETATM   16  H1  UNL     1      -8.814  11.901  69.053  1.00  0.00     0.000 HD 
HETATM   17  H2  UNL     1     -10.335  11.280  68.427  1.00  0.00     0.000 HD 
ENDBRANCH   4   6
ENDBRANCH   3   4
ENDBRANCH   2   3
TORSDOF 3
ENDMDL
MODEL      223
REMARK 921   NORMALIZED FREE ENERGY PREDICTED BY IDOCK:   -2.08 KCAL/MOL
REMARK 922        TOTAL FREE ENERGY PREDICTED BY IDOCK:   -2.68 KCAL/MOL
REMARK 923 INTER-LIGAND FREE ENERGY PREDICTED BY IDOCK:   -2.41 KCAL/MOL
REMARK 924 INTRA-LIGAND FREE ENERGY PREDICTED BY IDOCK:   -0.27 KCAL/MOL
REMARK 927      BINDING AFFINITY PREDICTED BY RF-SCORE:    0.00 PKD
ROOT
HETATM    1  C   UNL     1     -11.546  13.030  66.391  1.00  0.00    -0.413 C  
HETATM    2  C   UNL     1     -10.417  12.010  66.310  1.00  0.00    -0.273 C  
ENDROOT
BRANCH   2   3
HETATM    3  C   UNL     1      -9.073  12.669  66.617  1.00  0.00    -0.193 C  
BRANCH   3   4
HETATM    4  N   UNL     1      -7.976  11.695  66.550  1.00  0.00    -0.332 NA 
HETATM    5  H   UNL     1      -7.206  11.963  67.162  1.00  0.00     0.000 HD 
BRANCH   4   6
HETATM    6  C   UNL     1      -8.435  10.320  66.836  1.00  0.00    -0.126 C  
HETATM    7  C   UNL     1      -7.814   9.281  65.865  1.00  0.00    -0.099 C  
HETATM    8  C   UNL     1      -8.436   7.891  66.065  1.00  0.00    -0.145 C  
HETATM    9  C   UNL     1      -8.476   7.532  67.506  1.00  0.00    -0.119 A  
HETATM   10  C   UNL     1      -8.345   8.461  68.515  1.00  0.00    -0.131 A  
HETATM   11  S   UNL     1      -8.439   7.685  70.027  1.00  0.00    -0.137 SA 
HETATM   12  C   UNL     1      -8.105   9.925  68.312  1.00  0.00    -0.104 C  
HETATM   13  C   UNL     1      -8.644   6.174  69.218  1.00  0.00    -0.119 A  
HETATM   14  N   UNL     1      -8.790   5.024  69.896  1.00  0.00    -0.100 NA 
HETATM   15  N   UNL     1      -8.668   6.232  67.910  1.00  0.00    -0.115 NA 
HETATM   16  H1  UNL     1      -8.911   4.131  69.418  1.00  0.00     0.000 HD 
HETATM   17  H2  UNL     1      -8.779   5.044  70.915  1.00  0.00     0.000 HD 
ENDBRANCH   4   6
ENDBRANCH   3   4
ENDBRANCH   2   3
TORSDOF 3
ENDMDL
MODEL      224
REMARK 921   NORMALIZED FREE ENERGY PREDICTED BY IDOCK:   -2.05 KCAL/MOL
REMARK 922        TOTAL FREE ENERGY PREDICTED BY IDOCK:   -2.65 KCAL/MOL
REMARK 923 INTER-LIGAND FREE ENERGY PREDICTED BY IDOCK:   -2.41 KCAL/MOL
REMARK 924 INTRA-LIGAND FREE ENERGY PREDICTED BY IDOCK:   -0.25 KCAL/MOL
REMARK 927      BINDING AFFINITY PREDICTED BY RF-SCORE:    0.00 PKD
ROOT
HETATM    1  C   UNL     1      -8.471   8.595  62.533  1.00  0.00    -0.179 C  
HETATM    2  C   UNL     1      -8.852  10.046  62.794  1.00  0.00    -0.242 C  
ENDROOT
BRANCH   2   3
HETATM    3  C   UNL     1      -9.577  10.181  64.133  1.00  0.00    -0.272 C  
BRANCH   3   4
HETATM    4  N   UNL     1      -9.107  11.356  64.876  1.00  0.00    -0.407 NA 
HETATM    5  H   UNL     1      -9.785  12.117  64.831  1.00  0.00     0.000 HD 
BRANCH   4   6
HETATM    6  C   UNL     1      -8.763  11.028  66.275  1.00  0.00    -0.176 C  
HETATM    7  C   UNL     1      -8.220   9.580  66.420  1.00  0.00    -0.115 C  
HETATM    8  C   UNL     1      -8.036   9.202  67.897  1.00  0.00    -0.101 C  
HETATM    9  C   UNL     1      -7.314  10.271  68.632  1.00  0.00    -0.083 A  
HETATM   10  C   UNL     1      -7.191  11.559  68.154  1.00  0.00    -0.080 A  
HETATM   11  S   UNL     1      -6.303  12.500  69.260  1.00  0.00    -0.110 SA 
HETATM   12  C   UNL     1      -7.714  12.042  66.837  1.00  0.00    -0.078 C  
HETATM   13  C   UNL     1      -6.151  11.120  70.285  1.00  0.00    -0.144 A  
HETATM   14  N   UNL     1      -5.490  11.177  71.453  1.00  0.00    -0.337 NA 
HETATM   15  N   UNL     1      -6.739  10.031  69.857  1.00  0.00    -0.083 NA 
HETATM   16  H1  UNL     1      -5.400  10.361  72.058  1.00  0.00     0.000 HD 
HETATM   17  H2  UNL     1      -5.067  12.058  71.741  1.00  0.00     0.000 HD 
ENDBRANCH   4   6
ENDBRANCH   3   4
ENDBRANCH   2   3
TORSDOF 3
ENDMDL
MODEL      225
REMARK 921   NORMALIZED FREE ENERGY PREDICTED BY IDOCK:   -2.05 KCAL/MOL
REMARK 922        TOTAL FREE ENERGY PREDICTED BY IDOCK:   -2.64 KCAL/MOL
REMARK 923 INTER-LIGAND FREE ENERGY PREDICTED BY IDOCK:   -2.41 KCAL/MOL
REMARK 924 INTRA-LIGAND FREE ENERGY PREDICTED BY IDOCK:   -0.23 KCAL/MOL
REMARK 927      BINDING AFFINITY PREDICTED BY RF-SCORE:    0.00 PKD
ROOT
HETATM    1  C   UNL     1      -8.971  10.035  66.252  1.00  0.00    -0.170 C  
HETATM    2  C   UNL     1     -10.385   9.978  66.816  1.00  0.00    -0.283 C  
ENDROOT
BRANCH   2   3
HETATM    3  C   UNL     1     -10.530   8.810  67.792  1.00  0.00    -0.229 C  
BRANCH   3   4
HETATM    4  N   UNL     1      -9.246   8.131  68.002  1.00  0.00    -0.133 NA 
HETATM    5  H   UNL     1      -8.477   8.800  68.044  1.00  0.00     0.000 HD 
BRANCH   4   6
HETATM    6  C   UNL     1      -9.266   7.262  69.196  1.00  0.00    -0.139 C  
HETATM    7  C   UNL     1     -10.418   7.630  70.170  1.00  0.00    -0.227 C  
HETATM    8  C   UNL     1     -10.314   6.836  71.480  1.00  0.00    -0.228 C  
HETATM    9  C   UNL     1     -10.095   5.392  71.208  1.00  0.00    -0.209 A  
HETATM   10  C   UNL     1      -9.656   4.916  69.991  1.00  0.00    -0.191 A  
HETATM   11  S   UNL     1      -9.524   3.220  70.051  1.00  0.00    -0.123 SA 
HETATM   12  C   UNL     1      -9.388   5.758  68.783  1.00  0.00    -0.135 C  
HETATM   13  C   UNL     1     -10.062   3.254  71.690  1.00  0.00    -0.017 A  
HETATM   14  N   UNL     1     -10.200   2.130  72.412  1.00  0.00    -0.156 NA 
HETATM   15  N   UNL     1     -10.304   4.444  72.181  1.00  0.00    -0.174 NA 
HETATM   16  H1  UNL     1     -10.518   2.151  73.381  1.00  0.00     0.000 HD 
HETATM   17  H2  UNL     1      -9.981   1.233  71.980  1.00  0.00     0.000 HD 
ENDBRANCH   4   6
ENDBRANCH   3   4
ENDBRANCH   2   3
TORSDOF 3
ENDMDL
MODEL      226
REMARK 921   NORMALIZED FREE ENERGY PREDICTED BY IDOCK:   -2.03 KCAL/MOL
REMARK 922        TOTAL FREE ENERGY PREDICTED BY IDOCK:   -2.62 KCAL/MOL
REMARK 923 INTER-LIGAND FREE ENERGY PREDICTED BY IDOCK:   -2.46 KCAL/MOL
REMARK 924 INTRA-LIGAND FREE ENERGY PREDICTED BY IDOCK:   -0.17 KCAL/MOL
REMARK 927      BINDING AFFINITY PREDICTED BY RF-SCORE:    0.00 PKD
ROOT
HETATM    1  C   UNL     1     -13.557  14.816  71.857  1.00  0.00    -0.492 C  
HETATM    2  C   UNL     1     -12.038  14.732  71.796  1.00  0.00    -0.417 C  
ENDROOT
BRANCH   2   3
HETATM    3  C   UNL     1     -11.513  15.383  70.516  1.00  0.00    -0.327 C  
BRANCH   3   4
HETATM    4  N   UNL     1     -11.218  14.376  69.490  1.00  0.00    -0.257 NA 
HETATM    5  H   UNL     1     -11.966  14.323  68.799  1.00  0.00     0.000 HD 
BRANCH   4   6
HETATM    6  C   UNL     1      -9.909  14.608  68.845  1.00  0.00    -0.211 C  
HETATM    7  C   UNL     1      -9.791  13.881  67.478  1.00  0.00    -0.236 C  
HETATM    8  C   UNL     1      -8.369  13.989  66.911  1.00  0.00    -0.043 C  
HETATM    9  C   UNL     1      -7.878  15.389  66.976  1.00  0.00    -0.209 A  
HETATM   10  C   UNL     1      -8.453  16.349  67.781  1.00  0.00    -0.167 A  
HETATM   11  S   UNL     1      -7.628  17.826  67.592  1.00  0.00    -0.212 SA 
HETATM   12  C   UNL     1      -9.653  16.138  68.650  1.00  0.00    -0.226 C  
HETATM   13  C   UNL     1      -6.573  17.071  66.453  1.00  0.00    -0.166 A  
HETATM   14  N   UNL     1      -5.583  17.749  65.850  1.00  0.00    -0.200 NA 
HETATM   15  N   UNL     1      -6.793  15.799  66.237  1.00  0.00     0.708 NA 
HETATM   16  H1  UNL     1      -4.960  17.302  65.177  1.00  0.00     0.000 HD 
HETATM   17  H2  UNL     1      -5.450  18.735  66.071  1.00  0.00     0.000 HD 
ENDBRANCH   4   6
ENDBRANCH   3   4
ENDBRANCH   2   3
TORSDOF 3
ENDMDL
MODEL      227
REMARK 921   NORMALIZED FREE ENERGY PREDICTED BY IDOCK:   -2.03 KCAL/MOL
REMARK 922        TOTAL FREE ENERGY PREDICTED BY IDOCK:   -2.62 KCAL/MOL
REMARK 923 INTER-LIGAND FREE ENERGY PREDICTED BY IDOCK:   -2.43 KCAL/MOL
REMARK 924 INTRA-LIGAND FREE ENERGY PREDICTED BY IDOCK:   -0.19 KCAL/MOL
REMARK 927      BINDING AFFINITY PREDICTED BY RF-SCORE:    0.00 PKD
ROOT
HETATM    1  C   UNL     1      -8.163   4.766  63.663  1.00  0.00    -0.112 C  
HETATM    2  C   UNL     1      -8.479   3.892  64.870  1.00  0.00    -0.109 C  
ENDROOT
BRANCH   2   3
HETATM    3  C   UNL     1      -8.541   4.734  66.144  1.00  0.00    -0.115 C  
BRANCH   3   4
HETATM    4  N   UNL     1      -7.744   4.131  67.219  1.00  0.00    -0.087 NA 
HETATM    5  H   UNL     1      -6.802   4.521  67.244  1.00  0.00     0.000 HD 
BRANCH   4   6
HETATM    6  C   UNL     1      -8.407   4.246  68.534  1.00  0.00    -0.084 C  
HETATM    7  C   UNL     1      -7.403   4.585  69.669  1.00  0.00    -0.051 C  
HETATM    8  C   UNL     1      -8.079   4.527  71.045  1.00  0.00    -0.081 C  
HETATM    9  C   UNL     1      -9.365   5.270  71.036  1.00  0.00    -0.150 A  
HETATM   10  C   UNL     1     -10.026   5.611  69.875  1.00  0.00    -0.204 A  
HETATM   11  S   UNL     1     -11.456   6.453  70.254  1.00  0.00    -0.362 SA 
HETATM   12  C   UNL     1      -9.536   5.327  68.490  1.00  0.00    -0.166 C  
HETATM   13  C   UNL     1     -11.080   6.301  71.931  1.00  0.00    -0.268 A  
HETATM   14  N   UNL     1     -11.882   6.805  72.884  1.00  0.00    -0.472 NA 
HETATM   15  N   UNL     1      -9.980   5.646  72.207  1.00  0.00    -0.170 NA 
HETATM   16  H1  UNL     1     -11.659   6.714  73.875  1.00  0.00     0.000 HD 
HETATM   17  H2  UNL     1     -12.735   7.291  72.609  1.00  0.00     0.000 HD 
ENDBRANCH   4   6
ENDBRANCH   3   4
ENDBRANCH   2   3
TORSDOF 3
ENDMDL
MODEL      228
REMARK 921   NORMALIZED FREE ENERGY PREDICTED BY IDOCK:   -2.00 KCAL/MOL
REMARK 922        TOTAL FREE ENERGY PREDICTED BY IDOCK:   -2.59 KCAL/MOL
REMARK 923 INTER-LIGAND FREE ENERGY PREDICTED BY IDOCK:   -2.35 KCAL/MOL
REMARK 924 INTRA-LIGAND FREE ENERGY PREDICTED BY IDOCK:   -0.24 KCAL/MOL
REMARK 927      BINDING AFFINITY PREDICTED BY RF-SCORE:    0.00 PKD
ROOT
HETATM    1  C   UNL     1      -7.819   2.817  63.016  1.00  0.00    -0.068 C  
HETATM    2  C   UNL     1      -9.175   2.240  63.400  1.00  0.00    -0.093 C  
ENDROOT
BRANCH   2   3
HETATM    3  C   UNL     1      -9.673   2.857  64.706  1.00  0.00    -0.053 C  
BRANCH   3   4
HETATM    4  N   UNL     1      -8.554   3.203  65.591  1.00  0.00    -0.108 NA 
HETATM    5  H   UNL     1      -7.710   3.407  65.057  1.00  0.00     0.000 HD 
BRANCH   4   6
HETATM    6  C   UNL     1      -8.892   4.314  66.505  1.00  0.00    -0.116 C  
HETATM    7  C   UNL     1     -10.281   4.931  66.189  1.00  0.00    -0.309 C  
HETATM    8  C   UNL     1     -10.534   6.190  67.030  1.00  0.00    -0.341 C  
HETATM    9  C   UNL     1     -10.212   5.946  68.460  1.00  0.00    -0.192 A  
HETATM   10  C   UNL     1      -9.435   4.889  68.883  1.00  0.00    -0.143 A  
HETATM   11  S   UNL     1      -9.284   4.931  70.579  1.00  0.00    -0.152 SA 
HETATM   12  C   UNL     1      -8.855   3.835  67.993  1.00  0.00    -0.141 C  
HETATM   13  C   UNL     1     -10.266   6.349  70.613  1.00  0.00    -0.190 A  
HETATM   14  N   UNL     1     -10.576   6.966  71.765  1.00  0.00    -0.211 NA 
HETATM   15  N   UNL     1     -10.666   6.789  69.447  1.00  0.00    -0.238 NA 
HETATM   16  H1  UNL     1     -11.156   7.805  71.786  1.00  0.00     0.000 HD 
HETATM   17  H2  UNL     1     -10.222   6.586  72.643  1.00  0.00     0.000 HD 
ENDBRANCH   4   6
ENDBRANCH   3   4
ENDBRANCH   2   3
TORSDOF 3
ENDMDL
MODEL      229
REMARK 921   NORMALIZED FREE ENERGY PREDICTED BY IDOCK:   -2.00 KCAL/MOL
REMARK 922        TOTAL FREE ENERGY PREDICTED BY IDOCK:   -2.59 KCAL/MOL
REMARK 923 INTER-LIGAND FREE ENERGY PREDICTED BY IDOCK:   -2.32 KCAL/MOL
REMARK 924 INTRA-LIGAND FREE ENERGY PREDICTED BY IDOCK:   -0.27 KCAL/MOL
REMARK 927      BINDING AFFINITY PREDICTED BY RF-SCORE:    0.00 PKD
ROOT
HETATM    1  C   UNL     1     -11.689  14.965  68.754  1.00  0.00    -0.353 C  
HETATM    2  C   UNL     1     -10.300  15.395  69.207  1.00  0.00    -0.253 C  
ENDROOT
BRANCH   2   3
HETATM    3  C   UNL     1      -9.229  14.503  68.580  1.00  0.00    -0.195 C  
BRANCH   3   4
HETATM    4  N   UNL     1      -9.268  13.149  69.144  1.00  0.00    -0.086 NA 
HETATM    5  H   UNL     1     -10.018  13.055  69.829  1.00  0.00     0.000 HD 
BRANCH   4   6
HETATM    6  C   UNL     1      -9.369  12.113  68.095  1.00  0.00    -0.204 C  
HETATM    7  C   UNL     1      -8.966  12.653  66.697  1.00  0.00    -0.164 C  
HETATM    8  C   UNL     1      -9.245  11.617  65.599  1.00  0.00    -0.150 C  
HETATM    9  C   UNL     1      -8.721  10.282  65.984  1.00  0.00    -0.150 A  
HETATM   10  C   UNL     1      -8.398   9.949  67.282  1.00  0.00    -0.121 A  
HETATM   11  S   UNL     1      -7.831   8.345  67.340  1.00  0.00    -0.099 SA 
HETATM   12  C   UNL     1      -8.484  10.875  68.456  1.00  0.00    -0.147 C  
HETATM   13  C   UNL     1      -8.058   8.223  65.634  1.00  0.00    -0.124 A  
HETATM   14  N   UNL     1      -7.769   7.096  64.962  1.00  0.00    -0.108 NA 
HETATM   15  N   UNL     1      -8.546   9.288  65.051  1.00  0.00    -0.166 NA 
HETATM   16  H1  UNL     1      -7.903   7.024  63.954  1.00  0.00     0.000 HD 
HETATM   17  H2  UNL     1      -7.407   6.292  65.474  1.00  0.00     0.000 HD 
ENDBRANCH   4   6
ENDBRANCH   3   4
ENDBRANCH   2   3
TORSDOF 3
ENDMDL
MODEL      230
REMARK 921   NORMALIZED FREE ENERGY PREDICTED BY IDOCK:   -1.98 KCAL/MOL
REMARK 922        TOTAL FREE ENERGY PREDICTED BY IDOCK:   -2.56 KCAL/MOL
REMARK 923 INTER-LIGAND FREE ENERGY PREDICTED BY IDOCK:   -2.34 KCAL/MOL
REMARK 924 INTRA-LIGAND FREE ENERGY PREDICTED BY IDOCK:   -0.22 KCAL/MOL
REMARK 927      BINDING AFFINITY PREDICTED BY RF-SCORE:    0.00 PKD
ROOT
HETATM    1  C   UNL     1      -9.541   4.175  64.180  1.00  0.00    -0.148 C  
HETATM    2  C   UNL     1      -9.905   3.360  65.414  1.00  0.00     0.017 C  
ENDROOT
BRANCH   2   3
HETATM    3  C   UNL     1      -9.342   4.013  66.676  1.00  0.00    -0.184 C  
BRANCH   3   4
HETATM    4  N   UNL     1      -9.694   5.437  66.740  1.00  0.00    -0.144 NA 
HETATM    5  H   UNL     1     -10.572   5.622  66.257  1.00  0.00     0.000 HD 
BRANCH   4   6
HETATM    6  C   UNL     1      -9.730   5.938  68.130  1.00  0.00    -0.127 C  
HETATM    7  C   UNL     1     -11.171   6.293  68.587  1.00  0.00    -0.328 C  
HETATM    8  C   UNL     1     -11.166   6.974  69.963  1.00  0.00    -0.310 C  
HETATM    9  C   UNL     1     -10.318   6.221  70.923  1.00  0.00    -0.205 A  
HETATM   10  C   UNL     1      -9.377   5.295  70.527  1.00  0.00    -0.157 A  
HETATM   11  S   UNL     1      -8.606   4.639  71.895  1.00  0.00    -0.123 SA 
HETATM   12  C   UNL     1      -9.111   4.889  69.111  1.00  0.00    -0.144 C  
HETATM   13  C   UNL     1      -9.586   5.637  72.905  1.00  0.00    -0.155 A  
HETATM   14  N   UNL     1      -9.478   5.611  74.243  1.00  0.00    -0.138 NA 
HETATM   15  N   UNL     1     -10.419   6.430  72.278  1.00  0.00    -0.193 NA 
HETATM   16  H1  UNL     1     -10.058   6.201  74.840  1.00  0.00     0.000 HD 
HETATM   17  H2  UNL     1      -8.799   4.984  74.674  1.00  0.00     0.000 HD 
ENDBRANCH   4   6
ENDBRANCH   3   4
ENDBRANCH   2   3
TORSDOF 3
ENDMDL
MODEL      231
REMARK 921   NORMALIZED FREE ENERGY PREDICTED BY IDOCK:   -1.92 KCAL/MOL
REMARK 922        TOTAL FREE ENERGY PREDICTED BY IDOCK:   -2.49 KCAL/MOL
REMARK 923 INTER-LIGAND FREE ENERGY PREDICTED BY IDOCK:   -2.25 KCAL/MOL
REMARK 924 INTRA-LIGAND FREE ENERGY PREDICTED BY IDOCK:   -0.25 KCAL/MOL
REMARK 927      BINDING AFFINITY PREDICTED BY RF-SCORE:    0.00 PKD
ROOT
HETATM    1  C   UNL     1      -8.076   9.237  64.027  1.00  0.00    -0.150 C  
HETATM    2  C   UNL     1      -9.207  10.211  64.329  1.00  0.00    -0.312 C  
ENDROOT
BRANCH   2   3
HETATM    3  C   UNL     1      -9.188  10.618  65.802  1.00  0.00    -0.189 C  
BRANCH   3   4
HETATM    4  N   UNL     1      -8.308   9.741  66.585  1.00  0.00    -0.123 NA 
HETATM    5  H   UNL     1      -7.351  10.093  66.595  1.00  0.00     0.000 HD 
BRANCH   4   6
HETATM    6  C   UNL     1      -8.814   9.527  67.956  1.00  0.00    -0.123 C  
HETATM    7  C   UNL     1     -10.246   8.927  67.965  1.00  0.00    -0.262 C  
HETATM    8  C   UNL     1     -10.819   8.877  69.389  1.00  0.00    -0.133 C  
HETATM    9  C   UNL     1      -9.835   8.292  70.336  1.00  0.00    -0.186 A  
HETATM   10  C   UNL     1      -8.490   8.188  70.051  1.00  0.00    -0.128 A  
HETATM   11  S   UNL     1      -7.678   7.471  71.364  1.00  0.00    -0.087 SA 
HETATM   12  C   UNL     1      -7.849   8.597  68.761  1.00  0.00    -0.106 C  
HETATM   13  C   UNL     1      -9.181   7.354  72.205  1.00  0.00    -0.132 A  
HETATM   14  N   UNL     1      -9.262   6.821  73.435  1.00  0.00    -0.133 NA 
HETATM   15  N   UNL     1     -10.221   7.835  71.574  1.00  0.00    -0.181 NA 
HETATM   16  H1  UNL     1     -10.149   6.751  73.932  1.00  0.00     0.000 HD 
HETATM   17  H2  UNL     1      -8.413   6.476  73.884  1.00  0.00     0.000 HD 
ENDBRANCH   4   6
ENDBRANCH   3   4
ENDBRANCH   2   3
TORSDOF 3
ENDMDL
MODEL      232
REMARK 921   NORMALIZED FREE ENERGY PREDICTED BY IDOCK:   -1.90 KCAL/MOL
REMARK 922        TOTAL FREE ENERGY PREDICTED BY IDOCK:   -2.47 KCAL/MOL
REMARK 923 INTER-LIGAND FREE ENERGY PREDICTED BY IDOCK:   -2.27 KCAL/MOL
REMARK 924 INTRA-LIGAND FREE ENERGY PREDICTED BY IDOCK:   -0.20 KCAL/MOL
REMARK 927      BINDING AFFINITY PREDICTED BY RF-SCORE:    0.00 PKD
ROOT
HETATM    1  C   UNL     1      -7.495  18.108  66.110  1.00  0.00    -0.297 C  
HETATM    2  C   UNL     1      -7.091  17.782  67.541  1.00  0.00    -0.198 C  
ENDROOT
BRANCH   2   3
HETATM    3  C   UNL     1      -6.198  16.543  67.581  1.00  0.00    -0.144 C  
BRANCH   3   4
HETATM    4  N   UNL     1      -6.702  15.554  68.542  1.00  0.00    -0.110 NA 
HETATM    5  H   UNL     1      -7.589  15.853  68.948  1.00  0.00     0.000 HD 
BRANCH   4   6
HETATM    6  C   UNL     1      -6.812  14.207  67.947  1.00  0.00    -0.165 C  
HETATM    7  C   UNL     1      -6.262  13.103  68.890  1.00  0.00    -0.088 C  
HETATM    8  C   UNL     1      -6.223  11.739  68.186  1.00  0.00    -0.050 C  
HETATM    9  C   UNL     1      -7.510  11.461  67.499  1.00  0.00    -0.113 A  
HETATM   10  C   UNL     1      -8.433  12.442  67.209  1.00  0.00    -0.183 A  
HETATM   11  S   UNL     1      -9.778  11.753  66.424  1.00  0.00    -0.220 SA 
HETATM   12  C   UNL     1      -8.297  13.888  67.575  1.00  0.00    -0.202 C  
HETATM   13  C   UNL     1      -9.026  10.204  66.535  1.00  0.00    -0.143 A  
HETATM   14  N   UNL     1      -9.616   9.096  66.058  1.00  0.00    -0.257 NA 
HETATM   15  N   UNL     1      -7.842  10.189  67.094  1.00  0.00    -0.099 NA 
HETATM   16  H1  UNL     1      -9.172   8.181  66.123  1.00  0.00     0.000 HD 
HETATM   17  H2  UNL     1     -10.533   9.173  65.618  1.00  0.00     0.000 HD 
ENDBRANCH   4   6
ENDBRANCH   3   4
ENDBRANCH   2   3
TORSDOF 3
ENDMDL
MODEL      233
REMARK 921   NORMALIZED FREE ENERGY PREDICTED BY IDOCK:   -1.87 KCAL/MOL
REMARK 922        TOTAL FREE ENERGY PREDICTED BY IDOCK:   -2.44 KCAL/MOL
REMARK 923 INTER-LIGAND FREE ENERGY PREDICTED BY IDOCK:   -2.25 KCAL/MOL
REMARK 924 INTRA-LIGAND FREE ENERGY PREDICTED BY IDOCK:   -0.19 KCAL/MOL
REMARK 927      BINDING AFFINITY PREDICTED BY RF-SCORE:    0.00 PKD
ROOT
HETATM    1  C   UNL     1      -8.079   3.954  64.365  1.00  0.00    -0.090 C  
HETATM    2  C   UNL     1      -9.488   4.195  64.891  1.00  0.00    -0.171 C  
ENDROOT
BRANCH   2   3
HETATM    3  C   UNL     1      -9.459   5.126  66.103  1.00  0.00    -0.159 C  
BRANCH   3   4
HETATM    4  N   UNL     1      -9.412   6.534  65.691  1.00  0.00    -0.356 NA 
HETATM    5  H   UNL     1     -10.336   6.963  65.735  1.00  0.00     0.000 HD 
BRANCH   4   6
HETATM    6  C   UNL     1      -8.424   7.308  66.470  1.00  0.00    -0.125 C  
HETATM    7  C   UNL     1      -7.591   8.265  65.575  1.00  0.00    -0.087 C  
HETATM    8  C   UNL     1      -6.458   8.926  66.372  1.00  0.00    -0.066 C  
HETATM    9  C   UNL     1      -6.963   9.472  67.658  1.00  0.00    -0.080 A  
HETATM   10  C   UNL     1      -8.164   9.089  68.215  1.00  0.00    -0.116 A  
HETATM   11  S   UNL     1      -8.409   9.921  69.680  1.00  0.00    -0.177 SA 
HETATM   12  C   UNL     1      -9.131   8.127  67.600  1.00  0.00    -0.142 C  
HETATM   13  C   UNL     1      -6.899  10.725  69.456  1.00  0.00    -0.116 A  
HETATM   14  N   UNL     1      -6.436  11.620  70.343  1.00  0.00    -0.515 NA 
HETATM   15  N   UNL     1      -6.234  10.388  68.379  1.00  0.00    -0.047 NA 
HETATM   16  H1  UNL     1      -5.544  12.095  70.210  1.00  0.00     0.000 HD 
HETATM   17  H2  UNL     1      -6.991  11.830  71.172  1.00  0.00     0.000 HD 
ENDBRANCH   4   6
ENDBRANCH   3   4
ENDBRANCH   2   3
TORSDOF 3
ENDMDL
MODEL      234
REMARK 921   NORMALIZED FREE ENERGY PREDICTED BY IDOCK:   -1.87 KCAL/MOL
REMARK 922        TOTAL FREE ENERGY PREDICTED BY IDOCK:   -2.43 KCAL/MOL
REMARK 923 INTER-LIGAND FREE ENERGY PREDICTED BY IDOCK:   -2.20 KCAL/MOL
REMARK 924 INTRA-LIGAND FREE ENERGY PREDICTED BY IDOCK:   -0.23 KCAL/MOL
REMARK 927      BINDING AFFINITY PREDICTED BY RF-SCORE:    0.00 PKD
ROOT
HETATM    1  C   UNL     1      -7.873   2.798  63.002  1.00  0.00    -0.068 C  
HETATM    2  C   UNL     1      -9.233   2.124  63.134  1.00  0.00    -0.091 C  
ENDROOT
BRANCH   2   3
HETATM    3  C   UNL     1     -10.035   2.749  64.275  1.00  0.00    -0.085 C  
BRANCH   3   4
HETATM    4  N   UNL     1      -9.153   3.231  65.344  1.00  0.00    -0.144 NA 
HETATM    5  H   UNL     1      -8.222   3.445  64.986  1.00  0.00     0.000 HD 
BRANCH   4   6
HETATM    6  C   UNL     1      -9.729   4.386  66.062  1.00  0.00    -0.213 C  
HETATM    7  C   UNL     1      -9.629   4.229  67.603  1.00  0.00    -0.215 C  
HETATM    8  C   UNL     1     -10.387   5.350  68.328  1.00  0.00    -0.213 C  
HETATM    9  C   UNL     1     -10.039   6.678  67.760  1.00  0.00    -0.148 A  
HETATM   10  C   UNL     1      -9.443   6.833  66.527  1.00  0.00    -0.150 A  
HETATM   11  S   UNL     1      -9.194   8.488  66.213  1.00  0.00    -0.218 SA 
HETATM   12  C   UNL     1      -9.030   5.714  65.622  1.00  0.00    -0.139 C  
HETATM   13  C   UNL     1      -9.897   8.865  67.744  1.00  0.00    -0.166 A  
HETATM   14  N   UNL     1     -10.020  10.132  68.172  1.00  0.00    -0.144 NA 
HETATM   15  N   UNL     1     -10.316   7.839  68.441  1.00  0.00    -0.201 NA 
HETATM   16  H1  UNL     1     -10.435  10.355  69.076  1.00  0.00     0.000 HD 
HETATM   17  H2  UNL     1      -9.690  10.891  67.577  1.00  0.00     0.000 HD 
ENDBRANCH   4   6
ENDBRANCH   3   4
ENDBRANCH   2   3
TORSDOF 3
ENDMDL
MODEL      235
REMARK 921   NORMALIZED FREE ENERGY PREDICTED BY IDOCK:   -1.84 KCAL/MOL
REMARK 922        TOTAL FREE ENERGY PREDICTED BY IDOCK:   -2.40 KCAL/MOL
REMARK 923 INTER-LIGAND FREE ENERGY PREDICTED BY IDOCK:   -2.21 KCAL/MOL
REMARK 924 INTRA-LIGAND FREE ENERGY PREDICTED BY IDOCK:   -0.19 KCAL/MOL
REMARK 927      BINDING AFFINITY PREDICTED BY RF-SCORE:    0.00 PKD
ROOT
HETATM    1  C   UNL     1     -12.629  13.051  70.431  1.00  0.00    -0.165 C  
HETATM    2  C   UNL     1     -12.070  13.530  69.098  1.00  0.00    -0.331 C  
ENDROOT
BRANCH   2   3
HETATM    3  C   UNL     1     -10.823  14.387  69.312  1.00  0.00    -0.239 C  
BRANCH   3   4
HETATM    4  N   UNL     1      -9.679  13.858  68.560  1.00  0.00    -0.265 NA 
HETATM    5  H   UNL     1      -8.795  14.146  68.980  1.00  0.00     0.000 HD 
BRANCH   4   6
HETATM    6  C   UNL     1      -9.745  12.390  68.407  1.00  0.00    -0.189 C  
HETATM    7  C   UNL     1      -9.910  11.962  66.923  1.00  0.00    -0.217 C  
HETATM    8  C   UNL     1     -10.154  10.451  66.804  1.00  0.00    -0.267 C  
HETATM    9  C   UNL     1      -9.174   9.691  67.622  1.00  0.00    -0.130 A  
HETATM   10  C   UNL     1      -8.432  10.266  68.631  1.00  0.00    -0.127 A  
HETATM   11  S   UNL     1      -7.421   9.095  69.341  1.00  0.00    -0.080 SA 
HETATM   12  C   UNL     1      -8.471  11.714  69.010  1.00  0.00     0.158 C  
HETATM   13  C   UNL     1      -8.050   7.916  68.249  1.00  0.00    -0.123 A  
HETATM   14  N   UNL     1      -7.631   6.640  68.269  1.00  0.00    -0.102 NA 
HETATM   15  N   UNL     1      -8.969   8.346  67.422  1.00  0.00    -0.133 NA 
HETATM   16  H1  UNL     1      -8.003   5.944  67.623  1.00  0.00     0.000 HD 
HETATM   17  H2  UNL     1      -6.923   6.361  68.947  1.00  0.00     0.000 HD 
ENDBRANCH   4   6
ENDBRANCH   3   4
ENDBRANCH   2   3
TORSDOF 3
ENDMDL
MODEL      236
REMARK 921   NORMALIZED FREE ENERGY PREDICTED BY IDOCK:   -1.77 KCAL/MOL
REMARK 922        TOTAL FREE ENERGY PREDICTED BY IDOCK:   -2.32 KCAL/MOL
REMARK 923 INTER-LIGAND FREE ENERGY PREDICTED BY IDOCK:   -1.96 KCAL/MOL
REMARK 924 INTRA-LIGAND FREE ENERGY PREDICTED BY IDOCK:   -0.36 KCAL/MOL
REMARK 927      BINDING AFFINITY PREDICTED BY RF-SCORE:    0.00 PKD
ROOT
HETATM    1  C   UNL     1      -8.858   4.204  73.622  1.00  0.00    -0.093 C  
HETATM    2  C   UNL     1     -10.007   4.486  72.662  1.00  0.00    -0.217 C  
ENDROOT
BRANCH   2   3
HETATM    3  C   UNL     1     -10.459   5.942  72.775  1.00  0.00    -0.209 C  
BRANCH   3   4
HETATM    4  N   UNL     1      -9.344   6.816  73.160  1.00  0.00    -0.131 NA 
HETATM    5  H   UNL     1      -8.546   6.274  73.488  1.00  0.00     0.000 HD 
BRANCH   4   6
HETATM    6  C   UNL     1      -8.957   7.734  72.069  1.00  0.00    -0.134 C  
HETATM    7  C   UNL     1      -7.660   7.274  71.349  1.00  0.00    -0.083 C  
HETATM    8  C   UNL     1      -7.180   8.329  70.342  1.00  0.00    -0.044 C  
HETATM    9  C   UNL     1      -8.301   8.793  69.485  1.00  0.00    -0.119 A  
HETATM   10  C   UNL     1      -9.626   8.600  69.814  1.00  0.00    -0.171 A  
HETATM   11  S   UNL     1     -10.621   9.260  68.601  1.00  0.00    -0.149 SA 
HETATM   12  C   UNL     1     -10.115   7.875  71.028  1.00  0.00    -0.212 C  
HETATM   13  C   UNL     1      -9.210   9.747  67.734  1.00  0.00    -0.130 A  
HETATM   14  N   UNL     1      -9.290  10.391  66.558  1.00  0.00    -0.160 NA 
HETATM   15  N   UNL     1      -8.068   9.466  68.309  1.00  0.00    -0.109 NA 
HETATM   16  H1  UNL     1      -8.457  10.678  66.046  1.00  0.00     0.000 HD 
HETATM   17  H2  UNL     1     -10.209  10.597  66.167  1.00  0.00     0.000 HD 
ENDBRANCH   4   6
ENDBRANCH   3   4
ENDBRANCH   2   3
TORSDOF 3
ENDMDL
MODEL      237
REMARK 921   NORMALIZED FREE ENERGY PREDICTED BY IDOCK:   -1.62 KCAL/MOL
REMARK 922        TOTAL FREE ENERGY PREDICTED BY IDOCK:   -2.14 KCAL/MOL
REMARK 923 INTER-LIGAND FREE ENERGY PREDICTED BY IDOCK:   -1.88 KCAL/MOL
REMARK 924 INTRA-LIGAND FREE ENERGY PREDICTED BY IDOCK:   -0.26 KCAL/MOL
REMARK 927      BINDING AFFINITY PREDICTED BY RF-SCORE:    0.00 PKD
ROOT
HETATM    1  C   UNL     1     -10.841  18.137  65.505  1.00  0.00     0.152 C  
HETATM    2  C   UNL     1     -11.134  16.696  65.108  1.00  0.00    -0.086 C  
ENDROOT
BRANCH   2   3
HETATM    3  C   UNL     1      -9.920  15.807  65.374  1.00  0.00    -0.237 C  
BRANCH   3   4
HETATM    4  N   UNL     1     -10.325  14.494  65.892  1.00  0.00    -0.303 NA 
HETATM    5  H   UNL     1     -10.242  13.773  65.176  1.00  0.00     0.000 HD 
BRANCH   4   6
HETATM    6  C   UNL     1      -9.579  14.125  67.113  1.00  0.00    -0.244 C  
HETATM    7  C   UNL     1      -8.787  12.801  66.938  1.00  0.00    -0.194 C  
HETATM    8  C   UNL     1      -8.166  12.346  68.266  1.00  0.00    -0.170 C  
HETATM    9  C   UNL     1      -7.464  13.471  68.936  1.00  0.00    -0.017 A  
HETATM   10  C   UNL     1      -7.682  14.792  68.610  1.00  0.00    -0.130 A  
HETATM   11  S   UNL     1      -6.705  15.793  69.580  1.00  0.00    -0.178 SA 
HETATM   12  C   UNL     1      -8.602  15.272  67.530  1.00  0.00    -0.190 C  
HETATM   13  C   UNL     1      -6.067  14.388  70.354  1.00  0.00    -0.179 A  
HETATM   14  N   UNL     1      -5.144  14.475  71.325  1.00  0.00    -0.125 NA 
HETATM   15  N   UNL     1      -6.558  13.246  69.946  1.00  0.00     0.021 NA 
HETATM   16  H1  UNL     1      -4.767  13.645  71.783  1.00  0.00     0.000 HD 
HETATM   17  H2  UNL     1      -4.811  15.395  71.613  1.00  0.00     0.000 HD 
ENDBRANCH   4   6
ENDBRANCH   3   4
ENDBRANCH   2   3
TORSDOF 3
ENDMDL
MODEL      238
REMARK 921   NORMALIZED FREE ENERGY PREDICTED BY IDOCK:   -1.19 KCAL/MOL
REMARK 922        TOTAL FREE ENERGY PREDICTED BY IDOCK:   -1.64 KCAL/MOL
REMARK 923 INTER-LIGAND FREE ENERGY PREDICTED BY IDOCK:   -1.44 KCAL/MOL
REMARK 924 INTRA-LIGAND FREE ENERGY PREDICTED BY IDOCK:   -0.20 KCAL/MOL
REMARK 927      BINDING AFFINITY PREDICTED BY RF-SCORE:    0.00 PKD
ROOT
HETATM    1  C   UNL     1      -8.437   8.521  62.543  1.00  0.00    -0.156 C  
HETATM    2  C   UNL     1      -8.705  10.005  62.755  1.00  0.00    -0.215 C  
ENDROOT
BRANCH   2   3
HETATM    3  C   UNL     1      -9.380  10.243  64.106  1.00  0.00    -0.287 C  
BRANCH   3   4
HETATM    4  N   UNL     1      -9.745  11.654  64.276  1.00  0.00    -0.377 NA 
HETATM    5  H   UNL     1     -10.741  11.801  64.113  1.00  0.00     0.000 HD 
BRANCH   4   6
HETATM    6  C   UNL     1      -9.336  12.178  65.596  1.00  0.00    -0.031 C  
HETATM    7  C   UNL     1      -8.005  11.549  66.090  1.00  0.00     0.093 C  
HETATM    8  C   UNL     1      -7.692  11.973  67.532  1.00  0.00    -0.155 C  
HETATM    9  C   UNL     1      -7.849  13.440  67.699  1.00  0.00    -0.173 A  
HETATM   10  C   UNL     1      -8.549  14.226  66.809  1.00  0.00    -0.084 A  
HETATM   11  S   UNL     1      -8.514  15.848  67.324  1.00  0.00    -0.199 SA 
HETATM   12  C   UNL     1      -9.198  13.735  65.552  1.00  0.00     0.538 C  
HETATM   13  C   UNL     1      -7.568  15.376  68.688  1.00  0.00    -0.129 A  
HETATM   14  N   UNL     1      -7.149  16.268  69.600  1.00  0.00    -0.137 NA 
HETATM   15  N   UNL     1      -7.310  14.096  68.781  1.00  0.00    -0.124 NA 
HETATM   16  H1  UNL     1      -6.590  15.989  70.406  1.00  0.00     0.000 HD 
HETATM   17  H2  UNL     1      -7.395  17.251  69.483  1.00  0.00     0.000 HD 
ENDBRANCH   4   6
ENDBRANCH   3   4
ENDBRANCH   2   3
TORSDOF 3
ENDMDL
MODEL      239
REMARK 921   NORMALIZED FREE ENERGY PREDICTED BY IDOCK:   -1.08 KCAL/MOL
REMARK 922        TOTAL FREE ENERGY PREDICTED BY IDOCK:   -1.51 KCAL/MOL
REMARK 923 INTER-LIGAND FREE ENERGY PREDICTED BY IDOCK:   -1.25 KCAL/MOL
REMARK 924 INTRA-LIGAND FREE ENERGY PREDICTED BY IDOCK:   -0.26 KCAL/MOL
REMARK 927      BINDING AFFINITY PREDICTED BY RF-SCORE:    0.00 PKD
ROOT
HETATM    1  C   UNL     1     -10.227  12.530  63.665  1.00  0.00    -0.310 C  
HETATM    2  C   UNL     1      -9.971  11.106  64.142  1.00  0.00    -0.369 C  
ENDROOT
BRANCH   2   3
HETATM    3  C   UNL     1      -9.755  11.076  65.655  1.00  0.00    -0.232 C  
BRANCH   3   4
HETATM    4  N   UNL     1     -10.475   9.956  66.272  1.00  0.00    -0.154 NA 
HETATM    5  H   UNL     1      -9.829   9.248  66.620  1.00  0.00     0.000 HD 
BRANCH   4   6
HETATM    6  C   UNL     1     -11.398  10.406  67.334  1.00  0.00     0.037 C  
HETATM    7  C   UNL     1     -11.126   9.696  68.687  1.00  0.00    -0.085 C  
HETATM    8  C   UNL     1     -12.203  10.045  69.725  1.00  0.00     0.119 C  
HETATM    9  C   UNL     1     -12.442  11.511  69.767  1.00  0.00    -0.057 A  
HETATM   10  C   UNL     1     -12.050  12.364  68.757  1.00  0.00    -0.110 A  
HETATM   11  S   UNL     1     -12.489  13.961  69.152  1.00  0.00     0.293 SA 
HETATM   12  C   UNL     1     -11.305  11.955  67.525  1.00  0.00    -0.381 C  
HETATM   13  C   UNL     1     -13.163  13.390  70.635  1.00  0.00     0.242 A  
HETATM   14  N   UNL     1     -13.735  14.224  71.518  1.00  0.00    -0.365 NA 
HETATM   15  N   UNL     1     -13.095  12.096  70.825  1.00  0.00     0.124 NA 
HETATM   16  H1  UNL     1     -14.134  13.887  72.394  1.00  0.00     0.000 HD 
HETATM   17  H2  UNL     1     -13.773  15.221  71.307  1.00  0.00     0.000 HD 
ENDBRANCH   4   6
ENDBRANCH   3   4
ENDBRANCH   2   3
TORSDOF 3
ENDMDL
MODEL      240
REMARK 921   NORMALIZED FREE ENERGY PREDICTED BY IDOCK:   -0.95 KCAL/MOL
REMARK 922        TOTAL FREE ENERGY PREDICTED BY IDOCK:   -1.36 KCAL/MOL
REMARK 923 INTER-LIGAND FREE ENERGY PREDICTED BY IDOCK:   -4.30 KCAL/MOL
REMARK 924 INTRA-LIGAND FREE ENERGY PREDICTED BY IDOCK:    2.94 KCAL/MOL
REMARK 927      BINDING AFFINITY PREDICTED BY RF-SCORE:    0.00 PKD
ROOT
HETATM    1  C   UNL     1     -13.776  14.905  72.296  1.00  0.00    -0.564 C  
HETATM    2  C   UNL     1     -12.650  14.470  71.368  1.00  0.00    -0.411 C  
ENDROOT
BRANCH   2   3
HETATM    3  C   UNL     1     -12.127  15.659  70.562  1.00  0.00    -0.395 C  
BRANCH   3   4
HETATM    4  N   UNL     1     -12.045  15.336  69.132  1.00  0.00    -0.550 NA 
HETATM    5  H   UNL     1     -11.382  15.946  68.654  1.00  0.00     0.000 HD 
BRANCH   4   6
HETATM    6  C   UNL     1     -11.725  13.913  68.902  1.00  0.00    -0.337 C  
HETATM    7  C   UNL     1     -10.264  13.711  68.414  1.00  0.00    -0.245 C  
HETATM    8  C   UNL     1     -10.008  12.252  68.013  1.00  0.00    -0.202 C  
HETATM    9  C   UNL     1     -10.506  11.321  69.058  1.00  0.00    -0.194 A  
HETATM   10  C   UNL     1     -11.407  11.697  70.031  1.00  0.00    -0.091 A  
HETATM   11  S   UNL     1     -11.742  10.373  71.047  1.00  0.00    -0.286 SA 
HETATM   12  C   UNL     1     -11.965  13.076  70.201  1.00  0.00    -0.374 C  
HETATM   13  C   UNL     1     -10.662   9.405  70.112  1.00  0.00    -0.243 A  
HETATM   14  N   UNL     1     -10.435   8.115  70.407  1.00  0.00    -0.211 NA 
HETATM   15  N   UNL     1     -10.100  10.007  69.094  1.00  0.00    -0.195 NA 
HETATM   16  H1  UNL     1      -9.796   7.543  69.854  1.00  0.00     0.000 HD 
HETATM   17  H2  UNL     1     -10.914   7.696  71.203  1.00  0.00     0.000 HD 
ENDBRANCH   4   6
ENDBRANCH   3   4
ENDBRANCH   2   3
TORSDOF 3
ENDMDL
MODEL      241
REMARK 921   NORMALIZED FREE ENERGY PREDICTED BY IDOCK:    0.60 KCAL/MOL
REMARK 922        TOTAL FREE ENERGY PREDICTED BY IDOCK:    0.46 KCAL/MOL
REMARK 923 INTER-LIGAND FREE ENERGY PREDICTED BY IDOCK:    0.49 KCAL/MOL
REMARK 924 INTRA-LIGAND FREE ENERGY PREDICTED BY IDOCK:   -0.02 KCAL/MOL
REMARK 927      BINDING AFFINITY PREDICTED BY RF-SCORE:    0.00 PKD
ROOT
HETATM    1  C   UNL     1     -11.053   2.786  71.883  1.00  0.00     1.452 C  
HETATM    2  C   UNL     1      -9.955   3.670  72.460  1.00  0.00    -0.227 C  
ENDROOT
BRANCH   2   3
HETATM    3  C   UNL     1      -8.646   2.890  72.586  1.00  0.00    -0.075 C  
BRANCH   3   4
HETATM    4  N   UNL     1      -7.713   3.241  71.508  1.00  0.00    -0.055 NA 
HETATM    5  H   UNL     1      -8.098   3.005  70.594  1.00  0.00     0.000 HD 
BRANCH   4   6
HETATM    6  C   UNL     1      -7.304   4.660  71.567  1.00  0.00    -0.068 C  
HETATM    7  C   UNL     1      -5.770   4.835  71.401  1.00  0.00    -0.012 C  
HETATM    8  C   UNL     1      -5.348   6.292  71.641  1.00  0.00    -0.026 C  
HETATM    9  C   UNL     1      -6.222   7.227  70.887  1.00  0.00    -0.036 A  
HETATM   10  C   UNL     1      -7.451   6.863  70.381  1.00  0.00    -0.086 A  
HETATM   11  S   UNL     1      -8.159   8.189  69.581  1.00  0.00    -0.119 SA 
HETATM   12  C   UNL     1      -8.051   5.495  70.476  1.00  0.00    -0.104 C  
HETATM   13  C   UNL     1      -6.772   9.140  69.969  1.00  0.00    -0.047 A  
HETATM   14  N   UNL     1      -6.669  10.425  69.591  1.00  0.00    -0.079 NA 
HETATM   15  N   UNL     1      -5.848   8.532  70.668  1.00  0.00    -0.031 NA 
HETATM   16  H1  UNL     1      -5.849  10.987  69.820  1.00  0.00     0.000 HD 
HETATM   17  H2  UNL     1      -7.429  10.849  69.061  1.00  0.00     0.000 HD 
ENDBRANCH   4   6
ENDBRANCH   3   4
ENDBRANCH   2   3
TORSDOF 3
ENDMDL
MODEL      242
REMARK 921   NORMALIZED FREE ENERGY PREDICTED BY IDOCK:    0.67 KCAL/MOL
REMARK 922        TOTAL FREE ENERGY PREDICTED BY IDOCK:    0.55 KCAL/MOL
REMARK 923 INTER-LIGAND FREE ENERGY PREDICTED BY IDOCK:   -0.19 KCAL/MOL
REMARK 924 INTRA-LIGAND FREE ENERGY PREDICTED BY IDOCK:    0.74 KCAL/MOL
REMARK 927      BINDING AFFINITY PREDICTED BY RF-SCORE:    0.00 PKD
ROOT
HETATM    1  C   UNL     1     -11.053   2.786  71.883  1.00  0.00     1.452 C  
HETATM    2  C   UNL     1      -9.956   3.668  72.464  1.00  0.00    -0.227 C  
ENDROOT
BRANCH   2   3
HETATM    3  C   UNL     1      -8.645   2.892  72.580  1.00  0.00    -0.075 C  
BRANCH   3   4
HETATM    4  N   UNL     1      -7.715   3.254  71.503  1.00  0.00    -0.055 NA 
HETATM    5  H   UNL     1      -8.102   3.024  70.588  1.00  0.00     0.000 HD 
BRANCH   4   6
HETATM    6  C   UNL     1      -7.310   4.673  71.573  1.00  0.00    -0.068 C  
HETATM    7  C   UNL     1      -8.513   5.636  71.377  1.00  0.00    -0.128 C  
HETATM    8  C   UNL     1      -8.046   7.095  71.277  1.00  0.00    -0.107 C  
HETATM    9  C   UNL     1      -7.090   7.421  72.366  1.00  0.00    -0.071 A  
HETATM   10  C   UNL     1      -6.429   6.458  73.097  1.00  0.00    -0.068 A  
HETATM   11  S   UNL     1      -5.423   7.202  74.252  1.00  0.00    -0.054 SA 
HETATM   12  C   UNL     1      -6.608   4.980  72.936  1.00  0.00    -0.061 C  
HETATM   13  C   UNL     1      -5.949   8.746  73.688  1.00  0.00    -0.090 A  
HETATM   14  N   UNL     1      -5.495   9.888  74.230  1.00  0.00    -0.338 NA 
HETATM   15  N   UNL     1      -6.797   8.725  72.691  1.00  0.00    -0.303 NA 
HETATM   16  H1  UNL     1      -5.805  10.800  73.896  1.00  0.00     0.000 HD 
HETATM   17  H2  UNL     1      -4.822   9.841  74.994  1.00  0.00     0.000 HD 
ENDBRANCH   4   6
ENDBRANCH   3   4
ENDBRANCH   2   3
TORSDOF 3
ENDMDL
MODEL      243
REMARK 921   NORMALIZED FREE ENERGY PREDICTED BY IDOCK:    4.02 KCAL/MOL
REMARK 922        TOTAL FREE ENERGY PREDICTED BY IDOCK:    4.49 KCAL/MOL
REMARK 923 INTER-LIGAND FREE ENERGY PREDICTED BY IDOCK:    3.48 KCAL/MOL
REMARK 924 INTRA-LIGAND FREE ENERGY PREDICTED BY IDOCK:    1.00 KCAL/MOL
REMARK 927      BINDING AFFINITY PREDICTED BY RF-SCORE:    0.00 PKD
ROOT
HETATM    1  C   UNL     1     -12.383  15.518  69.042  1.00  0.00    -0.016 C  
HETATM    2  C   UNL     1     -12.597  16.953  68.577  1.00  0.00     2.984 C  
ENDROOT
BRANCH   2   3
HETATM    3  C   UNL     1     -11.256  17.648  68.339  1.00  0.00     0.421 C  
BRANCH   3   4
HETATM    4  N   UNL     1     -10.301  17.342  69.411  1.00  0.00    -0.279 NA 
HETATM    5  H   UNL     1     -10.724  17.470  70.330  1.00  0.00     0.000 HD 
BRANCH   4   6
HETATM    6  C   UNL     1      -9.722  15.990  69.270  1.00  0.00    -0.257 C  
HETATM    7  C   UNL     1      -9.448  15.621  67.787  1.00  0.00    -0.208 C  
HETATM    8  C   UNL     1      -9.014  14.155  67.650  1.00  0.00    -0.192 C  
HETATM    9  C   UNL     1      -7.955  13.822  68.637  1.00  0.00    -0.095 A  
HETATM   10  C   UNL     1      -7.697  14.592  69.750  1.00  0.00     0.137 A  
HETATM   11  S   UNL     1      -6.421  13.905  70.642  1.00  0.00     0.292 SA 
HETATM   12  C   UNL     1      -8.399  15.869  70.096  1.00  0.00     0.977 C  
HETATM   13  C   UNL     1      -6.311  12.638  69.475  1.00  0.00    -0.111 A  
HETATM   14  N   UNL     1      -5.407  11.652  69.586  1.00  0.00    -0.061 NA 
HETATM   15  N   UNL     1      -7.177  12.697  68.495  1.00  0.00    -0.109 NA 
HETATM   16  H1  UNL     1      -5.342  10.903  68.896  1.00  0.00     0.000 HD 
HETATM   17  H2  UNL     1      -4.769  11.651  70.381  1.00  0.00     0.000 HD 
ENDBRANCH   4   6
ENDBRANCH   3   4
ENDBRANCH   2   3
TORSDOF 3
ENDMDL
MODEL      244
REMARK 921   NORMALIZED FREE ENERGY PREDICTED BY IDOCK:    5.56 KCAL/MOL
REMARK 922        TOTAL FREE ENERGY PREDICTED BY IDOCK:    6.30 KCAL/MOL
REMARK 923 INTER-LIGAND FREE ENERGY PREDICTED BY IDOCK:    6.59 KCAL/MOL
REMARK 924 INTRA-LIGAND FREE ENERGY PREDICTED BY IDOCK:   -0.29 KCAL/MOL
REMARK 927      BINDING AFFINITY PREDICTED BY RF-SCORE:    0.00 PKD
ROOT
HETATM    1  C   UNL     1      -7.975  17.540  65.229  1.00  0.00     1.872 C  
HETATM    2  C   UNL     1      -6.566  17.226  65.713  1.00  0.00     0.211 C  
ENDROOT
BRANCH   2   3
HETATM    3  C   UNL     1      -6.573  16.878  67.202  1.00  0.00    -0.189 C  
BRANCH   3   4
HETATM    4  N   UNL     1      -6.583  15.425  67.408  1.00  0.00    -0.269 NA 
HETATM    5  H   UNL     1      -5.638  15.063  67.535  1.00  0.00     0.000 HD 
BRANCH   4   6
HETATM    6  C   UNL     1      -7.462  15.029  68.528  1.00  0.00    -0.119 C  
HETATM    7  C   UNL     1      -6.806  15.291  69.910  1.00  0.00    -0.135 C  
HETATM    8  C   UNL     1      -7.658  14.713  71.049  1.00  0.00     2.047 C  
HETATM    9  C   UNL     1      -9.083  15.101  70.893  1.00  0.00     2.219 A  
HETATM   10  C   UNL     1      -9.609  15.564  69.706  1.00  0.00    -0.200 A  
HETATM   11  S   UNL     1     -11.265  15.908  69.906  1.00  0.00    -0.373 SA 
HETATM   12  C   UNL     1      -8.832  15.780  68.445  1.00  0.00    -0.185 C  
HETATM   13  C   UNL     1     -11.149  15.417  71.556  1.00  0.00    -0.230 A  
HETATM   14  N   UNL     1     -12.210  15.446  72.378  1.00  0.00    -0.358 NA 
HETATM   15  N   UNL     1      -9.969  14.998  71.940  1.00  0.00     2.298 NA 
HETATM   16  H1  UNL     1     -12.141  15.156  73.354  1.00  0.00     0.000 HD 
HETATM   17  H2  UNL     1     -13.108  15.767  72.018  1.00  0.00     0.000 HD 
ENDBRANCH   4   6
ENDBRANCH   3   4
ENDBRANCH   2   3
TORSDOF 3
ENDMDL
MODEL      245
REMARK 921   NORMALIZED FREE ENERGY PREDICTED BY IDOCK:   15.35 KCAL/MOL
REMARK 922        TOTAL FREE ENERGY PREDICTED BY IDOCK:   17.80 KCAL/MOL
REMARK 923 INTER-LIGAND FREE ENERGY PREDICTED BY IDOCK:   18.13 KCAL/MOL
REMARK 924 INTRA-LIGAND FREE ENERGY PREDICTED BY IDOCK:   -0.33 KCAL/MOL
REMARK 927      BINDING AFFINITY PREDICTED BY RF-SCORE:    0.00 PKD
ROOT
HETATM    1  C   UNL     1     -12.480  20.402  65.436  1.00  0.00     6.103 C  
HETATM    2  C   UNL     1     -13.200  20.333  66.776  1.00  0.00     6.171 C  
ENDROOT
BRANCH   2   3
HETATM    3  C   UNL     1     -12.196  20.223  67.923  1.00  0.00     3.896 C  
BRANCH   3   4
HETATM    4  N   UNL     1     -11.052  21.119  67.715  1.00  0.00     2.534 NA 
HETATM    5  H   UNL     1     -11.206  22.024  68.159  1.00  0.00     0.000 HD 
BRANCH   4   6
HETATM    6  C   UNL     1      -9.782  20.512  68.163  1.00  0.00    -0.053 C  
HETATM    7  C   UNL     1      -9.939  19.747  69.505  1.00  0.00    -0.119 C  
HETATM    8  C   UNL     1      -8.578  19.276  70.039  1.00  0.00     1.111 C  
HETATM    9  C   UNL     1      -7.791  18.610  68.970  1.00  0.00    -0.150 A  
HETATM   10  C   UNL     1      -8.075  18.754  67.629  1.00  0.00    -0.251 A  
HETATM   11  S   UNL     1      -6.968  17.848  66.706  1.00  0.00    -0.207 SA 
HETATM   12  C   UNL     1      -9.217  19.546  67.070  1.00  0.00    -0.404 C  
HETATM   13  C   UNL     1      -6.201  17.335  68.165  1.00  0.00    -0.147 A  
HETATM   14  N   UNL     1      -5.140  16.512  68.153  1.00  0.00    -0.104 NA 
HETATM   15  N   UNL     1      -6.708  17.818  69.270  1.00  0.00    -0.247 NA 
HETATM   16  H1  UNL     1      -4.687  16.208  69.014  1.00  0.00     0.000 HD 
HETATM   17  H2  UNL     1      -4.779  16.181  67.259  1.00  0.00     0.000 HD 
ENDBRANCH   4   6
ENDBRANCH   3   4
ENDBRANCH   2   3
TORSDOF 3
ENDMDL
MODEL      246
REMARK 921   NORMALIZED FREE ENERGY PREDICTED BY IDOCK:   15.49 KCAL/MOL
REMARK 922        TOTAL FREE ENERGY PREDICTED BY IDOCK:   17.97 KCAL/MOL
REMARK 923 INTER-LIGAND FREE ENERGY PREDICTED BY IDOCK:   18.15 KCAL/MOL
REMARK 924 INTRA-LIGAND FREE ENERGY PREDICTED BY IDOCK:   -0.18 KCAL/MOL
REMARK 927      BINDING AFFINITY PREDICTED BY RF-SCORE:    0.00 PKD
ROOT
HETATM    1  C   UNL     1     -11.292  16.285  64.446  1.00  0.00    -0.137 C  
HETATM    2  C   UNL     1     -11.954  15.243  65.337  1.00  0.00     0.180 C  
ENDROOT
BRANCH   2   3
HETATM    3  C   UNL     1     -12.092  15.765  66.767  1.00  0.00     1.063 C  
BRANCH   3   4
HETATM    4  N   UNL     1     -13.204  15.110  67.467  1.00  0.00     2.369 NA 
HETATM    5  H   UNL     1     -13.306  14.139  67.171  1.00  0.00     0.000 HD 
BRANCH   4   6
HETATM    6  C   UNL     1     -13.072  15.211  68.935  1.00  0.00     1.568 C  
HETATM    7  C   UNL     1     -13.931  14.150  69.675  1.00  0.00     4.019 C  
HETATM    8  C   UNL     1     -13.918  14.384  71.193  1.00  0.00    -0.198 C  
HETATM    9  C   UNL     1     -12.533  14.595  71.684  1.00  0.00    -0.345 A  
HETATM   10  C   UNL     1     -11.484  14.925  70.853  1.00  0.00    -0.261 A  
HETATM   11  S   UNL     1     -10.055  15.084  71.766  1.00  0.00     3.099 SA 
HETATM   12  C   UNL     1     -11.576  15.070  69.366  1.00  0.00    -0.337 C  
HETATM   13  C   UNL     1     -10.946  14.699  73.193  1.00  0.00     2.064 A  
HETATM   14  N   UNL     1     -10.358  14.643  74.399  1.00  0.00     5.214 NA 
HETATM   15  N   UNL     1     -12.227  14.489  73.021  1.00  0.00    -0.143 NA 
HETATM   16  H1  UNL     1     -10.884  14.415  75.243  1.00  0.00     0.000 HD 
HETATM   17  H2  UNL     1      -9.359  14.832  74.473  1.00  0.00     0.000 HD 
ENDBRANCH   4   6
ENDBRANCH   3   4
ENDBRANCH   2   3
TORSDOF 3
ENDMDL
MODEL      247
REMARK 921   NORMALIZED FREE ENERGY PREDICTED BY IDOCK:   16.89 KCAL/MOL
REMARK 922        TOTAL FREE ENERGY PREDICTED BY IDOCK:   19.62 KCAL/MOL
REMARK 923 INTER-LIGAND FREE ENERGY PREDICTED BY IDOCK:   19.80 KCAL/MOL
REMARK 924 INTRA-LIGAND FREE ENERGY PREDICTED BY IDOCK:   -0.18 KCAL/MOL
REMARK 927      BINDING AFFINITY PREDICTED BY RF-SCORE:    0.00 PKD
ROOT
HETATM    1  C   UNL     1     -12.786  20.386  65.294  1.00  0.00     7.926 C  
HETATM    2  C   UNL     1     -13.561  20.205  66.593  1.00  0.00     7.326 C  
ENDROOT
BRANCH   2   3
HETATM    3  C   UNL     1     -12.622  19.811  67.732  1.00  0.00     4.728 C  
BRANCH   3   4
HETATM    4  N   UNL     1     -11.358  20.555  67.660  1.00  0.00     1.351 NA 
HETATM    5  H   UNL     1     -11.239  21.159  68.473  1.00  0.00     0.000 HD 
BRANCH   4   6
HETATM    6  C   UNL     1     -10.196  19.661  67.483  1.00  0.00    -0.432 C  
HETATM    7  C   UNL     1     -10.619  18.226  67.066  1.00  0.00    -0.375 C  
HETATM    8  C   UNL     1      -9.416  17.272  67.059  1.00  0.00    -0.264 C  
HETATM    9  C   UNL     1      -8.266  17.875  66.336  1.00  0.00    -0.255 A  
HETATM   10  C   UNL     1      -8.171  19.224  66.071  1.00  0.00    -0.195 A  
HETATM   11  S   UNL     1      -6.726  19.544  65.230  1.00  0.00    -0.188 SA 
HETATM   12  C   UNL     1      -9.207  20.246  66.423  1.00  0.00    -0.348 C  
HETATM   13  C   UNL     1      -6.343  17.862  65.284  1.00  0.00     0.133 A  
HETATM   14  N   UNL     1      -5.215  17.376  64.741  1.00  0.00     0.611 NA 
HETATM   15  N   UNL     1      -7.212  17.105  65.906  1.00  0.00    -0.217 NA 
HETATM   16  H1  UNL     1      -4.989  16.382  64.773  1.00  0.00     0.000 HD 
HETATM   17  H2  UNL     1      -4.568  18.018  64.284  1.00  0.00     0.000 HD 
ENDBRANCH   4   6
ENDBRANCH   3   4
ENDBRANCH   2   3
TORSDOF 3
ENDMDL
MODEL      248
REMARK 921   NORMALIZED FREE ENERGY PREDICTED BY IDOCK:   25.29 KCAL/MOL
REMARK 922        TOTAL FREE ENERGY PREDICTED BY IDOCK:   29.49 KCAL/MOL
REMARK 923 INTER-LIGAND FREE ENERGY PREDICTED BY IDOCK:   29.70 KCAL/MOL
REMARK 924 INTRA-LIGAND FREE ENERGY PREDICTED BY IDOCK:   -0.21 KCAL/MOL
REMARK 927      BINDING AFFINITY PREDICTED BY RF-SCORE:    0.00 PKD
ROOT
HETATM    1  C   UNL     1     -12.077  16.322  64.399  1.00  0.00     0.534 C  
HETATM    2  C   UNL     1     -12.585  15.370  65.474  1.00  0.00     0.939 C  
ENDROOT
BRANCH   2   3
HETATM    3  C   UNL     1     -12.538  16.035  66.849  1.00  0.00     2.684 C  
BRANCH   3   4
HETATM    4  N   UNL     1     -13.452  15.377  67.790  1.00  0.00     3.697 NA 
HETATM    5  H   UNL     1     -13.512  14.375  67.607  1.00  0.00     0.000 HD 
BRANCH   4   6
HETATM    6  C   UNL     1     -13.089  15.644  69.197  1.00  0.00     1.462 C  
HETATM    7  C   UNL     1     -12.062  14.615  69.743  1.00  0.00    -0.371 C  
HETATM    8  C   UNL     1     -11.833  14.804  71.249  1.00  0.00    -0.390 C  
HETATM    9  C   UNL     1     -11.595  16.234  71.574  1.00  0.00    -0.367 A  
HETATM   10  C   UNL     1     -11.927  17.262  70.718  1.00  0.00     3.292 A  
HETATM   11  S   UNL     1     -11.508  18.754  71.424  1.00  0.00     7.434 SA 
HETATM   12  C   UNL     1     -12.517  17.091  69.353  1.00  0.00     3.482 C  
HETATM   13  C   UNL     1     -10.917  17.912  72.810  1.00  0.00     2.822 A  
HETATM   14  N   UNL     1     -10.388  18.562  73.859  1.00  0.00     3.240 NA 
HETATM   15  N   UNL     1     -11.040  16.609  72.774  1.00  0.00     1.240 NA 
HETATM   16  H1  UNL     1     -10.039  18.065  74.678  1.00  0.00     0.000 HD 
HETATM   17  H2  UNL     1     -10.334  19.580  73.836  1.00  0.00     0.000 HD 
ENDBRANCH   4   6
ENDBRANCH   3   4
ENDBRANCH   2   3
TORSDOF 3
ENDMDL
