MODEL        1
REMARK 921   NORMALIZED FREE ENERGY PREDICTED BY IDOCK:   -6.73 KCAL/MOL
REMARK 922        TOTAL FREE ENERGY PREDICTED BY IDOCK:   -9.77 KCAL/MOL
REMARK 923 INTER-LIGAND FREE ENERGY PREDICTED BY IDOCK:   -9.09 KCAL/MOL
REMARK 924 INTRA-LIGAND FREE ENERGY PREDICTED BY IDOCK:   -0.69 KCAL/MOL
REMARK 927      BINDING AFFINITY PREDICTED BY RF-SCORE:    0.00 PKD
ROOT
HETATM    1  C   UNL     1      -6.115  20.316  69.206  1.00  0.00    -0.371 C  
HETATM    2  C   UNL     1      -6.726  20.265  67.835  1.00  0.00    -0.284 C  
HETATM    3  O   UNL     1      -7.560  21.074  67.450  1.00  0.00    -0.334 OA 
ENDROOT
BRANCH   2   4
HETATM    4  O   UNL     1      -6.202  19.224  67.151  1.00  0.00    -0.182 OA 
BRANCH   4   5
HETATM    5  C   UNL     1      -6.901  18.106  66.994  1.00  0.00    -0.185 A  
HETATM    6  C   UNL     1      -8.075  17.842  66.305  1.00  0.00    -0.266 A  
HETATM    7  C   UNL     1      -8.535  16.491  66.445  1.00  0.00    -0.357 A  
HETATM    8  C   UNL     1      -7.657  15.766  67.206  1.00  0.00    -0.210 A  
HETATM    9  C   UNL     1      -7.803  14.322  67.483  1.00  0.00    -0.209 C  
HETATM   10  S   UNL     1      -6.369  16.689  67.808  1.00  0.00    -0.152 SA 
HETATM   11  C   UNL     1      -9.244  13.851  67.210  1.00  0.00    -0.235 C  
HETATM   12  N   UNL     1     -10.127  14.559  66.252  1.00  0.00    -0.284 NA 
HETATM   13  C   UNL     1      -9.783  15.935  65.839  1.00  0.00    -0.351 C  
BRANCH  12  14
HETATM   14  C   UNL     1     -11.572  14.418  66.661  1.00  0.00    -0.384 C  
BRANCH  14  15
HETATM   15  C   UNL     1     -11.828  13.635  67.956  1.00  0.00    -0.397 A  
HETATM   16  F   UNL     1     -12.067  15.622  69.256  1.00  0.00    -0.343 F  
HETATM   17  C   UNL     1     -11.735  12.231  67.999  1.00  0.00    -0.417 A  
HETATM   18  C   UNL     1     -12.033  14.287  69.183  1.00  0.00    -0.335 A  
HETATM   19  C   UNL     1     -12.173  13.596  70.393  1.00  0.00    -0.434 A  
HETATM   20  C   UNL     1     -11.883  11.528  69.202  1.00  0.00    -0.406 A  
HETATM   21  C   UNL     1     -12.104  12.211  70.398  1.00  0.00    -0.395 A  
ENDBRANCH  14  15
BRANCH  14  22
HETATM   22  C   UNL     1     -12.413  13.919  65.450  1.00  0.00    -0.501 C  
HETATM   23  O   UNL     1     -13.624  14.086  65.330  1.00  0.00    -0.593 OA 
BRANCH  22  24
HETATM   24  C   UNL     1     -11.654  13.184  64.381  1.00  0.00    -0.422 C  
HETATM   25  C   UNL     1     -11.276  11.729  64.558  1.00  0.00    -0.368 C  
HETATM   26  C   UNL     1     -12.368  12.104  63.602  1.00  0.00    -0.673 C  
ENDBRANCH  22  24
ENDBRANCH  14  22
ENDBRANCH  12  14
ENDBRANCH   4   5
ENDBRANCH   2   4
TORSDOF 6
ENDMDL
MODEL        2
REMARK 921   NORMALIZED FREE ENERGY PREDICTED BY IDOCK:   -6.59 KCAL/MOL
REMARK 922        TOTAL FREE ENERGY PREDICTED BY IDOCK:   -9.59 KCAL/MOL
REMARK 923 INTER-LIGAND FREE ENERGY PREDICTED BY IDOCK:   -9.11 KCAL/MOL
REMARK 924 INTRA-LIGAND FREE ENERGY PREDICTED BY IDOCK:   -0.47 KCAL/MOL
REMARK 927      BINDING AFFINITY PREDICTED BY RF-SCORE:    0.00 PKD
ROOT
HETATM    1  C   UNL     1     -14.136  15.801  72.458  1.00  0.00    -0.491 C  
HETATM    2  C   UNL     1     -13.256  14.745  73.063  1.00  0.00    -0.490 C  
HETATM    3  O   UNL     1     -12.361  15.004  73.858  1.00  0.00    -0.554 OA 
ENDROOT
BRANCH   2   4
HETATM    4  O   UNL     1     -13.628  13.532  72.598  1.00  0.00    -0.629 OA 
BRANCH   4   5
HETATM    5  C   UNL     1     -12.970  12.971  71.590  1.00  0.00    -0.321 A  
HETATM    6  C   UNL     1     -12.347  13.517  70.479  1.00  0.00    -0.412 A  
HETATM    7  C   UNL     1     -11.798  12.538  69.586  1.00  0.00    -0.382 A  
HETATM    8  C   UNL     1     -11.992  11.277  70.085  1.00  0.00    -0.369 A  
HETATM    9  C   UNL     1     -11.486  10.048  69.440  1.00  0.00    -0.139 C  
HETATM   10  S   UNL     1     -12.877  11.256  71.531  1.00  0.00    -0.355 SA 
HETATM   11  C   UNL     1     -11.129  10.306  67.964  1.00  0.00    -0.274 C  
HETATM   12  N   UNL     1     -10.759  11.657  67.477  1.00  0.00    -0.205 NA 
HETATM   13  C   UNL     1     -11.098  12.837  68.299  1.00  0.00    -0.257 C  
BRANCH  12  14
HETATM   14  C   UNL     1     -11.155  11.824  66.030  1.00  0.00    -0.312 C  
BRANCH  14  15
HETATM   15  C   UNL     1     -10.155  11.287  64.996  1.00  0.00    -0.331 A  
HETATM   16  F   UNL     1     -11.729  11.445  63.209  1.00  0.00    -0.468 F  
HETATM   17  C   UNL     1      -8.880  10.826  65.374  1.00  0.00    -0.202 A  
HETATM   18  C   UNL     1     -10.513  11.103  63.651  1.00  0.00    -0.376 A  
HETATM   19  C   UNL     1      -9.651  10.526  62.710  1.00  0.00    -0.323 A  
HETATM   20  C   UNL     1      -8.005  10.256  64.440  1.00  0.00    -0.135 A  
HETATM   21  C   UNL     1      -8.390  10.108  63.108  1.00  0.00    -0.171 A  
ENDBRANCH  14  15
BRANCH  14  22
HETATM   22  C   UNL     1     -11.592  13.295  65.773  1.00  0.00    -0.337 C  
HETATM   23  O   UNL     1     -12.752  13.696  65.840  1.00  0.00    -0.450 OA 
BRANCH  22  24
HETATM   24  C   UNL     1     -10.492  14.256  65.418  1.00  0.00    -0.382 C  
HETATM   25  C   UNL     1     -10.808  15.619  64.842  1.00  0.00    -0.438 C  
HETATM   26  C   UNL     1     -10.323  15.502  66.256  1.00  0.00    -0.312 C  
ENDBRANCH  22  24
ENDBRANCH  14  22
ENDBRANCH  12  14
ENDBRANCH   4   5
ENDBRANCH   2   4
TORSDOF 6
ENDMDL
MODEL        3
REMARK 921   NORMALIZED FREE ENERGY PREDICTED BY IDOCK:   -6.53 KCAL/MOL
REMARK 922        TOTAL FREE ENERGY PREDICTED BY IDOCK:   -9.51 KCAL/MOL
REMARK 923 INTER-LIGAND FREE ENERGY PREDICTED BY IDOCK:   -9.29 KCAL/MOL
REMARK 924 INTRA-LIGAND FREE ENERGY PREDICTED BY IDOCK:   -0.22 KCAL/MOL
REMARK 927      BINDING AFFINITY PREDICTED BY RF-SCORE:    0.00 PKD
ROOT
HETATM    1  C   UNL     1     -14.188   8.403  71.900  1.00  0.00    -0.541 C  
HETATM    2  C   UNL     1     -12.976   9.284  71.810  1.00  0.00    -0.396 C  
HETATM    3  O   UNL     1     -11.912   8.901  71.341  1.00  0.00    -0.282 OA 
ENDROOT
BRANCH   2   4
HETATM    4  O   UNL     1     -13.273  10.505  72.308  1.00  0.00    -0.402 OA 
BRANCH   4   5
HETATM    5  C   UNL     1     -13.005  11.598  71.602  1.00  0.00    -0.378 A  
HETATM    6  C   UNL     1     -12.406  11.772  70.365  1.00  0.00    -0.362 A  
HETATM    7  C   UNL     1     -12.248  13.147  69.989  1.00  0.00    -0.323 A  
HETATM    8  C   UNL     1     -12.781  13.967  70.948  1.00  0.00    -0.350 A  
HETATM    9  C   UNL     1     -12.842  15.439  70.834  1.00  0.00    -0.536 C  
HETATM   10  S   UNL     1     -13.373  13.126  72.296  1.00  0.00    -0.469 SA 
HETATM   11  C   UNL     1     -11.861  15.950  69.762  1.00  0.00    -0.295 C  
HETATM   12  N   UNL     1     -11.424  15.094  68.633  1.00  0.00    -0.308 NA 
HETATM   13  C   UNL     1     -11.610  13.631  68.726  1.00  0.00    -0.324 C  
BRANCH  12  14
HETATM   14  C   UNL     1     -10.033  15.475  68.187  1.00  0.00    -0.217 C  
BRANCH  14  15
HETATM   15  C   UNL     1      -9.787  16.975  67.973  1.00  0.00    -0.275 A  
HETATM   16  F   UNL     1      -7.703  16.925  69.135  1.00  0.00    -0.234 F  
HETATM   17  C   UNL     1     -10.755  17.802  67.373  1.00  0.00    -0.287 A  
HETATM   18  C   UNL     1      -8.648  17.616  68.486  1.00  0.00    -0.285 A  
HETATM   19  C   UNL     1      -8.447  18.997  68.387  1.00  0.00    -0.383 A  
HETATM   20  C   UNL     1     -10.561  19.185  67.260  1.00  0.00    -0.573 A  
HETATM   21  C   UNL     1      -9.406  19.782  67.765  1.00  0.00    -0.443 A  
ENDBRANCH  14  15
BRANCH  14  22
HETATM   22  C   UNL     1      -9.612  14.592  66.978  1.00  0.00    -0.245 C  
HETATM   23  O   UNL     1      -8.838  13.640  67.051  1.00  0.00    -0.229 OA 
BRANCH  22  24
HETATM   24  C   UNL     1     -10.208  14.965  65.650  1.00  0.00    -0.382 C  
HETATM   25  C   UNL     1     -10.472  13.914  64.594  1.00  0.00    -0.419 C  
HETATM   26  C   UNL     1     -11.620  14.523  65.342  1.00  0.00    -0.355 C  
ENDBRANCH  22  24
ENDBRANCH  14  22
ENDBRANCH  12  14
ENDBRANCH   4   5
ENDBRANCH   2   4
TORSDOF 6
ENDMDL
MODEL        4
REMARK 921   NORMALIZED FREE ENERGY PREDICTED BY IDOCK:   -6.53 KCAL/MOL
REMARK 922        TOTAL FREE ENERGY PREDICTED BY IDOCK:   -9.50 KCAL/MOL
REMARK 923 INTER-LIGAND FREE ENERGY PREDICTED BY IDOCK:   -8.65 KCAL/MOL
REMARK 924 INTRA-LIGAND FREE ENERGY PREDICTED BY IDOCK:   -0.86 KCAL/MOL
REMARK 927      BINDING AFFINITY PREDICTED BY RF-SCORE:    0.00 PKD
ROOT
HETATM    1  C   UNL     1     -13.672   8.355  71.533  1.00  0.00    -0.356 C  
HETATM    2  C   UNL     1     -12.609   9.369  71.843  1.00  0.00    -0.401 C  
HETATM    3  O   UNL     1     -11.413   9.117  71.781  1.00  0.00    -0.347 OA 
ENDROOT
BRANCH   2   4
HETATM    4  O   UNL     1     -13.194  10.543  72.173  1.00  0.00    -0.458 OA 
BRANCH   4   5
HETATM    5  C   UNL     1     -12.914  11.645  71.487  1.00  0.00    -0.358 A  
HETATM    6  C   UNL     1     -12.277  11.838  70.272  1.00  0.00    -0.381 A  
HETATM    7  C   UNL     1     -12.121  13.218  69.915  1.00  0.00    -0.377 A  
HETATM    8  C   UNL     1     -12.694  14.023  70.863  1.00  0.00    -0.350 A  
HETATM    9  C   UNL     1     -12.768  15.496  70.761  1.00  0.00    -0.511 C  
HETATM   10  S   UNL     1     -13.322  13.163  72.183  1.00  0.00    -0.496 SA 
HETATM   11  C   UNL     1     -11.757  16.028  69.728  1.00  0.00    -0.265 C  
HETATM   12  N   UNL     1     -11.274  15.187  68.606  1.00  0.00    -0.271 NA 
HETATM   13  C   UNL     1     -11.447  13.721  68.678  1.00  0.00    -0.301 C  
BRANCH  12  14
HETATM   14  C   UNL     1      -9.874  15.588  68.210  1.00  0.00    -0.213 C  
BRANCH  14  15
HETATM   15  C   UNL     1      -9.640  17.091  68.008  1.00  0.00    -0.260 A  
HETATM   16  F   UNL     1      -7.578  17.057  69.211  1.00  0.00    -0.244 F  
HETATM   17  C   UNL     1     -10.604  17.911  67.393  1.00  0.00    -0.370 A  
HETATM   18  C   UNL     1      -8.517  17.741  68.546  1.00  0.00    -0.296 A  
HETATM   19  C   UNL     1      -8.329  19.125  68.458  1.00  0.00    -0.399 A  
HETATM   20  C   UNL     1     -10.423  19.297  67.290  1.00  0.00    -0.566 A  
HETATM   21  C   UNL     1      -9.285  19.903  67.821  1.00  0.00    -0.436 A  
ENDBRANCH  14  15
BRANCH  14  22
HETATM   22  C   UNL     1      -9.398  14.713  67.014  1.00  0.00    -0.232 C  
HETATM   23  O   UNL     1      -9.931  14.702  65.907  1.00  0.00    -0.295 OA 
BRANCH  22  24
HETATM   24  C   UNL     1      -8.209  13.833  67.275  1.00  0.00    -0.173 C  
HETATM   25  C   UNL     1      -6.835  14.428  67.495  1.00  0.00    -0.162 C  
HETATM   26  C   UNL     1      -7.588  13.846  68.654  1.00  0.00    -0.130 C  
ENDBRANCH  22  24
ENDBRANCH  14  22
ENDBRANCH  12  14
ENDBRANCH   4   5
ENDBRANCH   2   4
TORSDOF 6
ENDMDL
MODEL        5
REMARK 921   NORMALIZED FREE ENERGY PREDICTED BY IDOCK:   -6.35 KCAL/MOL
REMARK 922        TOTAL FREE ENERGY PREDICTED BY IDOCK:   -9.26 KCAL/MOL
REMARK 923 INTER-LIGAND FREE ENERGY PREDICTED BY IDOCK:   -8.44 KCAL/MOL
REMARK 924 INTRA-LIGAND FREE ENERGY PREDICTED BY IDOCK:   -0.82 KCAL/MOL
REMARK 927      BINDING AFFINITY PREDICTED BY RF-SCORE:    0.00 PKD
ROOT
HETATM    1  C   UNL     1     -12.136  12.830  63.477  1.00  0.00    -0.642 C  
HETATM    2  C   UNL     1     -11.972  14.187  64.099  1.00  0.00    -0.393 C  
HETATM    3  O   UNL     1     -12.762  15.103  63.909  1.00  0.00    -0.759 OA 
ENDROOT
BRANCH   2   4
HETATM    4  O   UNL     1     -10.861  14.195  64.868  1.00  0.00    -0.366 OA 
BRANCH   4   5
HETATM    5  C   UNL     1     -10.814  13.473  65.982  1.00  0.00    -0.278 A  
HETATM    6  C   UNL     1     -10.013  12.406  66.355  1.00  0.00    -0.254 A  
HETATM    7  C   UNL     1     -10.336  11.865  67.643  1.00  0.00    -0.217 A  
HETATM    8  C   UNL     1     -11.351  12.581  68.220  1.00  0.00    -0.286 A  
HETATM    9  C   UNL     1     -11.874  12.324  69.578  1.00  0.00    -0.380 C  
HETATM   10  S   UNL     1     -11.959  13.807  67.219  1.00  0.00    -0.377 SA 
HETATM   11  C   UNL     1     -11.473  10.920  70.067  1.00  0.00    -0.329 C  
HETATM   12  N   UNL     1     -10.270  10.228  69.547  1.00  0.00    -0.228 NA 
HETATM   13  C   UNL     1      -9.659  10.696  68.286  1.00  0.00    -0.162 C  
BRANCH  12  14
HETATM   14  C   UNL     1     -10.465   8.732  69.578  1.00  0.00    -0.220 C  
BRANCH  14  15
HETATM   15  C   UNL     1     -10.422   8.079  70.966  1.00  0.00    -0.229 A  
HETATM   16  F   UNL     1     -12.232   6.605  70.465  1.00  0.00    -0.443 F  
HETATM   17  C   UNL     1      -9.564   8.553  71.977  1.00  0.00    -0.371 A  
HETATM   18  C   UNL     1     -11.329   7.072  71.336  1.00  0.00    -0.265 A  
HETATM   19  C   UNL     1     -11.373   6.529  72.625  1.00  0.00    -0.259 A  
HETATM   20  C   UNL     1      -9.592   8.010  73.268  1.00  0.00    -0.322 A  
HETATM   21  C   UNL     1     -10.494   6.998  73.592  1.00  0.00    -0.414 A  
ENDBRANCH  14  15
BRANCH  14  22
HETATM   22  C   UNL     1      -9.521   8.060  68.539  1.00  0.00    -0.142 C  
HETATM   23  O   UNL     1      -8.307   7.937  68.683  1.00  0.00    -0.126 OA 
BRANCH  22  24
HETATM   24  C   UNL     1     -10.177   7.545  67.289  1.00  0.00    -0.337 C  
HETATM   25  C   UNL     1      -9.714   6.258  66.642  1.00  0.00    -0.195 C  
HETATM   26  C   UNL     1     -11.020   6.293  67.378  1.00  0.00    -0.447 C  
ENDBRANCH  22  24
ENDBRANCH  14  22
ENDBRANCH  12  14
ENDBRANCH   4   5
ENDBRANCH   2   4
TORSDOF 6
ENDMDL
MODEL        6
REMARK 921   NORMALIZED FREE ENERGY PREDICTED BY IDOCK:   -6.32 KCAL/MOL
REMARK 922        TOTAL FREE ENERGY PREDICTED BY IDOCK:   -9.22 KCAL/MOL
REMARK 923 INTER-LIGAND FREE ENERGY PREDICTED BY IDOCK:   -8.42 KCAL/MOL
REMARK 924 INTRA-LIGAND FREE ENERGY PREDICTED BY IDOCK:   -0.80 KCAL/MOL
REMARK 927      BINDING AFFINITY PREDICTED BY RF-SCORE:    0.00 PKD
ROOT
HETATM    1  C   UNL     1      -7.643  20.429  67.219  1.00  0.00    -0.371 C  
HETATM    2  C   UNL     1      -7.842  19.661  65.944  1.00  0.00    -0.286 C  
HETATM    3  O   UNL     1      -6.970  19.551  65.092  1.00  0.00    -0.407 OA 
ENDROOT
BRANCH   2   4
HETATM    4  O   UNL     1      -9.089  19.139  65.927  1.00  0.00    -0.436 OA 
BRANCH   4   5
HETATM    5  C   UNL     1      -9.350  18.008  66.573  1.00  0.00    -0.285 A  
HETATM    6  C   UNL     1      -8.784  16.746  66.486  1.00  0.00    -0.310 A  
HETATM    7  C   UNL     1      -9.414  15.772  67.330  1.00  0.00    -0.217 A  
HETATM    8  C   UNL     1     -10.415  16.353  68.063  1.00  0.00    -0.303 A  
HETATM    9  C   UNL     1     -11.214  15.639  69.079  1.00  0.00    -0.306 C  
HETATM   10  S   UNL     1     -10.653  17.991  67.693  1.00  0.00    -0.346 SA 
HETATM   11  C   UNL     1     -11.105  14.114  68.895  1.00  0.00    -0.263 C  
HETATM   12  N   UNL     1      -9.928  13.490  68.242  1.00  0.00    -0.234 NA 
HETATM   13  C   UNL     1      -9.033  14.329  67.419  1.00  0.00    -0.201 C  
BRANCH  12  14
HETATM   14  C   UNL     1     -10.325  12.209  67.549  1.00  0.00    -0.205 C  
BRANCH  14  15
HETATM   15  C   UNL     1     -10.951  12.368  66.157  1.00  0.00    -0.321 A  
HETATM   16  F   UNL     1      -9.337  10.938  65.133  1.00  0.00    -0.201 F  
HETATM   17  C   UNL     1     -12.021  13.253  65.926  1.00  0.00    -0.466 A  
HETATM   18  C   UNL     1     -10.400  11.743  65.026  1.00  0.00    -0.281 A  
HETATM   19  C   UNL     1     -10.894  11.948  63.732  1.00  0.00    -0.481 A  
HETATM   20  C   UNL     1     -12.530  13.459  64.637  1.00  0.00    -0.385 A  
HETATM   21  C   UNL     1     -11.968  12.805  63.541  1.00  0.00    -0.633 A  
ENDBRANCH  14  15
BRANCH  14  22
HETATM   22  C   UNL     1     -11.166  11.329  68.518  1.00  0.00    -0.252 C  
HETATM   23  O   UNL     1     -12.373  11.130  68.404  1.00  0.00    -0.556 OA 
BRANCH  22  24
HETATM   24  C   UNL     1     -10.414  10.704  69.659  1.00  0.00    -0.219 C  
HETATM   25  C   UNL     1     -10.289   9.200  69.777  1.00  0.00    -0.226 C  
HETATM   26  C   UNL     1      -9.099  10.017  69.369  1.00  0.00    -0.228 C  
ENDBRANCH  22  24
ENDBRANCH  14  22
ENDBRANCH  12  14
ENDBRANCH   4   5
ENDBRANCH   2   4
TORSDOF 6
ENDMDL
MODEL        7
REMARK 921   NORMALIZED FREE ENERGY PREDICTED BY IDOCK:   -6.26 KCAL/MOL
REMARK 922        TOTAL FREE ENERGY PREDICTED BY IDOCK:   -9.14 KCAL/MOL
REMARK 923 INTER-LIGAND FREE ENERGY PREDICTED BY IDOCK:   -8.22 KCAL/MOL
REMARK 924 INTRA-LIGAND FREE ENERGY PREDICTED BY IDOCK:   -0.92 KCAL/MOL
REMARK 927      BINDING AFFINITY PREDICTED BY RF-SCORE:    0.00 PKD
ROOT
HETATM    1  C   UNL     1     -12.414  15.150  74.260  1.00  0.00    -0.636 C  
HETATM    2  C   UNL     1     -12.591  15.592  72.836  1.00  0.00    -0.428 C  
HETATM    3  O   UNL     1     -11.977  16.535  72.354  1.00  0.00    -0.513 OA 
ENDROOT
BRANCH   2   4
HETATM    4  O   UNL     1     -13.492  14.789  72.228  1.00  0.00    -0.345 OA 
BRANCH   4   5
HETATM    5  C   UNL     1     -13.099  13.662  71.647  1.00  0.00    -0.372 A  
HETATM    6  C   UNL     1     -13.172  12.340  72.056  1.00  0.00    -0.508 A  
HETATM    7  C   UNL     1     -12.562  11.418  71.142  1.00  0.00    -0.490 A  
HETATM    8  C   UNL     1     -12.085  12.083  70.043  1.00  0.00    -0.280 A  
HETATM    9  C   UNL     1     -11.461  11.416  68.882  1.00  0.00    -0.363 C  
HETATM   10  S   UNL     1     -12.281  13.764  70.138  1.00  0.00    -0.341 SA 
HETATM   11  C   UNL     1     -11.011   9.987  69.243  1.00  0.00    -0.228 C  
HETATM   12  N   UNL     1     -11.656   9.220  70.335  1.00  0.00    -0.222 NA 
HETATM   13  C   UNL     1     -12.467   9.939  71.339  1.00  0.00    -0.398 C  
BRANCH  12  14
HETATM   14  C   UNL     1     -10.673   8.261  70.960  1.00  0.00    -0.218 C  
BRANCH  14  15
HETATM   15  C   UNL     1      -9.891   7.372  69.983  1.00  0.00    -0.179 A  
HETATM   16  F   UNL     1     -11.864   6.273  69.210  1.00  0.00    -0.445 F  
HETATM   17  C   UNL     1      -8.484   7.385  69.940  1.00  0.00    -0.139 A  
HETATM   18  C   UNL     1     -10.533   6.411  69.186  1.00  0.00    -0.229 A  
HETATM   19  C   UNL     1      -9.834   5.524  68.358  1.00  0.00    -0.186 A  
HETATM   20  C   UNL     1      -7.773   6.509  69.109  1.00  0.00    -0.102 A  
HETATM   21  C   UNL     1      -8.448   5.580  68.317  1.00  0.00    -0.097 A  
ENDBRANCH  14  15
BRANCH  14  22
HETATM   22  C   UNL     1     -11.369   7.471  72.106  1.00  0.00    -0.283 C  
HETATM   23  O   UNL     1     -12.450   6.895  71.995  1.00  0.00    -0.312 OA 
BRANCH  22  24
HETATM   24  C   UNL     1     -10.642   7.440  73.420  1.00  0.00    -0.427 C  
HETATM   25  C   UNL     1      -9.433   6.552  73.618  1.00  0.00    -0.169 C  
HETATM   26  C   UNL     1      -9.254   8.035  73.493  1.00  0.00    -0.312 C  
ENDBRANCH  22  24
ENDBRANCH  14  22
ENDBRANCH  12  14
ENDBRANCH   4   5
ENDBRANCH   2   4
TORSDOF 6
ENDMDL
MODEL        8
REMARK 921   NORMALIZED FREE ENERGY PREDICTED BY IDOCK:   -6.22 KCAL/MOL
REMARK 922        TOTAL FREE ENERGY PREDICTED BY IDOCK:   -9.09 KCAL/MOL
REMARK 923 INTER-LIGAND FREE ENERGY PREDICTED BY IDOCK:   -8.28 KCAL/MOL
REMARK 924 INTRA-LIGAND FREE ENERGY PREDICTED BY IDOCK:   -0.81 KCAL/MOL
REMARK 927      BINDING AFFINITY PREDICTED BY RF-SCORE:    0.00 PKD
ROOT
HETATM    1  C   UNL     1     -10.767  19.624  67.162  1.00  0.00    -0.587 C  
HETATM    2  C   UNL     1      -9.542  18.822  66.831  1.00  0.00    -0.309 C  
HETATM    3  O   UNL     1      -8.496  18.918  67.461  1.00  0.00    -0.270 OA 
ENDROOT
BRANCH   2   4
HETATM    4  O   UNL     1      -9.805  18.017  65.778  1.00  0.00    -0.539 OA 
BRANCH   4   5
HETATM    5  C   UNL     1     -10.357  16.824  65.968  1.00  0.00    -0.335 A  
HETATM    6  C   UNL     1     -10.382  15.986  67.071  1.00  0.00    -0.292 A  
HETATM    7  C   UNL     1     -11.045  14.737  66.832  1.00  0.00    -0.339 A  
HETATM    8  C   UNL     1     -11.539  14.697  65.555  1.00  0.00    -0.335 A  
HETATM    9  C   UNL     1     -12.335  13.577  65.013  1.00  0.00    -0.468 C  
HETATM   10  S   UNL     1     -11.150  16.072  64.642  1.00  0.00    -0.162 SA 
HETATM   11  C   UNL     1     -12.157  12.309  65.870  1.00  0.00    -0.186 C  
HETATM   12  N   UNL     1     -11.781  12.383  67.302  1.00  0.00    -0.451 NA 
HETATM   13  C   UNL     1     -11.196  13.633  67.829  1.00  0.00    -0.285 C  
BRANCH  12  14
HETATM   14  C   UNL     1     -10.996  11.159  67.706  1.00  0.00    -0.262 C  
BRANCH  14  15
HETATM   15  C   UNL     1     -11.290  10.608  69.109  1.00  0.00    -0.338 A  
HETATM   16  F   UNL     1     -10.220   8.525  68.649  1.00  0.00    -0.184 F  
HETATM   17  C   UNL     1     -12.074  11.325  70.033  1.00  0.00    -0.425 A  
HETATM   18  C   UNL     1     -10.907   9.311  69.486  1.00  0.00    -0.195 A  
HETATM   19  C   UNL     1     -11.247   8.751  70.724  1.00  0.00    -0.309 A  
HETATM   20  C   UNL     1     -12.412  10.779  71.278  1.00  0.00    -0.504 A  
HETATM   21  C   UNL     1     -11.997   9.494  71.624  1.00  0.00    -0.474 A  
ENDBRANCH  14  15
BRANCH  14  22
HETATM   22  C   UNL     1      -9.483  11.393  67.429  1.00  0.00    -0.167 C  
HETATM   23  O   UNL     1      -8.712  11.945  68.210  1.00  0.00    -0.163 OA 
BRANCH  22  24
HETATM   24  C   UNL     1      -8.973  10.901  66.104  1.00  0.00    -0.196 C  
HETATM   25  C   UNL     1      -8.347   9.530  65.972  1.00  0.00    -0.123 C  
HETATM   26  C   UNL     1      -9.716   9.780  65.414  1.00  0.00    -0.383 C  
ENDBRANCH  22  24
ENDBRANCH  14  22
ENDBRANCH  12  14
ENDBRANCH   4   5
ENDBRANCH   2   4
TORSDOF 6
ENDMDL
MODEL        9
REMARK 921   NORMALIZED FREE ENERGY PREDICTED BY IDOCK:   -6.14 KCAL/MOL
REMARK 922        TOTAL FREE ENERGY PREDICTED BY IDOCK:   -8.98 KCAL/MOL
REMARK 923 INTER-LIGAND FREE ENERGY PREDICTED BY IDOCK:   -8.11 KCAL/MOL
REMARK 924 INTRA-LIGAND FREE ENERGY PREDICTED BY IDOCK:   -0.86 KCAL/MOL
REMARK 927      BINDING AFFINITY PREDICTED BY RF-SCORE:    0.00 PKD
ROOT
HETATM    1  C   UNL     1     -10.655  19.532  66.195  1.00  0.00    -0.585 C  
HETATM    2  C   UNL     1      -9.463  18.640  66.386  1.00  0.00    -0.311 C  
HETATM    3  O   UNL     1      -8.555  18.904  67.164  1.00  0.00    -0.272 OA 
ENDROOT
BRANCH   2   4
HETATM    4  O   UNL     1      -9.585  17.554  65.591  1.00  0.00    -0.510 OA 
BRANCH   4   5
HETATM    5  C   UNL     1     -10.076  16.420  66.078  1.00  0.00    -0.353 A  
HETATM    6  C   UNL     1      -9.926  15.805  67.311  1.00  0.00    -0.238 A  
HETATM    7  C   UNL     1     -10.586  14.536  67.407  1.00  0.00    -0.271 A  
HETATM    8  C   UNL     1     -11.254  14.257  66.244  1.00  0.00    -0.337 A  
HETATM    9  C   UNL     1     -12.092  13.057  66.041  1.00  0.00    -0.493 C  
HETATM   10  S   UNL     1     -11.030  15.433  65.044  1.00  0.00    -0.423 SA 
HETATM   11  C   UNL     1     -11.765  11.973  67.085  1.00  0.00    -0.273 C  
HETATM   12  N   UNL     1     -11.192  12.315  68.410  1.00  0.00    -0.243 NA 
HETATM   13  C   UNL     1     -10.569  13.640  68.604  1.00  0.00    -0.248 C  
BRANCH  12  14
HETATM   14  C   UNL     1     -10.329  11.186  68.919  1.00  0.00    -0.201 C  
BRANCH  14  15
HETATM   15  C   UNL     1      -9.815  10.204  67.857  1.00  0.00    -0.176 A  
HETATM   16  F   UNL     1      -8.280  11.793  66.953  1.00  0.00    -0.149 F  
HETATM   17  C   UNL     1     -10.394   8.932  67.689  1.00  0.00    -0.313 A  
HETATM   18  C   UNL     1      -8.840  10.577  66.919  1.00  0.00    -0.137 A  
HETATM   19  C   UNL     1      -8.424   9.733  65.882  1.00  0.00    -0.136 A  
HETATM   20  C   UNL     1      -9.979   8.074  66.661  1.00  0.00    -0.326 A  
HETATM   21  C   UNL     1      -8.994   8.474  65.759  1.00  0.00    -0.229 A  
ENDBRANCH  14  15
BRANCH  14  22
HETATM   22  C   UNL     1     -11.029  10.496  70.125  1.00  0.00    -0.270 C  
HETATM   23  O   UNL     1     -10.455   9.785  70.947  1.00  0.00    -0.302 OA 
BRANCH  22  24
HETATM   24  C   UNL     1     -12.507  10.736  70.253  1.00  0.00    -0.395 C  
HETATM   25  C   UNL     1     -13.337   9.958  71.251  1.00  0.00    -0.419 C  
HETATM   26  C   UNL     1     -13.026  11.402  71.508  1.00  0.00    -0.505 C  
ENDBRANCH  22  24
ENDBRANCH  14  22
ENDBRANCH  12  14
ENDBRANCH   4   5
ENDBRANCH   2   4
TORSDOF 6
ENDMDL
MODEL       10
REMARK 921   NORMALIZED FREE ENERGY PREDICTED BY IDOCK:   -6.11 KCAL/MOL
REMARK 922        TOTAL FREE ENERGY PREDICTED BY IDOCK:   -8.93 KCAL/MOL
REMARK 923 INTER-LIGAND FREE ENERGY PREDICTED BY IDOCK:   -7.88 KCAL/MOL
REMARK 924 INTRA-LIGAND FREE ENERGY PREDICTED BY IDOCK:   -1.06 KCAL/MOL
REMARK 927      BINDING AFFINITY PREDICTED BY RF-SCORE:    0.00 PKD
ROOT
HETATM    1  C   UNL     1     -10.624   7.606  67.052  1.00  0.00    -0.406 C  
HETATM    2  C   UNL     1     -10.325   8.977  67.586  1.00  0.00    -0.257 C  
HETATM    3  O   UNL     1     -10.845   9.421  68.602  1.00  0.00    -0.195 OA 
ENDROOT
BRANCH   2   4
HETATM    4  O   UNL     1      -9.420   9.581  66.784  1.00  0.00    -0.152 OA 
BRANCH   4   5
HETATM    5  C   UNL     1      -9.580  10.853  66.435  1.00  0.00    -0.197 A  
HETATM    6  C   UNL     1      -8.982  12.016  66.894  1.00  0.00    -0.199 A  
HETATM    7  C   UNL     1      -9.495  13.208  66.283  1.00  0.00    -0.194 A  
HETATM    8  C   UNL     1     -10.440  12.892  65.343  1.00  0.00    -0.292 A  
HETATM    9  C   UNL     1     -11.114  13.888  64.484  1.00  0.00    -0.374 C  
HETATM   10  S   UNL     1     -10.769  11.231  65.253  1.00  0.00    -0.196 SA 
HETATM   11  C   UNL     1     -10.971  15.306  65.067  1.00  0.00    -0.437 C  
HETATM   12  N   UNL     1      -9.842  15.673  65.956  1.00  0.00    -0.306 NA 
HETATM   13  C   UNL     1      -9.059  14.601  66.604  1.00  0.00    -0.258 C  
BRANCH  12  14
HETATM   14  C   UNL     1     -10.259  16.755  66.922  1.00  0.00    -0.290 C  
BRANCH  14  15
HETATM   15  C   UNL     1      -9.399  18.026  66.917  1.00  0.00    -0.276 A  
HETATM   16  F   UNL     1     -11.210  19.402  67.640  1.00  0.00    -0.507 F  
HETATM   17  C   UNL     1      -8.072  18.015  66.448  1.00  0.00    -0.292 A  
HETATM   18  C   UNL     1      -9.935  19.280  67.250  1.00  0.00    -0.363 A  
HETATM   19  C   UNL     1      -9.198  20.467  67.161  1.00  0.00    -0.511 A  
HETATM   20  C   UNL     1      -7.321  19.195  66.363  1.00  0.00    -0.263 A  
HETATM   21  C   UNL     1      -7.883  20.420  66.721  1.00  0.00    -0.310 A  
ENDBRANCH  14  15
BRANCH  14  22
HETATM   22  C   UNL     1     -10.462  16.141  68.338  1.00  0.00    -0.274 C  
HETATM   23  O   UNL     1      -9.612  16.146  69.224  1.00  0.00    -0.238 OA 
BRANCH  22  24
HETATM   24  C   UNL     1     -11.799  15.504  68.593  1.00  0.00    -0.318 C  
HETATM   25  C   UNL     1     -11.908  14.032  68.926  1.00  0.00    -0.390 C  
HETATM   26  C   UNL     1     -12.130  15.056  69.998  1.00  0.00    -0.382 C  
ENDBRANCH  22  24
ENDBRANCH  14  22
ENDBRANCH  12  14
ENDBRANCH   4   5
ENDBRANCH   2   4
TORSDOF 6
ENDMDL
MODEL       11
REMARK 921   NORMALIZED FREE ENERGY PREDICTED BY IDOCK:   -6.11 KCAL/MOL
REMARK 922        TOTAL FREE ENERGY PREDICTED BY IDOCK:   -8.93 KCAL/MOL
REMARK 923 INTER-LIGAND FREE ENERGY PREDICTED BY IDOCK:   -8.44 KCAL/MOL
REMARK 924 INTRA-LIGAND FREE ENERGY PREDICTED BY IDOCK:   -0.49 KCAL/MOL
REMARK 927      BINDING AFFINITY PREDICTED BY RF-SCORE:    0.00 PKD
ROOT
HETATM    1  C   UNL     1     -12.447  15.884  73.792  1.00  0.00    -0.728 C  
HETATM    2  C   UNL     1     -13.176  15.745  72.487  1.00  0.00    -0.487 C  
HETATM    3  O   UNL     1     -14.381  15.538  72.419  1.00  0.00    -0.558 OA 
ENDROOT
BRANCH   2   4
HETATM    4  O   UNL     1     -12.301  15.895  71.469  1.00  0.00    -0.423 OA 
BRANCH   4   5
HETATM    5  C   UNL     1     -12.208  14.965  70.524  1.00  0.00    -0.329 A  
HETATM    6  C   UNL     1     -12.169  13.582  70.593  1.00  0.00    -0.434 A  
HETATM    7  C   UNL     1     -11.997  12.945  69.320  1.00  0.00    -0.313 A  
HETATM    8  C   UNL     1     -11.956  13.881  68.321  1.00  0.00    -0.357 A  
HETATM    9  C   UNL     1     -11.856  13.551  66.884  1.00  0.00    -0.452 C  
HETATM   10  S   UNL     1     -12.034  15.476  68.892  1.00  0.00    -0.199 SA 
HETATM   11  C   UNL     1     -11.359  12.107  66.683  1.00  0.00    -0.350 C  
HETATM   12  N   UNL     1     -11.562  11.063  67.716  1.00  0.00    -0.564 NA 
HETATM   13  C   UNL     1     -11.892  11.470  69.097  1.00  0.00    -0.340 C  
BRANCH  12  14
HETATM   14  C   UNL     1     -10.452  10.041  67.661  1.00  0.00    -0.246 C  
BRANCH  14  15
HETATM   15  C   UNL     1     -10.653   8.787  68.523  1.00  0.00    -0.171 A  
HETATM   16  F   UNL     1     -10.584   7.329  66.635  1.00  0.00    -0.346 F  
HETATM   17  C   UNL     1     -10.900   8.875  69.906  1.00  0.00    -0.219 A  
HETATM   18  C   UNL     1     -10.735   7.507  67.952  1.00  0.00    -0.133 A  
HETATM   19  C   UNL     1     -11.012   6.359  68.705  1.00  0.00    -0.404 A  
HETATM   20  C   UNL     1     -11.170   7.733  70.671  1.00  0.00    -0.278 A  
HETATM   21  C   UNL     1     -11.224   6.475  70.071  1.00  0.00    -0.453 A  
ENDBRANCH  14  15
BRANCH  14  22
HETATM   22  C   UNL     1      -9.083  10.745  67.886  1.00  0.00    -0.150 C  
HETATM   23  O   UNL     1      -8.813  11.440  68.863  1.00  0.00    -0.116 OA 
BRANCH  22  24
HETATM   24  C   UNL     1      -8.052  10.539  66.812  1.00  0.00    -0.123 C  
HETATM   25  C   UNL     1      -7.863   9.183  66.166  1.00  0.00    -0.103 C  
HETATM   26  C   UNL     1      -8.523  10.289  65.398  1.00  0.00    -0.166 C  
ENDBRANCH  22  24
ENDBRANCH  14  22
ENDBRANCH  12  14
ENDBRANCH   4   5
ENDBRANCH   2   4
TORSDOF 6
ENDMDL
MODEL       12
REMARK 921   NORMALIZED FREE ENERGY PREDICTED BY IDOCK:   -6.11 KCAL/MOL
REMARK 922        TOTAL FREE ENERGY PREDICTED BY IDOCK:   -8.93 KCAL/MOL
REMARK 923 INTER-LIGAND FREE ENERGY PREDICTED BY IDOCK:   -7.85 KCAL/MOL
REMARK 924 INTRA-LIGAND FREE ENERGY PREDICTED BY IDOCK:   -1.08 KCAL/MOL
REMARK 927      BINDING AFFINITY PREDICTED BY RF-SCORE:    0.00 PKD
ROOT
HETATM    1  C   UNL     1     -10.025   8.707  67.344  1.00  0.00    -0.270 C  
HETATM    2  C   UNL     1     -10.846   9.951  67.162  1.00  0.00    -0.157 C  
HETATM    3  O   UNL     1     -11.553  10.414  68.047  1.00  0.00    -0.392 OA 
ENDROOT
BRANCH   2   4
HETATM    4  O   UNL     1     -10.656  10.433  65.914  1.00  0.00    -0.159 OA 
BRANCH   4   5
HETATM    5  C   UNL     1     -10.572  11.743  65.708  1.00  0.00    -0.268 A  
HETATM    6  C   UNL     1      -9.652  12.686  66.138  1.00  0.00    -0.222 A  
HETATM    7  C   UNL     1      -9.969  14.026  65.737  1.00  0.00    -0.319 A  
HETATM    8  C   UNL     1     -11.106  14.038  64.973  1.00  0.00    -0.363 A  
HETATM    9  C   UNL     1     -11.665  15.253  64.344  1.00  0.00    -0.289 C  
HETATM   10  S   UNL     1     -11.821  12.509  64.811  1.00  0.00    -0.398 SA 
HETATM   11  C   UNL     1     -11.101  16.525  65.004  1.00  0.00    -0.166 C  
HETATM   12  N   UNL     1      -9.785  16.530  65.687  1.00  0.00    -0.534 NA 
HETATM   13  C   UNL     1      -9.174  15.244  66.083  1.00  0.00    -0.310 C  
BRANCH  12  14
HETATM   14  C   UNL     1      -9.771  17.547  66.802  1.00  0.00    -0.295 C  
BRANCH  14  15
HETATM   15  C   UNL     1      -8.632  18.575  66.756  1.00  0.00    -0.290 A  
HETATM   16  F   UNL     1      -9.847  20.163  68.060  1.00  0.00    -0.460 F  
HETATM   17  C   UNL     1      -7.473  18.357  65.987  1.00  0.00    -0.256 A  
HETATM   18  C   UNL     1      -8.751  19.835  67.366  1.00  0.00    -0.326 A  
HETATM   19  C   UNL     1      -7.767  20.824  67.257  1.00  0.00    -0.332 A  
HETATM   20  C   UNL     1      -6.476  19.336  65.879  1.00  0.00    -0.246 A  
HETATM   21  C   UNL     1      -6.622  20.569  66.516  1.00  0.00    -0.295 A  
ENDBRANCH  14  15
BRANCH  14  22
HETATM   22  C   UNL     1      -9.907  16.823  68.172  1.00  0.00    -0.264 C  
HETATM   23  O   UNL     1      -8.962  16.540  68.904  1.00  0.00    -0.240 OA 
BRANCH  22  24
HETATM   24  C   UNL     1     -11.305  16.460  68.588  1.00  0.00    -0.289 C  
HETATM   25  C   UNL     1     -11.702  15.015  68.797  1.00  0.00    -0.360 C  
HETATM   26  C   UNL     1     -11.526  15.917  69.981  1.00  0.00    -0.354 C  
ENDBRANCH  22  24
ENDBRANCH  14  22
ENDBRANCH  12  14
ENDBRANCH   4   5
ENDBRANCH   2   4
TORSDOF 6
ENDMDL
MODEL       13
REMARK 921   NORMALIZED FREE ENERGY PREDICTED BY IDOCK:   -6.10 KCAL/MOL
REMARK 922        TOTAL FREE ENERGY PREDICTED BY IDOCK:   -8.92 KCAL/MOL
REMARK 923 INTER-LIGAND FREE ENERGY PREDICTED BY IDOCK:   -8.15 KCAL/MOL
REMARK 924 INTRA-LIGAND FREE ENERGY PREDICTED BY IDOCK:   -0.77 KCAL/MOL
REMARK 927      BINDING AFFINITY PREDICTED BY RF-SCORE:    0.00 PKD
ROOT
HETATM    1  C   UNL     1     -10.141   5.065  69.723  1.00  0.00    -0.337 C  
HETATM    2  C   UNL     1     -10.351   6.061  70.826  1.00  0.00    -0.224 C  
HETATM    3  O   UNL     1     -11.076   5.842  71.788  1.00  0.00    -0.263 OA 
ENDROOT
BRANCH   2   4
HETATM    4  O   UNL     1      -9.622   7.170  70.572  1.00  0.00    -0.169 OA 
BRANCH   4   5
HETATM    5  C   UNL     1     -10.208   8.260  70.090  1.00  0.00    -0.199 A  
HETATM    6  C   UNL     1     -10.390   8.712  68.793  1.00  0.00    -0.228 A  
HETATM    7  C   UNL     1     -11.029   9.993  68.713  1.00  0.00    -0.242 A  
HETATM    8  C   UNL     1     -11.349  10.445  69.965  1.00  0.00    -0.313 A  
HETATM    9  C   UNL     1     -12.079  11.703  70.227  1.00  0.00    -0.443 C  
HETATM   10  S   UNL     1     -10.825   9.414  71.205  1.00  0.00    -0.371 SA 
HETATM   11  C   UNL     1     -12.032  12.634  69.001  1.00  0.00    -0.236 C  
HETATM   12  N   UNL     1     -11.849  12.104  67.628  1.00  0.00    -0.535 NA 
HETATM   13  C   UNL     1     -11.326  10.734  67.448  1.00  0.00    -0.160 C  
BRANCH  12  14
HETATM   14  C   UNL     1     -11.140  13.116  66.761  1.00  0.00    -0.289 C  
BRANCH  14  15
HETATM   15  C   UNL     1     -10.500  14.300  67.500  1.00  0.00    -0.252 A  
HETATM   16  F   UNL     1      -8.767  12.944  68.426  1.00  0.00    -0.174 F  
HETATM   17  C   UNL     1     -11.098  15.574  67.508  1.00  0.00    -0.305 A  
HETATM   18  C   UNL     1      -9.366  14.136  68.312  1.00  0.00    -0.203 A  
HETATM   19  C   UNL     1      -8.822  15.178  69.072  1.00  0.00    -0.219 A  
HETATM   20  C   UNL     1     -10.557  16.627  68.256  1.00  0.00    -0.338 A  
HETATM   21  C   UNL     1      -9.418  16.430  69.036  1.00  0.00    -0.258 A  
ENDBRANCH  14  15
BRANCH  14  22
HETATM   22  C   UNL     1     -12.066  13.538  65.584  1.00  0.00    -0.430 C  
HETATM   23  O   UNL     1     -13.209  13.968  65.721  1.00  0.00    -0.528 OA 
BRANCH  22  24
HETATM   24  C   UNL     1     -11.489  13.388  64.205  1.00  0.00    -0.429 C  
HETATM   25  C   UNL     1     -10.738  12.134  63.810  1.00  0.00    -0.488 C  
HETATM   26  C   UNL     1     -12.113  12.382  63.265  1.00  0.00    -0.519 C  
ENDBRANCH  22  24
ENDBRANCH  14  22
ENDBRANCH  12  14
ENDBRANCH   4   5
ENDBRANCH   2   4
TORSDOF 6
ENDMDL
MODEL       14
REMARK 921   NORMALIZED FREE ENERGY PREDICTED BY IDOCK:   -6.09 KCAL/MOL
REMARK 922        TOTAL FREE ENERGY PREDICTED BY IDOCK:   -8.90 KCAL/MOL
REMARK 923 INTER-LIGAND FREE ENERGY PREDICTED BY IDOCK:   -7.98 KCAL/MOL
REMARK 924 INTRA-LIGAND FREE ENERGY PREDICTED BY IDOCK:   -0.92 KCAL/MOL
REMARK 927      BINDING AFFINITY PREDICTED BY RF-SCORE:    0.00 PKD
ROOT
HETATM    1  C   UNL     1     -12.366  15.530  74.390  1.00  0.00    -0.798 C  
HETATM    2  C   UNL     1     -12.484  15.854  72.929  1.00  0.00    -0.479 C  
HETATM    3  O   UNL     1     -11.792  16.702  72.380  1.00  0.00    -0.491 OA 
ENDROOT
BRANCH   2   4
HETATM    4  O   UNL     1     -13.434  15.071  72.372  1.00  0.00    -0.359 OA 
BRANCH   4   5
HETATM    5  C   UNL     1     -13.098  13.932  71.777  1.00  0.00    -0.377 A  
HETATM    6  C   UNL     1     -13.175  12.614  72.198  1.00  0.00    -0.527 A  
HETATM    7  C   UNL     1     -12.636  11.675  71.258  1.00  0.00    -0.425 A  
HETATM    8  C   UNL     1     -12.208  12.323  70.129  1.00  0.00    -0.226 A  
HETATM    9  C   UNL     1     -11.664  11.637  68.940  1.00  0.00    -0.397 C  
HETATM   10  S   UNL     1     -12.364  14.009  70.224  1.00  0.00    -0.349 SA 
HETATM   11  C   UNL     1     -11.225  10.202  69.284  1.00  0.00    -0.196 C  
HETATM   12  N   UNL     1     -11.824   9.453  70.415  1.00  0.00    -0.158 NA 
HETATM   13  C   UNL     1     -12.561  10.195  71.459  1.00  0.00    -0.434 C  
BRANCH  12  14
HETATM   14  C   UNL     1     -10.827   8.477  70.991  1.00  0.00    -0.241 C  
BRANCH  14  15
HETATM   15  C   UNL     1      -9.912   7.778  69.976  1.00  0.00    -0.187 A  
HETATM   16  F   UNL     1      -7.967   8.919  70.758  1.00  0.00    -0.076 F  
HETATM   17  C   UNL     1     -10.429   6.923  68.984  1.00  0.00    -0.223 A  
HETATM   18  C   UNL     1      -8.539   8.063  69.903  1.00  0.00    -0.135 A  
HETATM   19  C   UNL     1      -7.702   7.512  68.925  1.00  0.00    -0.115 A  
HETATM   20  C   UNL     1      -9.600   6.357  68.007  1.00  0.00    -0.118 A  
HETATM   21  C   UNL     1      -8.236   6.650  67.978  1.00  0.00    -0.117 A  
ENDBRANCH  14  15
BRANCH  14  22
HETATM   22  C   UNL     1     -11.552   7.499  71.959  1.00  0.00    -0.287 C  
HETATM   23  O   UNL     1     -12.616   6.937  71.709  1.00  0.00    -0.350 OA 
BRANCH  22  24
HETATM   24  C   UNL     1     -10.876   7.257  73.279  1.00  0.00    -0.404 C  
HETATM   25  C   UNL     1      -9.705   6.305  73.390  1.00  0.00    -0.170 C  
HETATM   26  C   UNL     1      -9.473   7.784  73.480  1.00  0.00    -0.346 C  
ENDBRANCH  22  24
ENDBRANCH  14  22
ENDBRANCH  12  14
ENDBRANCH   4   5
ENDBRANCH   2   4
TORSDOF 6
ENDMDL
MODEL       15
REMARK 921   NORMALIZED FREE ENERGY PREDICTED BY IDOCK:   -6.08 KCAL/MOL
REMARK 922        TOTAL FREE ENERGY PREDICTED BY IDOCK:   -8.90 KCAL/MOL
REMARK 923 INTER-LIGAND FREE ENERGY PREDICTED BY IDOCK:   -8.42 KCAL/MOL
REMARK 924 INTRA-LIGAND FREE ENERGY PREDICTED BY IDOCK:   -0.48 KCAL/MOL
REMARK 927      BINDING AFFINITY PREDICTED BY RF-SCORE:    0.00 PKD
ROOT
HETATM    1  C   UNL     1      -7.041  19.994  65.631  1.00  0.00    -0.338 C  
HETATM    2  C   UNL     1      -6.775  18.587  66.082  1.00  0.00    -0.240 C  
HETATM    3  O   UNL     1      -5.825  18.287  66.794  1.00  0.00    -0.142 OA 
ENDROOT
BRANCH   2   4
HETATM    4  O   UNL     1      -7.732  17.771  65.588  1.00  0.00    -0.545 OA 
BRANCH   4   5
HETATM    5  C   UNL     1      -8.486  17.050  66.411  1.00  0.00    -0.283 A  
HETATM    6  C   UNL     1      -8.445  15.710  66.762  1.00  0.00    -0.307 A  
HETATM    7  C   UNL     1      -9.499  15.314  67.650  1.00  0.00    -0.205 A  
HETATM    8  C   UNL     1     -10.280  16.392  67.973  1.00  0.00    -0.264 A  
HETATM    9  C   UNL     1     -11.411  16.337  68.922  1.00  0.00    -0.317 C  
HETATM   10  S   UNL     1      -9.821  17.816  67.175  1.00  0.00    -0.325 SA 
HETATM   11  C   UNL     1     -11.876  14.885  69.141  1.00  0.00    -0.307 C  
HETATM   12  N   UNL     1     -10.962  13.735  68.944  1.00  0.00    -0.249 NA 
HETATM   13  C   UNL     1      -9.719  13.929  68.168  1.00  0.00    -0.222 C  
BRANCH  12  14
HETATM   14  C   UNL     1     -11.734  12.513  68.508  1.00  0.00    -0.324 C  
BRANCH  14  15
HETATM   15  C   UNL     1     -11.541  11.258  69.370  1.00  0.00    -0.390 A  
HETATM   16  F   UNL     1     -13.003  12.057  71.079  1.00  0.00    -0.384 F  
HETATM   17  C   UNL     1     -10.624  10.251  69.012  1.00  0.00    -0.247 A  
HETATM   18  C   UNL     1     -12.168  11.118  70.619  1.00  0.00    -0.397 A  
HETATM   19  C   UNL     1     -11.934  10.028  71.466  1.00  0.00    -0.438 A  
HETATM   20  C   UNL     1     -10.389   9.151  69.847  1.00  0.00    -0.229 A  
HETATM   21  C   UNL     1     -11.045   9.038  71.072  1.00  0.00    -0.356 A  
ENDBRANCH  14  15
BRANCH  14  22
HETATM   22  C   UNL     1     -11.513  12.270  66.987  1.00  0.00    -0.354 C  
HETATM   23  O   UNL     1     -10.681  11.494  66.523  1.00  0.00    -0.252 OA 
BRANCH  22  24
HETATM   24  C   UNL     1     -12.392  13.060  66.060  1.00  0.00    -0.387 C  
HETATM   25  C   UNL     1     -11.794  13.967  65.006  1.00  0.00    -0.383 C  
HETATM   26  C   UNL     1     -12.435  12.674  64.599  1.00  0.00    -0.538 C  
ENDBRANCH  22  24
ENDBRANCH  14  22
ENDBRANCH  12  14
ENDBRANCH   4   5
ENDBRANCH   2   4
TORSDOF 6
ENDMDL
MODEL       16
REMARK 921   NORMALIZED FREE ENERGY PREDICTED BY IDOCK:   -6.08 KCAL/MOL
REMARK 922        TOTAL FREE ENERGY PREDICTED BY IDOCK:   -8.90 KCAL/MOL
REMARK 923 INTER-LIGAND FREE ENERGY PREDICTED BY IDOCK:   -8.06 KCAL/MOL
REMARK 924 INTRA-LIGAND FREE ENERGY PREDICTED BY IDOCK:   -0.83 KCAL/MOL
REMARK 927      BINDING AFFINITY PREDICTED BY RF-SCORE:    0.00 PKD
ROOT
HETATM    1  C   UNL     1     -10.291   9.130  68.017  1.00  0.00    -0.272 C  
HETATM    2  C   UNL     1     -11.041  10.371  68.406  1.00  0.00    -0.268 C  
HETATM    3  O   UNL     1     -11.047  10.811  69.549  1.00  0.00    -0.239 OA 
ENDROOT
BRANCH   2   4
HETATM    4  O   UNL     1     -11.657  10.881  67.317  1.00  0.00    -0.475 OA 
BRANCH   4   5
HETATM    5  C   UNL     1     -11.262  12.041  66.806  1.00  0.00    -0.322 A  
HETATM    6  C   UNL     1     -10.121  12.799  67.015  1.00  0.00    -0.240 A  
HETATM    7  C   UNL     1     -10.115  14.042  66.299  1.00  0.00    -0.307 A  
HETATM    8  C   UNL     1     -11.245  14.156  65.533  1.00  0.00    -0.317 A  
HETATM    9  C   UNL     1     -11.513  15.288  64.621  1.00  0.00    -0.356 C  
HETATM   10  S   UNL     1     -12.321  12.860  65.728  1.00  0.00    -0.263 SA 
HETATM   11  C   UNL     1     -10.625  16.497  64.968  1.00  0.00    -0.144 C  
HETATM   12  N   UNL     1      -9.321  16.335  65.654  1.00  0.00    -0.451 NA 
HETATM   13  C   UNL     1      -9.030  15.069  66.358  1.00  0.00    -0.251 C  
BRANCH  12  14
HETATM   14  C   UNL     1      -9.010  17.551  66.493  1.00  0.00    -0.261 C  
BRANCH  14  15
HETATM   15  C   UNL     1      -7.685  17.508  67.268  1.00  0.00    -0.221 A  
HETATM   16  F   UNL     1      -6.388  17.973  65.319  1.00  0.00    -0.261 F  
HETATM   17  C   UNL     1      -7.638  17.147  68.628  1.00  0.00    -0.258 A  
HETATM   18  C   UNL     1      -6.450  17.695  66.627  1.00  0.00    -0.204 A  
HETATM   19  C   UNL     1      -5.225  17.566  67.292  1.00  0.00    -0.153 A  
HETATM   20  C   UNL     1      -6.419  17.024  69.306  1.00  0.00    -0.231 A  
HETATM   21  C   UNL     1      -5.213  17.236  68.639  1.00  0.00    -0.141 A  
ENDBRANCH  14  15
BRANCH  14  22
HETATM   22  C   UNL     1     -10.241  17.907  67.375  1.00  0.00    -0.360 C  
HETATM   23  O   UNL     1     -10.801  17.120  68.134  1.00  0.00    -0.373 OA 
BRANCH  22  24
HETATM   24  C   UNL     1     -10.751  19.315  67.255  1.00  0.00    -0.594 C  
HETATM   25  C   UNL     1      -9.796  20.488  67.227  1.00  0.00    -0.581 C  
HETATM   26  C   UNL     1     -10.497  20.069  65.970  1.00  0.00    -0.523 C  
ENDBRANCH  22  24
ENDBRANCH  14  22
ENDBRANCH  12  14
ENDBRANCH   4   5
ENDBRANCH   2   4
TORSDOF 6
ENDMDL
MODEL       17
REMARK 921   NORMALIZED FREE ENERGY PREDICTED BY IDOCK:   -6.07 KCAL/MOL
REMARK 922        TOTAL FREE ENERGY PREDICTED BY IDOCK:   -8.88 KCAL/MOL
REMARK 923 INTER-LIGAND FREE ENERGY PREDICTED BY IDOCK:   -8.03 KCAL/MOL
REMARK 924 INTRA-LIGAND FREE ENERGY PREDICTED BY IDOCK:   -0.86 KCAL/MOL
REMARK 927      BINDING AFFINITY PREDICTED BY RF-SCORE:    0.00 PKD
ROOT
HETATM    1  C   UNL     1     -13.378   8.958  72.222  1.00  0.00    -0.497 C  
HETATM    2  C   UNL     1     -11.968   8.528  71.938  1.00  0.00    -0.345 C  
HETATM    3  O   UNL     1     -11.159   8.282  72.822  1.00  0.00    -0.367 OA 
ENDROOT
BRANCH   2   4
HETATM    4  O   UNL     1     -11.783   8.461  70.601  1.00  0.00    -0.254 OA 
BRANCH   4   5
HETATM    5  C   UNL     1     -11.143   9.435  69.964  1.00  0.00    -0.221 A  
HETATM    6  C   UNL     1     -11.447  10.775  69.786  1.00  0.00    -0.386 A  
HETATM    7  C   UNL     1     -10.504  11.477  68.965  1.00  0.00    -0.175 A  
HETATM    8  C   UNL     1      -9.487  10.641  68.586  1.00  0.00    -0.176 A  
HETATM    9  C   UNL     1      -8.318  11.071  67.791  1.00  0.00    -0.118 C  
HETATM   10  S   UNL     1      -9.696   9.046  69.121  1.00  0.00    -0.171 SA 
HETATM   11  C   UNL     1      -8.597  12.407  67.079  1.00  0.00    -0.191 C  
HETATM   12  N   UNL     1      -9.589  13.377  67.602  1.00  0.00    -0.213 NA 
HETATM   13  C   UNL     1     -10.595  12.920  68.582  1.00  0.00    -0.234 C  
BRANCH  12  14
HETATM   14  C   UNL     1     -10.197  14.173  66.472  1.00  0.00    -0.278 C  
BRANCH  14  15
HETATM   15  C   UNL     1     -10.325  15.684  66.711  1.00  0.00    -0.287 A  
HETATM   16  F   UNL     1     -10.875  16.121  64.430  1.00  0.00    -0.401 F  
HETATM   17  C   UNL     1     -10.010  16.263  67.954  1.00  0.00    -0.241 A  
HETATM   18  C   UNL     1     -10.630  16.571  65.666  1.00  0.00    -0.304 A  
HETATM   19  C   UNL     1     -10.658  17.960  65.837  1.00  0.00    -0.216 A  
HETATM   20  C   UNL     1     -10.044  17.651  68.140  1.00  0.00    -0.347 A  
HETATM   21  C   UNL     1     -10.370  18.500  67.082  1.00  0.00    -0.433 A  
ENDBRANCH  14  15
BRANCH  14  22
HETATM   22  C   UNL     1     -11.520  13.497  66.010  1.00  0.00    -0.325 C  
HETATM   23  O   UNL     1     -12.643  13.868  66.344  1.00  0.00    -0.413 OA 
BRANCH  22  24
HETATM   24  C   UNL     1     -11.370  12.311  65.100  1.00  0.00    -0.376 C  
HETATM   25  C   UNL     1     -11.862  12.361  63.670  1.00  0.00    -0.610 C  
HETATM   26  C   UNL     1     -10.390  12.400  63.952  1.00  0.00    -0.450 C  
ENDBRANCH  22  24
ENDBRANCH  14  22
ENDBRANCH  12  14
ENDBRANCH   4   5
ENDBRANCH   2   4
TORSDOF 6
ENDMDL
MODEL       18
REMARK 921   NORMALIZED FREE ENERGY PREDICTED BY IDOCK:   -6.02 KCAL/MOL
REMARK 922        TOTAL FREE ENERGY PREDICTED BY IDOCK:   -8.82 KCAL/MOL
REMARK 923 INTER-LIGAND FREE ENERGY PREDICTED BY IDOCK:   -7.88 KCAL/MOL
REMARK 924 INTRA-LIGAND FREE ENERGY PREDICTED BY IDOCK:   -0.94 KCAL/MOL
REMARK 927      BINDING AFFINITY PREDICTED BY RF-SCORE:    0.00 PKD
ROOT
HETATM    1  C   UNL     1     -11.962  12.387  63.333  1.00  0.00    -0.595 C  
HETATM    2  C   UNL     1     -11.826  13.688  64.070  1.00  0.00    -0.400 C  
HETATM    3  O   UNL     1     -12.626  14.607  63.945  1.00  0.00    -0.834 OA 
ENDROOT
BRANCH   2   4
HETATM    4  O   UNL     1     -10.727  13.644  64.854  1.00  0.00    -0.343 OA 
BRANCH   4   5
HETATM    5  C   UNL     1     -10.731  12.929  65.973  1.00  0.00    -0.277 A  
HETATM    6  C   UNL     1      -9.899  11.917  66.424  1.00  0.00    -0.234 A  
HETATM    7  C   UNL     1     -10.299  11.358  67.682  1.00  0.00    -0.209 A  
HETATM    8  C   UNL     1     -11.406  12.006  68.161  1.00  0.00    -0.291 A  
HETATM    9  C   UNL     1     -12.031  11.717  69.469  1.00  0.00    -0.364 C  
HETATM   10  S   UNL     1     -12.002  13.188  67.101  1.00  0.00    -0.294 SA 
HETATM   11  C   UNL     1     -11.583  10.343  70.002  1.00  0.00    -0.301 C  
HETATM   12  N   UNL     1     -10.295   9.731  69.596  1.00  0.00    -0.220 NA 
HETATM   13  C   UNL     1      -9.606  10.237  68.390  1.00  0.00    -0.149 C  
BRANCH  12  14
HETATM   14  C   UNL     1     -10.394   8.225  69.619  1.00  0.00    -0.218 C  
BRANCH  14  15
HETATM   15  C   UNL     1     -10.605   7.590  71.001  1.00  0.00    -0.230 A  
HETATM   16  F   UNL     1      -8.947   8.969  72.024  1.00  0.00    -0.290 F  
HETATM   17  C   UNL     1     -11.468   6.494  71.184  1.00  0.00    -0.380 A  
HETATM   18  C   UNL     1      -9.847   7.983  72.116  1.00  0.00    -0.223 A  
HETATM   19  C   UNL     1      -9.952   7.354  73.362  1.00  0.00    -0.365 A  
HETATM   20  C   UNL     1     -11.590   5.863  72.429  1.00  0.00    -0.341 A  
HETATM   21  C   UNL     1     -10.833   6.294  73.518  1.00  0.00    -0.199 A  
ENDBRANCH  14  15
BRANCH  14  22
HETATM   22  C   UNL     1      -9.208   7.611  68.821  1.00  0.00    -0.142 C  
HETATM   23  O   UNL     1      -8.030   7.683  69.163  1.00  0.00    -0.116 OA 
BRANCH  22  24
HETATM   24  C   UNL     1      -9.571   6.897  67.550  1.00  0.00    -0.150 C  
HETATM   25  C   UNL     1     -10.318   5.581  67.584  1.00  0.00    -0.256 C  
HETATM   26  C   UNL     1     -11.027   6.828  67.149  1.00  0.00    -0.458 C  
ENDBRANCH  22  24
ENDBRANCH  14  22
ENDBRANCH  12  14
ENDBRANCH   4   5
ENDBRANCH   2   4
TORSDOF 6
ENDMDL
MODEL       19
REMARK 921   NORMALIZED FREE ENERGY PREDICTED BY IDOCK:   -5.99 KCAL/MOL
REMARK 922        TOTAL FREE ENERGY PREDICTED BY IDOCK:   -8.78 KCAL/MOL
REMARK 923 INTER-LIGAND FREE ENERGY PREDICTED BY IDOCK:   -7.85 KCAL/MOL
REMARK 924 INTRA-LIGAND FREE ENERGY PREDICTED BY IDOCK:   -0.93 KCAL/MOL
REMARK 927      BINDING AFFINITY PREDICTED BY RF-SCORE:    0.00 PKD
ROOT
HETATM    1  C   UNL     1     -12.760  11.563  70.962  1.00  0.00    -0.426 C  
HETATM    2  C   UNL     1     -12.067  10.720  69.930  1.00  0.00    -0.337 C  
HETATM    3  O   UNL     1     -11.414   9.725  70.216  1.00  0.00    -0.253 OA 
ENDROOT
BRANCH   2   4
HETATM    4  O   UNL     1     -12.301  11.235  68.703  1.00  0.00    -0.534 OA 
BRANCH   4   5
HETATM    5  C   UNL     1     -11.456  12.113  68.173  1.00  0.00    -0.317 A  
HETATM    6  C   UNL     1     -10.238  12.602  68.617  1.00  0.00    -0.165 A  
HETATM    7  C   UNL     1      -9.672  13.603  67.760  1.00  0.00    -0.225 A  
HETATM    8  C   UNL     1     -10.472  13.801  66.666  1.00  0.00    -0.272 A  
HETATM    9  C   UNL     1     -10.139  14.718  65.555  1.00  0.00    -0.409 C  
HETATM   10  S   UNL     1     -11.898  12.885  66.703  1.00  0.00    -0.366 SA 
HETATM   11  C   UNL     1      -9.054  15.725  65.978  1.00  0.00    -0.326 C  
HETATM   12  N   UNL     1      -8.087  15.421  67.060  1.00  0.00    -0.216 NA 
HETATM   13  C   UNL     1      -8.385  14.324  68.004  1.00  0.00    -0.157 C  
BRANCH  12  14
HETATM   14  C   UNL     1      -7.659  16.689  67.759  1.00  0.00    -0.159 C  
BRANCH  14  15
HETATM   15  C   UNL     1      -8.550  17.916  67.524  1.00  0.00    -0.239 A  
HETATM   16  F   UNL     1     -10.400  16.948  68.682  1.00  0.00    -0.254 F  
HETATM   17  C   UNL     1      -8.123  18.996  66.729  1.00  0.00    -0.279 A  
HETATM   18  C   UNL     1      -9.879  17.960  67.977  1.00  0.00    -0.320 A  
HETATM   19  C   UNL     1     -10.741  19.025  67.694  1.00  0.00    -0.495 A  
HETATM   20  C   UNL     1      -8.973  20.073  66.446  1.00  0.00    -0.408 A  
HETATM   21  C   UNL     1     -10.281  20.089  66.930  1.00  0.00    -0.595 A  
ENDBRANCH  14  15
BRANCH  14  22
HETATM   22  C   UNL     1      -6.149  16.950  67.490  1.00  0.00    -0.147 C  
HETATM   23  O   UNL     1      -5.606  16.817  66.395  1.00  0.00    -0.337 OA 
BRANCH  22  24
HETATM   24  C   UNL     1      -5.335  17.385  68.676  1.00  0.00    -0.147 C  
HETATM   25  C   UNL     1      -5.867  18.415  69.648  1.00  0.00    -0.253 C  
HETATM   26  C   UNL     1      -5.792  16.974  70.057  1.00  0.00    -0.215 C  
ENDBRANCH  22  24
ENDBRANCH  14  22
ENDBRANCH  12  14
ENDBRANCH   4   5
ENDBRANCH   2   4
TORSDOF 6
ENDMDL
MODEL       20
REMARK 921   NORMALIZED FREE ENERGY PREDICTED BY IDOCK:   -5.98 KCAL/MOL
REMARK 922        TOTAL FREE ENERGY PREDICTED BY IDOCK:   -8.76 KCAL/MOL
REMARK 923 INTER-LIGAND FREE ENERGY PREDICTED BY IDOCK:   -8.18 KCAL/MOL
REMARK 924 INTRA-LIGAND FREE ENERGY PREDICTED BY IDOCK:   -0.59 KCAL/MOL
REMARK 927      BINDING AFFINITY PREDICTED BY RF-SCORE:    0.00 PKD
ROOT
HETATM    1  C   UNL     1      -8.912   4.729  69.926  1.00  0.00    -0.139 C  
HETATM    2  C   UNL     1      -9.380   5.590  71.064  1.00  0.00    -0.153 C  
HETATM    3  O   UNL     1     -10.096   5.169  71.963  1.00  0.00    -0.183 OA 
ENDROOT
BRANCH   2   4
HETATM    4  O   UNL     1      -8.878   6.836  70.916  1.00  0.00    -0.144 OA 
BRANCH   4   5
HETATM    5  C   UNL     1      -9.664   7.830  70.517  1.00  0.00    -0.175 A  
HETATM    6  C   UNL     1      -9.957   8.324  69.256  1.00  0.00    -0.192 A  
HETATM    7  C   UNL     1     -10.819   9.469  69.271  1.00  0.00    -0.211 A  
HETATM    8  C   UNL     1     -11.185   9.774  70.556  1.00  0.00    -0.315 A  
HETATM    9  C   UNL     1     -12.123  10.858  70.912  1.00  0.00    -0.455 C  
HETATM   10  S   UNL     1     -10.452   8.777  71.716  1.00  0.00    -0.362 SA 
HETATM   11  C   UNL     1     -12.275  11.859  69.751  1.00  0.00    -0.174 C  
HETATM   12  N   UNL     1     -12.034  11.462  68.343  1.00  0.00    -0.590 NA 
HETATM   13  C   UNL     1     -11.276  10.225  68.064  1.00  0.00    -0.235 C  
BRANCH  12  14
HETATM   14  C   UNL     1     -11.540  12.640  67.538  1.00  0.00    -0.359 C  
BRANCH  14  15
HETATM   15  C   UNL     1     -11.420  12.413  66.025  1.00  0.00    -0.431 A  
HETATM   16  F   UNL     1     -13.173  13.955  65.530  1.00  0.00    -0.533 F  
HETATM   17  C   UNL     1     -10.552  11.441  65.492  1.00  0.00    -0.328 A  
HETATM   18  C   UNL     1     -12.265  13.065  65.112  1.00  0.00    -0.459 A  
HETATM   19  C   UNL     1     -12.240  12.804  63.737  1.00  0.00    -0.572 A  
HETATM   20  C   UNL     1     -10.511  11.178  64.117  1.00  0.00    -0.442 A  
HETATM   21  C   UNL     1     -11.353  11.861  63.239  1.00  0.00    -0.373 A  
ENDBRANCH  14  15
BRANCH  14  22
HETATM   22  C   UNL     1     -10.251  13.215  68.191  1.00  0.00    -0.239 C  
HETATM   23  O   UNL     1      -9.241  12.557  68.430  1.00  0.00    -0.196 OA 
BRANCH  22  24
HETATM   24  C   UNL     1     -10.286  14.676  68.542  1.00  0.00    -0.238 C  
HETATM   25  C   UNL     1     -10.727  15.708  67.527  1.00  0.00    -0.303 C  
HETATM   26  C   UNL     1     -11.630  15.356  68.670  1.00  0.00    -0.373 C  
ENDBRANCH  22  24
ENDBRANCH  14  22
ENDBRANCH  12  14
ENDBRANCH   4   5
ENDBRANCH   2   4
TORSDOF 6
ENDMDL
MODEL       21
REMARK 921   NORMALIZED FREE ENERGY PREDICTED BY IDOCK:   -5.97 KCAL/MOL
REMARK 922        TOTAL FREE ENERGY PREDICTED BY IDOCK:   -8.75 KCAL/MOL
REMARK 923 INTER-LIGAND FREE ENERGY PREDICTED BY IDOCK:   -8.06 KCAL/MOL
REMARK 924 INTRA-LIGAND FREE ENERGY PREDICTED BY IDOCK:   -0.70 KCAL/MOL
REMARK 927      BINDING AFFINITY PREDICTED BY RF-SCORE:    0.00 PKD
ROOT
HETATM    1  C   UNL     1     -12.045  16.173  72.874  1.00  0.00    -0.643 C  
HETATM    2  C   UNL     1     -13.016  15.621  71.871  1.00  0.00    -0.463 C  
HETATM    3  O   UNL     1     -14.154  15.281  72.167  1.00  0.00    -0.474 OA 
ENDROOT
BRANCH   2   4
HETATM    4  O   UNL     1     -12.429  15.587  70.654  1.00  0.00    -0.392 OA 
BRANCH   4   5
HETATM    5  C   UNL     1     -12.226  14.426  70.042  1.00  0.00    -0.351 A  
HETATM    6  C   UNL     1     -12.226  13.123  70.513  1.00  0.00    -0.405 A  
HETATM    7  C   UNL     1     -11.893  12.148  69.516  1.00  0.00    -0.386 A  
HETATM    8  C   UNL     1     -11.694  12.755  68.304  1.00  0.00    -0.344 A  
HETATM    9  C   UNL     1     -11.403  12.025  67.053  1.00  0.00    -0.396 C  
HETATM   10  S   UNL     1     -11.817  14.445  68.372  1.00  0.00    -0.294 SA 
HETATM   11  C   UNL     1     -10.913  10.596  67.350  1.00  0.00    -0.298 C  
HETATM   12  N   UNL     1     -11.279   9.891  68.602  1.00  0.00    -0.129 NA 
HETATM   13  C   UNL     1     -11.788  10.674  69.747  1.00  0.00    -0.304 C  
BRANCH  12  14
HETATM   14  C   UNL     1     -10.194   8.920  68.999  1.00  0.00    -0.206 C  
BRANCH  14  15
HETATM   15  C   UNL     1     -10.422   8.163  70.315  1.00  0.00    -0.219 A  
HETATM   16  F   UNL     1     -11.587   6.383  69.231  1.00  0.00    -0.435 F  
HETATM   17  C   UNL     1     -10.052   8.714  71.556  1.00  0.00    -0.345 A  
HETATM   18  C   UNL     1     -11.131   6.951  70.354  1.00  0.00    -0.296 A  
HETATM   19  C   UNL     1     -11.435   6.290  71.550  1.00  0.00    -0.351 A  
HETATM   20  C   UNL     1     -10.342   8.057  72.759  1.00  0.00    -0.408 A  
HETATM   21  C   UNL     1     -11.032   6.845  72.757  1.00  0.00    -0.315 A  
ENDBRANCH  14  15
BRANCH  14  22
HETATM   22  C   UNL     1      -8.808   9.621  68.912  1.00  0.00    -0.136 C  
HETATM   23  O   UNL     1      -8.535  10.690  69.454  1.00  0.00    -0.136 OA 
BRANCH  22  24
HETATM   24  C   UNL     1      -7.763   8.914  68.095  1.00  0.00    -0.100 C  
HETATM   25  C   UNL     1      -7.549   7.422  68.232  1.00  0.00    -0.114 C  
HETATM   26  C   UNL     1      -8.215   7.969  67.005  1.00  0.00    -0.116 C  
ENDBRANCH  22  24
ENDBRANCH  14  22
ENDBRANCH  12  14
ENDBRANCH   4   5
ENDBRANCH   2   4
TORSDOF 6
ENDMDL
MODEL       22
REMARK 921   NORMALIZED FREE ENERGY PREDICTED BY IDOCK:   -5.94 KCAL/MOL
REMARK 922        TOTAL FREE ENERGY PREDICTED BY IDOCK:   -8.71 KCAL/MOL
REMARK 923 INTER-LIGAND FREE ENERGY PREDICTED BY IDOCK:   -8.04 KCAL/MOL
REMARK 924 INTRA-LIGAND FREE ENERGY PREDICTED BY IDOCK:   -0.67 KCAL/MOL
REMARK 927      BINDING AFFINITY PREDICTED BY RF-SCORE:    0.00 PKD
ROOT
HETATM    1  C   UNL     1     -10.782  19.615  67.297  1.00  0.00    -0.583 C  
HETATM    2  C   UNL     1      -9.633  18.715  66.948  1.00  0.00    -0.310 C  
HETATM    3  O   UNL     1      -8.596  18.680  67.599  1.00  0.00    -0.267 OA 
ENDROOT
BRANCH   2   4
HETATM    4  O   UNL     1      -9.949  17.990  65.852  1.00  0.00    -0.541 OA 
BRANCH   4   5
HETATM    5  C   UNL     1     -10.479  16.779  65.982  1.00  0.00    -0.293 A  
HETATM    6  C   UNL     1     -10.547  15.913  67.061  1.00  0.00    -0.306 A  
HETATM    7  C   UNL     1     -11.161  14.654  66.754  1.00  0.00    -0.335 A  
HETATM    8  C   UNL     1     -11.577  14.633  65.449  1.00  0.00    -0.345 A  
HETATM    9  C   UNL     1     -12.309  13.507  64.834  1.00  0.00    -0.447 C  
HETATM   10  S   UNL     1     -11.172  16.040  64.593  1.00  0.00    -0.181 SA 
HETATM   11  C   UNL     1     -12.149  12.223  65.670  1.00  0.00    -0.234 C  
HETATM   12  N   UNL     1     -11.860  12.270  67.123  1.00  0.00    -0.566 NA 
HETATM   13  C   UNL     1     -11.341  13.522  67.714  1.00  0.00    -0.296 C  
BRANCH  12  14
HETATM   14  C   UNL     1     -11.067  11.057  67.545  1.00  0.00    -0.302 C  
BRANCH  14  15
HETATM   15  C   UNL     1     -11.335  10.544  68.967  1.00  0.00    -0.319 A  
HETATM   16  F   UNL     1     -10.046   8.564  68.627  1.00  0.00    -0.172 F  
HETATM   17  C   UNL     1     -12.209  11.217  69.841  1.00  0.00    -0.358 A  
HETATM   18  C   UNL     1     -10.830   9.312  69.413  1.00  0.00    -0.169 A  
HETATM   19  C   UNL     1     -11.137   8.778  70.670  1.00  0.00    -0.285 A  
HETATM   20  C   UNL     1     -12.517  10.697  71.105  1.00  0.00    -0.523 A  
HETATM   21  C   UNL     1     -11.980   9.479  71.520  1.00  0.00    -0.475 A  
ENDBRANCH  14  15
BRANCH  14  22
HETATM   22  C   UNL     1      -9.560  11.282  67.233  1.00  0.00    -0.173 C  
HETATM   23  O   UNL     1      -9.016  10.968  66.177  1.00  0.00    -0.179 OA 
BRANCH  22  24
HETATM   24  C   UNL     1      -8.751  11.924  68.324  1.00  0.00    -0.170 C  
HETATM   25  C   UNL     1      -7.687  11.142  69.065  1.00  0.00    -0.114 C  
HETATM   26  C   UNL     1      -7.284  12.194  68.074  1.00  0.00    -0.099 C  
ENDBRANCH  22  24
ENDBRANCH  14  22
ENDBRANCH  12  14
ENDBRANCH   4   5
ENDBRANCH   2   4
TORSDOF 6
ENDMDL
MODEL       23
REMARK 921   NORMALIZED FREE ENERGY PREDICTED BY IDOCK:   -5.91 KCAL/MOL
REMARK 922        TOTAL FREE ENERGY PREDICTED BY IDOCK:   -8.67 KCAL/MOL
REMARK 923 INTER-LIGAND FREE ENERGY PREDICTED BY IDOCK:   -7.81 KCAL/MOL
REMARK 924 INTRA-LIGAND FREE ENERGY PREDICTED BY IDOCK:   -0.86 KCAL/MOL
REMARK 927      BINDING AFFINITY PREDICTED BY RF-SCORE:    0.00 PKD
ROOT
HETATM    1  C   UNL     1     -11.826   8.345  72.289  1.00  0.00    -0.456 C  
HETATM    2  C   UNL     1     -13.111   9.057  71.979  1.00  0.00    -0.414 C  
HETATM    3  O   UNL     1     -14.091   8.486  71.517  1.00  0.00    -0.393 OA 
ENDROOT
BRANCH   2   4
HETATM    4  O   UNL     1     -12.986  10.364  72.299  1.00  0.00    -0.382 OA 
BRANCH   4   5
HETATM    5  C   UNL     1     -12.761  11.266  71.350  1.00  0.00    -0.396 A  
HETATM    6  C   UNL     1     -12.485  11.134  69.999  1.00  0.00    -0.292 A  
HETATM    7  C   UNL     1     -12.240  12.381  69.335  1.00  0.00    -0.121 A  
HETATM    8  C   UNL     1     -12.385  13.424  70.211  1.00  0.00    -0.284 A  
HETATM    9  C   UNL     1     -12.268  14.846  69.829  1.00  0.00    -0.328 C  
HETATM   10  S   UNL     1     -12.718  12.925  71.797  1.00  0.00    -0.069 SA 
HETATM   11  C   UNL     1     -11.537  14.996  68.481  1.00  0.00    -0.326 C  
HETATM   12  N   UNL     1     -11.533  13.909  67.472  1.00  0.00    -0.321 NA 
HETATM   13  C   UNL     1     -11.891  12.538  67.889  1.00  0.00    -0.323 C  
BRANCH  12  14
HETATM   14  C   UNL     1     -10.267  13.955  66.651  1.00  0.00    -0.276 C  
BRANCH  14  15
HETATM   15  C   UNL     1     -10.180  12.944  65.499  1.00  0.00    -0.299 A  
HETATM   16  F   UNL     1     -11.851  14.070  64.220  1.00  0.00    -0.397 F  
HETATM   17  C   UNL     1      -9.374  11.793  65.588  1.00  0.00    -0.165 A  
HETATM   18  C   UNL     1     -10.999  13.048  64.363  1.00  0.00    -0.374 A  
HETATM   19  C   UNL     1     -11.007  12.088  63.345  1.00  0.00    -0.475 A  
HETATM   20  C   UNL     1      -9.366  10.830  64.571  1.00  0.00    -0.273 A  
HETATM   21  C   UNL     1     -10.180  10.978  63.449  1.00  0.00    -0.404 A  
ENDBRANCH  14  15
BRANCH  14  22
HETATM   22  C   UNL     1      -9.031  13.938  67.595  1.00  0.00    -0.192 C  
HETATM   23  O   UNL     1      -8.846  13.108  68.482  1.00  0.00    -0.145 OA 
BRANCH  22  24
HETATM   24  C   UNL     1      -8.022  15.031  67.379  1.00  0.00    -0.218 C  
HETATM   25  C   UNL     1      -8.377  16.269  66.584  1.00  0.00    -0.315 C  
HETATM   26  C   UNL     1      -8.233  16.357  68.073  1.00  0.00    -0.169 C  
ENDBRANCH  22  24
ENDBRANCH  14  22
ENDBRANCH  12  14
ENDBRANCH   4   5
ENDBRANCH   2   4
TORSDOF 6
ENDMDL
MODEL       24
REMARK 921   NORMALIZED FREE ENERGY PREDICTED BY IDOCK:   -5.89 KCAL/MOL
REMARK 922        TOTAL FREE ENERGY PREDICTED BY IDOCK:   -8.64 KCAL/MOL
REMARK 923 INTER-LIGAND FREE ENERGY PREDICTED BY IDOCK:   -7.67 KCAL/MOL
REMARK 924 INTRA-LIGAND FREE ENERGY PREDICTED BY IDOCK:   -0.98 KCAL/MOL
REMARK 927      BINDING AFFINITY PREDICTED BY RF-SCORE:    0.00 PKD
ROOT
HETATM    1  C   UNL     1     -10.541   7.534  69.992  1.00  0.00    -0.242 C  
HETATM    2  C   UNL     1     -10.398   9.014  70.198  1.00  0.00    -0.210 C  
HETATM    3  O   UNL     1     -11.037   9.631  71.040  1.00  0.00    -0.314 OA 
ENDROOT
BRANCH   2   4
HETATM    4  O   UNL     1      -9.478   9.498  69.334  1.00  0.00    -0.159 OA 
BRANCH   4   5
HETATM    5  C   UNL     1      -9.740  10.586  68.618  1.00  0.00    -0.173 A  
HETATM    6  C   UNL     1      -9.120  11.824  68.563  1.00  0.00    -0.144 A  
HETATM    7  C   UNL     1      -9.770  12.756  67.688  1.00  0.00    -0.205 A  
HETATM    8  C   UNL     1     -10.844  12.166  67.076  1.00  0.00    -0.247 A  
HETATM    9  C   UNL     1     -11.686  12.834  66.063  1.00  0.00    -0.470 C  
HETATM   10  S   UNL     1     -11.120  10.575  67.593  1.00  0.00    -0.251 SA 
HETATM   11  C   UNL     1     -11.503  14.362  66.114  1.00  0.00    -0.357 C  
HETATM   12  N   UNL     1     -10.259  14.981  66.631  1.00  0.00    -0.262 NA 
HETATM   13  C   UNL     1      -9.340  14.169  67.456  1.00  0.00    -0.204 C  
BRANCH  12  14
HETATM   14  C   UNL     1     -10.553  16.329  67.243  1.00  0.00    -0.298 C  
BRANCH  14  15
HETATM   15  C   UNL     1      -9.576  17.456  66.881  1.00  0.00    -0.279 A  
HETATM   16  F   UNL     1     -11.222  19.154  67.208  1.00  0.00    -0.531 F  
HETATM   17  C   UNL     1      -8.273  17.184  66.423  1.00  0.00    -0.327 A  
HETATM   18  C   UNL     1      -9.979  18.801  66.858  1.00  0.00    -0.346 A  
HETATM   19  C   UNL     1      -9.136  19.837  66.439  1.00  0.00    -0.452 A  
HETATM   20  C   UNL     1      -7.417  18.213  66.010  1.00  0.00    -0.264 A  
HETATM   21  C   UNL     1      -7.847  19.539  66.020  1.00  0.00    -0.318 A  
ENDBRANCH  14  15
BRANCH  14  22
HETATM   22  C   UNL     1     -10.785  16.168  68.773  1.00  0.00    -0.294 C  
HETATM   23  O   UNL     1      -9.965  16.476  69.636  1.00  0.00    -0.177 OA 
BRANCH  22  24
HETATM   24  C   UNL     1     -12.110  15.589  69.181  1.00  0.00    -0.266 C  
HETATM   25  C   UNL     1     -12.184  14.335  70.025  1.00  0.00    -0.417 C  
HETATM   26  C   UNL     1     -12.516  15.664  70.635  1.00  0.00    -0.463 C  
ENDBRANCH  22  24
ENDBRANCH  14  22
ENDBRANCH  12  14
ENDBRANCH   4   5
ENDBRANCH   2   4
TORSDOF 6
ENDMDL
MODEL       25
REMARK 921   NORMALIZED FREE ENERGY PREDICTED BY IDOCK:   -5.89 KCAL/MOL
REMARK 922        TOTAL FREE ENERGY PREDICTED BY IDOCK:   -8.64 KCAL/MOL
REMARK 923 INTER-LIGAND FREE ENERGY PREDICTED BY IDOCK:   -8.42 KCAL/MOL
REMARK 924 INTRA-LIGAND FREE ENERGY PREDICTED BY IDOCK:   -0.22 KCAL/MOL
REMARK 927      BINDING AFFINITY PREDICTED BY RF-SCORE:    0.00 PKD
ROOT
HETATM    1  C   UNL     1     -13.756   8.832  72.304  1.00  0.00    -0.494 C  
HETATM    2  C   UNL     1     -12.316   8.590  71.956  1.00  0.00    -0.365 C  
HETATM    3  O   UNL     1     -11.464   8.336  72.798  1.00  0.00    -0.391 OA 
ENDROOT
BRANCH   2   4
HETATM    4  O   UNL     1     -12.156   8.690  70.618  1.00  0.00    -0.144 OA 
BRANCH   4   5
HETATM    5  C   UNL     1     -11.629   9.788  70.087  1.00  0.00    -0.182 A  
HETATM    6  C   UNL     1     -12.153  11.053  69.876  1.00  0.00    -0.435 A  
HETATM    7  C   UNL     1     -11.253  11.946  69.205  1.00  0.00    -0.314 A  
HETATM    8  C   UNL     1     -10.054  11.327  68.972  1.00  0.00    -0.128 A  
HETATM    9  C   UNL     1      -8.887  11.994  68.358  1.00  0.00    -0.149 C  
HETATM   10  S   UNL     1     -10.031   9.703  69.460  1.00  0.00    -0.224 SA 
HETATM   11  C   UNL     1      -9.310  13.278  67.621  1.00  0.00    -0.212 C  
HETATM   12  N   UNL     1     -10.531  14.028  68.001  1.00  0.00    -0.237 NA 
HETATM   13  C   UNL     1     -11.561  13.358  68.822  1.00  0.00    -0.325 C  
BRANCH  12  14
HETATM   14  C   UNL     1     -11.114  14.734  66.801  1.00  0.00    -0.338 C  
BRANCH  14  15
HETATM   15  C   UNL     1     -11.292  13.876  65.541  1.00  0.00    -0.310 A  
HETATM   16  F   UNL     1     -13.648  14.255  65.468  1.00  0.00    -0.386 F  
HETATM   17  C   UNL     1     -10.221  13.152  64.985  1.00  0.00    -0.296 A  
HETATM   18  C   UNL     1     -12.556  13.666  64.966  1.00  0.00    -0.390 A  
HETATM   19  C   UNL     1     -12.759  12.812  63.876  1.00  0.00    -0.288 A  
HETATM   20  C   UNL     1     -10.410  12.302  63.887  1.00  0.00    -0.455 A  
HETATM   21  C   UNL     1     -11.678  12.133  63.332  1.00  0.00    -0.533 A  
ENDBRANCH  14  15
BRANCH  14  22
HETATM   22  C   UNL     1     -10.343  16.063  66.551  1.00  0.00    -0.299 C  
HETATM   23  O   UNL     1      -9.554  16.244  65.626  1.00  0.00    -0.466 OA 
BRANCH  22  24
HETATM   24  C   UNL     1     -10.603  17.170  67.533  1.00  0.00    -0.323 C  
HETATM   25  C   UNL     1      -9.474  18.040  68.041  1.00  0.00    -0.284 C  
HETATM   26  C   UNL     1     -10.464  18.600  67.064  1.00  0.00    -0.453 C  
ENDBRANCH  22  24
ENDBRANCH  14  22
ENDBRANCH  12  14
ENDBRANCH   4   5
ENDBRANCH   2   4
TORSDOF 6
ENDMDL
MODEL       26
REMARK 921   NORMALIZED FREE ENERGY PREDICTED BY IDOCK:   -5.88 KCAL/MOL
REMARK 922        TOTAL FREE ENERGY PREDICTED BY IDOCK:   -8.63 KCAL/MOL
REMARK 923 INTER-LIGAND FREE ENERGY PREDICTED BY IDOCK:   -8.39 KCAL/MOL
REMARK 924 INTRA-LIGAND FREE ENERGY PREDICTED BY IDOCK:   -0.24 KCAL/MOL
REMARK 927      BINDING AFFINITY PREDICTED BY RF-SCORE:    0.00 PKD
ROOT
HETATM    1  C   UNL     1      -9.777  20.466  67.120  1.00  0.00    -0.601 C  
HETATM    2  C   UNL     1      -9.912  19.152  66.407  1.00  0.00    -0.395 C  
HETATM    3  O   UNL     1     -10.725  18.964  65.511  1.00  0.00    -0.556 OA 
ENDROOT
BRANCH   2   4
HETATM    4  O   UNL     1      -9.011  18.277  66.907  1.00  0.00    -0.264 OA 
BRANCH   4   5
HETATM    5  C   UNL     1      -9.399  17.068  67.298  1.00  0.00    -0.237 A  
HETATM    6  C   UNL     1      -9.002  15.801  66.904  1.00  0.00    -0.266 A  
HETATM    7  C   UNL     1      -9.730  14.743  67.543  1.00  0.00    -0.213 A  
HETATM    8  C   UNL     1     -10.629  15.258  68.439  1.00  0.00    -0.246 A  
HETATM    9  C   UNL     1     -11.488  14.432  69.313  1.00  0.00    -0.323 C  
HETATM   10  S   UNL     1     -10.665  16.953  68.455  1.00  0.00    -0.353 SA 
HETATM   11  C   UNL     1     -11.579  12.986  68.789  1.00  0.00    -0.309 C  
HETATM   12  N   UNL     1     -10.509  12.392  67.952  1.00  0.00    -0.210 NA 
HETATM   13  C   UNL     1      -9.535  13.283  67.289  1.00  0.00    -0.233 C  
BRANCH  12  14
HETATM   14  C   UNL     1     -11.084  11.358  67.014  1.00  0.00    -0.303 C  
BRANCH  14  15
HETATM   15  C   UNL     1     -10.593   9.919  67.222  1.00  0.00    -0.316 A  
HETATM   16  F   UNL     1     -11.399   9.837  69.467  1.00  0.00    -0.237 F  
HETATM   17  C   UNL     1      -9.838   9.249  66.241  1.00  0.00    -0.361 A  
HETATM   18  C   UNL     1     -10.756   9.254  68.449  1.00  0.00    -0.145 A  
HETATM   19  C   UNL     1     -10.234   7.979  68.695  1.00  0.00    -0.225 A  
HETATM   20  C   UNL     1      -9.318   7.968  66.472  1.00  0.00    -0.261 A  
HETATM   21  C   UNL     1      -9.518   7.333  67.697  1.00  0.00    -0.149 A  
ENDBRANCH  14  15
BRANCH  14  22
HETATM   22  C   UNL     1     -10.959  11.857  65.546  1.00  0.00    -0.297 C  
HETATM   23  O   UNL     1      -9.925  11.810  64.883  1.00  0.00    -0.245 OA 
BRANCH  22  24
HETATM   24  C   UNL     1     -12.206  12.435  64.938  1.00  0.00    -0.485 C  
HETATM   25  C   UNL     1     -12.131  13.574  63.946  1.00  0.00    -0.493 C  
HETATM   26  C   UNL     1     -12.473  12.194  63.470  1.00  0.00    -0.666 C  
ENDBRANCH  22  24
ENDBRANCH  14  22
ENDBRANCH  12  14
ENDBRANCH   4   5
ENDBRANCH   2   4
TORSDOF 6
ENDMDL
MODEL       27
REMARK 921   NORMALIZED FREE ENERGY PREDICTED BY IDOCK:   -5.88 KCAL/MOL
REMARK 922        TOTAL FREE ENERGY PREDICTED BY IDOCK:   -8.63 KCAL/MOL
REMARK 923 INTER-LIGAND FREE ENERGY PREDICTED BY IDOCK:   -7.65 KCAL/MOL
REMARK 924 INTRA-LIGAND FREE ENERGY PREDICTED BY IDOCK:   -0.98 KCAL/MOL
REMARK 927      BINDING AFFINITY PREDICTED BY RF-SCORE:    0.00 PKD
ROOT
HETATM    1  C   UNL     1     -10.842  12.766  64.282  1.00  0.00    -0.419 C  
HETATM    2  C   UNL     1     -12.044  12.679  65.178  1.00  0.00    -0.455 C  
HETATM    3  O   UNL     1     -13.166  12.424  64.760  1.00  0.00    -0.784 OA 
ENDROOT
BRANCH   2   4
HETATM    4  O   UNL     1     -11.667  12.911  66.455  1.00  0.00    -0.354 OA 
BRANCH   4   5
HETATM    5  C   UNL     1     -11.059  11.961  67.156  1.00  0.00    -0.293 A  
HETATM    6  C   UNL     1     -11.410  10.648  67.429  1.00  0.00    -0.185 A  
HETATM    7  C   UNL     1     -10.488   9.972  68.294  1.00  0.00    -0.246 A  
HETATM    8  C   UNL     1      -9.440  10.795  68.610  1.00  0.00    -0.188 A  
HETATM    9  C   UNL     1      -8.282  10.380  69.428  1.00  0.00    -0.158 C  
HETATM   10  S   UNL     1      -9.594  12.355  67.965  1.00  0.00    -0.214 SA 
HETATM   11  C   UNL     1      -8.604   9.107  70.234  1.00  0.00    -0.198 C  
HETATM   12  N   UNL     1      -9.634   8.140  69.784  1.00  0.00    -0.170 NA 
HETATM   13  C   UNL     1     -10.629   8.564  68.778  1.00  0.00    -0.133 C  
BRANCH  12  14
HETATM   14  C   UNL     1     -10.263   7.448  70.968  1.00  0.00    -0.191 C  
BRANCH  14  15
HETATM   15  C   UNL     1     -10.115   5.921  71.008  1.00  0.00    -0.252 A  
HETATM   16  F   UNL     1     -10.574   5.814  73.348  1.00  0.00    -0.206 F  
HETATM   17  C   UNL     1      -9.702   5.191  69.878  1.00  0.00    -0.269 A  
HETATM   18  C   UNL     1     -10.252   5.198  72.205  1.00  0.00    -0.202 A  
HETATM   19  C   UNL     1     -10.028   3.819  72.286  1.00  0.00    -0.239 A  
HETATM   20  C   UNL     1      -9.483   3.808  69.945  1.00  0.00    -0.267 A  
HETATM   21  C   UNL     1      -9.648   3.122  71.147  1.00  0.00    -0.230 A  
ENDBRANCH  14  15
BRANCH  14  22
HETATM   22  C   UNL     1     -11.729   7.941  71.143  1.00  0.00    -0.285 C  
HETATM   23  O   UNL     1     -12.720   7.317  70.769  1.00  0.00    -0.215 OA 
BRANCH  22  24
HETATM   24  C   UNL     1     -11.899   9.275  71.813  1.00  0.00    -0.454 C  
HETATM   25  C   UNL     1     -12.556  10.430  71.088  1.00  0.00    -0.512 C  
HETATM   26  C   UNL     1     -13.294   9.724  72.186  1.00  0.00    -0.527 C  
ENDBRANCH  22  24
ENDBRANCH  14  22
ENDBRANCH  12  14
ENDBRANCH   4   5
ENDBRANCH   2   4
TORSDOF 6
ENDMDL
MODEL       28
REMARK 921   NORMALIZED FREE ENERGY PREDICTED BY IDOCK:   -5.86 KCAL/MOL
REMARK 922        TOTAL FREE ENERGY PREDICTED BY IDOCK:   -8.60 KCAL/MOL
REMARK 923 INTER-LIGAND FREE ENERGY PREDICTED BY IDOCK:   -8.19 KCAL/MOL
REMARK 924 INTRA-LIGAND FREE ENERGY PREDICTED BY IDOCK:   -0.41 KCAL/MOL
REMARK 927      BINDING AFFINITY PREDICTED BY RF-SCORE:    0.00 PKD
ROOT
HETATM    1  C   UNL     1     -12.375  15.414  74.253  1.00  0.00    -0.807 C  
HETATM    2  C   UNL     1     -12.975  15.818  72.938  1.00  0.00    -0.500 C  
HETATM    3  O   UNL     1     -14.155  15.640  72.664  1.00  0.00    -0.564 OA 
ENDROOT
BRANCH   2   4
HETATM    4  O   UNL     1     -12.021  16.389  72.168  1.00  0.00    -0.509 OA 
BRANCH   4   5
HETATM    5  C   UNL     1     -11.706  15.861  70.991  1.00  0.00    -0.432 A  
HETATM    6  C   UNL     1     -12.026  14.643  70.413  1.00  0.00    -0.375 A  
HETATM    7  C   UNL     1     -11.419  14.437  69.130  1.00  0.00    -0.328 A  
HETATM    8  C   UNL     1     -10.690  15.538  68.765  1.00  0.00    -0.249 A  
HETATM    9  C   UNL     1      -9.995  15.675  67.468  1.00  0.00    -0.231 C  
HETATM   10  S   UNL     1     -10.661  16.747  69.954  1.00  0.00     0.046 SA 
HETATM   11  C   UNL     1      -9.811  14.303  66.793  1.00  0.00    -0.270 C  
HETATM   12  N   UNL     1     -10.718  13.165  67.081  1.00  0.00    -0.254 NA 
HETATM   13  C   UNL     1     -11.563  13.207  68.292  1.00  0.00    -0.335 C  
BRANCH  12  14
HETATM   14  C   UNL     1      -9.987  11.854  66.927  1.00  0.00    -0.200 C  
BRANCH  14  15
HETATM   15  C   UNL     1      -9.778  11.369  65.485  1.00  0.00    -0.263 A  
HETATM   16  F   UNL     1     -11.928  12.136  64.786  1.00  0.00    -0.404 F  
HETATM   17  C   UNL     1      -8.636  10.636  65.112  1.00  0.00    -0.173 A  
HETATM   18  C   UNL     1     -10.776  11.515  64.507  1.00  0.00    -0.329 A  
HETATM   19  C   UNL     1     -10.649  10.996  63.213  1.00  0.00    -0.177 A  
HETATM   20  C   UNL     1      -8.493  10.120  63.818  1.00  0.00    -0.181 A  
HETATM   21  C   UNL     1      -9.498  10.302  62.868  1.00  0.00    -0.333 A  
ENDBRANCH  14  15
BRANCH  14  22
HETATM   22  C   UNL     1     -10.625  10.787  67.862  1.00  0.00    -0.221 C  
HETATM   23  O   UNL     1     -11.764  10.343  67.732  1.00  0.00    -0.353 OA 
BRANCH  22  24
HETATM   24  C   UNL     1      -9.760  10.297  68.988  1.00  0.00    -0.213 C  
HETATM   25  C   UNL     1     -10.372   9.829  70.291  1.00  0.00    -0.348 C  
HETATM   26  C   UNL     1      -9.792   8.827  69.338  1.00  0.00    -0.186 C  
ENDBRANCH  22  24
ENDBRANCH  14  22
ENDBRANCH  12  14
ENDBRANCH   4   5
ENDBRANCH   2   4
TORSDOF 6
ENDMDL
MODEL       29
REMARK 921   NORMALIZED FREE ENERGY PREDICTED BY IDOCK:   -5.86 KCAL/MOL
REMARK 922        TOTAL FREE ENERGY PREDICTED BY IDOCK:   -8.60 KCAL/MOL
REMARK 923 INTER-LIGAND FREE ENERGY PREDICTED BY IDOCK:   -7.80 KCAL/MOL
REMARK 924 INTRA-LIGAND FREE ENERGY PREDICTED BY IDOCK:   -0.80 KCAL/MOL
REMARK 927      BINDING AFFINITY PREDICTED BY RF-SCORE:    0.00 PKD
ROOT
HETATM    1  C   UNL     1     -11.084  12.634  63.538  1.00  0.00    -0.449 C  
HETATM    2  C   UNL     1     -12.185  12.588  64.557  1.00  0.00    -0.453 C  
HETATM    3  O   UNL     1     -13.322  12.221  64.288  1.00  0.00    -0.777 OA 
ENDROOT
BRANCH   2   4
HETATM    4  O   UNL     1     -11.705  12.993  65.753  1.00  0.00    -0.343 OA 
BRANCH   4   5
HETATM    5  C   UNL     1     -11.069  12.136  66.544  1.00  0.00    -0.307 A  
HETATM    6  C   UNL     1     -11.273  10.789  66.796  1.00  0.00    -0.053 A  
HETATM    7  C   UNL     1     -10.386  10.246  67.783  1.00  0.00    -0.246 A  
HETATM    8  C   UNL     1      -9.506  11.204  68.212  1.00  0.00    -0.182 A  
HETATM    9  C   UNL     1      -8.417  10.952  69.178  1.00  0.00    -0.064 C  
HETATM   10  S   UNL     1      -9.785  12.728  67.522  1.00  0.00    -0.206 SA 
HETATM   11  C   UNL     1      -8.665   9.650  69.961  1.00  0.00    -0.231 C  
HETATM   12  N   UNL     1      -9.490   8.550  69.405  1.00  0.00    -0.161 NA 
HETATM   13  C   UNL     1     -10.397   8.833  68.273  1.00  0.00    -0.207 C  
BRANCH  12  14
HETATM   14  C   UNL     1     -10.167   7.783  70.514  1.00  0.00    -0.201 C  
BRANCH  14  15
HETATM   15  C   UNL     1     -11.441   8.419  71.087  1.00  0.00    -0.314 A  
HETATM   16  F   UNL     1     -12.535   6.310  71.322  1.00  0.00    -0.309 F  
HETATM   17  C   UNL     1     -11.597   9.815  71.167  1.00  0.00    -0.469 A  
HETATM   18  C   UNL     1     -12.561   7.644  71.431  1.00  0.00    -0.333 A  
HETATM   19  C   UNL     1     -13.767   8.207  71.865  1.00  0.00    -0.395 A  
HETATM   20  C   UNL     1     -12.795  10.390  71.609  1.00  0.00    -0.579 A  
HETATM   21  C   UNL     1     -13.880   9.586  71.960  1.00  0.00    -0.365 A  
ENDBRANCH  14  15
BRANCH  14  22
HETATM   22  C   UNL     1      -9.119   7.394  71.596  1.00  0.00    -0.130 C  
HETATM   23  O   UNL     1      -8.065   6.807  71.362  1.00  0.00    -0.109 OA 
BRANCH  22  24
HETATM   24  C   UNL     1      -9.460   7.775  73.009  1.00  0.00    -0.311 C  
HETATM   25  C   UNL     1      -9.997   6.748  73.982  1.00  0.00    -0.367 C  
HETATM   26  C   UNL     1      -8.591   7.249  74.129  1.00  0.00    -0.238 C  
ENDBRANCH  22  24
ENDBRANCH  14  22
ENDBRANCH  12  14
ENDBRANCH   4   5
ENDBRANCH   2   4
TORSDOF 6
ENDMDL
MODEL       30
REMARK 921   NORMALIZED FREE ENERGY PREDICTED BY IDOCK:   -5.85 KCAL/MOL
REMARK 922        TOTAL FREE ENERGY PREDICTED BY IDOCK:   -8.59 KCAL/MOL
REMARK 923 INTER-LIGAND FREE ENERGY PREDICTED BY IDOCK:   -7.71 KCAL/MOL
REMARK 924 INTRA-LIGAND FREE ENERGY PREDICTED BY IDOCK:   -0.88 KCAL/MOL
REMARK 927      BINDING AFFINITY PREDICTED BY RF-SCORE:    0.00 PKD
ROOT
HETATM    1  C   UNL     1     -11.347  10.227  70.207  1.00  0.00    -0.398 C  
HETATM    2  C   UNL     1     -11.982  11.584  70.112  1.00  0.00    -0.369 C  
HETATM    3  O   UNL     1     -12.638  12.075  71.022  1.00  0.00    -0.364 OA 
ENDROOT
BRANCH   2   4
HETATM    4  O   UNL     1     -11.697  12.127  68.907  1.00  0.00    -0.288 OA 
BRANCH   4   5
HETATM    5  C   UNL     1     -10.801  13.103  68.809  1.00  0.00    -0.246 A  
HETATM    6  C   UNL     1     -10.860  14.446  69.143  1.00  0.00    -0.275 A  
HETATM    7  C   UNL     1      -9.672  15.177  68.809  1.00  0.00    -0.221 A  
HETATM    8  C   UNL     1      -8.733  14.338  68.269  1.00  0.00    -0.179 A  
HETATM    9  C   UNL     1      -7.372  14.764  67.881  1.00  0.00    -0.162 C  
HETATM   10  S   UNL     1      -9.283  12.745  68.086  1.00  0.00    -0.199 SA 
HETATM   11  C   UNL     1      -7.295  16.295  67.733  1.00  0.00    -0.132 C  
HETATM   12  N   UNL     1      -8.221  17.196  68.460  1.00  0.00    -0.253 NA 
HETATM   13  C   UNL     1      -9.467  16.642  69.028  1.00  0.00    -0.236 C  
BRANCH  12  14
HETATM   14  C   UNL     1      -8.453  18.463  67.673  1.00  0.00    -0.255 C  
BRANCH  14  15
HETATM   15  C   UNL     1      -7.254  19.414  67.566  1.00  0.00    -0.247 A  
HETATM   16  F   UNL     1      -6.969  19.520  69.933  1.00  0.00    -0.324 F  
HETATM   17  C   UNL     1      -6.840  19.941  66.328  1.00  0.00    -0.242 A  
HETATM   18  C   UNL     1      -6.600  19.908  68.707  1.00  0.00    -0.320 A  
HETATM   19  C   UNL     1      -5.567  20.850  68.639  1.00  0.00    -0.389 A  
HETATM   20  C   UNL     1      -5.800  20.877  66.247  1.00  0.00    -0.274 A  
HETATM   21  C   UNL     1      -5.163  21.330  67.402  1.00  0.00    -0.336 A  
ENDBRANCH  14  15
BRANCH  14  22
HETATM   22  C   UNL     1      -9.758  19.152  68.167  1.00  0.00    -0.361 C  
HETATM   23  O   UNL     1      -9.935  19.566  69.310  1.00  0.00    -0.427 OA 
BRANCH  22  24
HETATM   24  C   UNL     1     -10.853  19.296  67.147  1.00  0.00    -0.543 C  
HETATM   25  C   UNL     1     -10.595  19.979  65.821  1.00  0.00    -0.428 C  
HETATM   26  C   UNL     1     -10.762  18.490  65.871  1.00  0.00    -0.237 C  
ENDBRANCH  22  24
ENDBRANCH  14  22
ENDBRANCH  12  14
ENDBRANCH   4   5
ENDBRANCH   2   4
TORSDOF 6
ENDMDL
MODEL       31
REMARK 921   NORMALIZED FREE ENERGY PREDICTED BY IDOCK:   -5.84 KCAL/MOL
REMARK 922        TOTAL FREE ENERGY PREDICTED BY IDOCK:   -8.57 KCAL/MOL
REMARK 923 INTER-LIGAND FREE ENERGY PREDICTED BY IDOCK:   -8.05 KCAL/MOL
REMARK 924 INTRA-LIGAND FREE ENERGY PREDICTED BY IDOCK:   -0.52 KCAL/MOL
REMARK 927      BINDING AFFINITY PREDICTED BY RF-SCORE:    0.00 PKD
ROOT
HETATM    1  C   UNL     1     -12.172  15.936  73.034  1.00  0.00    -0.609 C  
HETATM    2  C   UNL     1     -13.252  15.602  72.047  1.00  0.00    -0.457 C  
HETATM    3  O   UNL     1     -14.411  15.387  72.379  1.00  0.00    -0.543 OA 
ENDROOT
BRANCH   2   4
HETATM    4  O   UNL     1     -12.731  15.596  70.800  1.00  0.00    -0.458 OA 
BRANCH   4   5
HETATM    5  C   UNL     1     -12.421  14.447  70.210  1.00  0.00    -0.354 A  
HETATM    6  C   UNL     1     -12.376  13.148  70.689  1.00  0.00    -0.405 A  
HETATM    7  C   UNL     1     -11.922  12.191  69.721  1.00  0.00    -0.372 A  
HETATM    8  C   UNL     1     -11.682  12.806  68.521  1.00  0.00    -0.333 A  
HETATM    9  C   UNL     1     -11.268  12.090  67.296  1.00  0.00    -0.371 C  
HETATM   10  S   UNL     1     -11.906  14.486  68.570  1.00  0.00    -0.294 SA 
HETATM   11  C   UNL     1     -10.716  10.693  67.633  1.00  0.00    -0.267 C  
HETATM   12  N   UNL     1     -11.120   9.972  68.864  1.00  0.00    -0.208 NA 
HETATM   13  C   UNL     1     -11.747  10.727  69.968  1.00  0.00    -0.336 C  
BRANCH  12  14
HETATM   14  C   UNL     1     -10.008   9.067  69.337  1.00  0.00    -0.191 C  
BRANCH  14  15
HETATM   15  C   UNL     1      -9.841   7.751  68.564  1.00  0.00    -0.181 A  
HETATM   16  F   UNL     1      -7.519   7.593  69.093  1.00  0.00    -0.084 F  
HETATM   17  C   UNL     1     -10.893   7.203  67.807  1.00  0.00    -0.248 A  
HETATM   18  C   UNL     1      -8.597   7.107  68.466  1.00  0.00    -0.124 A  
HETATM   19  C   UNL     1      -8.397   5.960  67.689  1.00  0.00    -0.104 A  
HETATM   20  C   UNL     1     -10.708   6.049  67.034  1.00  0.00    -0.412 A  
HETATM   21  C   UNL     1      -9.461   5.427  66.976  1.00  0.00    -0.133 A  
ENDBRANCH  14  15
BRANCH  14  22
HETATM   22  C   UNL     1     -10.105   8.881  70.878  1.00  0.00    -0.241 C  
HETATM   23  O   UNL     1      -9.276   9.303  71.682  1.00  0.00    -0.313 OA 
BRANCH  22  24
HETATM   24  C   UNL     1     -11.304   8.124  71.376  1.00  0.00    -0.299 C  
HETATM   25  C   UNL     1     -11.267   6.618  71.519  1.00  0.00    -0.313 C  
HETATM   26  C   UNL     1     -11.239   7.484  72.743  1.00  0.00    -0.403 C  
ENDBRANCH  22  24
ENDBRANCH  14  22
ENDBRANCH  12  14
ENDBRANCH   4   5
ENDBRANCH   2   4
TORSDOF 6
ENDMDL
MODEL       32
REMARK 921   NORMALIZED FREE ENERGY PREDICTED BY IDOCK:   -5.83 KCAL/MOL
REMARK 922        TOTAL FREE ENERGY PREDICTED BY IDOCK:   -8.56 KCAL/MOL
REMARK 923 INTER-LIGAND FREE ENERGY PREDICTED BY IDOCK:   -7.98 KCAL/MOL
REMARK 924 INTRA-LIGAND FREE ENERGY PREDICTED BY IDOCK:   -0.59 KCAL/MOL
REMARK 927      BINDING AFFINITY PREDICTED BY RF-SCORE:    0.00 PKD
ROOT
HETATM    1  C   UNL     1      -9.411   7.816  66.614  1.00  0.00    -0.263 C  
HETATM    2  C   UNL     1     -10.182   9.104  66.593  1.00  0.00    -0.258 C  
HETATM    3  O   UNL     1     -10.846   9.495  67.545  1.00  0.00    -0.280 OA 
ENDROOT
BRANCH   2   4
HETATM    4  O   UNL     1     -10.002   9.713  65.400  1.00  0.00    -0.316 OA 
BRANCH   4   5
HETATM    5  C   UNL     1     -10.144  11.029  65.293  1.00  0.00    -0.275 A  
HETATM    6  C   UNL     1      -9.498  12.080  65.924  1.00  0.00    -0.207 A  
HETATM    7  C   UNL     1     -10.007  13.371  65.561  1.00  0.00    -0.226 A  
HETATM    8  C   UNL     1     -10.999  13.247  64.625  1.00  0.00    -0.370 A  
HETATM    9  C   UNL     1     -11.684  14.392  63.991  1.00  0.00    -0.147 C  
HETATM   10  S   UNL     1     -11.373  11.635  64.255  1.00  0.00    -0.237 SA 
HETATM   11  C   UNL     1     -11.480  15.679  64.811  1.00  0.00    -0.283 C  
HETATM   12  N   UNL     1     -10.305  15.861  65.697  1.00  0.00    -0.367 NA 
HETATM   13  C   UNL     1      -9.522  14.677  66.105  1.00  0.00    -0.276 C  
BRANCH  12  14
HETATM   14  C   UNL     1     -10.652  16.758  66.860  1.00  0.00    -0.219 C  
BRANCH  14  15
HETATM   15  C   UNL     1      -9.934  18.114  66.898  1.00  0.00    -0.345 A  
HETATM   16  F   UNL     1      -7.831  17.155  66.304  1.00  0.00    -0.264 F  
HETATM   17  C   UNL     1     -10.592  19.285  67.320  1.00  0.00    -0.590 A  
HETATM   18  C   UNL     1      -8.557  18.226  66.644  1.00  0.00    -0.273 A  
HETATM   19  C   UNL     1      -7.861  19.434  66.766  1.00  0.00    -0.285 A  
HETATM   20  C   UNL     1      -9.907  20.502  67.437  1.00  0.00    -0.574 A  
HETATM   21  C   UNL     1      -8.543  20.577  67.158  1.00  0.00    -0.364 A  
ENDBRANCH  14  15
BRANCH  14  22
HETATM   22  C   UNL     1     -10.547  15.955  68.188  1.00  0.00    -0.280 C  
HETATM   23  O   UNL     1      -9.553  15.936  68.910  1.00  0.00    -0.205 OA 
BRANCH  22  24
HETATM   24  C   UNL     1     -11.762  15.160  68.575  1.00  0.00    -0.347 C  
HETATM   25  C   UNL     1     -11.635  13.726  69.044  1.00  0.00    -0.356 C  
HETATM   26  C   UNL     1     -11.962  14.806  70.031  1.00  0.00    -0.369 C  
ENDBRANCH  22  24
ENDBRANCH  14  22
ENDBRANCH  12  14
ENDBRANCH   4   5
ENDBRANCH   2   4
TORSDOF 6
ENDMDL
MODEL       33
REMARK 921   NORMALIZED FREE ENERGY PREDICTED BY IDOCK:   -5.83 KCAL/MOL
REMARK 922        TOTAL FREE ENERGY PREDICTED BY IDOCK:   -8.56 KCAL/MOL
REMARK 923 INTER-LIGAND FREE ENERGY PREDICTED BY IDOCK:   -7.81 KCAL/MOL
REMARK 924 INTRA-LIGAND FREE ENERGY PREDICTED BY IDOCK:   -0.75 KCAL/MOL
REMARK 927      BINDING AFFINITY PREDICTED BY RF-SCORE:    0.00 PKD
ROOT
HETATM    1  C   UNL     1     -11.737   8.089  72.393  1.00  0.00    -0.444 C  
HETATM    2  C   UNL     1     -11.212   7.373  71.183  1.00  0.00    -0.258 C  
HETATM    3  O   UNL     1     -11.876   6.560  70.553  1.00  0.00    -0.392 OA 
ENDROOT
BRANCH   2   4
HETATM    4  O   UNL     1      -9.948   7.781  70.936  1.00  0.00    -0.183 OA 
BRANCH   4   5
HETATM    5  C   UNL     1      -9.704   8.652  69.962  1.00  0.00    -0.171 A  
HETATM    6  C   UNL     1      -9.828  10.031  69.907  1.00  0.00    -0.266 A  
HETATM    7  C   UNL     1      -9.516  10.587  68.623  1.00  0.00    -0.172 A  
HETATM    8  C   UNL     1      -9.121   9.600  67.759  1.00  0.00    -0.124 A  
HETATM    9  C   UNL     1      -8.664   9.848  66.376  1.00  0.00    -0.144 C  
HETATM   10  S   UNL     1      -9.203   8.047  68.434  1.00  0.00    -0.134 SA 
HETATM   11  C   UNL     1      -9.107  11.241  65.890  1.00  0.00    -0.204 C  
HETATM   12  N   UNL     1      -9.371  12.349  66.839  1.00  0.00    -0.207 NA 
HETATM   13  C   UNL     1      -9.591  12.038  68.267  1.00  0.00    -0.204 C  
BRANCH  12  14
HETATM   14  C   UNL     1     -10.415  13.286  66.281  1.00  0.00    -0.287 C  
BRANCH  14  15
HETATM   15  C   UNL     1     -10.519  14.656  66.965  1.00  0.00    -0.269 A  
HETATM   16  F   UNL     1      -8.704  15.560  65.705  1.00  0.00    -0.301 F  
HETATM   17  C   UNL     1     -11.412  14.883  68.029  1.00  0.00    -0.355 A  
HETATM   18  C   UNL     1      -9.636  15.704  66.655  1.00  0.00    -0.248 A  
HETATM   19  C   UNL     1      -9.648  16.930  67.330  1.00  0.00    -0.241 A  
HETATM   20  C   UNL     1     -11.440  16.109  68.707  1.00  0.00    -0.340 A  
HETATM   21  C   UNL     1     -10.560  17.133  68.356  1.00  0.00    -0.371 A  
ENDBRANCH  14  15
BRANCH  14  22
HETATM   22  C   UNL     1     -11.775  12.541  66.161  1.00  0.00    -0.409 C  
HETATM   23  O   UNL     1     -12.282  11.872  67.059  1.00  0.00    -0.492 OA 
BRANCH  22  24
HETATM   24  C   UNL     1     -12.480  12.668  64.840  1.00  0.00    -0.564 C  
HETATM   25  C   UNL     1     -11.833  13.394  63.680  1.00  0.00    -0.451 C  
HETATM   26  C   UNL     1     -11.941  11.898  63.656  1.00  0.00    -0.578 C  
ENDBRANCH  22  24
ENDBRANCH  14  22
ENDBRANCH  12  14
ENDBRANCH   4   5
ENDBRANCH   2   4
TORSDOF 6
ENDMDL
MODEL       34
REMARK 921   NORMALIZED FREE ENERGY PREDICTED BY IDOCK:   -5.82 KCAL/MOL
REMARK 922        TOTAL FREE ENERGY PREDICTED BY IDOCK:   -8.55 KCAL/MOL
REMARK 923 INTER-LIGAND FREE ENERGY PREDICTED BY IDOCK:   -8.08 KCAL/MOL
REMARK 924 INTRA-LIGAND FREE ENERGY PREDICTED BY IDOCK:   -0.46 KCAL/MOL
REMARK 927      BINDING AFFINITY PREDICTED BY RF-SCORE:    0.00 PKD
ROOT
HETATM    1  C   UNL     1     -12.366   8.617  72.341  1.00  0.00    -0.426 C  
HETATM    2  C   UNL     1     -11.274   9.199  71.490  1.00  0.00    -0.360 C  
HETATM    3  O   UNL     1     -10.100   9.212  71.836  1.00  0.00    -0.322 OA 
ENDROOT
BRANCH   2   4
HETATM    4  O   UNL     1     -11.806   9.665  70.339  1.00  0.00    -0.240 OA 
BRANCH   4   5
HETATM    5  C   UNL     1     -11.831  10.970  70.093  1.00  0.00    -0.357 A  
HETATM    6  C   UNL     1     -11.252  11.731  69.091  1.00  0.00    -0.324 A  
HETATM    7  C   UNL     1     -11.478  13.140  69.232  1.00  0.00    -0.348 A  
HETATM    8  C   UNL     1     -12.266  13.389  70.324  1.00  0.00    -0.335 A  
HETATM    9  C   UNL     1     -12.741  14.734  70.709  1.00  0.00    -0.422 C  
HETATM   10  S   UNL     1     -12.653  11.993  71.204  1.00  0.00    -0.171 SA 
HETATM   11  C   UNL     1     -11.900  15.832  70.030  1.00  0.00    -0.354 C  
HETATM   12  N   UNL     1     -11.185  15.588  68.754  1.00  0.00    -0.293 NA 
HETATM   13  C   UNL     1     -10.948  14.197  68.316  1.00  0.00    -0.251 C  
BRANCH  12  14
HETATM   14  C   UNL     1      -9.944  16.443  68.672  1.00  0.00    -0.235 C  
BRANCH  14  15
HETATM   15  C   UNL     1     -10.073  17.734  67.851  1.00  0.00    -0.342 A  
HETATM   16  F   UNL     1     -10.920  16.581  65.941  1.00  0.00    -0.256 F  
HETATM   17  C   UNL     1      -9.615  18.969  68.345  1.00  0.00    -0.429 A  
HETATM   18  C   UNL     1     -10.528  17.720  66.523  1.00  0.00    -0.297 A  
HETATM   19  C   UNL     1     -10.564  18.869  65.723  1.00  0.00    -0.358 A  
HETATM   20  C   UNL     1      -9.655  20.128  67.558  1.00  0.00    -0.547 A  
HETATM   21  C   UNL     1     -10.132  20.078  66.248  1.00  0.00    -0.603 A  
ENDBRANCH  14  15
BRANCH  14  22
HETATM   22  C   UNL     1      -8.728  15.561  68.266  1.00  0.00    -0.170 C  
HETATM   23  O   UNL     1      -8.409  15.311  67.105  1.00  0.00    -0.183 OA 
BRANCH  22  24
HETATM   24  C   UNL     1      -7.921  14.991  69.398  1.00  0.00    -0.170 C  
HETATM   25  C   UNL     1      -6.656  14.204  69.131  1.00  0.00    -0.115 C  
HETATM   26  C   UNL     1      -6.565  15.591  69.692  1.00  0.00    -0.179 C  
ENDBRANCH  22  24
ENDBRANCH  14  22
ENDBRANCH  12  14
ENDBRANCH   4   5
ENDBRANCH   2   4
TORSDOF 6
ENDMDL
MODEL       35
REMARK 921   NORMALIZED FREE ENERGY PREDICTED BY IDOCK:   -5.80 KCAL/MOL
REMARK 922        TOTAL FREE ENERGY PREDICTED BY IDOCK:   -8.52 KCAL/MOL
REMARK 923 INTER-LIGAND FREE ENERGY PREDICTED BY IDOCK:   -8.10 KCAL/MOL
REMARK 924 INTRA-LIGAND FREE ENERGY PREDICTED BY IDOCK:   -0.42 KCAL/MOL
REMARK 927      BINDING AFFINITY PREDICTED BY RF-SCORE:    0.00 PKD
ROOT
HETATM    1  C   UNL     1     -11.455   8.212  72.569  1.00  0.00    -0.470 C  
HETATM    2  C   UNL     1     -12.864   8.364  72.072  1.00  0.00    -0.354 C  
HETATM    3  O   UNL     1     -13.499   7.437  71.585  1.00  0.00    -0.368 OA 
ENDROOT
BRANCH   2   4
HETATM    4  O   UNL     1     -13.270   9.638  72.264  1.00  0.00    -0.433 OA 
BRANCH   4   5
HETATM    5  C   UNL     1     -12.915  10.590  71.409  1.00  0.00    -0.440 A  
HETATM    6  C   UNL     1     -12.457  10.532  70.103  1.00  0.00    -0.297 A  
HETATM    7  C   UNL     1     -12.120  11.812  69.551  1.00  0.00    -0.314 A  
HETATM    8  C   UNL     1     -12.382  12.805  70.457  1.00  0.00    -0.275 A  
HETATM    9  C   UNL     1     -12.210  14.245  70.176  1.00  0.00    -0.407 C  
HETATM   10  S   UNL     1     -12.931  12.221  71.952  1.00  0.00    -0.213 SA 
HETATM   11  C   UNL     1     -11.301  14.463  68.952  1.00  0.00    -0.274 C  
HETATM   12  N   UNL     1     -11.160  13.435  67.893  1.00  0.00    -0.256 NA 
HETATM   13  C   UNL     1     -11.576  12.046  68.178  1.00  0.00    -0.340 C  
BRANCH  12  14
HETATM   14  C   UNL     1      -9.794  13.515  67.257  1.00  0.00    -0.237 C  
BRANCH  14  15
HETATM   15  C   UNL     1      -9.257  14.929  66.998  1.00  0.00    -0.249 A  
HETATM   16  F   UNL     1     -11.296  15.650  65.988  1.00  0.00    -0.268 F  
HETATM   17  C   UNL     1      -7.920  15.271  67.271  1.00  0.00    -0.231 A  
HETATM   18  C   UNL     1     -10.034  15.905  66.352  1.00  0.00    -0.287 A  
HETATM   19  C   UNL     1      -9.536  17.170  66.018  1.00  0.00    -0.167 A  
HETATM   20  C   UNL     1      -7.412  16.537  66.951  1.00  0.00    -0.256 A  
HETATM   21  C   UNL     1      -8.220  17.487  66.326  1.00  0.00    -0.275 A  
ENDBRANCH  14  15
BRANCH  14  22
HETATM   22  C   UNL     1      -9.743  12.586  66.010  1.00  0.00    -0.241 C  
HETATM   23  O   UNL     1      -9.035  11.586  65.918  1.00  0.00    -0.204 OA 
BRANCH  22  24
HETATM   24  C   UNL     1     -10.629  12.977  64.862  1.00  0.00    -0.355 C  
HETATM   25  C   UNL     1     -10.548  12.253  63.535  1.00  0.00    -0.488 C  
HETATM   26  C   UNL     1     -11.725  12.026  64.437  1.00  0.00    -0.399 C  
ENDBRANCH  22  24
ENDBRANCH  14  22
ENDBRANCH  12  14
ENDBRANCH   4   5
ENDBRANCH   2   4
TORSDOF 6
ENDMDL
MODEL       36
REMARK 921   NORMALIZED FREE ENERGY PREDICTED BY IDOCK:   -5.78 KCAL/MOL
REMARK 922        TOTAL FREE ENERGY PREDICTED BY IDOCK:   -8.50 KCAL/MOL
REMARK 923 INTER-LIGAND FREE ENERGY PREDICTED BY IDOCK:   -8.39 KCAL/MOL
REMARK 924 INTRA-LIGAND FREE ENERGY PREDICTED BY IDOCK:   -0.11 KCAL/MOL
REMARK 927      BINDING AFFINITY PREDICTED BY RF-SCORE:    0.00 PKD
ROOT
HETATM    1  C   UNL     1     -10.833  18.775  67.397  1.00  0.00    -0.414 C  
HETATM    2  C   UNL     1      -9.953  18.535  66.205  1.00  0.00    -0.365 C  
HETATM    3  O   UNL     1      -8.923  19.165  66.003  1.00  0.00    -0.447 OA 
ENDROOT
BRANCH   2   4
HETATM    4  O   UNL     1     -10.480  17.543  65.453  1.00  0.00    -0.647 OA 
BRANCH   4   5
HETATM    5  C   UNL     1     -10.337  16.275  65.823  1.00  0.00    -0.374 A  
HETATM    6  C   UNL     1     -11.251  15.240  65.937  1.00  0.00    -0.237 A  
HETATM    7  C   UNL     1     -10.684  14.022  66.439  1.00  0.00    -0.278 A  
HETATM    8  C   UNL     1      -9.338  14.173  66.645  1.00  0.00    -0.282 A  
HETATM    9  C   UNL     1      -8.445  13.085  67.095  1.00  0.00    -0.176 C  
HETATM   10  S   UNL     1      -8.784  15.745  66.332  1.00  0.00    -0.325 SA 
HETATM   11  C   UNL     1      -9.252  11.932  67.720  1.00  0.00    -0.184 C  
HETATM   12  N   UNL     1     -10.668  11.685  67.356  1.00  0.00    -0.222 NA 
HETATM   13  C   UNL     1     -11.438  12.756  66.692  1.00  0.00    -0.350 C  
BRANCH  12  14
HETATM   14  C   UNL     1     -11.412  11.067  68.515  1.00  0.00    -0.309 C  
BRANCH  14  15
HETATM   15  C   UNL     1     -11.866  12.039  69.613  1.00  0.00    -0.401 A  
HETATM   16  F   UNL     1     -13.140  10.364  70.740  1.00  0.00    -0.411 F  
HETATM   17  C   UNL     1     -11.551  13.410  69.561  1.00  0.00    -0.352 A  
HETATM   18  C   UNL     1     -12.727  11.634  70.646  1.00  0.00    -0.138 A  
HETATM   19  C   UNL     1     -13.231  12.521  71.603  1.00  0.00    -0.381 A  
HETATM   20  C   UNL     1     -12.042  14.306  70.519  1.00  0.00    -0.413 A  
HETATM   21  C   UNL     1     -12.880  13.862  71.541  1.00  0.00    -0.441 A  
ENDBRANCH  14  15
BRANCH  14  22
HETATM   22  C   UNL     1     -10.619   9.841  69.052  1.00  0.00    -0.219 C  
HETATM   23  O   UNL     1     -10.535   8.761  68.471  1.00  0.00    -0.206 OA 
BRANCH  22  24
HETATM   24  C   UNL     1      -9.929  10.030  70.373  1.00  0.00    -0.117 C  
HETATM   25  C   UNL     1     -10.084   9.013  71.483  1.00  0.00    -0.409 C  
HETATM   26  C   UNL     1      -8.789   9.105  70.733  1.00  0.00    -0.291 C  
ENDBRANCH  22  24
ENDBRANCH  14  22
ENDBRANCH  12  14
ENDBRANCH   4   5
ENDBRANCH   2   4
TORSDOF 6
ENDMDL
MODEL       37
REMARK 921   NORMALIZED FREE ENERGY PREDICTED BY IDOCK:   -5.77 KCAL/MOL
REMARK 922        TOTAL FREE ENERGY PREDICTED BY IDOCK:   -8.49 KCAL/MOL
REMARK 923 INTER-LIGAND FREE ENERGY PREDICTED BY IDOCK:   -7.55 KCAL/MOL
REMARK 924 INTRA-LIGAND FREE ENERGY PREDICTED BY IDOCK:   -0.93 KCAL/MOL
REMARK 927      BINDING AFFINITY PREDICTED BY RF-SCORE:    0.00 PKD
ROOT
HETATM    1  C   UNL     1      -9.930   5.027  66.837  1.00  0.00    -0.238 C  
HETATM    2  C   UNL     1     -10.680   6.105  67.564  1.00  0.00    -0.313 C  
HETATM    3  O   UNL     1     -10.983   6.020  68.747  1.00  0.00    -0.317 OA 
ENDROOT
BRANCH   2   4
HETATM    4  O   UNL     1     -10.930   7.126  66.714  1.00  0.00    -0.305 OA 
BRANCH   4   5
HETATM    5  C   UNL     1     -10.526   8.357  67.009  1.00  0.00    -0.305 A  
HETATM    6  C   UNL     1     -10.951   9.262  67.968  1.00  0.00    -0.076 A  
HETATM    7  C   UNL     1     -10.279  10.527  67.906  1.00  0.00    -0.213 A  
HETATM    8  C   UNL     1      -9.329  10.514  66.920  1.00  0.00    -0.159 A  
HETATM    9  C   UNL     1      -8.413  11.639  66.641  1.00  0.00    -0.165 C  
HETATM   10  S   UNL     1      -9.299   9.066  66.037  1.00  0.00    -0.252 SA 
HETATM   11  C   UNL     1      -8.940  12.946  67.261  1.00  0.00    -0.208 C  
HETATM   12  N   UNL     1      -9.841  12.942  68.439  1.00  0.00    -0.220 NA 
HETATM   13  C   UNL     1     -10.554  11.697  68.796  1.00  0.00    -0.212 C  
BRANCH  12  14
HETATM   14  C   UNL     1     -10.752  14.145  68.413  1.00  0.00    -0.256 C  
BRANCH  14  15
HETATM   15  C   UNL     1     -11.066  14.717  67.024  1.00  0.00    -0.333 A  
HETATM   16  F   UNL     1     -12.258  12.762  66.352  1.00  0.00    -0.454 F  
HETATM   17  C   UNL     1     -10.539  15.952  66.599  1.00  0.00    -0.305 A  
HETATM   18  C   UNL     1     -11.777  13.978  66.065  1.00  0.00    -0.369 A  
HETATM   19  C   UNL     1     -11.993  14.438  64.761  1.00  0.00    -0.455 A  
HETATM   20  C   UNL     1     -10.756  16.427  65.299  1.00  0.00    -0.312 A  
HETATM   21  C   UNL     1     -11.485  15.672  64.381  1.00  0.00    -0.266 A  
ENDBRANCH  14  15
BRANCH  14  22
HETATM   22  C   UNL     1     -10.242  15.208  69.429  1.00  0.00    -0.240 C  
HETATM   23  O   UNL     1      -9.060  15.501  69.592  1.00  0.00    -0.278 OA 
BRANCH  22  24
HETATM   24  C   UNL     1     -11.298  15.894  70.248  1.00  0.00    -0.381 C  
HETATM   25  C   UNL     1     -12.648  15.248  70.475  1.00  0.00    -0.450 C  
HETATM   26  C   UNL     1     -11.656  15.315  71.598  1.00  0.00    -0.473 C  
ENDBRANCH  22  24
ENDBRANCH  14  22
ENDBRANCH  12  14
ENDBRANCH   4   5
ENDBRANCH   2   4
TORSDOF 6
ENDMDL
MODEL       38
REMARK 921   NORMALIZED FREE ENERGY PREDICTED BY IDOCK:   -5.76 KCAL/MOL
REMARK 922        TOTAL FREE ENERGY PREDICTED BY IDOCK:   -8.46 KCAL/MOL
REMARK 923 INTER-LIGAND FREE ENERGY PREDICTED BY IDOCK:   -7.95 KCAL/MOL
REMARK 924 INTRA-LIGAND FREE ENERGY PREDICTED BY IDOCK:   -0.51 KCAL/MOL
REMARK 927      BINDING AFFINITY PREDICTED BY RF-SCORE:    0.00 PKD
ROOT
HETATM    1  C   UNL     1      -9.487  20.296  67.062  1.00  0.00    -0.546 C  
HETATM    2  C   UNL     1      -7.990  20.361  66.968  1.00  0.00    -0.312 C  
HETATM    3  O   UNL     1      -7.329  21.246  67.497  1.00  0.00    -0.452 OA 
ENDROOT
BRANCH   2   4
HETATM    4  O   UNL     1      -7.542  19.314  66.240  1.00  0.00    -0.253 OA 
BRANCH   4   5
HETATM    5  C   UNL     1      -7.847  18.071  66.598  1.00  0.00    -0.243 A  
HETATM    6  C   UNL     1      -8.623  17.100  65.986  1.00  0.00    -0.140 A  
HETATM    7  C   UNL     1      -8.749  15.895  66.752  1.00  0.00    -0.303 A  
HETATM    8  C   UNL     1      -8.019  15.985  67.907  1.00  0.00    -0.137 A  
HETATM    9  C   UNL     1      -7.881  14.887  68.885  1.00  0.00    -0.161 C  
HETATM   10  S   UNL     1      -7.275  17.495  68.113  1.00  0.00    -0.224 SA 
HETATM   11  C   UNL     1      -8.985  13.831  68.687  1.00  0.00    -0.050 C  
HETATM   12  N   UNL     1      -9.651  13.636  67.377  1.00  0.00    -0.220 NA 
HETATM   13  C   UNL     1      -9.548  14.695  66.352  1.00  0.00    -0.301 C  
BRANCH  12  14
HETATM   14  C   UNL     1     -11.067  13.150  67.571  1.00  0.00    -0.271 C  
BRANCH  14  15
HETATM   15  C   UNL     1     -11.752  13.586  68.873  1.00  0.00    -0.379 A  
HETATM   16  F   UNL     1     -11.837  15.876  68.207  1.00  0.00    -0.352 F  
HETATM   17  C   UNL     1     -11.968  12.682  69.930  1.00  0.00    -0.365 A  
HETATM   18  C   UNL     1     -12.070  14.930  69.125  1.00  0.00    -0.231 A  
HETATM   19  C   UNL     1     -12.607  15.367  70.342  1.00  0.00    -0.433 A  
HETATM   20  C   UNL     1     -12.513  13.105  71.150  1.00  0.00    -0.378 A  
HETATM   21  C   UNL     1     -12.835  14.446  71.355  1.00  0.00    -0.410 A  
ENDBRANCH  14  15
BRANCH  14  22
HETATM   22  C   UNL     1     -11.135  11.618  67.308  1.00  0.00    -0.290 C  
HETATM   23  O   UNL     1     -12.030  10.883  67.719  1.00  0.00    -0.553 OA 
BRANCH  22  24
HETATM   24  C   UNL     1     -10.008  11.038  66.501  1.00  0.00    -0.253 C  
HETATM   25  C   UNL     1     -10.074   9.618  65.983  1.00  0.00    -0.318 C  
HETATM   26  C   UNL     1     -10.237  10.765  65.032  1.00  0.00    -0.373 C  
ENDBRANCH  22  24
ENDBRANCH  14  22
ENDBRANCH  12  14
ENDBRANCH   4   5
ENDBRANCH   2   4
TORSDOF 6
ENDMDL
MODEL       39
REMARK 921   NORMALIZED FREE ENERGY PREDICTED BY IDOCK:   -5.72 KCAL/MOL
REMARK 922        TOTAL FREE ENERGY PREDICTED BY IDOCK:   -8.41 KCAL/MOL
REMARK 923 INTER-LIGAND FREE ENERGY PREDICTED BY IDOCK:   -7.47 KCAL/MOL
REMARK 924 INTRA-LIGAND FREE ENERGY PREDICTED BY IDOCK:   -0.94 KCAL/MOL
REMARK 927      BINDING AFFINITY PREDICTED BY RF-SCORE:    0.00 PKD
ROOT
HETATM    1  C   UNL     1     -10.446  19.929  66.159  1.00  0.00    -0.581 C  
HETATM    2  C   UNL     1      -9.057  19.697  66.678  1.00  0.00    -0.363 C  
HETATM    3  O   UNL     1      -8.628  20.238  67.690  1.00  0.00    -0.319 OA 
ENDROOT
BRANCH   2   4
HETATM    4  O   UNL     1      -8.418  18.822  65.870  1.00  0.00    -0.481 OA 
BRANCH   4   5
HETATM    5  C   UNL     1      -8.386  17.530  66.175  1.00  0.00    -0.165 A  
HETATM    6  C   UNL     1      -9.274  16.499  65.912  1.00  0.00    -0.209 A  
HETATM    7  C   UNL     1      -8.884  15.243  66.483  1.00  0.00    -0.335 A  
HETATM    8  C   UNL     1      -7.681  15.364  67.126  1.00  0.00    -0.211 A  
HETATM    9  C   UNL     1      -6.968  14.237  67.762  1.00  0.00    -0.191 C  
HETATM   10  S   UNL     1      -7.075  16.948  67.122  1.00  0.00    -0.202 SA 
HETATM   11  C   UNL     1      -7.919  13.051  68.008  1.00  0.00    -0.155 C  
HETATM   12  N   UNL     1      -9.136  12.845  67.187  1.00  0.00    -0.213 NA 
HETATM   13  C   UNL     1      -9.663  13.970  66.386  1.00  0.00    -0.296 C  
BRANCH  12  14
HETATM   14  C   UNL     1     -10.208  12.155  67.995  1.00  0.00    -0.201 C  
BRANCH  14  15
HETATM   15  C   UNL     1     -10.307  10.633  67.813  1.00  0.00    -0.239 A  
HETATM   16  F   UNL     1     -10.687  10.258  70.140  1.00  0.00    -0.282 F  
HETATM   17  C   UNL     1     -10.060  10.022  66.570  1.00  0.00    -0.296 A  
HETATM   18  C   UNL     1     -10.513   9.773  68.904  1.00  0.00    -0.214 A  
HETATM   19  C   UNL     1     -10.511   8.379  68.780  1.00  0.00    -0.202 A  
HETATM   20  C   UNL     1     -10.065   8.628  66.431  1.00  0.00    -0.294 A  
HETATM   21  C   UNL     1     -10.293   7.806  67.535  1.00  0.00    -0.333 A  
ENDBRANCH  14  15
BRANCH  14  22
HETATM   22  C   UNL     1     -11.563  12.897  67.809  1.00  0.00    -0.343 C  
HETATM   23  O   UNL     1     -12.251  12.841  66.793  1.00  0.00    -0.470 OA 
BRANCH  22  24
HETATM   24  C   UNL     1     -12.020  13.733  68.971  1.00  0.00    -0.399 C  
HETATM   25  C   UNL     1     -11.063  14.667  69.680  1.00  0.00    -0.284 C  
HETATM   26  C   UNL     1     -12.129  15.229  68.787  1.00  0.00    -0.195 C  
ENDBRANCH  22  24
ENDBRANCH  14  22
ENDBRANCH  12  14
ENDBRANCH   4   5
ENDBRANCH   2   4
TORSDOF 6
ENDMDL
MODEL       40
REMARK 921   NORMALIZED FREE ENERGY PREDICTED BY IDOCK:   -5.69 KCAL/MOL
REMARK 922        TOTAL FREE ENERGY PREDICTED BY IDOCK:   -8.38 KCAL/MOL
REMARK 923 INTER-LIGAND FREE ENERGY PREDICTED BY IDOCK:   -7.41 KCAL/MOL
REMARK 924 INTRA-LIGAND FREE ENERGY PREDICTED BY IDOCK:   -0.96 KCAL/MOL
REMARK 927      BINDING AFFINITY PREDICTED BY RF-SCORE:    0.00 PKD
ROOT
HETATM    1  C   UNL     1     -10.417   5.384  69.983  1.00  0.00    -0.373 C  
HETATM    2  C   UNL     1     -11.001   6.482  69.142  1.00  0.00    -0.323 C  
HETATM    3  O   UNL     1     -11.309   6.324  67.967  1.00  0.00    -0.260 OA 
ENDROOT
BRANCH   2   4
HETATM    4  O   UNL     1     -11.122   7.601  69.888  1.00  0.00    -0.237 OA 
BRANCH   4   5
HETATM    5  C   UNL     1     -10.604   8.748  69.463  1.00  0.00    -0.219 A  
HETATM    6  C   UNL     1     -11.120  10.033  69.423  1.00  0.00    -0.265 A  
HETATM    7  C   UNL     1     -10.240  10.990  68.818  1.00  0.00    -0.211 A  
HETATM    8  C   UNL     1      -9.060  10.392  68.460  1.00  0.00    -0.145 A  
HETATM    9  C   UNL     1      -7.913  11.116  67.874  1.00  0.00    -0.114 C  
HETATM   10  S   UNL     1      -9.037   8.723  68.758  1.00  0.00    -0.138 SA 
HETATM   11  C   UNL     1      -8.351  12.480  67.309  1.00  0.00    -0.185 C  
HETATM   12  N   UNL     1      -9.544  13.191  67.829  1.00  0.00    -0.201 NA 
HETATM   13  C   UNL     1     -10.545  12.440  68.614  1.00  0.00    -0.218 C  
BRANCH  12  14
HETATM   14  C   UNL     1     -10.170  14.035  66.746  1.00  0.00    -0.264 C  
BRANCH  14  15
HETATM   15  C   UNL     1     -10.276  15.537  67.044  1.00  0.00    -0.271 A  
HETATM   16  F   UNL     1     -10.561  16.100  64.743  1.00  0.00    -0.396 F  
HETATM   17  C   UNL     1     -10.079  16.046  68.342  1.00  0.00    -0.229 A  
HETATM   18  C   UNL     1     -10.437  16.483  66.019  1.00  0.00    -0.310 A  
HETATM   19  C   UNL     1     -10.440  17.863  66.255  1.00  0.00    -0.320 A  
HETATM   20  C   UNL     1     -10.090  17.425  68.592  1.00  0.00    -0.355 A  
HETATM   21  C   UNL     1     -10.272  18.333  67.550  1.00  0.00    -0.384 A  
ENDBRANCH  14  15
BRANCH  14  22
HETATM   22  C   UNL     1     -11.511  13.391  66.290  1.00  0.00    -0.325 C  
HETATM   23  O   UNL     1     -12.617  13.717  66.714  1.00  0.00    -0.296 OA 
BRANCH  22  24
HETATM   24  C   UNL     1     -11.401  12.297  65.266  1.00  0.00    -0.384 C  
HETATM   25  C   UNL     1     -11.959  12.478  63.871  1.00  0.00    -0.563 C  
HETATM   26  C   UNL     1     -10.476  12.499  64.088  1.00  0.00    -0.429 C  
ENDBRANCH  22  24
ENDBRANCH  14  22
ENDBRANCH  12  14
ENDBRANCH   4   5
ENDBRANCH   2   4
TORSDOF 6
ENDMDL
MODEL       41
REMARK 921   NORMALIZED FREE ENERGY PREDICTED BY IDOCK:   -5.69 KCAL/MOL
REMARK 922        TOTAL FREE ENERGY PREDICTED BY IDOCK:   -8.37 KCAL/MOL
REMARK 923 INTER-LIGAND FREE ENERGY PREDICTED BY IDOCK:   -7.87 KCAL/MOL
REMARK 924 INTRA-LIGAND FREE ENERGY PREDICTED BY IDOCK:   -0.50 KCAL/MOL
REMARK 927      BINDING AFFINITY PREDICTED BY RF-SCORE:    0.00 PKD
ROOT
HETATM    1  C   UNL     1     -12.361  15.631  73.465  1.00  0.00    -0.663 C  
HETATM    2  C   UNL     1     -12.755  15.775  72.023  1.00  0.00    -0.449 C  
HETATM    3  O   UNL     1     -13.922  15.803  71.654  1.00  0.00    -0.456 OA 
ENDROOT
BRANCH   2   4
HETATM    4  O   UNL     1     -11.642  15.872  71.263  1.00  0.00    -0.387 OA 
BRANCH   4   5
HETATM    5  C   UNL     1     -11.619  15.355  70.040  1.00  0.00    -0.321 A  
HETATM    6  C   UNL     1     -12.023  14.122  69.552  1.00  0.00    -0.389 A  
HETATM    7  C   UNL     1     -11.761  13.941  68.154  1.00  0.00    -0.388 A  
HETATM    8  C   UNL     1     -11.204  15.074  67.623  1.00  0.00    -0.326 A  
HETATM    9  C   UNL     1     -10.877  15.239  66.191  1.00  0.00    -0.320 C  
HETATM   10  S   UNL     1     -10.921  16.286  68.774  1.00  0.00    -0.353 SA 
HETATM   11  C   UNL     1     -10.812  13.875  65.479  1.00  0.00    -0.306 C  
HETATM   12  N   UNL     1     -11.560  12.698  65.981  1.00  0.00    -0.371 NA 
HETATM   13  C   UNL     1     -12.063  12.703  67.371  1.00  0.00    -0.111 C  
BRANCH  12  14
HETATM   14  C   UNL     1     -10.835  11.421  65.631  1.00  0.00    -0.218 C  
BRANCH  14  15
HETATM   15  C   UNL     1      -9.697  11.016  66.578  1.00  0.00    -0.230 A  
HETATM   16  F   UNL     1     -10.743   8.947  67.147  1.00  0.00    -0.344 F  
HETATM   17  C   UNL     1      -8.633  11.890  66.868  1.00  0.00    -0.185 A  
HETATM   18  C   UNL     1      -9.734   9.813  67.302  1.00  0.00    -0.169 A  
HETATM   19  C   UNL     1      -8.758   9.465  68.242  1.00  0.00    -0.124 A  
HETATM   20  C   UNL     1      -7.645  11.549  67.800  1.00  0.00    -0.111 A  
HETATM   21  C   UNL     1      -7.706  10.336  68.486  1.00  0.00    -0.091 A  
ENDBRANCH  14  15
BRANCH  14  22
HETATM   22  C   UNL     1     -10.422  11.450  64.131  1.00  0.00    -0.363 C  
HETATM   23  O   UNL     1     -11.078  11.987  63.241  1.00  0.00    -0.384 OA 
BRANCH  22  24
HETATM   24  C   UNL     1      -9.133  10.758  63.790  1.00  0.00    -0.215 C  
HETATM   25  C   UNL     1      -9.105   9.607  62.806  1.00  0.00    -0.254 C  
HETATM   26  C   UNL     1      -8.557  10.944  62.405  1.00  0.00    -0.344 C  
ENDBRANCH  22  24
ENDBRANCH  14  22
ENDBRANCH  12  14
ENDBRANCH   4   5
ENDBRANCH   2   4
TORSDOF 6
ENDMDL
MODEL       42
REMARK 921   NORMALIZED FREE ENERGY PREDICTED BY IDOCK:   -5.68 KCAL/MOL
REMARK 922        TOTAL FREE ENERGY PREDICTED BY IDOCK:   -8.36 KCAL/MOL
REMARK 923 INTER-LIGAND FREE ENERGY PREDICTED BY IDOCK:   -7.31 KCAL/MOL
REMARK 924 INTRA-LIGAND FREE ENERGY PREDICTED BY IDOCK:   -1.05 KCAL/MOL
REMARK 927      BINDING AFFINITY PREDICTED BY RF-SCORE:    0.00 PKD
ROOT
HETATM    1  C   UNL     1      -9.472  10.672  62.889  1.00  0.00    -0.367 C  
HETATM    2  C   UNL     1     -10.245  10.655  64.176  1.00  0.00    -0.295 C  
HETATM    3  O   UNL     1     -10.033   9.843  65.067  1.00  0.00    -0.316 OA 
ENDROOT
BRANCH   2   4
HETATM    4  O   UNL     1     -11.156  11.654  64.163  1.00  0.00    -0.343 OA 
BRANCH   4   5
HETATM    5  C   UNL     1     -10.982  12.727  64.926  1.00  0.00    -0.294 A  
HETATM    6  C   UNL     1     -10.076  13.773  64.854  1.00  0.00    -0.297 A  
HETATM    7  C   UNL     1     -10.191  14.712  65.932  1.00  0.00    -0.344 A  
HETATM    8  C   UNL     1     -11.221  14.359  66.762  1.00  0.00    -0.337 A  
HETATM    9  C   UNL     1     -11.649  15.156  67.931  1.00  0.00    -0.326 C  
HETATM   10  S   UNL     1     -11.973  12.905  66.319  1.00  0.00    -0.366 SA 
HETATM   11  C   UNL     1     -10.548  16.147  68.355  1.00  0.00    -0.286 C  
HETATM   12  N   UNL     1      -9.536  16.646  67.393  1.00  0.00    -0.240 NA 
HETATM   13  C   UNL     1      -9.327  15.917  66.126  1.00  0.00    -0.350 C  
BRANCH  12  14
HETATM   14  C   UNL     1      -8.242  16.961  68.103  1.00  0.00    -0.207 C  
BRANCH  14  15
HETATM   15  C   UNL     1      -7.638  18.342  67.812  1.00  0.00    -0.238 A  
HETATM   16  F   UNL     1      -6.448  18.394  69.880  1.00  0.00    -0.230 F  
HETATM   17  C   UNL     1      -8.006  19.082  66.672  1.00  0.00    -0.282 A  
HETATM   18  C   UNL     1      -6.798  18.988  68.733  1.00  0.00    -0.300 A  
HETATM   19  C   UNL     1      -6.312  20.286  68.534  1.00  0.00    -0.347 A  
HETATM   20  C   UNL     1      -7.519  20.378  66.457  1.00  0.00    -0.269 A  
HETATM   21  C   UNL     1      -6.671  20.979  67.387  1.00  0.00    -0.446 A  
ENDBRANCH  14  15
BRANCH  14  22
HETATM   22  C   UNL     1      -7.241  15.786  67.911  1.00  0.00    -0.139 C  
HETATM   23  O   UNL     1      -6.271  15.817  67.157  1.00  0.00    -0.309 OA 
BRANCH  22  24
HETATM   24  C   UNL     1      -7.518  14.548  68.716  1.00  0.00    -0.132 C  
HETATM   25  C   UNL     1      -7.618  13.193  68.049  1.00  0.00    -0.144 C  
HETATM   26  C   UNL     1      -6.414  13.528  68.877  1.00  0.00    -0.102 C  
ENDBRANCH  22  24
ENDBRANCH  14  22
ENDBRANCH  12  14
ENDBRANCH   4   5
ENDBRANCH   2   4
TORSDOF 6
ENDMDL
MODEL       43
REMARK 921   NORMALIZED FREE ENERGY PREDICTED BY IDOCK:   -5.67 KCAL/MOL
REMARK 922        TOTAL FREE ENERGY PREDICTED BY IDOCK:   -8.34 KCAL/MOL
REMARK 923 INTER-LIGAND FREE ENERGY PREDICTED BY IDOCK:   -7.92 KCAL/MOL
REMARK 924 INTRA-LIGAND FREE ENERGY PREDICTED BY IDOCK:   -0.42 KCAL/MOL
REMARK 927      BINDING AFFINITY PREDICTED BY RF-SCORE:    0.00 PKD
ROOT
HETATM    1  C   UNL     1     -10.237   6.785  73.885  1.00  0.00    -0.396 C  
HETATM    2  C   UNL     1     -10.859   6.477  72.554  1.00  0.00    -0.239 C  
HETATM    3  O   UNL     1     -11.947   5.928  72.441  1.00  0.00    -0.298 OA 
ENDROOT
BRANCH   2   4
HETATM    4  O   UNL     1     -10.040   6.907  71.568  1.00  0.00    -0.185 OA 
BRANCH   4   5
HETATM    5  C   UNL     1     -10.403   7.921  70.792  1.00  0.00    -0.203 A  
HETATM    6  C   UNL     1     -10.217   8.159  69.439  1.00  0.00    -0.211 A  
HETATM    7  C   UNL     1     -10.719   9.429  69.002  1.00  0.00    -0.209 A  
HETATM    8  C   UNL     1     -11.312  10.091  70.045  1.00  0.00    -0.275 A  
HETATM    9  C   UNL     1     -11.989  11.398  69.914  1.00  0.00    -0.434 C  
HETATM   10  S   UNL     1     -11.196   9.262  71.519  1.00  0.00    -0.392 SA 
HETATM   11  C   UNL     1     -11.565  12.112  68.617  1.00  0.00    -0.321 C  
HETATM   12  N   UNL     1     -11.080  11.358  67.436  1.00  0.00    -0.272 NA 
HETATM   13  C   UNL     1     -10.630   9.962  67.608  1.00  0.00    -0.270 C  
BRANCH  12  14
HETATM   14  C   UNL     1     -10.102  12.190  66.643  1.00  0.00    -0.199 C  
BRANCH  14  15
HETATM   15  C   UNL     1     -10.685  13.428  65.947  1.00  0.00    -0.285 A  
HETATM   16  F   UNL     1     -12.622  12.248  65.203  1.00  0.00    -0.495 F  
HETATM   17  C   UNL     1      -9.966  14.635  65.866  1.00  0.00    -0.352 A  
HETATM   18  C   UNL     1     -11.899  13.374  65.244  1.00  0.00    -0.348 A  
HETATM   19  C   UNL     1     -12.405  14.461  64.521  1.00  0.00    -0.440 A  
HETATM   20  C   UNL     1     -10.466  15.734  65.154  1.00  0.00    -0.394 A  
HETATM   21  C   UNL     1     -11.686  15.647  64.484  1.00  0.00    -0.220 A  
ENDBRANCH  14  15
BRANCH  14  22
HETATM   22  C   UNL     1      -9.278  11.269  65.697  1.00  0.00    -0.213 C  
HETATM   23  O   UNL     1      -8.127  10.900  65.918  1.00  0.00    -0.160 OA 
BRANCH  22  24
HETATM   24  C   UNL     1      -9.972  10.830  64.439  1.00  0.00    -0.400 C  
HETATM   25  C   UNL     1      -9.585  11.409  63.095  1.00  0.00    -0.398 C  
HETATM   26  C   UNL     1      -9.199  10.001  63.438  1.00  0.00    -0.317 C  
ENDBRANCH  22  24
ENDBRANCH  14  22
ENDBRANCH  12  14
ENDBRANCH   4   5
ENDBRANCH   2   4
TORSDOF 6
ENDMDL
MODEL       44
REMARK 921   NORMALIZED FREE ENERGY PREDICTED BY IDOCK:   -5.65 KCAL/MOL
REMARK 922        TOTAL FREE ENERGY PREDICTED BY IDOCK:   -8.32 KCAL/MOL
REMARK 923 INTER-LIGAND FREE ENERGY PREDICTED BY IDOCK:   -7.46 KCAL/MOL
REMARK 924 INTRA-LIGAND FREE ENERGY PREDICTED BY IDOCK:   -0.86 KCAL/MOL
REMARK 927      BINDING AFFINITY PREDICTED BY RF-SCORE:    0.00 PKD
ROOT
HETATM    1  C   UNL     1     -10.725   9.402  70.033  1.00  0.00    -0.270 C  
HETATM    2  C   UNL     1     -11.961   9.978  70.662  1.00  0.00    -0.313 C  
HETATM    3  O   UNL     1     -12.251   9.798  71.837  1.00  0.00    -0.375 OA 
ENDROOT
BRANCH   2   4
HETATM    4  O   UNL     1     -12.640  10.694  69.739  1.00  0.00    -0.244 OA 
BRANCH   4   5
HETATM    5  C   UNL     1     -12.253  11.928  69.432  1.00  0.00    -0.125 A  
HETATM    6  C   UNL     1     -11.785  12.480  68.251  1.00  0.00    -0.390 A  
HETATM    7  C   UNL     1     -11.412  13.860  68.367  1.00  0.00    -0.346 A  
HETATM    8  C   UNL     1     -11.657  14.314  69.636  1.00  0.00    -0.296 A  
HETATM    9  C   UNL     1     -11.447  15.712  70.066  1.00  0.00    -0.352 C  
HETATM   10  S   UNL     1     -12.234  13.109  70.680  1.00  0.00    -0.225 SA 
HETATM   11  C   UNL     1     -10.522  16.458  69.087  1.00  0.00    -0.303 C  
HETATM   12  N   UNL     1     -10.397  16.048  67.667  1.00  0.00    -0.277 NA 
HETATM   13  C   UNL     1     -10.849  14.699  67.265  1.00  0.00    -0.305 C  
BRANCH  12  14
HETATM   14  C   UNL     1      -9.023  16.381  67.139  1.00  0.00    -0.202 C  
BRANCH  14  15
HETATM   15  C   UNL     1      -7.880  16.321  68.162  1.00  0.00    -0.156 A  
HETATM   16  F   UNL     1      -8.065  13.954  68.412  1.00  0.00    -0.123 F  
HETATM   17  C   UNL     1      -7.264  17.489  68.649  1.00  0.00    -0.246 A  
HETATM   18  C   UNL     1      -7.488  15.111  68.759  1.00  0.00    -0.132 A  
HETATM   19  C   UNL     1      -6.515  15.043  69.763  1.00  0.00    -0.163 A  
HETATM   20  C   UNL     1      -6.282  17.432  69.647  1.00  0.00    -0.233 A  
HETATM   21  C   UNL     1      -5.907  16.209  70.202  1.00  0.00    -0.157 A  
ENDBRANCH  14  15
BRANCH  14  22
HETATM   22  C   UNL     1      -9.080  17.716  66.341  1.00  0.00    -0.234 C  
HETATM   23  O   UNL     1      -8.147  18.170  65.682  1.00  0.00    -0.488 OA 
BRANCH  22  24
HETATM   24  C   UNL     1     -10.378  18.470  66.411  1.00  0.00    -0.456 C  
HETATM   25  C   UNL     1     -10.461  19.808  67.114  1.00  0.00    -0.592 C  
HETATM   26  C   UNL     1     -10.515  19.748  65.617  1.00  0.00    -0.460 C  
ENDBRANCH  22  24
ENDBRANCH  14  22
ENDBRANCH  12  14
ENDBRANCH   4   5
ENDBRANCH   2   4
TORSDOF 6
ENDMDL
MODEL       45
REMARK 921   NORMALIZED FREE ENERGY PREDICTED BY IDOCK:   -5.64 KCAL/MOL
REMARK 922        TOTAL FREE ENERGY PREDICTED BY IDOCK:   -8.30 KCAL/MOL
REMARK 923 INTER-LIGAND FREE ENERGY PREDICTED BY IDOCK:   -7.51 KCAL/MOL
REMARK 924 INTRA-LIGAND FREE ENERGY PREDICTED BY IDOCK:   -0.79 KCAL/MOL
REMARK 927      BINDING AFFINITY PREDICTED BY RF-SCORE:    0.00 PKD
ROOT
HETATM    1  C   UNL     1     -11.005   6.250  67.415  1.00  0.00    -0.447 C  
HETATM    2  C   UNL     1     -10.941   6.574  68.879  1.00  0.00    -0.314 C  
HETATM    3  O   UNL     1     -11.848   6.309  69.657  1.00  0.00    -0.290 OA 
ENDROOT
BRANCH   2   4
HETATM    4  O   UNL     1      -9.759   7.169  69.154  1.00  0.00    -0.157 OA 
BRANCH   4   5
HETATM    5  C   UNL     1      -9.619   8.481  69.006  1.00  0.00    -0.167 A  
HETATM    6  C   UNL     1     -10.543   9.514  69.023  1.00  0.00    -0.238 A  
HETATM    7  C   UNL     1      -9.973  10.802  68.755  1.00  0.00    -0.201 A  
HETATM    8  C   UNL     1      -8.618  10.698  68.587  1.00  0.00    -0.144 A  
HETATM    9  C   UNL     1      -7.723  11.852  68.364  1.00  0.00    -0.131 C  
HETATM   10  S   UNL     1      -8.054   9.101  68.661  1.00  0.00    -0.103 SA 
HETATM   11  C   UNL     1      -8.519  13.087  67.902  1.00  0.00    -0.185 C  
HETATM   12  N   UNL     1      -9.953  13.260  68.238  1.00  0.00    -0.234 NA 
HETATM   13  C   UNL     1     -10.735  12.087  68.681  1.00  0.00    -0.236 C  
BRANCH  12  14
HETATM   14  C   UNL     1     -10.656  14.055  67.165  1.00  0.00    -0.274 C  
BRANCH  14  15
HETATM   15  C   UNL     1     -10.973  13.296  65.869  1.00  0.00    -0.288 A  
HETATM   16  F   UNL     1     -13.120  14.316  65.652  1.00  0.00    -0.538 F  
HETATM   17  C   UNL     1     -10.107  12.309  65.362  1.00  0.00    -0.292 A  
HETATM   18  C   UNL     1     -12.201  13.452  65.205  1.00  0.00    -0.434 A  
HETATM   19  C   UNL     1     -12.553  12.702  64.077  1.00  0.00    -0.429 A  
HETATM   20  C   UNL     1     -10.444  11.558  64.228  1.00  0.00    -0.393 A  
HETATM   21  C   UNL     1     -11.665  11.756  63.584  1.00  0.00    -0.517 A  
ENDBRANCH  14  15
BRANCH  14  22
HETATM   22  C   UNL     1      -9.908  15.400  66.937  1.00  0.00    -0.244 C  
HETATM   23  O   UNL     1      -9.350  15.714  65.888  1.00  0.00    -0.335 OA 
BRANCH  22  24
HETATM   24  C   UNL     1      -9.886  16.347  68.103  1.00  0.00    -0.238 C  
HETATM   25  C   UNL     1     -10.658  17.647  68.063  1.00  0.00    -0.379 C  
HETATM   26  C   UNL     1     -11.146  16.518  68.920  1.00  0.00    -0.300 C  
ENDBRANCH  22  24
ENDBRANCH  14  22
ENDBRANCH  12  14
ENDBRANCH   4   5
ENDBRANCH   2   4
TORSDOF 6
ENDMDL
MODEL       46
REMARK 921   NORMALIZED FREE ENERGY PREDICTED BY IDOCK:   -5.61 KCAL/MOL
REMARK 922        TOTAL FREE ENERGY PREDICTED BY IDOCK:   -8.26 KCAL/MOL
REMARK 923 INTER-LIGAND FREE ENERGY PREDICTED BY IDOCK:   -7.83 KCAL/MOL
REMARK 924 INTRA-LIGAND FREE ENERGY PREDICTED BY IDOCK:   -0.43 KCAL/MOL
REMARK 927      BINDING AFFINITY PREDICTED BY RF-SCORE:    0.00 PKD
ROOT
HETATM    1  C   UNL     1     -11.450  15.002  64.804  1.00  0.00    -0.403 C  
HETATM    2  C   UNL     1     -12.371  14.039  65.495  1.00  0.00    -0.483 C  
HETATM    3  O   UNL     1     -13.239  13.411  64.902  1.00  0.00    -0.679 OA 
ENDROOT
BRANCH   2   4
HETATM    4  O   UNL     1     -12.066  13.995  66.811  1.00  0.00    -0.428 OA 
BRANCH   4   5
HETATM    5  C   UNL     1     -11.346  12.991  67.297  1.00  0.00    -0.306 A  
HETATM    6  C   UNL     1     -11.639  11.649  67.477  1.00  0.00    -0.345 A  
HETATM    7  C   UNL     1     -10.584  10.907  68.105  1.00  0.00    -0.233 A  
HETATM    8  C   UNL     1      -9.505  11.717  68.338  1.00  0.00    -0.188 A  
HETATM    9  C   UNL     1      -8.227  11.246  68.911  1.00  0.00    -0.079 C  
HETATM   10  S   UNL     1      -9.773  13.333  67.900  1.00  0.00    -0.230 SA 
HETATM   11  C   UNL     1      -8.405   9.887  69.613  1.00  0.00    -0.172 C  
HETATM   12  N   UNL     1      -9.487   8.948  69.230  1.00  0.00    -0.159 NA 
HETATM   13  C   UNL     1     -10.635   9.452  68.448  1.00  0.00    -0.204 C  
BRANCH  12  14
HETATM   14  C   UNL     1      -9.912   8.118  70.417  1.00  0.00    -0.188 C  
BRANCH  14  15
HETATM   15  C   UNL     1     -11.265   8.487  71.042  1.00  0.00    -0.312 A  
HETATM   16  F   UNL     1     -12.085   6.251  70.886  1.00  0.00    -0.386 F  
HETATM   17  C   UNL     1     -11.598   9.821  71.345  1.00  0.00    -0.452 A  
HETATM   18  C   UNL     1     -12.282   7.534  71.213  1.00  0.00    -0.329 A  
HETATM   19  C   UNL     1     -13.556   7.863  71.690  1.00  0.00    -0.397 A  
HETATM   20  C   UNL     1     -12.866  10.161  71.833  1.00  0.00    -0.526 A  
HETATM   21  C   UNL     1     -13.844   9.183  72.007  1.00  0.00    -0.480 A  
ENDBRANCH  14  15
BRANCH  14  22
HETATM   22  C   UNL     1      -8.747   8.041  71.446  1.00  0.00    -0.136 C  
HETATM   23  O   UNL     1      -8.535   8.880  72.318  1.00  0.00    -0.391 OA 
BRANCH  22  24
HETATM   24  C   UNL     1      -7.840   6.849  71.325  1.00  0.00    -0.097 C  
HETATM   25  C   UNL     1      -8.094   5.595  72.132  1.00  0.00    -0.108 C  
HETATM   26  C   UNL     1      -8.372   5.601  70.658  1.00  0.00    -0.118 C  
ENDBRANCH  22  24
ENDBRANCH  14  22
ENDBRANCH  12  14
ENDBRANCH   4   5
ENDBRANCH   2   4
TORSDOF 6
ENDMDL
MODEL       47
REMARK 921   NORMALIZED FREE ENERGY PREDICTED BY IDOCK:   -5.60 KCAL/MOL
REMARK 922        TOTAL FREE ENERGY PREDICTED BY IDOCK:   -8.25 KCAL/MOL
REMARK 923 INTER-LIGAND FREE ENERGY PREDICTED BY IDOCK:   -7.45 KCAL/MOL
REMARK 924 INTRA-LIGAND FREE ENERGY PREDICTED BY IDOCK:   -0.80 KCAL/MOL
REMARK 927      BINDING AFFINITY PREDICTED BY RF-SCORE:    0.00 PKD
ROOT
HETATM    1  C   UNL     1      -7.161  18.366  67.292  1.00  0.00    -0.209 C  
HETATM    2  C   UNL     1      -7.639  17.711  68.556  1.00  0.00    -0.272 C  
HETATM    3  O   UNL     1      -6.875  17.234  69.386  1.00  0.00    -0.237 OA 
ENDROOT
BRANCH   2   4
HETATM    4  O   UNL     1      -8.989  17.758  68.601  1.00  0.00    -0.287 OA 
BRANCH   4   5
HETATM    5  C   UNL     1      -9.706  16.677  68.318  1.00  0.00    -0.244 A  
HETATM    6  C   UNL     1      -9.914  15.500  69.019  1.00  0.00    -0.233 A  
HETATM    7  C   UNL     1     -10.721  14.545  68.317  1.00  0.00    -0.243 A  
HETATM    8  C   UNL     1     -11.133  15.060  67.116  1.00  0.00    -0.332 A  
HETATM    9  C   UNL     1     -12.034  14.355  66.181  1.00  0.00    -0.381 C  
HETATM   10  S   UNL     1     -10.505  16.603  66.798  1.00  0.00    -0.218 SA 
HETATM   11  C   UNL     1     -12.083  12.848  66.493  1.00  0.00    -0.305 C  
HETATM   12  N   UNL     1     -11.794  12.323  67.849  1.00  0.00    -0.457 NA 
HETATM   13  C   UNL     1     -11.083  13.183  68.818  1.00  0.00    -0.269 C  
BRANCH  12  14
HETATM   14  C   UNL     1     -11.207  10.935  67.765  1.00  0.00    -0.317 C  
BRANCH  14  15
HETATM   15  C   UNL     1     -10.900  10.255  69.106  1.00  0.00    -0.270 A  
HETATM   16  F   UNL     1     -13.136  10.527  69.895  1.00  0.00    -0.284 F  
HETATM   17  C   UNL     1      -9.594   9.862  69.452  1.00  0.00    -0.229 A  
HETATM   18  C   UNL     1     -11.879  10.117  70.103  1.00  0.00    -0.222 A  
HETATM   19  C   UNL     1     -11.602   9.588  71.370  1.00  0.00    -0.466 A  
HETATM   20  C   UNL     1      -9.305   9.322  70.712  1.00  0.00    -0.322 A  
HETATM   21  C   UNL     1     -10.309   9.184  71.670  1.00  0.00    -0.388 A  
ENDBRANCH  14  15
BRANCH  14  22
HETATM   22  C   UNL     1     -10.008  10.933  66.773  1.00  0.00    -0.205 C  
HETATM   23  O   UNL     1      -9.081  11.739  66.804  1.00  0.00    -0.182 OA 
BRANCH  22  24
HETATM   24  C   UNL     1     -10.028   9.863  65.718  1.00  0.00    -0.347 C  
HETATM   25  C   UNL     1      -9.064   9.903  64.552  1.00  0.00    -0.296 C  
HETATM   26  C   UNL     1      -8.868   8.897  65.646  1.00  0.00    -0.230 C  
ENDBRANCH  22  24
ENDBRANCH  14  22
ENDBRANCH  12  14
ENDBRANCH   4   5
ENDBRANCH   2   4
TORSDOF 6
ENDMDL
MODEL       48
REMARK 921   NORMALIZED FREE ENERGY PREDICTED BY IDOCK:   -5.59 KCAL/MOL
REMARK 922        TOTAL FREE ENERGY PREDICTED BY IDOCK:   -8.24 KCAL/MOL
REMARK 923 INTER-LIGAND FREE ENERGY PREDICTED BY IDOCK:   -7.70 KCAL/MOL
REMARK 924 INTRA-LIGAND FREE ENERGY PREDICTED BY IDOCK:   -0.54 KCAL/MOL
REMARK 927      BINDING AFFINITY PREDICTED BY RF-SCORE:    0.00 PKD
ROOT
HETATM    1  C   UNL     1     -10.167  20.249  65.989  1.00  0.00    -0.392 C  
HETATM    2  C   UNL     1      -9.923  19.896  67.428  1.00  0.00    -0.423 C  
HETATM    3  O   UNL     1     -10.743  20.112  68.312  1.00  0.00    -0.218 OA 
ENDROOT
BRANCH   2   4
HETATM    4  O   UNL     1      -8.705  19.323  67.547  1.00  0.00    -0.290 OA 
BRANCH   4   5
HETATM    5  C   UNL     1      -8.587  18.000  67.554  1.00  0.00    -0.244 A  
HETATM    6  C   UNL     1      -9.073  17.026  66.697  1.00  0.00    -0.278 A  
HETATM    7  C   UNL     1      -8.764  15.688  67.109  1.00  0.00    -0.233 A  
HETATM    8  C   UNL     1      -8.009  15.703  68.251  1.00  0.00    -0.129 A  
HETATM    9  C   UNL     1      -7.465  14.491  68.898  1.00  0.00    -0.133 C  
HETATM   10  S   UNL     1      -7.750  17.264  68.863  1.00  0.00    -0.173 SA 
HETATM   11  C   UNL     1      -8.205  13.230  68.414  1.00  0.00    -0.134 C  
HETATM   12  N   UNL     1      -8.879  13.179  67.095  1.00  0.00    -0.216 NA 
HETATM   13  C   UNL     1      -9.185  14.444  66.394  1.00  0.00    -0.213 C  
BRANCH  12  14
HETATM   14  C   UNL     1     -10.059  12.239  67.139  1.00  0.00    -0.208 C  
BRANCH  14  15
HETATM   15  C   UNL     1     -10.818  12.056  65.817  1.00  0.00    -0.329 A  
HETATM   16  F   UNL     1      -8.978  10.954  64.770  1.00  0.00    -0.189 F  
HETATM   17  C   UNL     1     -12.097  12.608  65.620  1.00  0.00    -0.502 A  
HETATM   18  C   UNL     1     -10.220  11.448  64.702  1.00  0.00    -0.294 A  
HETATM   19  C   UNL     1     -10.856  11.354  63.458  1.00  0.00    -0.430 A  
HETATM   20  C   UNL     1     -12.748  12.513  64.383  1.00  0.00    -0.447 A  
HETATM   21  C   UNL     1     -12.129  11.885  63.303  1.00  0.00    -0.466 A  
ENDBRANCH  14  15
BRANCH  14  22
HETATM   22  C   UNL     1     -10.974  12.604  68.343  1.00  0.00    -0.257 C  
HETATM   23  O   UNL     1     -11.096  13.737  68.803  1.00  0.00    -0.246 OA 
BRANCH  22  24
HETATM   24  C   UNL     1     -11.737  11.466  68.958  1.00  0.00    -0.409 C  
HETATM   25  C   UNL     1     -11.087  10.555  69.976  1.00  0.00    -0.376 C  
HETATM   26  C   UNL     1     -12.114  11.554  70.419  1.00  0.00    -0.471 C  
ENDBRANCH  22  24
ENDBRANCH  14  22
ENDBRANCH  12  14
ENDBRANCH   4   5
ENDBRANCH   2   4
TORSDOF 6
ENDMDL
MODEL       49
REMARK 921   NORMALIZED FREE ENERGY PREDICTED BY IDOCK:   -5.58 KCAL/MOL
REMARK 922        TOTAL FREE ENERGY PREDICTED BY IDOCK:   -8.22 KCAL/MOL
REMARK 923 INTER-LIGAND FREE ENERGY PREDICTED BY IDOCK:   -7.43 KCAL/MOL
REMARK 924 INTRA-LIGAND FREE ENERGY PREDICTED BY IDOCK:   -0.79 KCAL/MOL
REMARK 927      BINDING AFFINITY PREDICTED BY RF-SCORE:    0.00 PKD
ROOT
HETATM    1  C   UNL     1     -11.632  14.535  64.583  1.00  0.00    -0.413 C  
HETATM    2  C   UNL     1     -12.324  13.469  65.383  1.00  0.00    -0.478 C  
HETATM    3  O   UNL     1     -13.052  12.626  64.875  1.00  0.00    -0.850 OA 
ENDROOT
BRANCH   2   4
HETATM    4  O   UNL     1     -12.000  13.609  66.688  1.00  0.00    -0.378 OA 
BRANCH   4   5
HETATM    5  C   UNL     1     -11.403  12.616  67.338  1.00  0.00    -0.313 A  
HETATM    6  C   UNL     1     -11.893  11.431  67.861  1.00  0.00    -0.239 A  
HETATM    7  C   UNL     1     -10.907  10.655  68.556  1.00  0.00    -0.275 A  
HETATM    8  C   UNL     1      -9.685  11.270  68.492  1.00  0.00    -0.198 A  
HETATM    9  C   UNL     1      -8.443  10.698  69.050  1.00  0.00    -0.148 C  
HETATM   10  S   UNL     1      -9.730  12.770  67.703  1.00  0.00    -0.211 SA 
HETATM   11  C   UNL     1      -8.757   9.589  70.072  1.00  0.00    -0.221 C  
HETATM   12  N   UNL     1     -10.022   8.818  70.021  1.00  0.00    -0.182 NA 
HETATM   13  C   UNL     1     -11.159   9.351  69.243  1.00  0.00    -0.045 C  
BRANCH  12  14
HETATM   14  C   UNL     1     -10.425   8.370  71.405  1.00  0.00    -0.224 C  
BRANCH  14  15
HETATM   15  C   UNL     1      -9.366   7.580  72.188  1.00  0.00    -0.176 A  
HETATM   16  F   UNL     1      -9.122   5.955  70.456  1.00  0.00    -0.140 F  
HETATM   17  C   UNL     1      -9.017   7.923  73.507  1.00  0.00    -0.343 A  
HETATM   18  C   UNL     1      -8.798   6.402  71.676  1.00  0.00    -0.136 A  
HETATM   19  C   UNL     1      -7.904   5.612  72.408  1.00  0.00    -0.103 A  
HETATM   20  C   UNL     1      -8.115   7.146  74.247  1.00  0.00    -0.168 A  
HETATM   21  C   UNL     1      -7.557   5.992  73.697  1.00  0.00    -0.096 A  
ENDBRANCH  14  15
BRANCH  14  22
HETATM   22  C   UNL     1     -11.812   7.669  71.345  1.00  0.00    -0.293 C  
HETATM   23  O   UNL     1     -12.081   6.725  70.606  1.00  0.00    -0.392 OA 
BRANCH  22  24
HETATM   24  C   UNL     1     -12.867   8.219  72.263  1.00  0.00    -0.313 C  
HETATM   25  C   UNL     1     -13.493   9.572  72.006  1.00  0.00    -0.522 C  
HETATM   26  C   UNL     1     -14.286   8.325  71.753  1.00  0.00    -0.574 C  
ENDBRANCH  22  24
ENDBRANCH  14  22
ENDBRANCH  12  14
ENDBRANCH   4   5
ENDBRANCH   2   4
TORSDOF 6
ENDMDL
MODEL       50
REMARK 921   NORMALIZED FREE ENERGY PREDICTED BY IDOCK:   -5.56 KCAL/MOL
REMARK 922        TOTAL FREE ENERGY PREDICTED BY IDOCK:   -8.20 KCAL/MOL
REMARK 923 INTER-LIGAND FREE ENERGY PREDICTED BY IDOCK:   -7.46 KCAL/MOL
REMARK 924 INTRA-LIGAND FREE ENERGY PREDICTED BY IDOCK:   -0.74 KCAL/MOL
REMARK 927      BINDING AFFINITY PREDICTED BY RF-SCORE:    0.00 PKD
ROOT
HETATM    1  C   UNL     1      -9.827   8.929  69.437  1.00  0.00    -0.183 C  
HETATM    2  C   UNL     1     -10.651   9.339  68.251  1.00  0.00    -0.189 C  
HETATM    3  O   UNL     1     -10.335   9.072  67.099  1.00  0.00    -0.243 OA 
ENDROOT
BRANCH   2   4
HETATM    4  O   UNL     1     -11.745  10.008  68.678  1.00  0.00     0.019 OA 
BRANCH   4   5
HETATM    5  C   UNL     1     -11.754  11.336  68.693  1.00  0.00    -0.324 A  
HETATM    6  C   UNL     1     -11.526  12.270  67.695  1.00  0.00    -0.401 A  
HETATM    7  C   UNL     1     -11.570  13.628  68.155  1.00  0.00    -0.367 A  
HETATM    8  C   UNL     1     -11.878  13.669  69.489  1.00  0.00    -0.337 A  
HETATM    9  C   UNL     1     -12.068  14.919  70.254  1.00  0.00    -0.379 C  
HETATM   10  S   UNL     1     -12.024  12.132  70.192  1.00  0.00    -0.244 SA 
HETATM   11  C   UNL     1     -11.452  16.119  69.512  1.00  0.00    -0.292 C  
HETATM   12  N   UNL     1     -11.279  16.119  68.039  1.00  0.00    -0.329 NA 
HETATM   13  C   UNL     1     -11.333  14.837  67.308  1.00  0.00    -0.357 C  
BRANCH  12  14
HETATM   14  C   UNL     1     -10.091  16.963  67.646  1.00  0.00    -0.278 C  
BRANCH  14  15
HETATM   15  C   UNL     1      -8.712  16.370  67.968  1.00  0.00    -0.183 A  
HETATM   16  F   UNL     1      -7.820  16.973  65.838  1.00  0.00    -0.335 F  
HETATM   17  C   UNL     1      -8.475  15.663  69.161  1.00  0.00    -0.253 A  
HETATM   18  C   UNL     1      -7.667  16.386  67.031  1.00  0.00    -0.215 A  
HETATM   19  C   UNL     1      -6.432  15.768  67.263  1.00  0.00    -0.139 A  
HETATM   20  C   UNL     1      -7.240  15.048  69.409  1.00  0.00    -0.194 A  
HETATM   21  C   UNL     1      -6.219  15.102  68.461  1.00  0.00    -0.093 A  
ENDBRANCH  14  15
BRANCH  14  22
HETATM   22  C   UNL     1     -10.286  18.416  68.169  1.00  0.00    -0.384 C  
HETATM   23  O   UNL     1     -10.020  18.784  69.311  1.00  0.00    -0.294 OA 
BRANCH  22  24
HETATM   24  C   UNL     1     -10.844  19.401  67.182  1.00  0.00    -0.561 C  
HETATM   25  C   UNL     1      -9.931  20.181  66.261  1.00  0.00    -0.557 C  
HETATM   26  C   UNL     1     -10.772  19.069  65.709  1.00  0.00    -0.350 C  
ENDBRANCH  22  24
ENDBRANCH  14  22
ENDBRANCH  12  14
ENDBRANCH   4   5
ENDBRANCH   2   4
TORSDOF 6
ENDMDL
MODEL       51
REMARK 921   NORMALIZED FREE ENERGY PREDICTED BY IDOCK:   -5.50 KCAL/MOL
REMARK 922        TOTAL FREE ENERGY PREDICTED BY IDOCK:   -8.11 KCAL/MOL
REMARK 923 INTER-LIGAND FREE ENERGY PREDICTED BY IDOCK:   -8.03 KCAL/MOL
REMARK 924 INTRA-LIGAND FREE ENERGY PREDICTED BY IDOCK:   -0.08 KCAL/MOL
REMARK 927      BINDING AFFINITY PREDICTED BY RF-SCORE:    0.00 PKD
ROOT
HETATM    1  C   UNL     1     -10.987   4.997  73.238  1.00  0.00    -0.384 C  
HETATM    2  C   UNL     1     -10.646   6.437  73.495  1.00  0.00    -0.276 C  
HETATM    3  O   UNL     1      -9.678   6.780  74.161  1.00  0.00    -0.238 OA 
ENDROOT
BRANCH   2   4
HETATM    4  O   UNL     1     -11.551   7.227  72.877  1.00  0.00    -0.229 OA 
BRANCH   4   5
HETATM    5  C   UNL     1     -11.230   7.861  71.754  1.00  0.00    -0.260 A  
HETATM    6  C   UNL     1     -10.960   9.195  71.494  1.00  0.00    -0.434 A  
HETATM    7  C   UNL     1     -10.715   9.474  70.109  1.00  0.00    -0.299 A  
HETATM    8  C   UNL     1     -10.766   8.320  69.374  1.00  0.00    -0.151 A  
HETATM    9  C   UNL     1     -10.490   8.251  67.924  1.00  0.00    -0.259 C  
HETATM   10  S   UNL     1     -11.179   6.956  70.294  1.00  0.00    -0.327 SA 
HETATM   11  C   UNL     1     -10.587   9.646  67.278  1.00  0.00    -0.247 C  
HETATM   12  N   UNL     1     -10.364  10.885  68.061  1.00  0.00    -0.178 NA 
HETATM   13  C   UNL     1     -10.428  10.826  69.536  1.00  0.00    -0.170 C  
BRANCH  12  14
HETATM   14  C   UNL     1     -11.171  12.025  67.490  1.00  0.00    -0.294 C  
BRANCH  14  15
HETATM   15  C   UNL     1     -11.171  12.144  65.959  1.00  0.00    -0.382 A  
HETATM   16  F   UNL     1     -13.185  13.426  65.937  1.00  0.00    -0.284 F  
HETATM   17  C   UNL     1     -10.221  11.472  65.168  1.00  0.00    -0.322 A  
HETATM   18  C   UNL     1     -12.196  12.815  65.273  1.00  0.00    -0.483 A  
HETATM   19  C   UNL     1     -12.271  12.856  63.875  1.00  0.00    -0.525 A  
HETATM   20  C   UNL     1     -10.280  11.513  63.769  1.00  0.00    -0.429 A  
HETATM   21  C   UNL     1     -11.303  12.207  63.122  1.00  0.00    -0.263 A  
ENDBRANCH  14  15
BRANCH  14  22
HETATM   22  C   UNL     1     -10.800  13.347  68.222  1.00  0.00    -0.256 C  
HETATM   23  O   UNL     1      -9.652  13.762  68.365  1.00  0.00    -0.212 OA 
BRANCH  22  24
HETATM   24  C   UNL     1     -11.950  14.136  68.779  1.00  0.00    -0.367 C  
HETATM   25  C   UNL     1     -12.372  13.979  70.224  1.00  0.00    -0.425 C  
HETATM   26  C   UNL     1     -11.659  15.224  69.788  1.00  0.00    -0.335 C  
ENDBRANCH  22  24
ENDBRANCH  14  22
ENDBRANCH  12  14
ENDBRANCH   4   5
ENDBRANCH   2   4
TORSDOF 6
ENDMDL
MODEL       52
REMARK 921   NORMALIZED FREE ENERGY PREDICTED BY IDOCK:   -5.49 KCAL/MOL
REMARK 922        TOTAL FREE ENERGY PREDICTED BY IDOCK:   -8.10 KCAL/MOL
REMARK 923 INTER-LIGAND FREE ENERGY PREDICTED BY IDOCK:   -7.54 KCAL/MOL
REMARK 924 INTRA-LIGAND FREE ENERGY PREDICTED BY IDOCK:   -0.56 KCAL/MOL
REMARK 927      BINDING AFFINITY PREDICTED BY RF-SCORE:    0.00 PKD
ROOT
HETATM    1  C   UNL     1     -10.159  15.841  66.128  1.00  0.00    -0.337 C  
HETATM    2  C   UNL     1     -11.218  15.962  65.070  1.00  0.00    -0.290 C  
HETATM    3  O   UNL     1     -11.190  16.821  64.199  1.00  0.00    -1.155 OA 
ENDROOT
BRANCH   2   4
HETATM    4  O   UNL     1     -12.142  14.992  65.251  1.00  0.00    -0.178 OA 
BRANCH   4   5
HETATM    5  C   UNL     1     -11.763  13.739  65.474  1.00  0.00    -0.346 A  
HETATM    6  C   UNL     1     -12.002  12.878  66.533  1.00  0.00    -0.447 A  
HETATM    7  C   UNL     1     -11.344  11.611  66.406  1.00  0.00    -0.312 A  
HETATM    8  C   UNL     1     -10.661  11.545  65.220  1.00  0.00    -0.283 A  
HETATM    9  C   UNL     1      -9.932  10.348  64.753  1.00  0.00    -0.409 C  
HETATM   10  S   UNL     1     -10.731  12.983  64.325  1.00  0.00    -0.397 SA 
HETATM   11  C   UNL     1      -9.657   9.379  65.918  1.00  0.00    -0.270 C  
HETATM   12  N   UNL     1     -10.514   9.353  67.128  1.00  0.00    -0.254 NA 
HETATM   13  C   UNL     1     -11.399  10.503  67.409  1.00  0.00    -0.039 C  
BRANCH  12  14
HETATM   14  C   UNL     1      -9.712   8.929  68.335  1.00  0.00    -0.161 C  
BRANCH  14  15
HETATM   15  C   UNL     1     -10.527   8.506  69.565  1.00  0.00    -0.222 A  
HETATM   16  F   UNL     1     -10.835   6.283  68.749  1.00  0.00    -0.241 F  
HETATM   17  C   UNL     1     -10.889   9.430  70.563  1.00  0.00    -0.336 A  
HETATM   18  C   UNL     1     -11.064   7.213  69.684  1.00  0.00    -0.179 A  
HETATM   19  C   UNL     1     -11.890   6.832  70.748  1.00  0.00    -0.446 A  
HETATM   20  C   UNL     1     -11.707   9.057  71.638  1.00  0.00    -0.431 A  
HETATM   21  C   UNL     1     -12.205   7.758  71.732  1.00  0.00    -0.338 A  
ENDBRANCH  14  15
BRANCH  14  22
HETATM   22  C   UNL     1      -8.624   9.997  68.641  1.00  0.00    -0.123 C  
HETATM   23  O   UNL     1      -8.844  11.202  68.747  1.00  0.00    -0.162 OA 
BRANCH  22  24
HETATM   24  C   UNL     1      -7.222   9.480  68.805  1.00  0.00    -0.073 C  
HETATM   25  C   UNL     1      -6.883   8.488  69.896  1.00  0.00    -0.042 C  
HETATM   26  C   UNL     1      -6.941   8.034  68.468  1.00  0.00    -0.072 C  
ENDBRANCH  22  24
ENDBRANCH  14  22
ENDBRANCH  12  14
ENDBRANCH   4   5
ENDBRANCH   2   4
TORSDOF 6
ENDMDL
MODEL       53
REMARK 921   NORMALIZED FREE ENERGY PREDICTED BY IDOCK:   -5.49 KCAL/MOL
REMARK 922        TOTAL FREE ENERGY PREDICTED BY IDOCK:   -8.09 KCAL/MOL
REMARK 923 INTER-LIGAND FREE ENERGY PREDICTED BY IDOCK:   -7.71 KCAL/MOL
REMARK 924 INTRA-LIGAND FREE ENERGY PREDICTED BY IDOCK:   -0.38 KCAL/MOL
REMARK 927      BINDING AFFINITY PREDICTED BY RF-SCORE:    0.00 PKD
ROOT
HETATM    1  C   UNL     1      -9.974  20.414  67.049  1.00  0.00    -0.568 C  
HETATM    2  C   UNL     1     -10.109  19.123  66.296  1.00  0.00    -0.431 C  
HETATM    3  O   UNL     1     -11.010  18.915  65.492  1.00  0.00    -0.407 OA 
ENDROOT
BRANCH   2   4
HETATM    4  O   UNL     1      -9.103  18.293  66.647  1.00  0.00    -0.274 OA 
BRANCH   4   5
HETATM    5  C   UNL     1      -9.364  17.044  67.019  1.00  0.00    -0.241 A  
HETATM    6  C   UNL     1      -8.893  15.827  66.555  1.00  0.00    -0.345 A  
HETATM    7  C   UNL     1      -9.488  14.694  67.201  1.00  0.00    -0.234 A  
HETATM    8  C   UNL     1     -10.365  15.104  68.170  1.00  0.00    -0.239 A  
HETATM    9  C   UNL     1     -11.094  14.183  69.067  1.00  0.00    -0.292 C  
HETATM   10  S   UNL     1     -10.537  16.789  68.249  1.00  0.00    -0.366 SA 
HETATM   11  C   UNL     1     -11.102  12.752  68.499  1.00  0.00    -0.266 C  
HETATM   12  N   UNL     1     -10.046  12.274  67.575  1.00  0.00    -0.199 NA 
HETATM   13  C   UNL     1      -9.193  13.262  66.883  1.00  0.00    -0.241 C  
BRANCH  12  14
HETATM   14  C   UNL     1     -10.596  11.225  66.639  1.00  0.00    -0.262 C  
BRANCH  14  15
HETATM   15  C   UNL     1      -9.848   9.884  66.622  1.00  0.00    -0.265 A  
HETATM   16  F   UNL     1      -7.745  10.922  66.177  1.00  0.00    -0.142 F  
HETATM   17  C   UNL     1     -10.532   8.658  66.730  1.00  0.00    -0.298 A  
HETATM   18  C   UNL     1      -8.470   9.812  66.364  1.00  0.00    -0.124 A  
HETATM   19  C   UNL     1      -7.784   8.597  66.249  1.00  0.00    -0.098 A  
HETATM   20  C   UNL     1      -9.854   7.436  66.626  1.00  0.00    -0.263 A  
HETATM   21  C   UNL     1      -8.481   7.406  66.388  1.00  0.00    -0.129 A  
ENDBRANCH  14  15
BRANCH  14  22
HETATM   22  C   UNL     1     -10.806  11.843  65.226  1.00  0.00    -0.297 C  
HETATM   23  O   UNL     1      -9.957  11.846  64.337  1.00  0.00    -0.259 OA 
BRANCH  22  24
HETATM   24  C   UNL     1     -12.147  12.473  64.977  1.00  0.00    -0.504 C  
HETATM   25  C   UNL     1     -12.285  13.669  64.061  1.00  0.00    -0.443 C  
HETATM   26  C   UNL     1     -12.771  12.325  63.608  1.00  0.00    -0.526 C  
ENDBRANCH  22  24
ENDBRANCH  14  22
ENDBRANCH  12  14
ENDBRANCH   4   5
ENDBRANCH   2   4
TORSDOF 6
ENDMDL
MODEL       54
REMARK 921   NORMALIZED FREE ENERGY PREDICTED BY IDOCK:   -5.47 KCAL/MOL
REMARK 922        TOTAL FREE ENERGY PREDICTED BY IDOCK:   -8.08 KCAL/MOL
REMARK 923 INTER-LIGAND FREE ENERGY PREDICTED BY IDOCK:   -7.33 KCAL/MOL
REMARK 924 INTRA-LIGAND FREE ENERGY PREDICTED BY IDOCK:   -0.75 KCAL/MOL
REMARK 927      BINDING AFFINITY PREDICTED BY RF-SCORE:    0.00 PKD
ROOT
HETATM    1  C   UNL     1     -14.118  15.467  72.236  1.00  0.00    -0.637 C  
HETATM    2  C   UNL     1     -12.645  15.687  72.048  1.00  0.00    -0.430 C  
HETATM    3  O   UNL     1     -11.857  15.737  72.983  1.00  0.00    -0.452 OA 
ENDROOT
BRANCH   2   4
HETATM    4  O   UNL     1     -12.375  15.801  70.728  1.00  0.00    -0.410 OA 
BRANCH   4   5
HETATM    5  C   UNL     1     -12.157  14.716  69.994  1.00  0.00    -0.329 A  
HETATM    6  C   UNL     1     -12.036  13.380  70.338  1.00  0.00    -0.405 A  
HETATM    7  C   UNL     1     -11.733  12.523  69.228  1.00  0.00    -0.379 A  
HETATM    8  C   UNL     1     -11.680  13.248  68.067  1.00  0.00    -0.359 A  
HETATM    9  C   UNL     1     -11.457  12.655  66.733  1.00  0.00    -0.410 C  
HETATM   10  S   UNL     1     -11.899  14.913  68.306  1.00  0.00    -0.224 SA 
HETATM   11  C   UNL     1     -10.857  11.242  66.851  1.00  0.00    -0.282 C  
HETATM   12  N   UNL     1     -11.067  10.404  68.057  1.00  0.00    -0.298 NA 
HETATM   13  C   UNL     1     -11.520  11.045  69.309  1.00  0.00    -0.300 C  
BRANCH  12  14
HETATM   14  C   UNL     1      -9.894   9.479  68.269  1.00  0.00    -0.155 C  
BRANCH  14  15
HETATM   15  C   UNL     1      -8.590   9.878  67.565  1.00  0.00    -0.122 A  
HETATM   16  F   UNL     1      -8.297  11.810  68.936  1.00  0.00    -0.136 F  
HETATM   17  C   UNL     1      -8.115   9.178  66.440  1.00  0.00    -0.107 A  
HETATM   18  C   UNL     1      -7.884  11.038  67.924  1.00  0.00    -0.110 A  
HETATM   19  C   UNL     1      -6.746  11.475  67.235  1.00  0.00    -0.112 A  
HETATM   20  C   UNL     1      -6.972   9.600  65.748  1.00  0.00    -0.098 A  
HETATM   21  C   UNL     1      -6.287  10.747  66.147  1.00  0.00    -0.134 A  
ENDBRANCH  14  15
BRANCH  14  22
HETATM   22  C   UNL     1     -10.330   8.010  67.995  1.00  0.00    -0.206 C  
HETATM   23  O   UNL     1     -10.908   7.637  66.977  1.00  0.00    -0.334 OA 
BRANCH  22  24
HETATM   24  C   UNL     1     -10.010   7.017  69.076  1.00  0.00    -0.164 C  
HETATM   25  C   UNL     1     -11.075   6.553  70.046  1.00  0.00    -0.422 C  
HETATM   26  C   UNL     1     -10.591   5.625  68.973  1.00  0.00    -0.316 C  
ENDBRANCH  22  24
ENDBRANCH  14  22
ENDBRANCH  12  14
ENDBRANCH   4   5
ENDBRANCH   2   4
TORSDOF 6
ENDMDL
MODEL       55
REMARK 921   NORMALIZED FREE ENERGY PREDICTED BY IDOCK:   -5.45 KCAL/MOL
REMARK 922        TOTAL FREE ENERGY PREDICTED BY IDOCK:   -8.04 KCAL/MOL
REMARK 923 INTER-LIGAND FREE ENERGY PREDICTED BY IDOCK:   -7.16 KCAL/MOL
REMARK 924 INTRA-LIGAND FREE ENERGY PREDICTED BY IDOCK:   -0.88 KCAL/MOL
REMARK 927      BINDING AFFINITY PREDICTED BY RF-SCORE:    0.00 PKD
ROOT
HETATM    1  C   UNL     1      -6.851  18.326  67.696  1.00  0.00    -0.203 C  
HETATM    2  C   UNL     1      -6.808  17.755  66.308  1.00  0.00    -0.272 C  
HETATM    3  O   UNL     1      -5.761  17.509  65.724  1.00  0.00    -0.164 OA 
ENDROOT
BRANCH   2   4
HETATM    4  O   UNL     1      -8.071  17.568  65.863  1.00  0.00    -0.536 OA 
BRANCH   4   5
HETATM    5  C   UNL     1      -8.801  16.560  66.326  1.00  0.00    -0.329 A  
HETATM    6  C   UNL     1      -8.443  15.334  66.863  1.00  0.00    -0.286 A  
HETATM    7  C   UNL     1      -9.562  14.497  67.186  1.00  0.00    -0.233 A  
HETATM    8  C   UNL     1     -10.737  15.148  66.918  1.00  0.00    -0.308 A  
HETATM    9  C   UNL     1     -12.075  14.589  67.203  1.00  0.00    -0.301 C  
HETATM   10  S   UNL     1     -10.512  16.678  66.221  1.00  0.00    -0.225 SA 
HETATM   11  C   UNL     1     -12.003  13.063  67.401  1.00  0.00    -0.316 C  
HETATM   12  N   UNL     1     -10.760  12.393  67.854  1.00  0.00    -0.214 NA 
HETATM   13  C   UNL     1      -9.475  13.115  67.751  1.00  0.00    -0.209 C  
BRANCH  12  14
HETATM   14  C   UNL     1     -10.684  10.990  67.304  1.00  0.00    -0.265 C  
BRANCH  14  15
HETATM   15  C   UNL     1     -10.173   9.917  68.275  1.00  0.00    -0.204 A  
HETATM   16  F   UNL     1     -10.747   8.132  66.798  1.00  0.00    -0.389 F  
HETATM   17  C   UNL     1      -9.719  10.247  69.566  1.00  0.00    -0.235 A  
HETATM   18  C   UNL     1     -10.262   8.548  67.974  1.00  0.00    -0.213 A  
HETATM   19  C   UNL     1      -9.892   7.548  68.880  1.00  0.00    -0.159 A  
HETATM   20  C   UNL     1      -9.337   9.255  70.479  1.00  0.00    -0.316 A  
HETATM   21  C   UNL     1      -9.421   7.906  70.136  1.00  0.00    -0.160 A  
ENDBRANCH  14  15
BRANCH  14  22
HETATM   22  C   UNL     1      -9.941  11.004  65.937  1.00  0.00    -0.240 C  
HETATM   23  O   UNL     1      -8.763  10.686  65.784  1.00  0.00    -0.170 OA 
BRANCH  22  24
HETATM   24  C   UNL     1     -10.751  11.447  64.752  1.00  0.00    -0.362 C  
HETATM   25  C   UNL     1     -10.355  12.670  63.953  1.00  0.00    -0.405 C  
HETATM   26  C   UNL     1     -10.151  11.304  63.371  1.00  0.00    -0.445 C  
ENDBRANCH  22  24
ENDBRANCH  14  22
ENDBRANCH  12  14
ENDBRANCH   4   5
ENDBRANCH   2   4
TORSDOF 6
ENDMDL
MODEL       56
REMARK 921   NORMALIZED FREE ENERGY PREDICTED BY IDOCK:   -5.44 KCAL/MOL
REMARK 922        TOTAL FREE ENERGY PREDICTED BY IDOCK:   -8.03 KCAL/MOL
REMARK 923 INTER-LIGAND FREE ENERGY PREDICTED BY IDOCK:   -7.20 KCAL/MOL
REMARK 924 INTRA-LIGAND FREE ENERGY PREDICTED BY IDOCK:   -0.83 KCAL/MOL
REMARK 927      BINDING AFFINITY PREDICTED BY RF-SCORE:    0.00 PKD
ROOT
HETATM    1  C   UNL     1      -9.054   8.483  68.893  1.00  0.00    -0.146 C  
HETATM    2  C   UNL     1     -10.407   8.827  68.341  1.00  0.00    -0.204 C  
HETATM    3  O   UNL     1     -10.773   8.485  67.224  1.00  0.00    -0.279 OA 
ENDROOT
BRANCH   2   4
HETATM    4  O   UNL     1     -11.099   9.534  69.261  1.00  0.00    -0.190 OA 
BRANCH   4   5
HETATM    5  C   UNL     1     -11.176  10.856  69.171  1.00  0.00    -0.256 A  
HETATM    6  C   UNL     1     -10.581  11.757  68.301  1.00  0.00    -0.236 A  
HETATM    7  C   UNL     1     -10.884  13.127  68.594  1.00  0.00    -0.287 A  
HETATM    8  C   UNL     1     -11.741  13.209  69.659  1.00  0.00    -0.303 A  
HETATM    9  C   UNL     1     -12.302  14.476  70.172  1.00  0.00    -0.398 C  
HETATM   10  S   UNL     1     -12.105  11.701  70.344  1.00  0.00    -0.330 SA 
HETATM   11  C   UNL     1     -11.481  15.682  69.678  1.00  0.00    -0.340 C  
HETATM   12  N   UNL     1     -10.688  15.625  68.427  1.00  0.00    -0.261 NA 
HETATM   13  C   UNL     1     -10.359  14.309  67.842  1.00  0.00    -0.233 C  
BRANCH  12  14
HETATM   14  C   UNL     1      -9.488  16.536  68.520  1.00  0.00    -0.235 C  
BRANCH  14  15
HETATM   15  C   UNL     1      -9.571  17.838  67.712  1.00  0.00    -0.272 A  
HETATM   16  F   UNL     1      -7.956  18.937  69.083  1.00  0.00    -0.327 F  
HETATM   17  C   UNL     1     -10.503  18.000  66.670  1.00  0.00    -0.332 A  
HETATM   18  C   UNL     1      -8.819  18.972  68.061  1.00  0.00    -0.309 A  
HETATM   19  C   UNL     1      -8.948  20.199  67.400  1.00  0.00    -0.453 A  
HETATM   20  C   UNL     1     -10.635  19.221  65.994  1.00  0.00    -0.550 A  
HETATM   21  C   UNL     1      -9.856  20.319  66.358  1.00  0.00    -0.502 A  
ENDBRANCH  14  15
BRANCH  14  22
HETATM   22  C   UNL     1      -8.190  15.718  68.259  1.00  0.00    -0.143 C  
HETATM   23  O   UNL     1      -7.632  15.632  67.168  1.00  0.00    -0.193 OA 
BRANCH  22  24
HETATM   24  C   UNL     1      -7.617  14.997  69.447  1.00  0.00    -0.195 C  
HETATM   25  C   UNL     1      -6.733  13.782  69.265  1.00  0.00    -0.101 C  
HETATM   26  C   UNL     1      -6.129  15.084  69.697  1.00  0.00    -0.126 C  
ENDBRANCH  22  24
ENDBRANCH  14  22
ENDBRANCH  12  14
ENDBRANCH   4   5
ENDBRANCH   2   4
TORSDOF 6
ENDMDL
MODEL       57
REMARK 921   NORMALIZED FREE ENERGY PREDICTED BY IDOCK:   -5.43 KCAL/MOL
REMARK 922        TOTAL FREE ENERGY PREDICTED BY IDOCK:   -8.03 KCAL/MOL
REMARK 923 INTER-LIGAND FREE ENERGY PREDICTED BY IDOCK:   -7.02 KCAL/MOL
REMARK 924 INTRA-LIGAND FREE ENERGY PREDICTED BY IDOCK:   -1.00 KCAL/MOL
REMARK 927      BINDING AFFINITY PREDICTED BY RF-SCORE:    0.00 PKD
ROOT
HETATM    1  C   UNL     1     -13.474  13.671  72.218  1.00  0.00    -0.652 C  
HETATM    2  C   UNL     1     -13.206  14.525  71.012  1.00  0.00    -0.354 C  
HETATM    3  O   UNL     1     -13.508  15.711  70.959  1.00  0.00    -0.575 OA 
ENDROOT
BRANCH   2   4
HETATM    4  O   UNL     1     -12.596  13.781  70.064  1.00  0.00    -0.275 OA 
BRANCH   4   5
HETATM    5  C   UNL     1     -11.611  14.298  69.338  1.00  0.00    -0.306 A  
HETATM    6  C   UNL     1     -10.338  14.723  69.682  1.00  0.00    -0.084 A  
HETATM    7  C   UNL     1      -9.602  15.287  68.587  1.00  0.00    -0.206 A  
HETATM    8  C   UNL     1     -10.340  15.224  67.435  1.00  0.00    -0.256 A  
HETATM    9  C   UNL     1      -9.844  15.658  66.113  1.00  0.00    -0.340 C  
HETATM   10  S   UNL     1     -11.896  14.592  67.669  1.00  0.00    -0.322 SA 
HETATM   11  C   UNL     1      -8.618  16.579  66.259  1.00  0.00    -0.332 C  
HETATM   12  N   UNL     1      -7.733  16.515  67.446  1.00  0.00    -0.141 NA 
HETATM   13  C   UNL     1      -8.220  15.851  68.673  1.00  0.00    -0.182 C  
BRANCH  12  14
HETATM   14  C   UNL     1      -7.118  17.865  67.721  1.00  0.00    -0.204 C  
BRANCH  14  15
HETATM   15  C   UNL     1      -6.619  18.637  66.491  1.00  0.00    -0.219 A  
HETATM   16  F   UNL     1      -8.252  20.358  66.755  1.00  0.00    -0.329 F  
HETATM   17  C   UNL     1      -5.610  18.119  65.656  1.00  0.00    -0.229 A  
HETATM   18  C   UNL     1      -7.236  19.824  66.066  1.00  0.00    -0.292 A  
HETATM   19  C   UNL     1      -6.862  20.494  64.895  1.00  0.00    -0.193 A  
HETATM   20  C   UNL     1      -5.221  18.786  64.487  1.00  0.00    -0.230 A  
HETATM   21  C   UNL     1      -5.845  19.974  64.107  1.00  0.00    -0.312 A  
ENDBRANCH  14  15
BRANCH  14  22
HETATM   22  C   UNL     1      -6.058  17.737  68.853  1.00  0.00    -0.203 C  
HETATM   23  O   UNL     1      -5.195  16.864  68.900  1.00  0.00    -0.128 OA 
BRANCH  22  24
HETATM   24  C   UNL     1      -6.135  18.766  69.946  1.00  0.00    -0.228 C  
HETATM   25  C   UNL     1      -5.679  20.189  69.706  1.00  0.00    -0.336 C  
HETATM   26  C   UNL     1      -7.143  19.884  69.816  1.00  0.00    -0.095 C  
ENDBRANCH  22  24
ENDBRANCH  14  22
ENDBRANCH  12  14
ENDBRANCH   4   5
ENDBRANCH   2   4
TORSDOF 6
ENDMDL
MODEL       58
REMARK 921   NORMALIZED FREE ENERGY PREDICTED BY IDOCK:   -5.43 KCAL/MOL
REMARK 922        TOTAL FREE ENERGY PREDICTED BY IDOCK:   -8.02 KCAL/MOL
REMARK 923 INTER-LIGAND FREE ENERGY PREDICTED BY IDOCK:   -7.71 KCAL/MOL
REMARK 924 INTRA-LIGAND FREE ENERGY PREDICTED BY IDOCK:   -0.31 KCAL/MOL
REMARK 927      BINDING AFFINITY PREDICTED BY RF-SCORE:    0.00 PKD
ROOT
HETATM    1  C   UNL     1     -11.414   7.915  72.786  1.00  0.00    -0.428 C  
HETATM    2  C   UNL     1      -9.922   7.775  72.708  1.00  0.00    -0.260 C  
HETATM    3  O   UNL     1      -9.179   8.059  73.639  1.00  0.00    -0.275 OA 
ENDROOT
BRANCH   2   4
HETATM    4  O   UNL     1      -9.581   7.294  71.492  1.00  0.00    -0.157 OA 
BRANCH   4   5
HETATM    5  C   UNL     1      -9.574   8.097  70.434  1.00  0.00    -0.170 A  
HETATM    6  C   UNL     1      -9.145   9.405  70.272  1.00  0.00    -0.283 A  
HETATM    7  C   UNL     1      -9.378   9.930  68.958  1.00  0.00    -0.175 A  
HETATM    8  C   UNL     1      -9.940   8.973  68.155  1.00  0.00    -0.175 A  
HETATM    9  C   UNL     1     -10.243   9.171  66.722  1.00  0.00    -0.331 C  
HETATM   10  S   UNL     1     -10.261   7.520  68.968  1.00  0.00    -0.208 SA 
HETATM   11  C   UNL     1     -10.276  10.670  66.368  1.00  0.00    -0.234 C  
HETATM   12  N   UNL     1      -9.522  11.674  67.156  1.00  0.00    -0.175 NA 
HETATM   13  C   UNL     1      -9.045  11.317  68.509  1.00  0.00    -0.173 C  
BRANCH  12  14
HETATM   14  C   UNL     1     -10.223  13.010  67.121  1.00  0.00    -0.243 C  
BRANCH  14  15
HETATM   15  C   UNL     1     -10.762  13.519  68.465  1.00  0.00    -0.270 A  
HETATM   16  F   UNL     1     -12.262  11.677  68.700  1.00  0.00    -0.375 F  
HETATM   17  C   UNL     1     -10.368  14.762  68.994  1.00  0.00    -0.243 A  
HETATM   18  C   UNL     1     -11.772  12.834  69.161  1.00  0.00    -0.322 A  
HETATM   19  C   UNL     1     -12.347  13.326  70.338  1.00  0.00    -0.365 A  
HETATM   20  C   UNL     1     -10.930  15.261  70.177  1.00  0.00    -0.312 A  
HETATM   21  C   UNL     1     -11.917  14.542  70.850  1.00  0.00    -0.389 A  
ENDBRANCH  14  15
BRANCH  14  22
HETATM   22  C   UNL     1     -11.280  13.015  65.979  1.00  0.00    -0.292 C  
HETATM   23  O   UNL     1     -12.310  12.345  65.984  1.00  0.00    -0.627 OA 
BRANCH  22  24
HETATM   24  C   UNL     1     -10.979  13.908  64.809  1.00  0.00    -0.407 C  
HETATM   25  C   UNL     1     -12.009  14.893  64.298  1.00  0.00    -0.355 C  
HETATM   26  C   UNL     1     -10.814  15.391  65.054  1.00  0.00    -0.462 C  
ENDBRANCH  22  24
ENDBRANCH  14  22
ENDBRANCH  12  14
ENDBRANCH   4   5
ENDBRANCH   2   4
TORSDOF 6
ENDMDL
MODEL       59
REMARK 921   NORMALIZED FREE ENERGY PREDICTED BY IDOCK:   -5.43 KCAL/MOL
REMARK 922        TOTAL FREE ENERGY PREDICTED BY IDOCK:   -8.02 KCAL/MOL
REMARK 923 INTER-LIGAND FREE ENERGY PREDICTED BY IDOCK:   -7.28 KCAL/MOL
REMARK 924 INTRA-LIGAND FREE ENERGY PREDICTED BY IDOCK:   -0.74 KCAL/MOL
REMARK 927      BINDING AFFINITY PREDICTED BY RF-SCORE:    0.00 PKD
ROOT
HETATM    1  C   UNL     1     -11.990  15.824  72.878  1.00  0.00    -0.599 C  
HETATM    2  C   UNL     1     -13.245  15.733  72.059  1.00  0.00    -0.412 C  
HETATM    3  O   UNL     1     -14.357  15.618  72.559  1.00  0.00    -0.537 OA 
ENDROOT
BRANCH   2   4
HETATM    4  O   UNL     1     -12.929  15.811  70.747  1.00  0.00    -0.479 OA 
BRANCH   4   5
HETATM    5  C   UNL     1     -12.486  14.738  70.101  1.00  0.00    -0.309 A  
HETATM    6  C   UNL     1     -12.513  13.391  70.424  1.00  0.00    -0.322 A  
HETATM    7  C   UNL     1     -11.858  12.554  69.463  1.00  0.00    -0.375 A  
HETATM    8  C   UNL     1     -11.394  13.304  68.415  1.00  0.00    -0.291 A  
HETATM    9  C   UNL     1     -10.731  12.736  67.223  1.00  0.00    -0.256 C  
HETATM   10  S   UNL     1     -11.656  14.967  68.614  1.00  0.00    -0.325 SA 
HETATM   11  C   UNL     1     -10.231  11.306  67.498  1.00  0.00    -0.189 C  
HETATM   12  N   UNL     1     -10.860  10.446  68.530  1.00  0.00    -0.221 NA 
HETATM   13  C   UNL     1     -11.708  11.069  69.567  1.00  0.00    -0.329 C  
BRANCH  12  14
HETATM   14  C   UNL     1      -9.848   9.487  69.108  1.00  0.00    -0.176 C  
BRANCH  14  15
HETATM   15  C   UNL     1      -9.067   8.644  68.089  1.00  0.00    -0.142 A  
HETATM   16  F   UNL     1     -11.056   7.742  67.126  1.00  0.00    -0.358 F  
HETATM   17  C   UNL     1      -7.662   8.575  68.113  1.00  0.00    -0.102 A  
HETATM   18  C   UNL     1      -9.720   7.800  67.176  1.00  0.00    -0.186 A  
HETATM   19  C   UNL     1      -9.030   6.951  66.303  1.00  0.00    -0.172 A  
HETATM   20  C   UNL     1      -6.959   7.737  67.237  1.00  0.00    -0.078 A  
HETATM   21  C   UNL     1      -7.643   6.926  66.331  1.00  0.00    -0.089 A  
ENDBRANCH  14  15
BRANCH  14  22
HETATM   22  C   UNL     1     -10.509   8.648  70.239  1.00  0.00    -0.210 C  
HETATM   23  O   UNL     1     -11.506   7.946  70.091  1.00  0.00    -0.168 OA 
BRANCH  22  24
HETATM   24  C   UNL     1      -9.856   8.736  71.590  1.00  0.00    -0.378 C  
HETATM   25  C   UNL     1     -10.409   7.969  72.772  1.00  0.00    -0.408 C  
HETATM   26  C   UNL     1      -9.133   7.520  72.124  1.00  0.00    -0.165 C  
ENDBRANCH  22  24
ENDBRANCH  14  22
ENDBRANCH  12  14
ENDBRANCH   4   5
ENDBRANCH   2   4
TORSDOF 6
ENDMDL
MODEL       60
REMARK 921   NORMALIZED FREE ENERGY PREDICTED BY IDOCK:   -5.43 KCAL/MOL
REMARK 922        TOTAL FREE ENERGY PREDICTED BY IDOCK:   -8.02 KCAL/MOL
REMARK 923 INTER-LIGAND FREE ENERGY PREDICTED BY IDOCK:   -7.20 KCAL/MOL
REMARK 924 INTRA-LIGAND FREE ENERGY PREDICTED BY IDOCK:   -0.81 KCAL/MOL
REMARK 927      BINDING AFFINITY PREDICTED BY RF-SCORE:    0.00 PKD
ROOT
HETATM    1  C   UNL     1     -10.614   5.201  73.892  1.00  0.00    -0.340 C  
HETATM    2  C   UNL     1     -10.307   6.665  73.763  1.00  0.00    -0.349 C  
HETATM    3  O   UNL     1      -9.329   7.186  74.283  1.00  0.00    -0.234 OA 
ENDROOT
BRANCH   2   4
HETATM    4  O   UNL     1     -11.254   7.254  73.000  1.00  0.00    -0.311 OA 
BRANCH   4   5
HETATM    5  C   UNL     1     -10.935   7.777  71.822  1.00  0.00    -0.239 A  
HETATM    6  C   UNL     1     -10.297   8.959  71.481  1.00  0.00    -0.394 A  
HETATM    7  C   UNL     1     -10.205   9.178  70.067  1.00  0.00    -0.229 A  
HETATM    8  C   UNL     1     -10.744   8.119  69.385  1.00  0.00    -0.156 A  
HETATM    9  C   UNL     1     -10.746   8.001  67.912  1.00  0.00    -0.139 C  
HETATM   10  S   UNL     1     -11.418   6.940  70.401  1.00  0.00    -0.331 SA 
HETATM   11  C   UNL     1     -10.493   9.367  67.249  1.00  0.00    -0.264 C  
HETATM   12  N   UNL     1      -9.758  10.449  67.948  1.00  0.00    -0.148 NA 
HETATM   13  C   UNL     1      -9.596  10.378  69.415  1.00  0.00    -0.192 C  
BRANCH  12  14
HETATM   14  C   UNL     1     -10.238  11.802  67.481  1.00  0.00    -0.195 C  
BRANCH  14  15
HETATM   15  C   UNL     1     -10.817  11.853  66.060  1.00  0.00    -0.342 A  
HETATM   16  F   UNL     1      -8.770  11.130  65.068  1.00  0.00    -0.176 F  
HETATM   17  C   UNL     1     -12.111  12.347  65.809  1.00  0.00    -0.381 A  
HETATM   18  C   UNL     1     -10.037  11.540  64.935  1.00  0.00    -0.268 A  
HETATM   19  C   UNL     1     -10.512  11.671  63.625  1.00  0.00    -0.483 A  
HETATM   20  C   UNL     1     -12.601  12.473  64.503  1.00  0.00    -0.503 A  
HETATM   21  C   UNL     1     -11.803  12.134  63.411  1.00  0.00    -0.553 A  
ENDBRANCH  14  15
BRANCH  14  22
HETATM   22  C   UNL     1      -9.136  12.868  67.748  1.00  0.00    -0.197 C  
HETATM   23  O   UNL     1      -7.935  12.686  67.562  1.00  0.00    -0.152 OA 
BRANCH  22  24
HETATM   24  C   UNL     1      -9.615  14.191  68.274  1.00  0.00    -0.226 C  
HETATM   25  C   UNL     1      -8.835  15.461  68.010  1.00  0.00    -0.165 C  
HETATM   26  C   UNL     1     -10.128  15.218  67.290  1.00  0.00    -0.236 C  
ENDBRANCH  22  24
ENDBRANCH  14  22
ENDBRANCH  12  14
ENDBRANCH   4   5
ENDBRANCH   2   4
TORSDOF 6
ENDMDL
MODEL       61
REMARK 921   NORMALIZED FREE ENERGY PREDICTED BY IDOCK:   -5.42 KCAL/MOL
REMARK 922        TOTAL FREE ENERGY PREDICTED BY IDOCK:   -8.01 KCAL/MOL
REMARK 923 INTER-LIGAND FREE ENERGY PREDICTED BY IDOCK:   -7.59 KCAL/MOL
REMARK 924 INTRA-LIGAND FREE ENERGY PREDICTED BY IDOCK:   -0.42 KCAL/MOL
REMARK 927      BINDING AFFINITY PREDICTED BY RF-SCORE:    0.00 PKD
ROOT
HETATM    1  C   UNL     1      -9.693   7.734  73.312  1.00  0.00    -0.357 C  
HETATM    2  C   UNL     1      -8.468   8.152  72.552  1.00  0.00    -0.185 C  
HETATM    3  O   UNL     1      -7.546   8.770  73.068  1.00  0.00    -0.368 OA 
ENDROOT
BRANCH   2   4
HETATM    4  O   UNL     1      -8.570   7.730  71.272  1.00  0.00    -0.116 OA 
BRANCH   4   5
HETATM    5  C   UNL     1      -8.929   8.577  70.315  1.00  0.00    -0.149 A  
HETATM    6  C   UNL     1      -8.559   9.887  70.057  1.00  0.00    -0.196 A  
HETATM    7  C   UNL     1      -9.241  10.471  68.939  1.00  0.00    -0.188 A  
HETATM    8  C   UNL     1     -10.079   9.554  68.361  1.00  0.00    -0.175 A  
HETATM    9  C   UNL     1     -10.877   9.817  67.146  1.00  0.00    -0.207 C  
HETATM   10  S   UNL     1     -10.115   8.069  69.179  1.00  0.00    -0.205 SA 
HETATM   11  C   UNL     1     -11.002  11.329  66.884  1.00  0.00    -0.290 C  
HETATM   12  N   UNL     1      -9.990  12.292  67.381  1.00  0.00    -0.200 NA 
HETATM   13  C   UNL     1      -9.063  11.874  68.452  1.00  0.00    -0.167 C  
BRANCH  12  14
HETATM   14  C   UNL     1     -10.625  13.634  67.653  1.00  0.00    -0.241 C  
BRANCH  14  15
HETATM   15  C   UNL     1     -11.481  13.724  68.924  1.00  0.00    -0.344 A  
HETATM   16  F   UNL     1     -11.575  16.107  68.841  1.00  0.00    -0.330 F  
HETATM   17  C   UNL     1     -11.789  12.582  69.687  1.00  0.00    -0.382 A  
HETATM   18  C   UNL     1     -11.882  14.959  69.458  1.00  0.00    -0.325 A  
HETATM   19  C   UNL     1     -12.580  15.072  70.665  1.00  0.00    -0.429 A  
HETATM   20  C   UNL     1     -12.496  12.681  70.893  1.00  0.00    -0.368 A  
HETATM   21  C   UNL     1     -12.893  13.925  71.381  1.00  0.00    -0.439 A  
ENDBRANCH  14  15
BRANCH  14  22
HETATM   22  C   UNL     1     -11.349  14.140  66.372  1.00  0.00    -0.338 C  
HETATM   23  O   UNL     1     -12.532  13.929  66.116  1.00  0.00    -0.459 OA 
BRANCH  22  24
HETATM   24  C   UNL     1     -10.508  14.929  65.409  1.00  0.00    -0.406 C  
HETATM   25  C   UNL     1     -10.609  16.437  65.344  1.00  0.00    -0.338 C  
HETATM   26  C   UNL     1      -9.401  15.798  65.960  1.00  0.00    -0.384 C  
ENDBRANCH  22  24
ENDBRANCH  14  22
ENDBRANCH  12  14
ENDBRANCH   4   5
ENDBRANCH   2   4
TORSDOF 6
ENDMDL
MODEL       62
REMARK 921   NORMALIZED FREE ENERGY PREDICTED BY IDOCK:   -5.42 KCAL/MOL
REMARK 922        TOTAL FREE ENERGY PREDICTED BY IDOCK:   -8.00 KCAL/MOL
REMARK 923 INTER-LIGAND FREE ENERGY PREDICTED BY IDOCK:   -7.29 KCAL/MOL
REMARK 924 INTRA-LIGAND FREE ENERGY PREDICTED BY IDOCK:   -0.71 KCAL/MOL
REMARK 927      BINDING AFFINITY PREDICTED BY RF-SCORE:    0.00 PKD
ROOT
HETATM    1  C   UNL     1     -10.584  19.545  65.939  1.00  0.00    -0.572 C  
HETATM    2  C   UNL     1     -10.067  19.222  67.311  1.00  0.00    -0.384 C  
HETATM    3  O   UNL     1      -9.159  19.849  67.842  1.00  0.00    -0.321 OA 
ENDROOT
BRANCH   2   4
HETATM    4  O   UNL     1     -10.763  18.180  67.816  1.00  0.00    -0.412 OA 
BRANCH   4   5
HETATM    5  C   UNL     1     -10.313  16.939  67.667  1.00  0.00    -0.317 A  
HETATM    6  C   UNL     1     -10.658  15.935  66.777  1.00  0.00    -0.309 A  
HETATM    7  C   UNL     1      -9.962  14.701  67.001  1.00  0.00    -0.246 A  
HETATM    8  C   UNL     1      -9.075  14.836  68.036  1.00  0.00    -0.179 A  
HETATM    9  C   UNL     1      -8.152  13.769  68.477  1.00  0.00    -0.128 C  
HETATM   10  S   UNL     1      -9.133  16.361  68.775  1.00  0.00    -0.250 SA 
HETATM   11  C   UNL     1      -8.611  12.394  67.956  1.00  0.00    -0.180 C  
HETATM   12  N   UNL     1      -9.437  12.260  66.732  1.00  0.00    -0.216 NA 
HETATM   13  C   UNL     1     -10.154  13.444  66.215  1.00  0.00    -0.299 C  
BRANCH  12  14
HETATM   14  C   UNL     1     -10.319  11.039  66.821  1.00  0.00    -0.238 C  
BRANCH  14  15
HETATM   15  C   UNL     1     -10.821  10.676  68.225  1.00  0.00    -0.287 A  
HETATM   16  F   UNL     1     -12.264  12.575  68.334  1.00  0.00    -0.346 F  
HETATM   17  C   UNL     1     -10.279   9.595  68.945  1.00  0.00    -0.214 A  
HETATM   18  C   UNL     1     -11.744  11.483  68.909  1.00  0.00    -0.339 A  
HETATM   19  C   UNL     1     -12.144  11.227  70.226  1.00  0.00    -0.459 A  
HETATM   20  C   UNL     1     -10.678   9.322  70.260  1.00  0.00    -0.284 A  
HETATM   21  C   UNL     1     -11.612  10.137  70.900  1.00  0.00    -0.459 A  
ENDBRANCH  14  15
BRANCH  14  22
HETATM   22  C   UNL     1      -9.649   9.854  66.069  1.00  0.00    -0.225 C  
HETATM   23  O   UNL     1     -10.055   8.694  66.098  1.00  0.00    -0.250 OA 
BRANCH  22  24
HETATM   24  C   UNL     1      -8.421  10.191  65.270  1.00  0.00    -0.165 C  
HETATM   25  C   UNL     1      -7.057   9.693  65.695  1.00  0.00    -0.097 C  
HETATM   26  C   UNL     1      -7.732   9.087  64.502  1.00  0.00    -0.116 C  
ENDBRANCH  22  24
ENDBRANCH  14  22
ENDBRANCH  12  14
ENDBRANCH   4   5
ENDBRANCH   2   4
TORSDOF 6
ENDMDL
MODEL       63
REMARK 921   NORMALIZED FREE ENERGY PREDICTED BY IDOCK:   -5.41 KCAL/MOL
REMARK 922        TOTAL FREE ENERGY PREDICTED BY IDOCK:   -8.00 KCAL/MOL
REMARK 923 INTER-LIGAND FREE ENERGY PREDICTED BY IDOCK:   -7.57 KCAL/MOL
REMARK 924 INTRA-LIGAND FREE ENERGY PREDICTED BY IDOCK:   -0.43 KCAL/MOL
REMARK 927      BINDING AFFINITY PREDICTED BY RF-SCORE:    0.00 PKD
ROOT
HETATM    1  C   UNL     1     -10.480  19.849  67.238  1.00  0.00    -0.557 C  
HETATM    2  C   UNL     1      -9.809  18.509  67.142  1.00  0.00    -0.319 C  
HETATM    3  O   UNL     1      -9.454  18.020  66.078  1.00  0.00    -0.504 OA 
ENDROOT
BRANCH   2   4
HETATM    4  O   UNL     1      -9.672  17.988  68.382  1.00  0.00    -0.309 OA 
BRANCH   4   5
HETATM    5  C   UNL     1      -9.915  16.701  68.597  1.00  0.00    -0.261 A  
HETATM    6  C   UNL     1      -9.292  15.554  68.131  1.00  0.00    -0.197 A  
HETATM    7  C   UNL     1      -9.920  14.340  68.562  1.00  0.00    -0.235 A  
HETATM    8  C   UNL     1     -10.981  14.617  69.383  1.00  0.00    -0.257 A  
HETATM    9  C   UNL     1     -11.799  13.585  70.052  1.00  0.00    -0.371 C  
HETATM   10  S   UNL     1     -11.272  16.278  69.565  1.00  0.00    -0.270 SA 
HETATM   11  C   UNL     1     -11.614  12.212  69.379  1.00  0.00    -0.317 C  
HETATM   12  N   UNL     1     -10.380  11.872  68.630  1.00  0.00    -0.217 NA 
HETATM   13  C   UNL     1      -9.482  12.959  68.190  1.00  0.00    -0.218 C  
BRANCH  12  14
HETATM   14  C   UNL     1     -10.685  10.888  67.527  1.00  0.00    -0.252 C  
BRANCH  14  15
HETATM   15  C   UNL     1      -9.553   9.916  67.164  1.00  0.00    -0.201 A  
HETATM   16  F   UNL     1     -11.045   8.067  66.941  1.00  0.00    -0.333 F  
HETATM   17  C   UNL     1      -8.203  10.314  67.193  1.00  0.00    -0.121 A  
HETATM   18  C   UNL     1      -9.800   8.556  66.920  1.00  0.00    -0.242 A  
HETATM   19  C   UNL     1      -8.775   7.632  66.682  1.00  0.00    -0.150 A  
HETATM   20  C   UNL     1      -7.170   9.401  66.947  1.00  0.00    -0.087 A  
HETATM   21  C   UNL     1      -7.456   8.060  66.690  1.00  0.00    -0.089 A  
ENDBRANCH  14  15
BRANCH  14  22
HETATM   22  C   UNL     1     -11.281  11.642  66.303  1.00  0.00    -0.271 C  
HETATM   23  O   UNL     1     -12.259  12.384  66.354  1.00  0.00    -0.604 OA 
BRANCH  22  24
HETATM   24  C   UNL     1     -10.587  11.415  64.990  1.00  0.00    -0.359 C  
HETATM   25  C   UNL     1     -11.340  11.535  63.682  1.00  0.00    -0.412 C  
HETATM   26  C   UNL     1     -10.361  12.600  64.078  1.00  0.00    -0.414 C  
ENDBRANCH  22  24
ENDBRANCH  14  22
ENDBRANCH  12  14
ENDBRANCH   4   5
ENDBRANCH   2   4
TORSDOF 6
ENDMDL
MODEL       64
REMARK 921   NORMALIZED FREE ENERGY PREDICTED BY IDOCK:   -5.39 KCAL/MOL
REMARK 922        TOTAL FREE ENERGY PREDICTED BY IDOCK:   -7.96 KCAL/MOL
REMARK 923 INTER-LIGAND FREE ENERGY PREDICTED BY IDOCK:   -7.24 KCAL/MOL
REMARK 924 INTRA-LIGAND FREE ENERGY PREDICTED BY IDOCK:   -0.72 KCAL/MOL
REMARK 927      BINDING AFFINITY PREDICTED BY RF-SCORE:    0.00 PKD
ROOT
HETATM    1  C   UNL     1     -14.397   7.416  71.684  1.00  0.00    -0.614 C  
HETATM    2  C   UNL     1     -13.432   8.480  72.121  1.00  0.00    -0.358 C  
HETATM    3  O   UNL     1     -13.789   9.522  72.654  1.00  0.00    -0.370 OA 
ENDROOT
BRANCH   2   4
HETATM    4  O   UNL     1     -12.171   8.083  71.837  1.00  0.00    -0.292 OA 
BRANCH   4   5
HETATM    5  C   UNL     1     -11.395   8.827  71.058  1.00  0.00    -0.278 A  
HETATM    6  C   UNL     1     -11.695   9.774  70.092  1.00  0.00    -0.190 A  
HETATM    7  C   UNL     1     -10.541  10.306  69.428  1.00  0.00    -0.262 A  
HETATM    8  C   UNL     1      -9.397   9.767  69.954  1.00  0.00    -0.231 A  
HETATM    9  C   UNL     1      -8.034  10.155  69.537  1.00  0.00    -0.170 C  
HETATM   10  S   UNL     1      -9.693   8.596  71.145  1.00  0.00    -0.249 SA 
HETATM   11  C   UNL     1      -8.057  10.873  68.175  1.00  0.00    -0.119 C  
HETATM   12  N   UNL     1      -9.260  11.596  67.695  1.00  0.00    -0.173 NA 
HETATM   13  C   UNL     1     -10.566  11.318  68.327  1.00  0.00    -0.197 C  
BRANCH  12  14
HETATM   14  C   UNL     1      -9.326  11.570  66.188  1.00  0.00    -0.215 C  
BRANCH  14  15
HETATM   15  C   UNL     1     -10.275  12.589  65.542  1.00  0.00    -0.295 A  
HETATM   16  F   UNL     1      -8.964  14.450  66.259  1.00  0.00    -0.256 F  
HETATM   17  C   UNL     1     -11.484  12.192  64.940  1.00  0.00    -0.379 A  
HETATM   18  C   UNL     1     -10.051  13.972  65.642  1.00  0.00    -0.322 A  
HETATM   19  C   UNL     1     -10.950  14.923  65.145  1.00  0.00    -0.410 A  
HETATM   20  C   UNL     1     -12.387  13.134  64.431  1.00  0.00    -0.426 A  
HETATM   21  C   UNL     1     -12.120  14.499  64.531  1.00  0.00    -0.501 A  
ENDBRANCH  14  15
BRANCH  14  22
HETATM   22  C   UNL     1      -9.547  10.110  65.698  1.00  0.00    -0.243 C  
HETATM   23  O   UNL     1     -10.377   9.338  66.172  1.00  0.00    -0.229 OA 
BRANCH  22  24
HETATM   24  C   UNL     1      -8.662   9.651  64.574  1.00  0.00    -0.227 C  
HETATM   25  C   UNL     1      -7.198  10.034  64.532  1.00  0.00    -0.139 C  
HETATM   26  C   UNL     1      -7.591   8.627  64.869  1.00  0.00    -0.100 C  
ENDBRANCH  22  24
ENDBRANCH  14  22
ENDBRANCH  12  14
ENDBRANCH   4   5
ENDBRANCH   2   4
TORSDOF 6
ENDMDL
MODEL       65
REMARK 921   NORMALIZED FREE ENERGY PREDICTED BY IDOCK:   -5.37 KCAL/MOL
REMARK 922        TOTAL FREE ENERGY PREDICTED BY IDOCK:   -7.94 KCAL/MOL
REMARK 923 INTER-LIGAND FREE ENERGY PREDICTED BY IDOCK:   -7.38 KCAL/MOL
REMARK 924 INTRA-LIGAND FREE ENERGY PREDICTED BY IDOCK:   -0.56 KCAL/MOL
REMARK 927      BINDING AFFINITY PREDICTED BY RF-SCORE:    0.00 PKD
ROOT
HETATM    1  C   UNL     1      -5.479   9.890  70.954  1.00  0.00    -0.073 C  
HETATM    2  C   UNL     1      -5.568  11.374  70.744  1.00  0.00    -0.111 C  
HETATM    3  O   UNL     1      -5.655  12.171  71.669  1.00  0.00    -0.378 OA 
ENDROOT
BRANCH   2   4
HETATM    4  O   UNL     1      -5.525  11.641  69.420  1.00  0.00    -0.051 OA 
BRANCH   4   5
HETATM    5  C   UNL     1      -6.544  12.251  68.826  1.00  0.00    -0.084 A  
HETATM    6  C   UNL     1      -6.826  13.593  68.628  1.00  0.00    -0.097 A  
HETATM    7  C   UNL     1      -8.086  13.829  67.986  1.00  0.00    -0.163 A  
HETATM    8  C   UNL     1      -8.696  12.641  67.681  1.00  0.00    -0.179 A  
HETATM    9  C   UNL     1      -9.977  12.534  66.953  1.00  0.00    -0.229 C  
HETATM   10  S   UNL     1      -7.831  11.286  68.221  1.00  0.00    -0.137 SA 
HETATM   11  C   UNL     1     -10.742  13.870  66.984  1.00  0.00    -0.283 C  
HETATM   12  N   UNL     1     -10.042  15.166  67.151  1.00  0.00    -0.238 NA 
HETATM   13  C   UNL     1      -8.660  15.175  67.674  1.00  0.00    -0.172 C  
BRANCH  12  14
HETATM   14  C   UNL     1     -10.933  16.164  67.848  1.00  0.00    -0.318 C  
BRANCH  14  15
HETATM   15  C   UNL     1     -10.576  17.642  67.639  1.00  0.00    -0.364 A  
HETATM   16  F   UNL     1     -10.896  17.511  65.277  1.00  0.00    -0.395 F  
HETATM   17  C   UNL     1     -10.126  18.449  68.700  1.00  0.00    -0.407 A  
HETATM   18  C   UNL     1     -10.553  18.219  66.359  1.00  0.00    -0.293 A  
HETATM   19  C   UNL     1     -10.139  19.537  66.131  1.00  0.00    -0.557 A  
HETATM   20  C   UNL     1      -9.718  19.772  68.486  1.00  0.00    -0.467 A  
HETATM   21  C   UNL     1      -9.726  20.317  67.202  1.00  0.00    -0.592 A  
ENDBRANCH  14  15
BRANCH  14  22
HETATM   22  C   UNL     1     -11.096  15.764  69.343  1.00  0.00    -0.314 C  
HETATM   23  O   UNL     1     -10.201  15.837  70.182  1.00  0.00    -0.288 OA 
BRANCH  22  24
HETATM   24  C   UNL     1     -12.451  15.253  69.745  1.00  0.00    -0.223 C  
HETATM   25  C   UNL     1     -12.597  14.200  70.821  1.00  0.00    -0.432 C  
HETATM   26  C   UNL     1     -12.986  15.618  71.110  1.00  0.00    -0.539 C  
ENDBRANCH  22  24
ENDBRANCH  14  22
ENDBRANCH  12  14
ENDBRANCH   4   5
ENDBRANCH   2   4
TORSDOF 6
ENDMDL
MODEL       66
REMARK 921   NORMALIZED FREE ENERGY PREDICTED BY IDOCK:   -5.36 KCAL/MOL
REMARK 922        TOTAL FREE ENERGY PREDICTED BY IDOCK:   -7.93 KCAL/MOL
REMARK 923 INTER-LIGAND FREE ENERGY PREDICTED BY IDOCK:   -7.61 KCAL/MOL
REMARK 924 INTRA-LIGAND FREE ENERGY PREDICTED BY IDOCK:   -0.32 KCAL/MOL
REMARK 927      BINDING AFFINITY PREDICTED BY RF-SCORE:    0.00 PKD
ROOT
HETATM    1  C   UNL     1      -9.875   4.719  68.529  1.00  0.00    -0.198 C  
HETATM    2  C   UNL     1     -10.798   5.903  68.546  1.00  0.00    -0.248 C  
HETATM    3  O   UNL     1     -11.562   6.135  69.475  1.00  0.00    -0.396 OA 
ENDROOT
BRANCH   2   4
HETATM    4  O   UNL     1     -10.625   6.621  67.414  1.00  0.00    -0.220 OA 
BRANCH   4   5
HETATM    5  C   UNL     1     -10.244   7.891  67.480  1.00  0.00    -0.242 A  
HETATM    6  C   UNL     1     -10.602   8.918  68.339  1.00  0.00    -0.190 A  
HETATM    7  C   UNL     1      -9.995  10.177  68.018  1.00  0.00    -0.173 A  
HETATM    8  C   UNL     1      -9.156  10.042  66.944  1.00  0.00    -0.139 A  
HETATM    9  C   UNL     1      -8.324  11.136  66.403  1.00  0.00    -0.167 C  
HETATM   10  S   UNL     1      -9.159   8.480  66.283  1.00  0.00    -0.197 SA 
HETATM   11  C   UNL     1      -8.838  12.507  66.882  1.00  0.00    -0.203 C  
HETATM   12  N   UNL     1      -9.607  12.655  68.141  1.00  0.00    -0.216 NA 
HETATM   13  C   UNL     1     -10.223  11.459  68.753  1.00  0.00    -0.197 C  
BRANCH  12  14
HETATM   14  C   UNL     1     -10.565  13.817  68.043  1.00  0.00    -0.252 C  
BRANCH  14  15
HETATM   15  C   UNL     1     -11.249  14.233  69.353  1.00  0.00    -0.313 A  
HETATM   16  F   UNL     1      -9.987  16.253  69.512  1.00  0.00    -0.232 F  
HETATM   17  C   UNL     1     -12.160  13.385  70.011  1.00  0.00    -0.404 A  
HETATM   18  C   UNL     1     -10.897  15.415  70.024  1.00  0.00    -0.305 A  
HETATM   19  C   UNL     1     -11.436  15.770  71.266  1.00  0.00    -0.481 A  
HETATM   20  C   UNL     1     -12.713  13.734  71.250  1.00  0.00    -0.450 A  
HETATM   21  C   UNL     1     -12.353  14.926  71.877  1.00  0.00    -0.415 A  
ENDBRANCH  14  15
BRANCH  14  22
HETATM   22  C   UNL     1     -11.556  13.579  66.867  1.00  0.00    -0.363 C  
HETATM   23  O   UNL     1     -12.242  12.569  66.731  1.00  0.00    -0.532 OA 
BRANCH  22  24
HETATM   24  C   UNL     1     -11.644  14.680  65.848  1.00  0.00    -0.327 C  
HETATM   25  C   UNL     1     -10.594  15.768  65.787  1.00  0.00    -0.369 C  
HETATM   26  C   UNL     1     -10.632  14.710  64.726  1.00  0.00    -0.379 C  
ENDBRANCH  22  24
ENDBRANCH  14  22
ENDBRANCH  12  14
ENDBRANCH   4   5
ENDBRANCH   2   4
TORSDOF 6
ENDMDL
MODEL       67
REMARK 921   NORMALIZED FREE ENERGY PREDICTED BY IDOCK:   -5.32 KCAL/MOL
REMARK 922        TOTAL FREE ENERGY PREDICTED BY IDOCK:   -7.87 KCAL/MOL
REMARK 923 INTER-LIGAND FREE ENERGY PREDICTED BY IDOCK:   -7.74 KCAL/MOL
REMARK 924 INTRA-LIGAND FREE ENERGY PREDICTED BY IDOCK:   -0.13 KCAL/MOL
REMARK 927      BINDING AFFINITY PREDICTED BY RF-SCORE:    0.00 PKD
ROOT
HETATM    1  C   UNL     1     -11.403   8.619  71.671  1.00  0.00    -0.377 C  
HETATM    2  C   UNL     1     -12.824   8.952  72.020  1.00  0.00    -0.397 C  
HETATM    3  O   UNL     1     -13.338   8.634  73.085  1.00  0.00    -0.165 OA 
ENDROOT
BRANCH   2   4
HETATM    4  O   UNL     1     -13.386   9.638  71.000  1.00  0.00    -0.325 OA 
BRANCH   4   5
HETATM    5  C   UNL     1     -12.976  10.869  70.715  1.00  0.00    -0.222 A  
HETATM    6  C   UNL     1     -12.401  11.408  69.575  1.00  0.00    -0.211 A  
HETATM    7  C   UNL     1     -12.044  12.790  69.708  1.00  0.00    -0.305 A  
HETATM    8  C   UNL     1     -12.407  13.260  70.942  1.00  0.00    -0.329 A  
HETATM    9  C   UNL     1     -12.241  14.663  71.373  1.00  0.00    -0.411 C  
HETATM   10  S   UNL     1     -13.075  12.066  71.944  1.00  0.00    -0.242 SA 
HETATM   11  C   UNL     1     -11.231  15.400  70.474  1.00  0.00    -0.333 C  
HETATM   12  N   UNL     1     -10.974  14.973  69.078  1.00  0.00    -0.238 NA 
HETATM   13  C   UNL     1     -11.383  13.618  68.652  1.00  0.00    -0.286 C  
BRANCH  12  14
HETATM   14  C   UNL     1      -9.558  15.305  68.675  1.00  0.00    -0.206 C  
BRANCH  14  15
HETATM   15  C   UNL     1      -9.210  16.800  68.620  1.00  0.00    -0.257 A  
HETATM   16  F   UNL     1     -11.417  17.414  67.949  1.00  0.00    -0.142 F  
HETATM   17  C   UNL     1      -7.895  17.258  68.823  1.00  0.00    -0.254 A  
HETATM   18  C   UNL     1     -10.157  17.762  68.232  1.00  0.00    -0.371 A  
HETATM   19  C   UNL     1      -9.840  19.117  68.082  1.00  0.00    -0.444 A  
HETATM   20  C   UNL     1      -7.568  18.614  68.685  1.00  0.00    -0.341 A  
HETATM   21  C   UNL     1      -8.540  19.543  68.316  1.00  0.00    -0.380 A  
ENDBRANCH  14  15
BRANCH  14  22
HETATM   22  C   UNL     1      -9.187  14.527  67.379  1.00  0.00    -0.200 C  
HETATM   23  O   UNL     1      -8.547  13.478  67.359  1.00  0.00    -0.186 OA 
BRANCH  22  24
HETATM   24  C   UNL     1      -9.656  15.137  66.088  1.00  0.00    -0.344 C  
HETATM   25  C   UNL     1     -10.288  14.283  65.011  1.00  0.00    -0.448 C  
HETATM   26  C   UNL     1     -11.142  15.211  65.822  1.00  0.00    -0.330 C  
ENDBRANCH  22  24
ENDBRANCH  14  22
ENDBRANCH  12  14
ENDBRANCH   4   5
ENDBRANCH   2   4
TORSDOF 6
ENDMDL
MODEL       68
REMARK 921   NORMALIZED FREE ENERGY PREDICTED BY IDOCK:   -5.29 KCAL/MOL
REMARK 922        TOTAL FREE ENERGY PREDICTED BY IDOCK:   -7.83 KCAL/MOL
REMARK 923 INTER-LIGAND FREE ENERGY PREDICTED BY IDOCK:   -7.27 KCAL/MOL
REMARK 924 INTRA-LIGAND FREE ENERGY PREDICTED BY IDOCK:   -0.55 KCAL/MOL
REMARK 927      BINDING AFFINITY PREDICTED BY RF-SCORE:    0.00 PKD
ROOT
HETATM    1  C   UNL     1     -11.174   7.615  72.885  1.00  0.00    -0.426 C  
HETATM    2  C   UNL     1     -10.997   6.179  72.486  1.00  0.00    -0.259 C  
HETATM    3  O   UNL     1     -11.757   5.291  72.850  1.00  0.00    -0.295 OA 
ENDROOT
BRANCH   2   4
HETATM    4  O   UNL     1      -9.911   6.068  71.689  1.00  0.00    -0.176 OA 
BRANCH   4   5
HETATM    5  C   UNL     1      -9.827   6.779  70.571  1.00  0.00    -0.176 A  
HETATM    6  C   UNL     1      -9.089   7.907  70.250  1.00  0.00    -0.152 A  
HETATM    7  C   UNL     1      -9.341   8.405  68.929  1.00  0.00    -0.147 A  
HETATM    8  C   UNL     1     -10.237   7.599  68.279  1.00  0.00    -0.195 A  
HETATM    9  C   UNL     1     -10.658   7.795  66.876  1.00  0.00    -0.347 C  
HETATM   10  S   UNL     1     -10.826   6.335  69.244  1.00  0.00    -0.377 SA 
HETATM   11  C   UNL     1     -10.336   9.224  66.398  1.00  0.00    -0.168 C  
HETATM   12  N   UNL     1      -9.246  10.022  67.009  1.00  0.00    -0.145 NA 
HETATM   13  C   UNL     1      -8.711   9.621  68.327  1.00  0.00    -0.120 C  
BRANCH  12  14
HETATM   14  C   UNL     1      -9.564  11.495  66.935  1.00  0.00    -0.187 C  
BRANCH  14  15
HETATM   15  C   UNL     1     -10.422  11.936  65.741  1.00  0.00    -0.295 A  
HETATM   16  F   UNL     1     -12.175  12.748  67.142  1.00  0.00    -0.405 F  
HETATM   17  C   UNL     1     -10.037  11.660  64.415  1.00  0.00    -0.322 A  
HETATM   18  C   UNL     1     -11.690  12.511  65.917  1.00  0.00    -0.426 A  
HETATM   19  C   UNL     1     -12.532  12.833  64.846  1.00  0.00    -0.563 A  
HETATM   20  C   UNL     1     -10.866  11.986  63.334  1.00  0.00    -0.471 A  
HETATM   21  C   UNL     1     -12.112  12.574  63.549  1.00  0.00    -0.653 A  
ENDBRANCH  14  15
BRANCH  14  22
HETATM   22  C   UNL     1      -8.256  12.322  67.107  1.00  0.00    -0.179 C  
HETATM   23  O   UNL     1      -7.135  11.914  66.813  1.00  0.00    -0.107 OA 
BRANCH  22  24
HETATM   24  C   UNL     1      -8.420  13.702  67.678  1.00  0.00    -0.183 C  
HETATM   25  C   UNL     1      -7.361  14.761  67.466  1.00  0.00    -0.225 C  
HETATM   26  C   UNL     1      -8.663  14.853  66.729  1.00  0.00    -0.278 C  
ENDBRANCH  22  24
ENDBRANCH  14  22
ENDBRANCH  12  14
ENDBRANCH   4   5
ENDBRANCH   2   4
TORSDOF 6
ENDMDL
MODEL       69
REMARK 921   NORMALIZED FREE ENERGY PREDICTED BY IDOCK:   -5.28 KCAL/MOL
REMARK 922        TOTAL FREE ENERGY PREDICTED BY IDOCK:   -7.81 KCAL/MOL
REMARK 923 INTER-LIGAND FREE ENERGY PREDICTED BY IDOCK:   -7.20 KCAL/MOL
REMARK 924 INTRA-LIGAND FREE ENERGY PREDICTED BY IDOCK:   -0.61 KCAL/MOL
REMARK 927      BINDING AFFINITY PREDICTED BY RF-SCORE:    0.00 PKD
ROOT
HETATM    1  C   UNL     1     -10.181  15.790  65.681  1.00  0.00    -0.407 C  
HETATM    2  C   UNL     1     -11.339  15.691  64.731  1.00  0.00    -0.343 C  
HETATM    3  O   UNL     1     -11.460  16.418  63.753  1.00  0.00    -1.002 OA 
ENDROOT
BRANCH   2   4
HETATM    4  O   UNL     1     -12.163  14.698  65.133  1.00  0.00    -0.356 OA 
BRANCH   4   5
HETATM    5  C   UNL     1     -11.695  13.466  65.301  1.00  0.00    -0.323 A  
HETATM    6  C   UNL     1     -11.793  12.580  66.361  1.00  0.00    -0.445 A  
HETATM    7  C   UNL     1     -11.076  11.354  66.157  1.00  0.00    -0.259 A  
HETATM    8  C   UNL     1     -10.493  11.344  64.917  1.00  0.00    -0.305 A  
HETATM    9  C   UNL     1      -9.739  10.198  64.369  1.00  0.00    -0.345 C  
HETATM   10  S   UNL     1     -10.722  12.787  64.057  1.00  0.00    -0.409 SA 
HETATM   11  C   UNL     1      -9.311   9.233  65.490  1.00  0.00    -0.238 C  
HETATM   12  N   UNL     1     -10.059   9.141  66.767  1.00  0.00    -0.254 NA 
HETATM   13  C   UNL     1     -10.982  10.233  67.141  1.00  0.00    -0.165 C  
BRANCH  12  14
HETATM   14  C   UNL     1      -9.135   8.749  67.895  1.00  0.00    -0.139 C  
BRANCH  14  15
HETATM   15  C   UNL     1      -8.973   7.242  68.134  1.00  0.00    -0.132 A  
HETATM   16  F   UNL     1      -6.901   7.523  69.286  1.00  0.00    -0.049 F  
HETATM   17  C   UNL     1      -9.873   6.308  67.588  1.00  0.00    -0.135 A  
HETATM   18  C   UNL     1      -7.849   6.717  68.792  1.00  0.00    -0.111 A  
HETATM   19  C   UNL     1      -7.631   5.342  68.939  1.00  0.00    -0.079 A  
HETATM   20  C   UNL     1      -9.670   4.929  67.736  1.00  0.00    -0.199 A  
HETATM   21  C   UNL     1      -8.551   4.447  68.413  1.00  0.00    -0.106 A  
ENDBRANCH  14  15
BRANCH  14  22
HETATM   22  C   UNL     1      -9.504   9.552  69.176  1.00  0.00    -0.163 C  
HETATM   23  O   UNL     1      -9.052  10.660  69.455  1.00  0.00    -0.152 OA 
BRANCH  22  24
HETATM   24  C   UNL     1     -10.477   8.889  70.110  1.00  0.00    -0.236 C  
HETATM   25  C   UNL     1     -10.211   8.834  71.598  1.00  0.00    -0.394 C  
HETATM   26  C   UNL     1     -11.267   9.755  71.065  1.00  0.00    -0.451 C  
ENDBRANCH  22  24
ENDBRANCH  14  22
ENDBRANCH  12  14
ENDBRANCH   4   5
ENDBRANCH   2   4
TORSDOF 6
ENDMDL
MODEL       70
REMARK 921   NORMALIZED FREE ENERGY PREDICTED BY IDOCK:   -5.25 KCAL/MOL
REMARK 922        TOTAL FREE ENERGY PREDICTED BY IDOCK:   -7.77 KCAL/MOL
REMARK 923 INTER-LIGAND FREE ENERGY PREDICTED BY IDOCK:   -7.70 KCAL/MOL
REMARK 924 INTRA-LIGAND FREE ENERGY PREDICTED BY IDOCK:   -0.07 KCAL/MOL
REMARK 927      BINDING AFFINITY PREDICTED BY RF-SCORE:    0.00 PKD
ROOT
HETATM    1  C   UNL     1      -9.181  20.939  67.369  1.00  0.00    -0.279 C  
HETATM    2  C   UNL     1      -7.980  20.081  67.646  1.00  0.00    -0.303 C  
HETATM    3  O   UNL     1      -6.952  20.146  66.985  1.00  0.00    -0.216 OA 
ENDROOT
BRANCH   2   4
HETATM    4  O   UNL     1      -8.237  19.282  68.706  1.00  0.00    -0.360 OA 
BRANCH   4   5
HETATM    5  C   UNL     1      -8.857  18.121  68.534  1.00  0.00    -0.299 A  
HETATM    6  C   UNL     1     -10.199  17.777  68.578  1.00  0.00    -0.382 A  
HETATM    7  C   UNL     1     -10.442  16.376  68.397  1.00  0.00    -0.298 A  
HETATM    8  C   UNL     1      -9.264  15.713  68.176  1.00  0.00    -0.185 A  
HETATM    9  C   UNL     1      -9.173  14.267  67.884  1.00  0.00    -0.194 C  
HETATM   10  S   UNL     1      -7.901  16.717  68.268  1.00  0.00    -0.202 SA 
HETATM   11  C   UNL     1     -10.466  13.538  68.296  1.00  0.00    -0.253 C  
HETATM   12  N   UNL     1     -11.768  14.243  68.369  1.00  0.00    -0.321 NA 
HETATM   13  C   UNL     1     -11.786  15.720  68.426  1.00  0.00    -0.271 C  
BRANCH  12  14
HETATM   14  C   UNL     1     -12.654  13.611  69.414  1.00  0.00     0.226 C  
BRANCH  14  15
HETATM   15  C   UNL     1     -12.806  14.394  70.726  1.00  0.00    -0.417 A  
HETATM   16  F   UNL     1     -10.446  14.572  71.036  1.00  0.00     0.270 F  
HETATM   17  C   UNL     1     -14.067  14.618  71.309  1.00  0.00    -0.378 A  
HETATM   18  C   UNL     1     -11.690  14.804  71.473  1.00  0.00    -0.286 A  
HETATM   19  C   UNL     1     -11.801  15.434  72.718  1.00  0.00    -0.563 A  
HETATM   20  C   UNL     1     -14.193  15.257  72.550  1.00  0.00    -0.477 A  
HETATM   21  C   UNL     1     -13.060  15.666  73.253  1.00  0.00    -0.675 A  
ENDBRANCH  14  15
BRANCH  14  22
HETATM   22  C   UNL     1     -12.245  12.123  69.616  1.00  0.00    -0.120 C  
HETATM   23  O   UNL     1     -12.089  11.317  68.702  1.00  0.00    -0.543 OA 
BRANCH  22  24
HETATM   24  C   UNL     1     -12.045  11.683  71.039  1.00  0.00    -0.212 C  
HETATM   25  C   UNL     1     -13.195  11.123  71.848  1.00  0.00    -0.488 C  
HETATM   26  C   UNL     1     -12.115  10.207  71.355  1.00  0.00    -0.475 C  
ENDBRANCH  22  24
ENDBRANCH  14  22
ENDBRANCH  12  14
ENDBRANCH   4   5
ENDBRANCH   2   4
TORSDOF 6
ENDMDL
MODEL       71
REMARK 921   NORMALIZED FREE ENERGY PREDICTED BY IDOCK:   -5.24 KCAL/MOL
REMARK 922        TOTAL FREE ENERGY PREDICTED BY IDOCK:   -7.76 KCAL/MOL
REMARK 923 INTER-LIGAND FREE ENERGY PREDICTED BY IDOCK:   -7.54 KCAL/MOL
REMARK 924 INTRA-LIGAND FREE ENERGY PREDICTED BY IDOCK:   -0.22 KCAL/MOL
REMARK 927      BINDING AFFINITY PREDICTED BY RF-SCORE:    0.00 PKD
ROOT
HETATM    1  C   UNL     1     -11.039   4.897  72.991  1.00  0.00    -0.368 C  
HETATM    2  C   UNL     1     -10.252   6.170  73.099  1.00  0.00    -0.199 C  
HETATM    3  O   UNL     1     -10.494   7.031  73.935  1.00  0.00    -0.375 OA 
ENDROOT
BRANCH   2   4
HETATM    4  O   UNL     1      -9.280   6.175  72.160  1.00  0.00    -0.143 OA 
BRANCH   4   5
HETATM    5  C   UNL     1      -9.388   6.954  71.089  1.00  0.00    -0.162 A  
HETATM    6  C   UNL     1      -9.008   8.266  70.861  1.00  0.00    -0.174 A  
HETATM    7  C   UNL     1      -9.372   8.756  69.564  1.00  0.00    -0.157 A  
HETATM    8  C   UNL     1      -9.981   7.769  68.836  1.00  0.00    -0.182 A  
HETATM    9  C   UNL     1     -10.417   7.927  67.433  1.00  0.00    -0.360 C  
HETATM   10  S   UNL     1     -10.190   6.327  69.704  1.00  0.00    -0.202 SA 
HETATM   11  C   UNL     1     -10.519   9.416  67.052  1.00  0.00    -0.231 C  
HETATM   12  N   UNL     1      -9.721  10.455  67.747  1.00  0.00    -0.158 NA 
HETATM   13  C   UNL     1      -9.116  10.140  69.058  1.00  0.00    -0.173 C  
BRANCH  12  14
HETATM   14  C   UNL     1     -10.456  11.773  67.748  1.00  0.00    -0.194 C  
BRANCH  14  15
HETATM   15  C   UNL     1     -11.384  12.022  68.945  1.00  0.00    -0.333 A  
HETATM   16  F   UNL     1     -11.090  14.388  68.839  1.00  0.00    -0.227 F  
HETATM   17  C   UNL     1     -11.929  10.958  69.689  1.00  0.00    -0.414 A  
HETATM   18  C   UNL     1     -11.623  13.315  69.437  1.00  0.00    -0.305 A  
HETATM   19  C   UNL     1     -12.388  13.560  70.583  1.00  0.00    -0.432 A  
HETATM   20  C   UNL     1     -12.704  11.191  70.832  1.00  0.00    -0.438 A  
HETATM   21  C   UNL     1     -12.935  12.492  71.279  1.00  0.00    -0.301 A  
ENDBRANCH  14  15
BRANCH  14  22
HETATM   22  C   UNL     1     -11.140  11.992  66.368  1.00  0.00    -0.318 C  
HETATM   23  O   UNL     1     -12.347  12.164  66.212  1.00  0.00    -0.507 OA 
BRANCH  22  24
HETATM   24  C   UNL     1     -10.230  11.978  65.173  1.00  0.00    -0.308 C  
HETATM   25  C   UNL     1     -10.689  11.397  63.853  1.00  0.00    -0.462 C  
HETATM   26  C   UNL     1     -10.555  12.883  64.006  1.00  0.00    -0.418 C  
ENDBRANCH  22  24
ENDBRANCH  14  22
ENDBRANCH  12  14
ENDBRANCH   4   5
ENDBRANCH   2   4
TORSDOF 6
ENDMDL
MODEL       72
REMARK 921   NORMALIZED FREE ENERGY PREDICTED BY IDOCK:   -5.23 KCAL/MOL
REMARK 922        TOTAL FREE ENERGY PREDICTED BY IDOCK:   -7.76 KCAL/MOL
REMARK 923 INTER-LIGAND FREE ENERGY PREDICTED BY IDOCK:   -7.34 KCAL/MOL
REMARK 924 INTRA-LIGAND FREE ENERGY PREDICTED BY IDOCK:   -0.41 KCAL/MOL
REMARK 927      BINDING AFFINITY PREDICTED BY RF-SCORE:    0.00 PKD
ROOT
HETATM    1  C   UNL     1      -8.133   6.719  72.973  1.00  0.00    -0.113 C  
HETATM    2  C   UNL     1      -8.633   6.360  71.603  1.00  0.00    -0.129 C  
HETATM    3  O   UNL     1      -7.899   5.935  70.720  1.00  0.00    -0.098 OA 
ENDROOT
BRANCH   2   4
HETATM    4  O   UNL     1      -9.966   6.574  71.544  1.00  0.00    -0.176 OA 
BRANCH   4   5
HETATM    5  C   UNL     1     -10.444   7.652  70.932  1.00  0.00    -0.206 A  
HETATM    6  C   UNL     1     -10.450   8.028  69.599  1.00  0.00    -0.224 A  
HETATM    7  C   UNL     1     -11.021   9.323  69.367  1.00  0.00    -0.138 A  
HETATM    8  C   UNL     1     -11.471   9.862  70.543  1.00  0.00    -0.318 A  
HETATM    9  C   UNL     1     -12.174  11.158  70.642  1.00  0.00    -0.492 C  
HETATM   10  S   UNL     1     -11.143   8.892  71.895  1.00  0.00    -0.351 SA 
HETATM   11  C   UNL     1     -11.941  12.009  69.379  1.00  0.00    -0.275 C  
HETATM   12  N   UNL     1     -11.616  11.390  68.071  1.00  0.00    -0.473 NA 
HETATM   13  C   UNL     1     -11.132   9.995  68.036  1.00  0.00    -0.201 C  
BRANCH  12  14
HETATM   14  C   UNL     1     -10.766  12.322  67.242  1.00  0.00    -0.231 C  
BRANCH  14  15
HETATM   15  C   UNL     1     -10.418  13.668  67.893  1.00  0.00    -0.249 A  
HETATM   16  F   UNL     1     -12.573  14.586  67.435  1.00  0.00    -0.276 F  
HETATM   17  C   UNL     1      -9.121  13.945  68.364  1.00  0.00    -0.184 A  
HETATM   18  C   UNL     1     -11.336  14.730  67.925  1.00  0.00    -0.316 A  
HETATM   19  C   UNL     1     -11.011  15.996  68.425  1.00  0.00    -0.331 A  
HETATM   20  C   UNL     1      -8.787  15.206  68.876  1.00  0.00    -0.205 A  
HETATM   21  C   UNL     1      -9.732  16.230  68.909  1.00  0.00    -0.248 A  
ENDBRANCH  14  15
BRANCH  14  22
HETATM   22  C   UNL     1     -11.373  12.453  65.816  1.00  0.00    -0.352 C  
HETATM   23  O   UNL     1     -12.575  12.550  65.579  1.00  0.00    -0.642 OA 
BRANCH  22  24
HETATM   24  C   UNL     1     -10.390  12.450  64.679  1.00  0.00    -0.332 C  
HETATM   25  C   UNL     1      -9.683  11.178  64.266  1.00  0.00    -0.315 C  
HETATM   26  C   UNL     1     -10.767  11.742  63.398  1.00  0.00    -0.468 C  
ENDBRANCH  22  24
ENDBRANCH  14  22
ENDBRANCH  12  14
ENDBRANCH   4   5
ENDBRANCH   2   4
TORSDOF 6
ENDMDL
MODEL       73
REMARK 921   NORMALIZED FREE ENERGY PREDICTED BY IDOCK:   -5.23 KCAL/MOL
REMARK 922        TOTAL FREE ENERGY PREDICTED BY IDOCK:   -7.75 KCAL/MOL
REMARK 923 INTER-LIGAND FREE ENERGY PREDICTED BY IDOCK:   -6.92 KCAL/MOL
REMARK 924 INTRA-LIGAND FREE ENERGY PREDICTED BY IDOCK:   -0.83 KCAL/MOL
REMARK 927      BINDING AFFINITY PREDICTED BY RF-SCORE:    0.00 PKD
ROOT
HETATM    1  C   UNL     1      -9.812   4.284  70.201  1.00  0.00    -0.271 C  
HETATM    2  C   UNL     1     -10.124   5.510  69.393  1.00  0.00    -0.236 C  
HETATM    3  O   UNL     1     -11.258   5.957  69.275  1.00  0.00    -0.363 OA 
ENDROOT
BRANCH   2   4
HETATM    4  O   UNL     1      -8.980   5.999  68.864  1.00  0.00    -0.123 OA 
BRANCH   4   5
HETATM    5  C   UNL     1      -8.993   7.137  68.179  1.00  0.00    -0.128 A  
HETATM    6  C   UNL     1      -9.004   8.460  68.590  1.00  0.00    -0.140 A  
HETATM    7  C   UNL     1      -9.082   9.399  67.509  1.00  0.00    -0.136 A  
HETATM    8  C   UNL     1      -9.082   8.743  66.306  1.00  0.00    -0.193 A  
HETATM    9  C   UNL     1      -9.085   9.423  64.995  1.00  0.00    -0.271 C  
HETATM   10  S   UNL     1      -9.077   7.055  66.464  1.00  0.00    -0.156 SA 
HETATM   11  C   UNL     1      -9.536  10.889  65.135  1.00  0.00    -0.227 C  
HETATM   12  N   UNL     1      -9.374  11.636  66.405  1.00  0.00    -0.208 NA 
HETATM   13  C   UNL     1      -9.140  10.886  67.657  1.00  0.00    -0.148 C  
BRANCH  12  14
HETATM   14  C   UNL     1     -10.455  12.680  66.547  1.00  0.00    -0.247 C  
BRANCH  14  15
HETATM   15  C   UNL     1      -9.985  14.141  66.496  1.00  0.00    -0.289 A  
HETATM   16  F   UNL     1     -12.013  14.887  65.482  1.00  0.00    -0.330 F  
HETATM   17  C   UNL     1      -8.682  14.510  66.879  1.00  0.00    -0.237 A  
HETATM   18  C   UNL     1     -10.784  15.153  65.940  1.00  0.00    -0.334 A  
HETATM   19  C   UNL     1     -10.342  16.473  65.795  1.00  0.00    -0.359 A  
HETATM   20  C   UNL     1      -8.231  15.830  66.748  1.00  0.00    -0.302 A  
HETATM   21  C   UNL     1      -9.061  16.812  66.208  1.00  0.00    -0.320 A  
ENDBRANCH  14  15
BRANCH  14  22
HETATM   22  C   UNL     1     -11.343  12.349  67.780  1.00  0.00    -0.299 C  
HETATM   23  O   UNL     1     -12.136  11.412  67.833  1.00  0.00    -0.646 OA 
BRANCH  22  24
HETATM   24  C   UNL     1     -11.195  13.265  68.962  1.00  0.00    -0.320 C  
HETATM   25  C   UNL     1     -12.211  14.354  69.234  1.00  0.00    -0.274 C  
HETATM   26  C   UNL     1     -12.175  13.134  70.105  1.00  0.00    -0.360 C  
ENDBRANCH  22  24
ENDBRANCH  14  22
ENDBRANCH  12  14
ENDBRANCH   4   5
ENDBRANCH   2   4
TORSDOF 6
ENDMDL
MODEL       74
REMARK 921   NORMALIZED FREE ENERGY PREDICTED BY IDOCK:   -5.19 KCAL/MOL
REMARK 922        TOTAL FREE ENERGY PREDICTED BY IDOCK:   -7.70 KCAL/MOL
REMARK 923 INTER-LIGAND FREE ENERGY PREDICTED BY IDOCK:   -6.66 KCAL/MOL
REMARK 924 INTRA-LIGAND FREE ENERGY PREDICTED BY IDOCK:   -1.04 KCAL/MOL
REMARK 927      BINDING AFFINITY PREDICTED BY RF-SCORE:    0.00 PKD
ROOT
HETATM    1  C   UNL     1     -14.075  14.849  71.580  1.00  0.00    -0.601 C  
HETATM    2  C   UNL     1     -12.622  15.114  71.313  1.00  0.00    -0.353 C  
HETATM    3  O   UNL     1     -11.773  15.107  72.195  1.00  0.00    -0.396 OA 
ENDROOT
BRANCH   2   4
HETATM    4  O   UNL     1     -12.444  15.337  69.992  1.00  0.00    -0.339 OA 
BRANCH   4   5
HETATM    5  C   UNL     1     -12.099  14.340  69.185  1.00  0.00    -0.302 A  
HETATM    6  C   UNL     1     -11.862  12.997  69.430  1.00  0.00    -0.380 A  
HETATM    7  C   UNL     1     -11.443  12.265  68.270  1.00  0.00    -0.367 A  
HETATM    8  C   UNL     1     -11.423  13.082  67.172  1.00  0.00    -0.331 A  
HETATM    9  C   UNL     1     -11.102  12.621  65.805  1.00  0.00    -0.332 C  
HETATM   10  S   UNL     1     -11.808  14.695  67.529  1.00  0.00    -0.277 SA 
HETATM   11  C   UNL     1     -10.373  11.265  65.838  1.00  0.00    -0.253 C  
HETATM   12  N   UNL     1     -10.540  10.318  66.966  1.00  0.00    -0.251 NA 
HETATM   13  C   UNL     1     -11.091  10.811  68.245  1.00  0.00    -0.271 C  
BRANCH  12  14
HETATM   14  C   UNL     1      -9.291   9.492  67.153  1.00  0.00    -0.143 C  
BRANCH  14  15
HETATM   15  C   UNL     1      -9.491   7.970  67.166  1.00  0.00    -0.207 A  
HETATM   16  F   UNL     1      -7.147   7.537  67.036  1.00  0.00    -0.074 F  
HETATM   17  C   UNL     1     -10.775   7.395  67.130  1.00  0.00    -0.400 A  
HETATM   18  C   UNL     1      -8.405   7.083  67.079  1.00  0.00    -0.121 A  
HETATM   19  C   UNL     1      -8.566   5.695  66.993  1.00  0.00    -0.109 A  
HETATM   20  C   UNL     1     -10.949   6.007  67.054  1.00  0.00    -0.364 A  
HETATM   21  C   UNL     1      -9.845   5.157  66.988  1.00  0.00    -0.197 A  
ENDBRANCH  14  15
BRANCH  14  22
HETATM   22  C   UNL     1      -8.485  10.029  68.370  1.00  0.00    -0.112 C  
HETATM   23  O   UNL     1      -8.631   9.638  69.526  1.00  0.00    -0.143 OA 
BRANCH  22  24
HETATM   24  C   UNL     1      -7.476  11.102  68.070  1.00  0.00    -0.094 C  
HETATM   25  C   UNL     1      -7.765  12.552  68.392  1.00  0.00    -0.136 C  
HETATM   26  C   UNL     1      -6.782  11.786  69.226  1.00  0.00    -0.110 C  
ENDBRANCH  22  24
ENDBRANCH  14  22
ENDBRANCH  12  14
ENDBRANCH   4   5
ENDBRANCH   2   4
TORSDOF 6
ENDMDL
MODEL       75
REMARK 921   NORMALIZED FREE ENERGY PREDICTED BY IDOCK:   -5.19 KCAL/MOL
REMARK 922        TOTAL FREE ENERGY PREDICTED BY IDOCK:   -7.69 KCAL/MOL
REMARK 923 INTER-LIGAND FREE ENERGY PREDICTED BY IDOCK:   -7.02 KCAL/MOL
REMARK 924 INTRA-LIGAND FREE ENERGY PREDICTED BY IDOCK:   -0.68 KCAL/MOL
REMARK 927      BINDING AFFINITY PREDICTED BY RF-SCORE:    0.00 PKD
ROOT
HETATM    1  C   UNL     1     -10.261   6.362  74.102  1.00  0.00    -0.361 C  
HETATM    2  C   UNL     1      -9.811   6.697  72.709  1.00  0.00    -0.169 C  
HETATM    3  O   UNL     1      -8.635   6.868  72.416  1.00  0.00    -0.122 OA 
ENDROOT
BRANCH   2   4
HETATM    4  O   UNL     1     -10.888   6.759  71.895  1.00  0.00    -0.225 OA 
BRANCH   4   5
HETATM    5  C   UNL     1     -11.140   7.863  71.201  1.00  0.00    -0.255 A  
HETATM    6  C   UNL     1     -10.888   8.200  69.881  1.00  0.00    -0.215 A  
HETATM    7  C   UNL     1     -11.270   9.541  69.545  1.00  0.00    -0.105 A  
HETATM    8  C   UNL     1     -11.843  10.158  70.625  1.00  0.00    -0.342 A  
HETATM    9  C   UNL     1     -12.407  11.523  70.592  1.00  0.00    -0.457 C  
HETATM   10  S   UNL     1     -11.847   9.198  72.022  1.00  0.00    -0.280 SA 
HETATM   11  C   UNL     1     -11.881  12.308  69.376  1.00  0.00    -0.310 C  
HETATM   12  N   UNL     1     -11.418  11.621  68.146  1.00  0.00    -0.291 NA 
HETATM   13  C   UNL     1     -11.089  10.182  68.206  1.00  0.00    -0.227 C  
BRANCH  12  14
HETATM   14  C   UNL     1     -10.348  12.434  67.458  1.00  0.00    -0.215 C  
BRANCH  14  15
HETATM   15  C   UNL     1     -10.836  13.393  66.363  1.00  0.00    -0.294 A  
HETATM   16  F   UNL     1      -9.000  14.885  66.681  1.00  0.00    -0.239 F  
HETATM   17  C   UNL     1     -12.067  13.199  65.709  1.00  0.00    -0.502 A  
HETATM   18  C   UNL     1     -10.145  14.577  66.060  1.00  0.00    -0.318 A  
HETATM   19  C   UNL     1     -10.620  15.515  65.135  1.00  0.00    -0.455 A  
HETATM   20  C   UNL     1     -12.548  14.125  64.774  1.00  0.00    -0.326 A  
HETATM   21  C   UNL     1     -11.824  15.282  64.486  1.00  0.00    -0.298 A  
ENDBRANCH  14  15
BRANCH  14  22
HETATM   22  C   UNL     1      -9.193  11.497  67.002  1.00  0.00    -0.176 C  
HETATM   23  O   UNL     1      -8.334  11.037  67.752  1.00  0.00    -0.115 OA 
BRANCH  22  24
HETATM   24  C   UNL     1      -9.157  11.161  65.537  1.00  0.00    -0.211 C  
HETATM   25  C   UNL     1      -8.196  10.123  65.001  1.00  0.00    -0.152 C  
HETATM   26  C   UNL     1      -9.658   9.805  65.094  1.00  0.00    -0.356 C  
ENDBRANCH  22  24
ENDBRANCH  14  22
ENDBRANCH  12  14
ENDBRANCH   4   5
ENDBRANCH   2   4
TORSDOF 6
ENDMDL
MODEL       76
REMARK 921   NORMALIZED FREE ENERGY PREDICTED BY IDOCK:   -5.18 KCAL/MOL
REMARK 922        TOTAL FREE ENERGY PREDICTED BY IDOCK:   -7.69 KCAL/MOL
REMARK 923 INTER-LIGAND FREE ENERGY PREDICTED BY IDOCK:   -7.16 KCAL/MOL
REMARK 924 INTRA-LIGAND FREE ENERGY PREDICTED BY IDOCK:   -0.53 KCAL/MOL
REMARK 927      BINDING AFFINITY PREDICTED BY RF-SCORE:    0.00 PKD
ROOT
HETATM    1  C   UNL     1      -8.693   5.407  64.936  1.00  0.00    -0.097 C  
HETATM    2  C   UNL     1      -9.668   5.336  66.075  1.00  0.00    -0.139 C  
HETATM    3  O   UNL     1     -10.758   4.786  65.981  1.00  0.00    -0.319 OA 
ENDROOT
BRANCH   2   4
HETATM    4  O   UNL     1      -9.137   5.948  67.157  1.00  0.00    -0.114 OA 
BRANCH   4   5
HETATM    5  C   UNL     1      -9.714   7.032  67.662  1.00  0.00    -0.136 A  
HETATM    6  C   UNL     1     -10.177   8.193  67.064  1.00  0.00    -0.378 A  
HETATM    7  C   UNL     1     -10.682   9.160  67.995  1.00  0.00    -0.205 A  
HETATM    8  C   UNL     1     -10.622   8.669  69.272  1.00  0.00    -0.192 A  
HETATM    9  C   UNL     1     -11.128   9.390  70.458  1.00  0.00    -0.330 C  
HETATM   10  S   UNL     1      -9.904   7.136  69.367  1.00  0.00    -0.163 SA 
HETATM   11  C   UNL     1     -11.303  10.890  70.159  1.00  0.00    -0.284 C  
HETATM   12  N   UNL     1     -11.534  11.388  68.781  1.00  0.00    -0.260 NA 
HETATM   13  C   UNL     1     -11.216  10.510  67.636  1.00  0.00    -0.265 C  
BRANCH  12  14
HETATM   14  C   UNL     1     -10.972  12.779  68.620  1.00  0.00    -0.260 C  
BRANCH  14  15
HETATM   15  C   UNL     1     -11.629  13.870  69.478  1.00  0.00    -0.358 A  
HETATM   16  F   UNL     1      -9.811  15.385  69.164  1.00  0.00    -0.193 F  
HETATM   17  C   UNL     1     -12.832  13.638  70.171  1.00  0.00     0.026 A  
HETATM   18  C   UNL     1     -10.994  15.099  69.721  1.00  0.00    -0.280 A  
HETATM   19  C   UNL     1     -11.527  16.070  70.576  1.00  0.00    -0.409 A  
HETATM   20  C   UNL     1     -13.380  14.606  71.022  1.00  0.00    -0.410 A  
HETATM   21  C   UNL     1     -12.729  15.823  71.223  1.00  0.00    -0.498 A  
ENDBRANCH  14  15
BRANCH  14  22
HETATM   22  C   UNL     1     -10.887  13.137  67.109  1.00  0.00    -0.257 C  
HETATM   23  O   UNL     1      -9.861  13.071  66.437  1.00  0.00    -0.259 OA 
BRANCH  22  24
HETATM   24  C   UNL     1     -12.167  13.597  66.468  1.00  0.00    -0.454 C  
HETATM   25  C   UNL     1     -12.150  14.384  65.176  1.00  0.00    -0.395 C  
HETATM   26  C   UNL     1     -12.597  12.953  65.170  1.00  0.00    -0.536 C  
ENDBRANCH  22  24
ENDBRANCH  14  22
ENDBRANCH  12  14
ENDBRANCH   4   5
ENDBRANCH   2   4
TORSDOF 6
ENDMDL
MODEL       77
REMARK 921   NORMALIZED FREE ENERGY PREDICTED BY IDOCK:   -5.18 KCAL/MOL
REMARK 922        TOTAL FREE ENERGY PREDICTED BY IDOCK:   -7.68 KCAL/MOL
REMARK 923 INTER-LIGAND FREE ENERGY PREDICTED BY IDOCK:   -7.32 KCAL/MOL
REMARK 924 INTRA-LIGAND FREE ENERGY PREDICTED BY IDOCK:   -0.37 KCAL/MOL
REMARK 927      BINDING AFFINITY PREDICTED BY RF-SCORE:    0.00 PKD
ROOT
HETATM    1  C   UNL     1      -8.607   5.640  65.100  1.00  0.00    -0.130 C  
HETATM    2  C   UNL     1      -9.559   5.296  66.209  1.00  0.00    -0.161 C  
HETATM    3  O   UNL     1     -10.588   4.658  66.026  1.00  0.00    -0.302 OA 
ENDROOT
BRANCH   2   4
HETATM    4  O   UNL     1      -9.084   5.787  67.375  1.00  0.00    -0.112 OA 
BRANCH   4   5
HETATM    5  C   UNL     1      -9.286   7.059  67.697  1.00  0.00    -0.122 A  
HETATM    6  C   UNL     1     -10.449   7.799  67.840  1.00  0.00    -0.263 A  
HETATM    7  C   UNL     1     -10.219   9.182  68.142  1.00  0.00    -0.249 A  
HETATM    8  C   UNL     1      -8.876   9.427  68.261  1.00  0.00    -0.128 A  
HETATM    9  C   UNL     1      -8.306  10.738  68.634  1.00  0.00    -0.141 C  
HETATM   10  S   UNL     1      -7.916   8.068  67.936  1.00  0.00    -0.129 SA 
HETATM   11  C   UNL     1      -9.336  11.865  68.431  1.00  0.00    -0.184 C  
HETATM   12  N   UNL     1     -10.795  11.604  68.472  1.00  0.00    -0.207 NA 
HETATM   13  C   UNL     1     -11.283  10.218  68.320  1.00  0.00    -0.232 C  
BRANCH  12  14
HETATM   14  C   UNL     1     -11.532  12.579  67.586  1.00  0.00    -0.334 C  
BRANCH  14  15
HETATM   15  C   UNL     1     -11.365  12.369  66.075  1.00  0.00    -0.397 A  
HETATM   16  F   UNL     1     -13.285  13.688  65.554  1.00  0.00    -0.495 F  
HETATM   17  C   UNL     1     -10.378  11.510  65.555  1.00  0.00    -0.322 A  
HETATM   18  C   UNL     1     -12.270  12.915  65.150  1.00  0.00    -0.470 A  
HETATM   19  C   UNL     1     -12.195  12.659  63.776  1.00  0.00    -0.600 A  
HETATM   20  C   UNL     1     -10.287  11.255  64.180  1.00  0.00    -0.410 A  
HETATM   21  C   UNL     1     -11.194  11.830  63.291  1.00  0.00    -0.357 A  
ENDBRANCH  14  15
BRANCH  14  22
HETATM   22  C   UNL     1     -11.239  14.034  68.053  1.00  0.00    -0.279 C  
HETATM   23  O   UNL     1     -10.375  14.759  67.565  1.00  0.00    -0.237 OA 
BRANCH  22  24
HETATM   24  C   UNL     1     -12.087  14.546  69.183  1.00  0.00    -0.299 C  
HETATM   25  C   UNL     1     -12.248  13.747  70.457  1.00  0.00    -0.440 C  
HETATM   26  C   UNL     1     -11.404  14.986  70.458  1.00  0.00    -0.316 C  
ENDBRANCH  22  24
ENDBRANCH  14  22
ENDBRANCH  12  14
ENDBRANCH   4   5
ENDBRANCH   2   4
TORSDOF 6
ENDMDL
MODEL       78
REMARK 921   NORMALIZED FREE ENERGY PREDICTED BY IDOCK:   -5.17 KCAL/MOL
REMARK 922        TOTAL FREE ENERGY PREDICTED BY IDOCK:   -7.66 KCAL/MOL
REMARK 923 INTER-LIGAND FREE ENERGY PREDICTED BY IDOCK:   -6.94 KCAL/MOL
REMARK 924 INTRA-LIGAND FREE ENERGY PREDICTED BY IDOCK:   -0.72 KCAL/MOL
REMARK 927      BINDING AFFINITY PREDICTED BY RF-SCORE:    0.00 PKD
ROOT
HETATM    1  C   UNL     1     -13.653  13.545  72.350  1.00  0.00    -0.709 C  
HETATM    2  C   UNL     1     -13.458  14.628  71.329  1.00  0.00    -0.386 C  
HETATM    3  O   UNL     1     -14.310  15.473  71.087  1.00  0.00    -0.516 OA 
ENDROOT
BRANCH   2   4
HETATM    4  O   UNL     1     -12.233  14.502  70.772  1.00  0.00    -0.289 OA 
BRANCH   4   5
HETATM    5  C   UNL     1     -12.029  13.627  69.794  1.00  0.00    -0.341 A  
HETATM    6  C   UNL     1     -11.841  12.255  69.810  1.00  0.00    -0.388 A  
HETATM    7  C   UNL     1     -11.586  11.692  68.516  1.00  0.00    -0.379 A  
HETATM    8  C   UNL     1     -11.636  12.667  67.554  1.00  0.00    -0.359 A  
HETATM    9  C   UNL     1     -11.484  12.408  66.108  1.00  0.00    -0.430 C  
HETATM   10  S   UNL     1     -11.892  14.219  68.186  1.00  0.00    -0.317 SA 
HETATM   11  C   UNL     1     -10.831  11.035  65.859  1.00  0.00    -0.115 C  
HETATM   12  N   UNL     1     -10.931   9.934  66.847  1.00  0.00    -0.068 NA 
HETATM   13  C   UNL     1     -11.319  10.247  68.237  1.00  0.00    -0.177 C  
BRANCH  12  14
HETATM   14  C   UNL     1      -9.716   9.042  66.769  1.00  0.00    -0.216 C  
BRANCH  14  15
HETATM   15  C   UNL     1      -9.668   7.887  67.780  1.00  0.00    -0.189 A  
HETATM   16  F   UNL     1     -11.481   6.736  66.737  1.00  0.00    -0.460 F  
HETATM   17  C   UNL     1      -8.805   7.917  68.891  1.00  0.00    -0.142 A  
HETATM   18  C   UNL     1     -10.574   6.816  67.718  1.00  0.00    -0.249 A  
HETATM   19  C   UNL     1     -10.613   5.801  68.682  1.00  0.00    -0.305 A  
HETATM   20  C   UNL     1      -8.828   6.902  69.857  1.00  0.00    -0.142 A  
HETATM   21  C   UNL     1      -9.730   5.844  69.752  1.00  0.00    -0.202 A  
ENDBRANCH  14  15
BRANCH  14  22
HETATM   22  C   UNL     1      -8.427   9.913  66.751  1.00  0.00    -0.125 C  
HETATM   23  O   UNL     1      -8.135  10.737  67.614  1.00  0.00    -0.113 OA 
BRANCH  22  24
HETATM   24  C   UNL     1      -7.510   9.707  65.579  1.00  0.00    -0.106 C  
HETATM   25  C   UNL     1      -7.069   8.317  65.173  1.00  0.00    -0.075 C  
HETATM   26  C   UNL     1      -8.065   9.057  64.332  1.00  0.00    -0.146 C  
ENDBRANCH  22  24
ENDBRANCH  14  22
ENDBRANCH  12  14
ENDBRANCH   4   5
ENDBRANCH   2   4
TORSDOF 6
ENDMDL
MODEL       79
REMARK 921   NORMALIZED FREE ENERGY PREDICTED BY IDOCK:   -5.16 KCAL/MOL
REMARK 922        TOTAL FREE ENERGY PREDICTED BY IDOCK:   -7.65 KCAL/MOL
REMARK 923 INTER-LIGAND FREE ENERGY PREDICTED BY IDOCK:   -6.79 KCAL/MOL
REMARK 924 INTRA-LIGAND FREE ENERGY PREDICTED BY IDOCK:   -0.86 KCAL/MOL
REMARK 927      BINDING AFFINITY PREDICTED BY RF-SCORE:    0.00 PKD
ROOT
HETATM    1  C   UNL     1      -8.962   7.406  73.842  1.00  0.00    -0.281 C  
HETATM    2  C   UNL     1      -9.043   6.716  72.511  1.00  0.00    -0.134 C  
HETATM    3  O   UNL     1      -8.089   6.140  72.004  1.00  0.00    -0.109 OA 
ENDROOT
BRANCH   2   4
HETATM    4  O   UNL     1     -10.296   6.837  72.021  1.00  0.00    -0.196 OA 
BRANCH   4   5
HETATM    5  C   UNL     1     -10.589   7.812  71.168  1.00  0.00    -0.217 A  
HETATM    6  C   UNL     1     -10.244   8.011  69.841  1.00  0.00    -0.204 A  
HETATM    7  C   UNL     1     -10.725   9.248  69.298  1.00  0.00    -0.211 A  
HETATM    8  C   UNL     1     -11.460   9.925  70.234  1.00  0.00    -0.281 A  
HETATM    9  C   UNL     1     -12.154  11.204  69.973  1.00  0.00    -0.437 C  
HETATM   10  S   UNL     1     -11.505   9.150  71.742  1.00  0.00    -0.362 SA 
HETATM   11  C   UNL     1     -11.592  11.887  68.712  1.00  0.00    -0.309 C  
HETATM   12  N   UNL     1     -10.943  11.111  67.628  1.00  0.00    -0.249 NA 
HETATM   13  C   UNL     1     -10.479   9.736  67.906  1.00  0.00    -0.239 C  
BRANCH  12  14
HETATM   14  C   UNL     1      -9.898  11.948  66.931  1.00  0.00    -0.202 C  
BRANCH  14  15
HETATM   15  C   UNL     1     -10.416  13.197  66.206  1.00  0.00    -0.291 A  
HETATM   16  F   UNL     1     -12.241  12.018  65.217  1.00  0.00    -0.418 F  
HETATM   17  C   UNL     1      -9.709  14.414  66.237  1.00  0.00    -0.330 A  
HETATM   18  C   UNL     1     -11.543  13.150  65.368  1.00  0.00    -0.333 A  
HETATM   19  C   UNL     1     -11.978  14.251  64.621  1.00  0.00    -0.468 A  
HETATM   20  C   UNL     1     -10.140  15.526  65.502  1.00  0.00    -0.406 A  
HETATM   21  C   UNL     1     -11.275  15.445  64.696  1.00  0.00    -0.374 A  
ENDBRANCH  14  15
BRANCH  14  22
HETATM   22  C   UNL     1      -9.003  11.034  66.045  1.00  0.00    -0.197 C  
HETATM   23  O   UNL     1      -9.409  10.391  65.079  1.00  0.00    -0.190 OA 
BRANCH  22  24
HETATM   24  C   UNL     1      -7.554  10.957  66.433  1.00  0.00    -0.146 C  
HETATM   25  C   UNL     1      -6.887  12.094  67.177  1.00  0.00    -0.119 C  
HETATM   26  C   UNL     1      -7.204  10.818  67.898  1.00  0.00    -0.087 C  
ENDBRANCH  22  24
ENDBRANCH  14  22
ENDBRANCH  12  14
ENDBRANCH   4   5
ENDBRANCH   2   4
TORSDOF 6
ENDMDL
MODEL       80
REMARK 921   NORMALIZED FREE ENERGY PREDICTED BY IDOCK:   -5.15 KCAL/MOL
REMARK 922        TOTAL FREE ENERGY PREDICTED BY IDOCK:   -7.64 KCAL/MOL
REMARK 923 INTER-LIGAND FREE ENERGY PREDICTED BY IDOCK:   -6.90 KCAL/MOL
REMARK 924 INTRA-LIGAND FREE ENERGY PREDICTED BY IDOCK:   -0.74 KCAL/MOL
REMARK 927      BINDING AFFINITY PREDICTED BY RF-SCORE:    0.00 PKD
ROOT
HETATM    1  C   UNL     1     -11.994  12.584  63.421  1.00  0.00    -0.602 C  
HETATM    2  C   UNL     1     -10.540  12.484  63.780  1.00  0.00    -0.436 C  
HETATM    3  O   UNL     1      -9.731  11.863  63.103  1.00  0.00    -0.380 OA 
ENDROOT
BRANCH   2   4
HETATM    4  O   UNL     1     -10.311  13.178  64.917  1.00  0.00    -0.323 OA 
BRANCH   4   5
HETATM    5  C   UNL     1     -10.320  12.559  66.092  1.00  0.00    -0.253 A  
HETATM    6  C   UNL     1      -9.345  11.832  66.757  1.00  0.00    -0.199 A  
HETATM    7  C   UNL     1      -9.793  11.268  67.997  1.00  0.00    -0.186 A  
HETATM    8  C   UNL     1     -11.090  11.631  68.246  1.00  0.00    -0.234 A  
HETATM    9  C   UNL     1     -11.827  11.271  69.475  1.00  0.00    -0.427 C  
HETATM   10  S   UNL     1     -11.781  12.545  66.996  1.00  0.00    -0.326 SA 
HETATM   11  C   UNL     1     -11.144  10.100  70.204  1.00  0.00    -0.315 C  
HETATM   12  N   UNL     1      -9.695   9.824  70.050  1.00  0.00    -0.243 NA 
HETATM   13  C   UNL     1      -8.967  10.416  68.908  1.00  0.00    -0.169 C  
BRANCH  12  14
HETATM   14  C   UNL     1      -9.417   8.350  70.214  1.00  0.00    -0.164 C  
BRANCH  14  15
HETATM   15  C   UNL     1      -9.608   7.488  68.958  1.00  0.00    -0.153 A  
HETATM   16  F   UNL     1      -7.401   6.588  69.091  1.00  0.00    -0.081 F  
HETATM   17  C   UNL     1     -10.775   7.572  68.177  1.00  0.00    -0.145 A  
HETATM   18  C   UNL     1      -8.575   6.679  68.456  1.00  0.00    -0.124 A  
HETATM   19  C   UNL     1      -8.691   5.959  67.261  1.00  0.00    -0.108 A  
HETATM   20  C   UNL     1     -10.907   6.849  66.984  1.00  0.00    -0.436 A  
HETATM   21  C   UNL     1      -9.866   6.041  66.528  1.00  0.00    -0.186 A  
ENDBRANCH  14  15
BRANCH  14  22
HETATM   22  C   UNL     1     -10.171   7.812  71.464  1.00  0.00    -0.182 C  
HETATM   23  O   UNL     1     -10.160   8.353  72.568  1.00  0.00    -0.295 OA 
BRANCH  22  24
HETATM   24  C   UNL     1     -10.948   6.541  71.268  1.00  0.00    -0.309 C  
HETATM   25  C   UNL     1     -10.366   5.203  71.670  1.00  0.00    -0.274 C  
HETATM   26  C   UNL     1     -11.465   5.813  72.488  1.00  0.00    -0.349 C  
ENDBRANCH  22  24
ENDBRANCH  14  22
ENDBRANCH  12  14
ENDBRANCH   4   5
ENDBRANCH   2   4
TORSDOF 6
ENDMDL
MODEL       81
REMARK 921   NORMALIZED FREE ENERGY PREDICTED BY IDOCK:   -5.15 KCAL/MOL
REMARK 922        TOTAL FREE ENERGY PREDICTED BY IDOCK:   -7.64 KCAL/MOL
REMARK 923 INTER-LIGAND FREE ENERGY PREDICTED BY IDOCK:   -6.89 KCAL/MOL
REMARK 924 INTRA-LIGAND FREE ENERGY PREDICTED BY IDOCK:   -0.75 KCAL/MOL
REMARK 927      BINDING AFFINITY PREDICTED BY RF-SCORE:    0.00 PKD
ROOT
HETATM    1  C   UNL     1      -7.294   4.741  66.309  1.00  0.00    -0.078 C  
HETATM    2  C   UNL     1      -8.250   5.796  65.831  1.00  0.00    -0.121 C  
HETATM    3  O   UNL     1      -8.281   6.186  64.670  1.00  0.00    -0.133 OA 
ENDROOT
BRANCH   2   4
HETATM    4  O   UNL     1      -9.025   6.197  66.862  1.00  0.00    -0.115 OA 
BRANCH   4   5
HETATM    5  C   UNL     1      -9.153   7.490  67.141  1.00  0.00    -0.127 A  
HETATM    6  C   UNL     1     -10.143   8.406  66.827  1.00  0.00    -0.373 A  
HETATM    7  C   UNL     1      -9.857   9.739  67.273  1.00  0.00    -0.228 A  
HETATM    8  C   UNL     1      -8.668   9.770  67.952  1.00  0.00    -0.125 A  
HETATM    9  C   UNL     1      -8.119  10.979  68.600  1.00  0.00    -0.149 C  
HETATM   10  S   UNL     1      -7.875   8.272  67.983  1.00  0.00    -0.120 SA 
HETATM   11  C   UNL     1      -8.788  12.252  68.049  1.00  0.00    -0.182 C  
HETATM   12  N   UNL     1     -10.151  12.226  67.465  1.00  0.00    -0.199 NA 
HETATM   13  C   UNL     1     -10.731  10.932  67.049  1.00  0.00    -0.271 C  
BRANCH  12  14
HETATM   14  C   UNL     1     -10.294  13.294  66.408  1.00  0.00    -0.286 C  
BRANCH  14  15
HETATM   15  C   UNL     1     -10.184  14.743  66.902  1.00  0.00    -0.257 A  
HETATM   16  F   UNL     1     -11.933  14.461  68.501  1.00  0.00    -0.335 F  
HETATM   17  C   UNL     1      -9.324  15.670  66.283  1.00  0.00    -0.358 A  
HETATM   18  C   UNL     1     -11.032  15.247  67.902  1.00  0.00    -0.306 A  
HETATM   19  C   UNL     1     -11.017  16.589  68.302  1.00  0.00    -0.346 A  
HETATM   20  C   UNL     1      -9.293  17.013  66.681  1.00  0.00    -0.274 A  
HETATM   21  C   UNL     1     -10.137  17.472  67.691  1.00  0.00    -0.328 A  
ENDBRANCH  14  15
BRANCH  14  22
HETATM   22  C   UNL     1     -11.564  13.017  65.554  1.00  0.00    -0.347 C  
HETATM   23  O   UNL     1     -12.693  12.867  66.017  1.00  0.00    -0.373 OA 
BRANCH  22  24
HETATM   24  C   UNL     1     -11.353  12.930  64.069  1.00  0.00    -0.466 C  
HETATM   25  C   UNL     1     -10.947  11.625  63.417  1.00  0.00    -0.442 C  
HETATM   26  C   UNL     1     -12.344  12.142  63.242  1.00  0.00    -0.547 C  
ENDBRANCH  22  24
ENDBRANCH  14  22
ENDBRANCH  12  14
ENDBRANCH   4   5
ENDBRANCH   2   4
TORSDOF 6
ENDMDL
MODEL       82
REMARK 921   NORMALIZED FREE ENERGY PREDICTED BY IDOCK:   -5.14 KCAL/MOL
REMARK 922        TOTAL FREE ENERGY PREDICTED BY IDOCK:   -7.62 KCAL/MOL
REMARK 923 INTER-LIGAND FREE ENERGY PREDICTED BY IDOCK:   -6.69 KCAL/MOL
REMARK 924 INTRA-LIGAND FREE ENERGY PREDICTED BY IDOCK:   -0.93 KCAL/MOL
REMARK 927      BINDING AFFINITY PREDICTED BY RF-SCORE:    0.00 PKD
ROOT
HETATM    1  C   UNL     1     -11.633   6.203  71.750  1.00  0.00    -0.333 C  
HETATM    2  C   UNL     1     -10.542   6.365  70.731  1.00  0.00    -0.238 C  
HETATM    3  O   UNL     1      -9.374   6.075  70.958  1.00  0.00    -0.159 OA 
ENDROOT
BRANCH   2   4
HETATM    4  O   UNL     1     -11.069   6.851  69.585  1.00  0.00    -0.266 OA 
BRANCH   4   5
HETATM    5  C   UNL     1     -10.570   7.952  69.034  1.00  0.00    -0.162 A  
HETATM    6  C   UNL     1     -10.212   9.175  69.578  1.00  0.00    -0.208 A  
HETATM    7  C   UNL     1      -9.766  10.131  68.607  1.00  0.00    -0.167 A  
HETATM    8  C   UNL     1      -9.763   9.572  67.356  1.00  0.00    -0.157 A  
HETATM    9  C   UNL     1      -9.292  10.270  66.142  1.00  0.00    -0.211 C  
HETATM   10  S   UNL     1     -10.355   7.984  67.329  1.00  0.00    -0.316 SA 
HETATM   11  C   UNL     1      -9.241  11.793  66.366  1.00  0.00    -0.217 C  
HETATM   12  N   UNL     1      -9.077  12.377  67.719  1.00  0.00    -0.185 NA 
HETATM   13  C   UNL     1      -9.347  11.535  68.904  1.00  0.00     0.007 C  
BRANCH  12  14
HETATM   14  C   UNL     1      -9.750  13.725  67.799  1.00  0.00    -0.230 C  
BRANCH  14  15
HETATM   15  C   UNL     1     -10.724  14.056  66.660  1.00  0.00    -0.281 A  
HETATM   16  F   UNL     1     -12.257  12.346  67.308  1.00  0.00    -0.381 F  
HETATM   17  C   UNL     1     -10.410  15.014  65.678  1.00  0.00    -0.374 A  
HETATM   18  C   UNL     1     -11.907  13.326  66.467  1.00  0.00    -0.398 A  
HETATM   19  C   UNL     1     -12.763  13.545  65.381  1.00  0.00    -0.495 A  
HETATM   20  C   UNL     1     -11.263  15.249  64.591  1.00  0.00    -0.366 A  
HETATM   21  C   UNL     1     -12.441  14.516  64.444  1.00  0.00    -0.335 A  
ENDBRANCH  14  15
BRANCH  14  22
HETATM   22  C   UNL     1      -8.682  14.828  68.052  1.00  0.00    -0.168 C  
HETATM   23  O   UNL     1      -7.615  14.912  67.447  1.00  0.00    -0.181 OA 
BRANCH  22  24
HETATM   24  C   UNL     1      -9.013  15.834  69.118  1.00  0.00    -0.256 C  
HETATM   25  C   UNL     1     -10.102  16.863  68.904  1.00  0.00    -0.297 C  
HETATM   26  C   UNL     1     -10.337  15.714  69.838  1.00  0.00    -0.322 C  
ENDBRANCH  22  24
ENDBRANCH  14  22
ENDBRANCH  12  14
ENDBRANCH   4   5
ENDBRANCH   2   4
TORSDOF 6
ENDMDL
MODEL       83
REMARK 921   NORMALIZED FREE ENERGY PREDICTED BY IDOCK:   -5.13 KCAL/MOL
REMARK 922        TOTAL FREE ENERGY PREDICTED BY IDOCK:   -7.61 KCAL/MOL
REMARK 923 INTER-LIGAND FREE ENERGY PREDICTED BY IDOCK:   -7.11 KCAL/MOL
REMARK 924 INTRA-LIGAND FREE ENERGY PREDICTED BY IDOCK:   -0.50 KCAL/MOL
REMARK 927      BINDING AFFINITY PREDICTED BY RF-SCORE:    0.00 PKD
ROOT
HETATM    1  C   UNL     1     -13.968  15.472  72.534  1.00  0.00    -0.646 C  
HETATM    2  C   UNL     1     -12.624  15.301  71.888  1.00  0.00    -0.353 C  
HETATM    3  O   UNL     1     -11.572  15.417  72.504  1.00  0.00    -0.446 OA 
ENDROOT
BRANCH   2   4
HETATM    4  O   UNL     1     -12.791  15.003  70.580  1.00  0.00    -0.355 OA 
BRANCH   4   5
HETATM    5  C   UNL     1     -12.386  13.831  70.104  1.00  0.00    -0.323 A  
HETATM    6  C   UNL     1     -12.196  12.603  70.717  1.00  0.00    -0.331 A  
HETATM    7  C   UNL     1     -11.679  11.594  69.840  1.00  0.00    -0.414 A  
HETATM    8  C   UNL     1     -11.537  12.092  68.572  1.00  0.00    -0.309 A  
HETATM    9  C   UNL     1     -11.091  11.288  67.415  1.00  0.00    -0.358 C  
HETATM   10  S   UNL     1     -11.927  13.737  68.450  1.00  0.00    -0.304 SA 
HETATM   11  C   UNL     1     -10.392   9.996  67.877  1.00  0.00    -0.207 C  
HETATM   12  N   UNL     1     -10.685   9.380  69.193  1.00  0.00    -0.219 NA 
HETATM   13  C   UNL     1     -11.351  10.189  70.235  1.00  0.00    -0.315 C  
BRANCH  12  14
HETATM   14  C   UNL     1      -9.474   8.644  69.714  1.00  0.00    -0.166 C  
BRANCH  14  15
HETATM   15  C   UNL     1      -9.035   7.418  68.902  1.00  0.00    -0.130 A  
HETATM   16  F   UNL     1     -11.283   6.699  68.542  1.00  0.00    -0.285 F  
HETATM   17  C   UNL     1      -7.677   7.080  68.752  1.00  0.00    -0.110 A  
HETATM   18  C   UNL     1      -9.968   6.502  68.388  1.00  0.00    -0.141 A  
HETATM   19  C   UNL     1      -9.591   5.327  67.728  1.00  0.00    -0.157 A  
HETATM   20  C   UNL     1      -7.287   5.912  68.085  1.00  0.00    -0.081 A  
HETATM   21  C   UNL     1      -8.243   5.036  67.572  1.00  0.00    -0.106 A  
ENDBRANCH  14  15
BRANCH  14  22
HETATM   22  C   UNL     1      -9.648   8.361  71.234  1.00  0.00    -0.185 C  
HETATM   23  O   UNL     1      -9.268   9.113  72.128  1.00  0.00    -0.302 OA 
BRANCH  22  24
HETATM   24  C   UNL     1     -10.327   7.068  71.589  1.00  0.00    -0.216 C  
HETATM   25  C   UNL     1     -10.854   6.825  72.986  1.00  0.00    -0.314 C  
HETATM   26  C   UNL     1     -11.813   7.083  71.863  1.00  0.00    -0.341 C  
ENDBRANCH  22  24
ENDBRANCH  14  22
ENDBRANCH  12  14
ENDBRANCH   4   5
ENDBRANCH   2   4
TORSDOF 6
ENDMDL
MODEL       84
REMARK 921   NORMALIZED FREE ENERGY PREDICTED BY IDOCK:   -5.09 KCAL/MOL
REMARK 922        TOTAL FREE ENERGY PREDICTED BY IDOCK:   -7.57 KCAL/MOL
REMARK 923 INTER-LIGAND FREE ENERGY PREDICTED BY IDOCK:   -6.63 KCAL/MOL
REMARK 924 INTRA-LIGAND FREE ENERGY PREDICTED BY IDOCK:   -0.94 KCAL/MOL
REMARK 927      BINDING AFFINITY PREDICTED BY RF-SCORE:    0.00 PKD
ROOT
HETATM    1  C   UNL     1     -11.390   5.812  72.354  1.00  0.00    -0.348 C  
HETATM    2  C   UNL     1     -11.100   7.238  71.983  1.00  0.00    -0.244 C  
HETATM    3  O   UNL     1     -11.824   8.169  72.311  1.00  0.00    -0.335 OA 
ENDROOT
BRANCH   2   4
HETATM    4  O   UNL     1      -9.952   7.289  71.271  1.00  0.00    -0.188 OA 
BRANCH   4   5
HETATM    5  C   UNL     1      -9.830   8.141  70.260  1.00  0.00    -0.184 A  
HETATM    6  C   UNL     1      -9.493   9.485  70.222  1.00  0.00    -0.307 A  
HETATM    7  C   UNL     1      -9.539  10.054  68.906  1.00  0.00    -0.181 A  
HETATM    8  C   UNL     1      -9.869   9.097  67.984  1.00  0.00    -0.168 A  
HETATM    9  C   UNL     1      -9.933   9.340  66.528  1.00  0.00    -0.344 C  
HETATM   10  S   UNL     1     -10.199   7.584  68.676  1.00  0.00    -0.199 SA 
HETATM   11  C   UNL     1     -10.033  10.847  66.225  1.00  0.00    -0.227 C  
HETATM   12  N   UNL     1      -9.516  11.867  67.169  1.00  0.00    -0.175 NA 
HETATM   13  C   UNL     1      -9.254  11.483  68.571  1.00  0.00    -0.167 C  
BRANCH  12  14
HETATM   14  C   UNL     1     -10.313  13.144  67.056  1.00  0.00    -0.249 C  
BRANCH  14  15
HETATM   15  C   UNL     1      -9.494  14.441  66.988  1.00  0.00    -0.255 A  
HETATM   16  F   UNL     1     -11.277  15.659  65.970  1.00  0.00    -0.301 F  
HETATM   17  C   UNL     1      -8.138  14.476  67.364  1.00  0.00    -0.219 A  
HETATM   18  C   UNL     1     -10.018  15.614  66.422  1.00  0.00    -0.281 A  
HETATM   19  C   UNL     1      -9.260  16.781  66.261  1.00  0.00    -0.313 A  
HETATM   20  C   UNL     1      -7.372  15.640  67.216  1.00  0.00    -0.255 A  
HETATM   21  C   UNL     1      -7.934  16.793  66.667  1.00  0.00    -0.306 A  
ENDBRANCH  14  15
BRANCH  14  22
HETATM   22  C   UNL     1     -11.428  13.163  68.142  1.00  0.00    -0.314 C  
HETATM   23  O   UNL     1     -12.463  12.504  68.084  1.00  0.00    -0.011 OA 
BRANCH  22  24
HETATM   24  C   UNL     1     -11.185  14.065  69.318  1.00  0.00    -0.304 C  
HETATM   25  C   UNL     1     -12.068  15.268  69.571  1.00  0.00    -0.320 C  
HETATM   26  C   UNL     1     -12.185  14.060  70.452  1.00  0.00    -0.433 C  
ENDBRANCH  22  24
ENDBRANCH  14  22
ENDBRANCH  12  14
ENDBRANCH   4   5
ENDBRANCH   2   4
TORSDOF 6
ENDMDL
MODEL       85
REMARK 921   NORMALIZED FREE ENERGY PREDICTED BY IDOCK:   -5.09 KCAL/MOL
REMARK 922        TOTAL FREE ENERGY PREDICTED BY IDOCK:   -7.56 KCAL/MOL
REMARK 923 INTER-LIGAND FREE ENERGY PREDICTED BY IDOCK:   -6.70 KCAL/MOL
REMARK 924 INTRA-LIGAND FREE ENERGY PREDICTED BY IDOCK:   -0.86 KCAL/MOL
REMARK 927      BINDING AFFINITY PREDICTED BY RF-SCORE:    0.00 PKD
ROOT
HETATM    1  C   UNL     1      -8.116   4.528  64.403  1.00  0.00    -0.099 C  
HETATM    2  C   UNL     1      -8.313   5.635  65.399  1.00  0.00    -0.144 C  
HETATM    3  O   UNL     1      -8.493   5.429  66.592  1.00  0.00    -0.108 OA 
ENDROOT
BRANCH   2   4
HETATM    4  O   UNL     1      -8.247   6.825  64.762  1.00  0.00    -0.121 OA 
BRANCH   4   5
HETATM    5  C   UNL     1      -8.355   7.957  65.448  1.00  0.00    -0.140 A  
HETATM    6  C   UNL     1      -9.456   8.619  65.966  1.00  0.00    -0.278 A  
HETATM    7  C   UNL     1      -9.135   9.868  66.595  1.00  0.00    -0.171 A  
HETATM    8  C   UNL     1      -7.783  10.082  66.567  1.00  0.00    -0.105 A  
HETATM    9  C   UNL     1      -7.118  11.244  67.192  1.00  0.00    -0.125 C  
HETATM   10  S   UNL     1      -6.929   8.873  65.739  1.00  0.00    -0.081 SA 
HETATM   11  C   UNL     1      -8.127  12.374  67.467  1.00  0.00    -0.173 C  
HETATM   12  N   UNL     1      -9.571  12.100  67.660  1.00  0.00    -0.185 NA 
HETATM   13  C   UNL     1     -10.124  10.805  67.212  1.00  0.00    -0.196 C  
BRANCH  12  14
HETATM   14  C   UNL     1     -10.399  13.275  67.200  1.00  0.00    -0.248 C  
BRANCH  14  15
HETATM   15  C   UNL     1     -11.177  14.016  68.296  1.00  0.00    -0.293 A  
HETATM   16  F   UNL     1     -10.999  16.116  67.174  1.00  0.00    -0.319 F  
HETATM   17  C   UNL     1     -11.577  13.371  69.481  1.00  0.00    -0.352 A  
HETATM   18  C   UNL     1     -11.405  15.400  68.230  1.00  0.00    -0.348 A  
HETATM   19  C   UNL     1     -12.026  16.116  69.261  1.00  0.00    -0.086 A  
HETATM   20  C   UNL     1     -12.208  14.073  70.516  1.00  0.00    -0.435 A  
HETATM   21  C   UNL     1     -12.435  15.445  70.405  1.00  0.00    -0.447 A  
ENDBRANCH  14  15
BRANCH  14  22
HETATM   22  C   UNL     1     -11.276  12.853  65.985  1.00  0.00    -0.293 C  
HETATM   23  O   UNL     1     -12.384  12.330  66.078  1.00  0.00    -0.609 OA 
BRANCH  22  24
HETATM   24  C   UNL     1     -10.689  13.116  64.627  1.00  0.00    -0.398 C  
HETATM   25  C   UNL     1     -10.228  11.975  63.747  1.00  0.00    -0.447 C  
HETATM   26  C   UNL     1     -11.486  12.717  63.406  1.00  0.00    -0.499 C  
ENDBRANCH  22  24
ENDBRANCH  14  22
ENDBRANCH  12  14
ENDBRANCH   4   5
ENDBRANCH   2   4
TORSDOF 6
ENDMDL
MODEL       86
REMARK 921   NORMALIZED FREE ENERGY PREDICTED BY IDOCK:   -5.06 KCAL/MOL
REMARK 922        TOTAL FREE ENERGY PREDICTED BY IDOCK:   -7.52 KCAL/MOL
REMARK 923 INTER-LIGAND FREE ENERGY PREDICTED BY IDOCK:   -6.85 KCAL/MOL
REMARK 924 INTRA-LIGAND FREE ENERGY PREDICTED BY IDOCK:   -0.67 KCAL/MOL
REMARK 927      BINDING AFFINITY PREDICTED BY RF-SCORE:    0.00 PKD
ROOT
HETATM    1  C   UNL     1     -12.527  15.860  73.907  1.00  0.00    -0.744 C  
HETATM    2  C   UNL     1     -13.126  15.804  72.532  1.00  0.00    -0.474 C  
HETATM    3  O   UNL     1     -14.297  15.506  72.330  1.00  0.00    -0.558 OA 
ENDROOT
BRANCH   2   4
HETATM    4  O   UNL     1     -12.185  16.135  71.620  1.00  0.00    -0.460 OA 
BRANCH   4   5
HETATM    5  C   UNL     1     -11.939  15.332  70.591  1.00  0.00    -0.343 A  
HETATM    6  C   UNL     1     -11.855  13.952  70.498  1.00  0.00    -0.317 A  
HETATM    7  C   UNL     1     -11.500  13.482  69.191  1.00  0.00    -0.345 A  
HETATM    8  C   UNL     1     -11.372  14.536  68.324  1.00  0.00    -0.297 A  
HETATM    9  C   UNL     1     -11.081  14.388  66.883  1.00  0.00    -0.325 C  
HETATM   10  S   UNL     1     -11.583  16.045  69.068  1.00  0.00    -0.305 SA 
HETATM   11  C   UNL     1     -10.506  12.993  66.577  1.00  0.00    -0.277 C  
HETATM   12  N   UNL     1     -10.795  11.824  67.442  1.00  0.00    -0.238 NA 
HETATM   13  C   UNL     1     -11.309  12.049  68.808  1.00  0.00    -0.278 C  
BRANCH  12  14
HETATM   14  C   UNL     1      -9.647  10.844  67.407  1.00  0.00    -0.163 C  
BRANCH  14  15
HETATM   15  C   UNL     1      -8.366  11.288  68.127  1.00  0.00    -0.143 A  
HETATM   16  F   UNL     1      -8.303   9.328  69.487  1.00  0.00    -0.106 F  
HETATM   17  C   UNL     1      -7.791  12.552  67.896  1.00  0.00    -0.144 A  
HETATM   18  C   UNL     1      -7.786  10.514  69.145  1.00  0.00    -0.138 A  
HETATM   19  C   UNL     1      -6.675  10.941  69.882  1.00  0.00    -0.147 A  
HETATM   20  C   UNL     1      -6.673  12.987  68.620  1.00  0.00    -0.096 A  
HETATM   21  C   UNL     1      -6.114  12.180  69.611  1.00  0.00    -0.129 A  
ENDBRANCH  14  15
BRANCH  14  22
HETATM   22  C   UNL     1      -9.411  10.366  65.946  1.00  0.00    -0.189 C  
HETATM   23  O   UNL     1     -10.290  10.293  65.089  1.00  0.00    -0.286 OA 
BRANCH  22  24
HETATM   24  C   UNL     1      -8.003   9.971  65.602  1.00  0.00    -0.140 C  
HETATM   25  C   UNL     1      -7.588   8.515  65.577  1.00  0.00    -0.090 C  
HETATM   26  C   UNL     1      -7.750   9.265  64.289  1.00  0.00    -0.119 C  
ENDBRANCH  22  24
ENDBRANCH  14  22
ENDBRANCH  12  14
ENDBRANCH   4   5
ENDBRANCH   2   4
TORSDOF 6
ENDMDL
MODEL       87
REMARK 921   NORMALIZED FREE ENERGY PREDICTED BY IDOCK:   -5.06 KCAL/MOL
REMARK 922        TOTAL FREE ENERGY PREDICTED BY IDOCK:   -7.51 KCAL/MOL
REMARK 923 INTER-LIGAND FREE ENERGY PREDICTED BY IDOCK:   -6.64 KCAL/MOL
REMARK 924 INTRA-LIGAND FREE ENERGY PREDICTED BY IDOCK:   -0.87 KCAL/MOL
REMARK 927      BINDING AFFINITY PREDICTED BY RF-SCORE:    0.00 PKD
ROOT
HETATM    1  C   UNL     1     -12.977  13.947  65.452  1.00  0.00    -0.368 C  
HETATM    2  C   UNL     1     -12.131  13.870  64.215  1.00  0.00    -0.440 C  
HETATM    3  O   UNL     1     -12.593  13.619  63.109  1.00  0.00    -0.792 OA 
ENDROOT
BRANCH   2   4
HETATM    4  O   UNL     1     -10.843  14.126  64.537  1.00  0.00    -0.394 OA 
BRANCH   4   5
HETATM    5  C   UNL     1     -10.174  13.294  65.327  1.00  0.00    -0.290 A  
HETATM    6  C   UNL     1     -10.051  11.914  65.320  1.00  0.00    -0.290 A  
HETATM    7  C   UNL     1      -9.271  11.399  66.407  1.00  0.00    -0.209 A  
HETATM    8  C   UNL     1      -8.791  12.424  67.177  1.00  0.00    -0.197 A  
HETATM    9  C   UNL     1      -7.894  12.236  68.336  1.00  0.00    -0.151 C  
HETATM   10  S   UNL     1      -9.326  13.951  66.670  1.00  0.00    -0.242 SA 
HETATM   11  C   UNL     1      -7.934  10.779  68.834  1.00  0.00    -0.143 C  
HETATM   12  N   UNL     1      -8.299   9.658  67.934  1.00  0.00    -0.117 NA 
HETATM   13  C   UNL     1      -8.998   9.951  66.666  1.00  0.00    -0.139 C  
BRANCH  12  14
HETATM   14  C   UNL     1      -8.953   8.544  68.715  1.00  0.00    -0.139 C  
BRANCH  14  15
HETATM   15  C   UNL     1      -9.240   7.256  67.931  1.00  0.00    -0.131 A  
HETATM   16  F   UNL     1      -6.921   6.745  67.683  1.00  0.00    -0.070 F  
HETATM   17  C   UNL     1     -10.548   6.899  67.554  1.00  0.00    -0.351 A  
HETATM   18  C   UNL     1      -8.203   6.448  67.437  1.00  0.00    -0.116 A  
HETATM   19  C   UNL     1      -8.435   5.322  66.639  1.00  0.00    -0.107 A  
HETATM   20  C   UNL     1     -10.794   5.768  66.763  1.00  0.00    -0.327 A  
HETATM   21  C   UNL     1      -9.738   4.979  66.307  1.00  0.00    -0.195 A  
ENDBRANCH  14  15
BRANCH  14  22
HETATM   22  C   UNL     1     -10.188   9.099  69.482  1.00  0.00    -0.203 C  
HETATM   23  O   UNL     1     -11.022   9.860  68.997  1.00  0.00    -0.224 OA 
BRANCH  22  24
HETATM   24  C   UNL     1     -10.328   8.655  70.911  1.00  0.00    -0.262 C  
HETATM   25  C   UNL     1     -11.460   9.166  71.775  1.00  0.00    -0.452 C  
HETATM   26  C   UNL     1     -11.484   7.752  71.277  1.00  0.00    -0.294 C  
ENDBRANCH  22  24
ENDBRANCH  14  22
ENDBRANCH  12  14
ENDBRANCH   4   5
ENDBRANCH   2   4
TORSDOF 6
ENDMDL
MODEL       88
REMARK 921   NORMALIZED FREE ENERGY PREDICTED BY IDOCK:   -5.03 KCAL/MOL
REMARK 922        TOTAL FREE ENERGY PREDICTED BY IDOCK:   -7.48 KCAL/MOL
REMARK 923 INTER-LIGAND FREE ENERGY PREDICTED BY IDOCK:   -6.89 KCAL/MOL
REMARK 924 INTRA-LIGAND FREE ENERGY PREDICTED BY IDOCK:   -0.59 KCAL/MOL
REMARK 927      BINDING AFFINITY PREDICTED BY RF-SCORE:    0.00 PKD
ROOT
HETATM    1  C   UNL     1     -12.643  14.118  65.325  1.00  0.00    -0.460 C  
HETATM    2  C   UNL     1     -12.049  13.147  64.346  1.00  0.00    -0.410 C  
HETATM    3  O   UNL     1     -12.670  12.712  63.385  1.00  0.00    -0.705 OA 
ENDROOT
BRANCH   2   4
HETATM    4  O   UNL     1     -10.775  12.874  64.704  1.00  0.00    -0.314 OA 
BRANCH   4   5
HETATM    5  C   UNL     1     -10.458  11.679  65.190  1.00  0.00    -0.279 A  
HETATM    6  C   UNL     1     -10.901  10.992  66.308  1.00  0.00    -0.234 A  
HETATM    7  C   UNL     1     -10.244   9.733  66.509  1.00  0.00    -0.289 A  
HETATM    8  C   UNL     1      -9.352   9.494  65.498  1.00  0.00    -0.255 A  
HETATM    9  C   UNL     1      -8.562   8.252  65.370  1.00  0.00    -0.176 C  
HETATM   10  S   UNL     1      -9.237  10.772  64.389  1.00  0.00    -0.216 SA 
HETATM   11  C   UNL     1      -8.521   7.485  66.705  1.00  0.00    -0.130 C  
HETATM   12  N   UNL     1      -9.590   7.634  67.722  1.00  0.00    -0.142 NA 
HETATM   13  C   UNL     1     -10.499   8.796  67.647  1.00  0.00    -0.244 C  
BRANCH  12  14
HETATM   14  C   UNL     1      -9.033   7.420  69.109  1.00  0.00    -0.135 C  
BRANCH  14  15
HETATM   15  C   UNL     1     -10.032   7.583  70.263  1.00  0.00    -0.192 A  
HETATM   16  F   UNL     1     -11.391   5.773  69.505  1.00  0.00    -0.442 F  
HETATM   17  C   UNL     1      -9.929   8.643  71.183  1.00  0.00    -0.289 A  
HETATM   18  C   UNL     1     -11.168   6.765  70.375  1.00  0.00    -0.328 A  
HETATM   19  C   UNL     1     -12.143   6.955  71.362  1.00  0.00    -0.408 A  
HETATM   20  C   UNL     1     -10.893   8.837  72.181  1.00  0.00    -0.400 A  
HETATM   21  C   UNL     1     -11.999   7.992  72.272  1.00  0.00    -0.412 A  
ENDBRANCH  14  15
BRANCH  14  22
HETATM   22  C   UNL     1      -7.731   8.254  69.284  1.00  0.00    -0.103 C  
HETATM   23  O   UNL     1      -6.639   7.780  69.586  1.00  0.00    -0.034 OA 
BRANCH  22  24
HETATM   24  C   UNL     1      -7.864   9.735  69.066  1.00  0.00    -0.087 C  
HETATM   25  C   UNL     1      -6.932  10.708  69.754  1.00  0.00    -0.145 C  
HETATM   26  C   UNL     1      -6.786  10.450  68.284  1.00  0.00    -0.065 C  
ENDBRANCH  22  24
ENDBRANCH  14  22
ENDBRANCH  12  14
ENDBRANCH   4   5
ENDBRANCH   2   4
TORSDOF 6
ENDMDL
MODEL       89
REMARK 921   NORMALIZED FREE ENERGY PREDICTED BY IDOCK:   -5.00 KCAL/MOL
REMARK 922        TOTAL FREE ENERGY PREDICTED BY IDOCK:   -7.43 KCAL/MOL
REMARK 923 INTER-LIGAND FREE ENERGY PREDICTED BY IDOCK:   -6.58 KCAL/MOL
REMARK 924 INTRA-LIGAND FREE ENERGY PREDICTED BY IDOCK:   -0.86 KCAL/MOL
REMARK 927      BINDING AFFINITY PREDICTED BY RF-SCORE:    0.00 PKD
ROOT
HETATM    1  C   UNL     1      -8.929   3.126  63.131  1.00  0.00    -0.092 C  
HETATM    2  C   UNL     1      -9.943   3.850  63.969  1.00  0.00    -0.186 C  
HETATM    3  O   UNL     1     -11.145   3.634  63.889  1.00  0.00    -0.315 OA 
ENDROOT
BRANCH   2   4
HETATM    4  O   UNL     1      -9.309   4.721  64.784  1.00  0.00    -0.141 OA 
BRANCH   4   5
HETATM    5  C   UNL     1      -9.601   4.761  66.079  1.00  0.00    -0.180 A  
HETATM    6  C   UNL     1     -10.354   5.652  66.827  1.00  0.00    -0.316 A  
HETATM    7  C   UNL     1     -10.366   5.361  68.231  1.00  0.00    -0.213 A  
HETATM    8  C   UNL     1      -9.649   4.222  68.487  1.00  0.00    -0.136 A  
HETATM    9  C   UNL     1      -9.522   3.610  69.827  1.00  0.00    -0.254 C  
HETATM   10  S   UNL     1      -8.912   3.568  67.107  1.00  0.00    -0.164 SA 
HETATM   11  C   UNL     1      -9.892   4.619  70.930  1.00  0.00    -0.202 C  
HETATM   12  N   UNL     1     -10.807   5.757  70.671  1.00  0.00    -0.280 NA 
HETATM   13  C   UNL     1     -11.069   6.167  69.276  1.00  0.00    -0.393 C  
BRANCH  12  14
HETATM   14  C   UNL     1     -10.466   6.924  71.566  1.00  0.00    -0.212 C  
BRANCH  14  15
HETATM   15  C   UNL     1     -11.374   8.154  71.437  1.00  0.00    -0.299 A  
HETATM   16  F   UNL     1     -13.326   6.931  72.065  1.00  0.00    -0.341 F  
HETATM   17  C   UNL     1     -10.888   9.382  70.950  1.00  0.00    -0.392 A  
HETATM   18  C   UNL     1     -12.757   8.076  71.668  1.00  0.00    -0.326 A  
HETATM   19  C   UNL     1     -13.621   9.159  71.464  1.00  0.00    -0.406 A  
HETATM   20  C   UNL     1     -11.741  10.475  70.751  1.00  0.00    -0.454 A  
HETATM   21  C   UNL     1     -13.107  10.365  71.010  1.00  0.00    -0.450 A  
ENDBRANCH  14  15
BRANCH  14  22
HETATM   22  C   UNL     1      -8.949   7.249  71.445  1.00  0.00    -0.138 C  
HETATM   23  O   UNL     1      -8.380   7.522  70.391  1.00  0.00    -0.125 OA 
BRANCH  22  24
HETATM   24  C   UNL     1      -8.164   7.210  72.726  1.00  0.00    -0.121 C  
HETATM   25  C   UNL     1      -8.739   7.773  74.007  1.00  0.00    -0.316 C  
HETATM   26  C   UNL     1      -8.628   6.289  73.831  1.00  0.00    -0.126 C  
ENDBRANCH  22  24
ENDBRANCH  14  22
ENDBRANCH  12  14
ENDBRANCH   4   5
ENDBRANCH   2   4
TORSDOF 6
ENDMDL
MODEL       90
REMARK 921   NORMALIZED FREE ENERGY PREDICTED BY IDOCK:   -4.99 KCAL/MOL
REMARK 922        TOTAL FREE ENERGY PREDICTED BY IDOCK:   -7.43 KCAL/MOL
REMARK 923 INTER-LIGAND FREE ENERGY PREDICTED BY IDOCK:   -6.77 KCAL/MOL
REMARK 924 INTRA-LIGAND FREE ENERGY PREDICTED BY IDOCK:   -0.66 KCAL/MOL
REMARK 927      BINDING AFFINITY PREDICTED BY RF-SCORE:    0.00 PKD
ROOT
HETATM    1  C   UNL     1     -10.092   5.267  69.964  1.00  0.00    -0.336 C  
HETATM    2  C   UNL     1     -10.085   5.104  68.472  1.00  0.00    -0.144 C  
HETATM    3  O   UNL     1      -9.529   4.169  67.910  1.00  0.00    -0.155 OA 
ENDROOT
BRANCH   2   4
HETATM    4  O   UNL     1     -10.776   6.119  67.908  1.00  0.00    -0.240 OA 
BRANCH   4   5
HETATM    5  C   UNL     1     -10.254   7.339  67.860  1.00  0.00    -0.191 A  
HETATM    6  C   UNL     1     -10.716   8.558  68.330  1.00  0.00    -0.084 A  
HETATM    7  C   UNL     1      -9.859   9.662  68.009  1.00  0.00    -0.175 A  
HETATM    8  C   UNL     1      -8.748   9.224  67.339  1.00  0.00    -0.118 A  
HETATM    9  C   UNL     1      -7.635  10.102  66.924  1.00  0.00    -0.100 C  
HETATM   10  S   UNL     1      -8.768   7.558  67.025  1.00  0.00    -0.130 SA 
HETATM   11  C   UNL     1      -8.068  11.580  66.926  1.00  0.00    -0.164 C  
HETATM   12  N   UNL     1      -9.171  12.067  67.789  1.00  0.00    -0.183 NA 
HETATM   13  C   UNL     1     -10.121  11.091  68.363  1.00  0.00    -0.184 C  
BRANCH  12  14
HETATM   14  C   UNL     1      -9.865  13.244  67.146  1.00  0.00    -0.237 C  
BRANCH  14  15
HETATM   15  C   UNL     1     -10.642  12.941  65.858  1.00  0.00    -0.287 A  
HETATM   16  F   UNL     1     -12.701  13.735  66.767  1.00  0.00    -0.368 F  
HETATM   17  C   UNL     1     -10.038  12.285  64.769  1.00  0.00    -0.271 A  
HETATM   18  C   UNL     1     -12.023  13.180  65.756  1.00  0.00    -0.423 A  
HETATM   19  C   UNL     1     -12.772  12.824  64.629  1.00  0.00    -0.439 A  
HETATM   20  C   UNL     1     -10.775  11.933  63.631  1.00  0.00    -0.502 A  
HETATM   21  C   UNL     1     -12.141  12.204  63.560  1.00  0.00    -0.649 A  
ENDBRANCH  14  15
BRANCH  14  22
HETATM   22  C   UNL     1      -8.866  14.430  67.012  1.00  0.00    -0.237 C  
HETATM   23  O   UNL     1      -7.828  14.538  67.659  1.00  0.00    -0.148 OA 
BRANCH  22  24
HETATM   24  C   UNL     1      -9.238  15.494  66.018  1.00  0.00    -0.361 C  
HETATM   25  C   UNL     1     -10.358  16.470  66.308  1.00  0.00    -0.327 C  
HETATM   26  C   UNL     1      -8.933  16.935  66.354  1.00  0.00    -0.317 C  
ENDBRANCH  22  24
ENDBRANCH  14  22
ENDBRANCH  12  14
ENDBRANCH   4   5
ENDBRANCH   2   4
TORSDOF 6
ENDMDL
MODEL       91
REMARK 921   NORMALIZED FREE ENERGY PREDICTED BY IDOCK:   -4.98 KCAL/MOL
REMARK 922        TOTAL FREE ENERGY PREDICTED BY IDOCK:   -7.41 KCAL/MOL
REMARK 923 INTER-LIGAND FREE ENERGY PREDICTED BY IDOCK:   -6.57 KCAL/MOL
REMARK 924 INTRA-LIGAND FREE ENERGY PREDICTED BY IDOCK:   -0.84 KCAL/MOL
REMARK 927      BINDING AFFINITY PREDICTED BY RF-SCORE:    0.00 PKD
ROOT
HETATM    1  C   UNL     1     -10.505   9.988  65.782  1.00  0.00    -0.084 C  
HETATM    2  C   UNL     1     -10.788  10.526  67.155  1.00  0.00    -0.259 C  
HETATM    3  O   UNL     1     -10.289  10.053  68.168  1.00  0.00    -0.173 OA 
ENDROOT
BRANCH   2   4
HETATM    4  O   UNL     1     -11.636  11.574  67.059  1.00  0.00    -0.510 OA 
BRANCH   4   5
HETATM    5  C   UNL     1     -11.205  12.808  67.292  1.00  0.00    -0.295 A  
HETATM    6  C   UNL     1     -10.161  13.538  66.747  1.00  0.00    -0.268 A  
HETATM    7  C   UNL     1      -9.995  14.835  67.336  1.00  0.00    -0.223 A  
HETATM    8  C   UNL     1     -10.959  15.055  68.284  1.00  0.00    -0.271 A  
HETATM    9  C   UNL     1     -11.110  16.322  69.029  1.00  0.00    -0.331 C  
HETATM   10  S   UNL     1     -11.978  13.722  68.526  1.00  0.00    -0.314 SA 
HETATM   11  C   UNL     1      -9.824  17.166  68.947  1.00  0.00    -0.273 C  
HETATM   12  N   UNL     1      -8.872  17.028  67.820  1.00  0.00    -0.220 NA 
HETATM   13  C   UNL     1      -8.935  15.824  66.966  1.00  0.00    -0.224 C  
BRANCH  12  14
HETATM   14  C   UNL     1      -7.467  17.347  68.271  1.00  0.00    -0.227 C  
BRANCH  14  15
HETATM   15  C   UNL     1      -6.978  18.773  67.984  1.00  0.00    -0.255 A  
HETATM   16  F   UNL     1      -7.896  18.775  65.780  1.00  0.00    -0.266 F  
HETATM   17  C   UNL     1      -6.170  19.474  68.899  1.00  0.00    -0.293 A  
HETATM   18  C   UNL     1      -7.199  19.391  66.742  1.00  0.00    -0.213 A  
HETATM   19  C   UNL     1      -6.682  20.652  66.421  1.00  0.00    -0.303 A  
HETATM   20  C   UNL     1      -5.655  20.740  68.593  1.00  0.00    -0.382 A  
HETATM   21  C   UNL     1      -5.912  21.330  67.355  1.00  0.00    -0.427 A  
ENDBRANCH  14  15
BRANCH  14  22
HETATM   22  C   UNL     1      -6.494  16.238  67.775  1.00  0.00    -0.141 C  
HETATM   23  O   UNL     1      -6.130  16.106  66.609  1.00  0.00    -0.247 OA 
BRANCH  22  24
HETATM   24  C   UNL     1      -5.996  15.283  68.822  1.00  0.00    -0.088 C  
HETATM   25  C   UNL     1      -5.667  15.764  70.219  1.00  0.00    -0.149 C  
HETATM   26  C   UNL     1      -6.902  14.946  69.984  1.00  0.00    -0.129 C  
ENDBRANCH  22  24
ENDBRANCH  14  22
ENDBRANCH  12  14
ENDBRANCH   4   5
ENDBRANCH   2   4
TORSDOF 6
ENDMDL
MODEL       92
REMARK 921   NORMALIZED FREE ENERGY PREDICTED BY IDOCK:   -4.97 KCAL/MOL
REMARK 922        TOTAL FREE ENERGY PREDICTED BY IDOCK:   -7.40 KCAL/MOL
REMARK 923 INTER-LIGAND FREE ENERGY PREDICTED BY IDOCK:   -6.47 KCAL/MOL
REMARK 924 INTRA-LIGAND FREE ENERGY PREDICTED BY IDOCK:   -0.93 KCAL/MOL
REMARK 927      BINDING AFFINITY PREDICTED BY RF-SCORE:    0.00 PKD
ROOT
HETATM    1  C   UNL     1      -9.505   5.365  68.593  1.00  0.00    -0.159 C  
HETATM    2  C   UNL     1     -10.138   5.658  67.263  1.00  0.00    -0.177 C  
HETATM    3  O   UNL     1      -9.918   4.988  66.262  1.00  0.00    -0.180 OA 
ENDROOT
BRANCH   2   4
HETATM    4  O   UNL     1     -10.953   6.729  67.382  1.00  0.00    -0.318 OA 
BRANCH   4   5
HETATM    5  C   UNL     1     -10.444   7.954  67.441  1.00  0.00    -0.290 A  
HETATM    6  C   UNL     1     -10.590   8.969  68.372  1.00  0.00    -0.200 A  
HETATM    7  C   UNL     1      -9.906  10.180  68.019  1.00  0.00    -0.169 A  
HETATM    8  C   UNL     1      -9.226  10.016  66.842  1.00  0.00    -0.147 A  
HETATM    9  C   UNL     1      -8.364  11.052  66.235  1.00  0.00    -0.166 C  
HETATM   10  S   UNL     1      -9.465   8.493  66.135  1.00  0.00    -0.187 SA 
HETATM   11  C   UNL     1      -8.677  12.441  66.822  1.00  0.00    -0.160 C  
HETATM   12  N   UNL     1      -9.264  12.602  68.174  1.00  0.00    -0.206 NA 
HETATM   13  C   UNL     1      -9.914  11.443  68.819  1.00  0.00    -0.177 C  
BRANCH  12  14
HETATM   14  C   UNL     1     -10.108  13.852  68.239  1.00  0.00    -0.241 C  
BRANCH  14  15
HETATM   15  C   UNL     1     -10.843  14.231  66.945  1.00  0.00    -0.298 A  
HETATM   16  F   UNL     1     -12.373  12.409  67.134  1.00  0.00    -0.290 F  
HETATM   17  C   UNL     1     -10.390  15.278  66.120  1.00  0.00    -0.314 A  
HETATM   18  C   UNL     1     -11.915  13.468  66.456  1.00  0.00    -0.413 A  
HETATM   19  C   UNL     1     -12.539  13.736  65.231  1.00  0.00    -0.510 A  
HETATM   20  C   UNL     1     -11.012  15.562  64.898  1.00  0.00    -0.452 A  
HETATM   21  C   UNL     1     -12.087  14.793  64.454  1.00  0.00    -0.457 A  
ENDBRANCH  14  15
BRANCH  14  22
HETATM   22  C   UNL     1      -9.275  15.015  68.851  1.00  0.00    -0.206 C  
HETATM   23  O   UNL     1      -9.761  16.014  69.376  1.00  0.00    -0.247 OA 
BRANCH  22  24
HETATM   24  C   UNL     1      -7.782  14.869  68.768  1.00  0.00    -0.139 C  
HETATM   25  C   UNL     1      -6.981  15.645  67.745  1.00  0.00    -0.179 C  
HETATM   26  C   UNL     1      -6.917  16.034  69.191  1.00  0.00    -0.189 C  
ENDBRANCH  22  24
ENDBRANCH  14  22
ENDBRANCH  12  14
ENDBRANCH   4   5
ENDBRANCH   2   4
TORSDOF 6
ENDMDL
MODEL       93
REMARK 921   NORMALIZED FREE ENERGY PREDICTED BY IDOCK:   -4.94 KCAL/MOL
REMARK 922        TOTAL FREE ENERGY PREDICTED BY IDOCK:   -7.35 KCAL/MOL
REMARK 923 INTER-LIGAND FREE ENERGY PREDICTED BY IDOCK:   -6.77 KCAL/MOL
REMARK 924 INTRA-LIGAND FREE ENERGY PREDICTED BY IDOCK:   -0.59 KCAL/MOL
REMARK 927      BINDING AFFINITY PREDICTED BY RF-SCORE:    0.00 PKD
ROOT
HETATM    1  C   UNL     1     -12.406  13.984  66.136  1.00  0.00    -0.491 C  
HETATM    2  C   UNL     1     -12.300  12.884  65.120  1.00  0.00    -0.493 C  
HETATM    3  O   UNL     1     -13.261  12.482  64.476  1.00  0.00    -0.832 OA 
ENDROOT
BRANCH   2   4
HETATM    4  O   UNL     1     -11.019  12.461  65.051  1.00  0.00    -0.282 OA 
BRANCH   4   5
HETATM    5  C   UNL     1     -10.669  11.297  65.588  1.00  0.00    -0.217 A  
HETATM    6  C   UNL     1     -10.998  10.703  66.796  1.00  0.00    -0.182 A  
HETATM    7  C   UNL     1     -10.343   9.447  67.018  1.00  0.00    -0.322 A  
HETATM    8  C   UNL     1      -9.570   9.114  65.937  1.00  0.00    -0.273 A  
HETATM    9  C   UNL     1      -8.818   7.848  65.819  1.00  0.00    -0.155 C  
HETATM   10  S   UNL     1      -9.557  10.306  64.731  1.00  0.00    -0.327 SA 
HETATM   11  C   UNL     1      -8.644   7.179  67.195  1.00  0.00    -0.121 C  
HETATM   12  N   UNL     1      -9.593   7.427  68.307  1.00  0.00    -0.149 NA 
HETATM   13  C   UNL     1     -10.487   8.601  68.243  1.00  0.00    -0.184 C  
BRANCH  12  14
HETATM   14  C   UNL     1      -8.892   7.302  69.638  1.00  0.00    -0.141 C  
BRANCH  14  15
HETATM   15  C   UNL     1      -8.816   5.885  70.224  1.00  0.00    -0.145 A  
HETATM   16  F   UNL     1      -7.078   6.476  71.749  1.00  0.00    -0.076 F  
HETATM   17  C   UNL     1      -9.572   4.824  69.689  1.00  0.00    -0.253 A  
HETATM   18  C   UNL     1      -7.891   5.551  71.227  1.00  0.00    -0.110 A  
HETATM   19  C   UNL     1      -7.736   4.246  71.709  1.00  0.00    -0.075 A  
HETATM   20  C   UNL     1      -9.432   3.516  70.170  1.00  0.00    -0.252 A  
HETATM   21  C   UNL     1      -8.516   3.227  71.182  1.00  0.00    -0.098 A  
ENDBRANCH  14  15
BRANCH  14  22
HETATM   22  C   UNL     1      -9.459   8.360  70.629  1.00  0.00    -0.167 C  
HETATM   23  O   UNL     1      -8.864   9.380  70.969  1.00  0.00    -0.250 OA 
BRANCH  22  24
HETATM   24  C   UNL     1     -10.824   8.073  71.188  1.00  0.00    -0.267 C  
HETATM   25  C   UNL     1     -11.074   8.101  72.680  1.00  0.00    -0.450 C  
HETATM   26  C   UNL     1     -11.600   9.208  71.816  1.00  0.00    -0.457 C  
ENDBRANCH  22  24
ENDBRANCH  14  22
ENDBRANCH  12  14
ENDBRANCH   4   5
ENDBRANCH   2   4
TORSDOF 6
ENDMDL
MODEL       94
REMARK 921   NORMALIZED FREE ENERGY PREDICTED BY IDOCK:   -4.93 KCAL/MOL
REMARK 922        TOTAL FREE ENERGY PREDICTED BY IDOCK:   -7.34 KCAL/MOL
REMARK 923 INTER-LIGAND FREE ENERGY PREDICTED BY IDOCK:   -6.59 KCAL/MOL
REMARK 924 INTRA-LIGAND FREE ENERGY PREDICTED BY IDOCK:   -0.75 KCAL/MOL
REMARK 927      BINDING AFFINITY PREDICTED BY RF-SCORE:    0.00 PKD
ROOT
HETATM    1  C   UNL     1     -11.036  13.835  68.010  1.00  0.00    -0.284 C  
HETATM    2  C   UNL     1     -11.762  12.523  67.930  1.00  0.00    -0.359 C  
HETATM    3  O   UNL     1     -11.835  11.867  66.898  1.00  0.00    -0.590 OA 
ENDROOT
BRANCH   2   4
HETATM    4  O   UNL     1     -12.274  12.221  69.143  1.00  0.00    -0.201 OA 
BRANCH   4   5
HETATM    5  C   UNL     1     -11.778  11.210  69.847  1.00  0.00    -0.355 A  
HETATM    6  C   UNL     1     -10.539  10.590  69.821  1.00  0.00    -0.274 A  
HETATM    7  C   UNL     1     -10.433   9.475  70.717  1.00  0.00    -0.384 A  
HETATM    8  C   UNL     1     -11.595   9.321  71.425  1.00  0.00    -0.367 A  
HETATM    9  C   UNL     1     -11.789   8.306  72.481  1.00  0.00    -0.439 C  
HETATM   10  S   UNL     1     -12.806  10.418  70.974  1.00  0.00    -0.413 SA 
HETATM   11  C   UNL     1     -10.734   7.189  72.374  1.00  0.00    -0.241 C  
HETATM   12  N   UNL     1      -9.411   7.425  71.747  1.00  0.00    -0.149 NA 
HETATM   13  C   UNL     1      -9.227   8.605  70.877  1.00  0.00    -0.190 C  
BRANCH  12  14
HETATM   14  C   UNL     1      -8.888   6.155  71.122  1.00  0.00    -0.139 C  
BRANCH  14  15
HETATM   15  C   UNL     1      -9.398   5.845  69.708  1.00  0.00    -0.171 A  
HETATM   16  F   UNL     1      -7.295   4.957  69.011  1.00  0.00    -0.051 F  
HETATM   17  C   UNL     1     -10.686   6.229  69.288  1.00  0.00    -0.367 A  
HETATM   18  C   UNL     1      -8.560   5.289  68.727  1.00  0.00    -0.091 A  
HETATM   19  C   UNL     1      -8.972   5.087  67.405  1.00  0.00    -0.111 A  
HETATM   20  C   UNL     1     -11.113   6.022  67.970  1.00  0.00    -0.233 A  
HETATM   21  C   UNL     1     -10.258   5.449  67.029  1.00  0.00    -0.274 A  
ENDBRANCH  14  15
BRANCH  14  22
HETATM   22  C   UNL     1      -9.054   4.974  72.121  1.00  0.00    -0.132 C  
HETATM   23  O   UNL     1      -8.477   4.894  73.203  1.00  0.00    -0.104 OA 
BRANCH  22  24
HETATM   24  C   UNL     1      -9.987   3.876  71.693  1.00  0.00    -0.223 C  
HETATM   25  C   UNL     1      -9.460   2.501  71.345  1.00  0.00    -0.214 C  
HETATM   26  C   UNL     1     -10.208   2.709  72.628  1.00  0.00    -0.235 C  
ENDBRANCH  22  24
ENDBRANCH  14  22
ENDBRANCH  12  14
ENDBRANCH   4   5
ENDBRANCH   2   4
TORSDOF 6
ENDMDL
MODEL       95
REMARK 921   NORMALIZED FREE ENERGY PREDICTED BY IDOCK:   -4.90 KCAL/MOL
REMARK 922        TOTAL FREE ENERGY PREDICTED BY IDOCK:   -7.31 KCAL/MOL
REMARK 923 INTER-LIGAND FREE ENERGY PREDICTED BY IDOCK:   -6.84 KCAL/MOL
REMARK 924 INTRA-LIGAND FREE ENERGY PREDICTED BY IDOCK:   -0.46 KCAL/MOL
REMARK 927      BINDING AFFINITY PREDICTED BY RF-SCORE:    0.00 PKD
ROOT
HETATM    1  C   UNL     1      -8.648   6.015  67.987  1.00  0.00    -0.114 C  
HETATM    2  C   UNL     1      -8.831   6.169  66.505  1.00  0.00    -0.133 C  
HETATM    3  O   UNL     1      -8.166   5.546  65.687  1.00  0.00    -0.116 OA 
ENDROOT
BRANCH   2   4
HETATM    4  O   UNL     1      -9.816   7.063  66.266  1.00  0.00    -0.084 OA 
BRANCH   4   5
HETATM    5  C   UNL     1      -9.772   8.270  66.818  1.00  0.00    -0.239 A  
HETATM    6  C   UNL     1     -10.647   8.928  67.668  1.00  0.00    -0.292 A  
HETATM    7  C   UNL     1     -10.247  10.269  67.982  1.00  0.00    -0.200 A  
HETATM    8  C   UNL     1      -9.049  10.561  67.386  1.00  0.00    -0.139 A  
HETATM    9  C   UNL     1      -8.328  11.838  67.565  1.00  0.00    -0.154 C  
HETATM   10  S   UNL     1      -8.462   9.305  66.410  1.00  0.00    -0.125 SA 
HETATM   11  C   UNL     1      -9.268  12.930  68.109  1.00  0.00    -0.212 C  
HETATM   12  N   UNL     1     -10.477  12.595  68.899  1.00  0.00    -0.142 NA 
HETATM   13  C   UNL     1     -11.011  11.218  68.848  1.00  0.00    -0.223 C  
BRANCH  12  14
HETATM   14  C   UNL     1     -11.547  13.641  68.697  1.00  0.00    -0.329 C  
BRANCH  14  15
HETATM   15  C   UNL     1     -11.347  14.581  67.501  1.00  0.00    -0.355 A  
HETATM   16  F   UNL     1     -12.037  12.924  65.927  1.00  0.00    -0.418 F  
HETATM   17  C   UNL     1     -10.795  15.866  67.657  1.00  0.00    -0.312 A  
HETATM   18  C   UNL     1     -11.578  14.155  66.182  1.00  0.00    -0.370 A  
HETATM   19  C   UNL     1     -11.312  14.961  65.069  1.00  0.00    -0.398 A  
HETATM   20  C   UNL     1     -10.533  16.686  66.551  1.00  0.00    -0.262 A  
HETATM   21  C   UNL     1     -10.794  16.234  65.258  1.00  0.00    -0.310 A  
ENDBRANCH  14  15
BRANCH  14  22
HETATM   22  C   UNL     1     -11.813  14.382  70.040  1.00  0.00    -0.315 C  
HETATM   23  O   UNL     1     -11.017  15.148  70.578  1.00  0.00    -0.273 OA 
BRANCH  22  24
HETATM   24  C   UNL     1     -13.140  14.110  70.690  1.00  0.00    -0.211 C  
HETATM   25  C   UNL     1     -13.245  13.912  72.187  1.00  0.00    -0.536 C  
HETATM   26  C   UNL     1     -13.748  15.181  71.566  1.00  0.00    -0.582 C  
ENDBRANCH  22  24
ENDBRANCH  14  22
ENDBRANCH  12  14
ENDBRANCH   4   5
ENDBRANCH   2   4
TORSDOF 6
ENDMDL
MODEL       96
REMARK 921   NORMALIZED FREE ENERGY PREDICTED BY IDOCK:   -4.88 KCAL/MOL
REMARK 922        TOTAL FREE ENERGY PREDICTED BY IDOCK:   -7.28 KCAL/MOL
REMARK 923 INTER-LIGAND FREE ENERGY PREDICTED BY IDOCK:   -6.40 KCAL/MOL
REMARK 924 INTRA-LIGAND FREE ENERGY PREDICTED BY IDOCK:   -0.88 KCAL/MOL
REMARK 927      BINDING AFFINITY PREDICTED BY RF-SCORE:    0.00 PKD
ROOT
HETATM    1  C   UNL     1      -9.485  18.306  68.083  1.00  0.00    -0.313 C  
HETATM    2  C   UNL     1      -9.612  17.465  66.846  1.00  0.00    -0.277 C  
HETATM    3  O   UNL     1      -8.764  17.450  65.963  1.00  0.00    -0.499 OA 
ENDROOT
BRANCH   2   4
HETATM    4  O   UNL     1     -10.766  16.763  66.900  1.00  0.00    -0.257 OA 
BRANCH   4   5
HETATM    5  C   UNL     1     -10.798  15.496  66.505  1.00  0.00    -0.284 A  
HETATM    6  C   UNL     1     -10.530  14.314  67.178  1.00  0.00    -0.266 A  
HETATM    7  C   UNL     1     -10.622  13.146  66.352  1.00  0.00    -0.293 A  
HETATM    8  C   UNL     1     -11.004  13.489  65.082  1.00  0.00    -0.320 A  
HETATM    9  C   UNL     1     -11.256  12.512  64.003  1.00  0.00    -0.461 C  
HETATM   10  S   UNL     1     -11.163  15.163  64.859  1.00  0.00    -0.394 SA 
HETATM   11  C   UNL     1     -10.620  11.149  64.334  1.00  0.00    -0.343 C  
HETATM   12  N   UNL     1     -10.366  10.726  65.732  1.00  0.00    -0.248 NA 
HETATM   13  C   UNL     1     -10.358  11.744  66.802  1.00  0.00    -0.219 C  
BRANCH  12  14
HETATM   14  C   UNL     1      -9.172   9.805  65.798  1.00  0.00    -0.191 C  
BRANCH  14  15
HETATM   15  C   UNL     1      -9.470   8.350  66.187  1.00  0.00    -0.263 A  
HETATM   16  F   UNL     1      -7.572   7.516  65.004  1.00  0.00    -0.075 F  
HETATM   17  C   UNL     1     -10.637   8.000  66.893  1.00  0.00    -0.324 A  
HETATM   18  C   UNL     1      -8.666   7.288  65.742  1.00  0.00    -0.109 A  
HETATM   19  C   UNL     1      -8.969   5.947  66.003  1.00  0.00    -0.159 A  
HETATM   20  C   UNL     1     -10.947   6.662  67.168  1.00  0.00    -0.478 A  
HETATM   21  C   UNL     1     -10.112   5.636  66.726  1.00  0.00    -0.235 A  
ENDBRANCH  14  15
BRANCH  14  22
HETATM   22  C   UNL     1      -8.049  10.464  66.649  1.00  0.00    -0.122 C  
HETATM   23  O   UNL     1      -7.315  11.366  66.250  1.00  0.00    -0.066 OA 
BRANCH  22  24
HETATM   24  C   UNL     1      -7.881   9.930  68.043  1.00  0.00    -0.086 C  
HETATM   25  C   UNL     1      -6.717   9.029  68.395  1.00  0.00    -0.060 C  
HETATM   26  C   UNL     1      -6.734  10.447  68.882  1.00  0.00    -0.058 C  
ENDBRANCH  22  24
ENDBRANCH  14  22
ENDBRANCH  12  14
ENDBRANCH   4   5
ENDBRANCH   2   4
TORSDOF 6
ENDMDL
MODEL       97
REMARK 921   NORMALIZED FREE ENERGY PREDICTED BY IDOCK:   -4.86 KCAL/MOL
REMARK 922        TOTAL FREE ENERGY PREDICTED BY IDOCK:   -7.25 KCAL/MOL
REMARK 923 INTER-LIGAND FREE ENERGY PREDICTED BY IDOCK:   -6.73 KCAL/MOL
REMARK 924 INTRA-LIGAND FREE ENERGY PREDICTED BY IDOCK:   -0.52 KCAL/MOL
REMARK 927      BINDING AFFINITY PREDICTED BY RF-SCORE:    0.00 PKD
ROOT
HETATM    1  C   UNL     1     -10.312  16.145  66.409  1.00  0.00    -0.321 C  
HETATM    2  C   UNL     1     -11.250  15.955  65.253  1.00  0.00    -0.153 C  
HETATM    3  O   UNL     1     -11.183  16.621  64.228  1.00  0.00    -1.098 OA 
ENDROOT
BRANCH   2   4
HETATM    4  O   UNL     1     -12.120  14.961  65.541  1.00  0.00    -0.195 OA 
BRANCH   4   5
HETATM    5  C   UNL     1     -11.692  13.708  65.647  1.00  0.00    -0.342 A  
HETATM    6  C   UNL     1     -11.696  12.820  66.711  1.00  0.00    -0.459 A  
HETATM    7  C   UNL     1     -11.070  11.564  66.416  1.00  0.00    -0.328 A  
HETATM    8  C   UNL     1     -10.651  11.534  65.112  1.00  0.00    -0.293 A  
HETATM    9  C   UNL     1     -10.028  10.358  64.472  1.00  0.00    -0.401 C  
HETATM   10  S   UNL     1     -10.919  12.993  64.289  1.00  0.00    -0.414 SA 
HETATM   11  C   UNL     1      -9.507   9.366  65.528  1.00  0.00    -0.260 C  
HETATM   12  N   UNL     1     -10.089   9.301  66.890  1.00  0.00    -0.235 NA 
HETATM   13  C   UNL     1     -10.904  10.432  67.380  1.00  0.00    -0.286 C  
BRANCH  12  14
HETATM   14  C   UNL     1      -9.049   8.859  67.890  1.00  0.00    -0.139 C  
BRANCH  14  15
HETATM   15  C   UNL     1      -9.301   7.503  68.564  1.00  0.00    -0.142 A  
HETATM   16  F   UNL     1      -7.012   6.850  68.386  1.00  0.00    -0.067 F  
HETATM   17  C   UNL     1     -10.599   7.080  68.906  1.00  0.00    -0.233 A  
HETATM   18  C   UNL     1      -8.270   6.567  68.746  1.00  0.00    -0.119 A  
HETATM   19  C   UNL     1      -8.491   5.288  69.269  1.00  0.00    -0.101 A  
HETATM   20  C   UNL     1     -10.833   5.806  69.440  1.00  0.00    -0.393 A  
HETATM   21  C   UNL     1      -9.779   4.911  69.623  1.00  0.00    -0.266 A  
ENDBRANCH  14  15
BRANCH  14  22
HETATM   22  C   UNL     1      -8.764  10.014  68.894  1.00  0.00    -0.146 C  
HETATM   23  O   UNL     1      -9.560  10.407  69.744  1.00  0.00    -0.165 OA 
BRANCH  22  24
HETATM   24  C   UNL     1      -7.417  10.670  68.776  1.00  0.00    -0.104 C  
HETATM   25  C   UNL     1      -7.157  12.027  69.395  1.00  0.00     0.085 C  
HETATM   26  C   UNL     1      -6.565  10.798  70.018  1.00  0.00    -0.159 C  
ENDBRANCH  22  24
ENDBRANCH  14  22
ENDBRANCH  12  14
ENDBRANCH   4   5
ENDBRANCH   2   4
TORSDOF 6
ENDMDL
MODEL       98
REMARK 921   NORMALIZED FREE ENERGY PREDICTED BY IDOCK:   -4.86 KCAL/MOL
REMARK 922        TOTAL FREE ENERGY PREDICTED BY IDOCK:   -7.25 KCAL/MOL
REMARK 923 INTER-LIGAND FREE ENERGY PREDICTED BY IDOCK:   -6.88 KCAL/MOL
REMARK 924 INTRA-LIGAND FREE ENERGY PREDICTED BY IDOCK:   -0.37 KCAL/MOL
REMARK 927      BINDING AFFINITY PREDICTED BY RF-SCORE:    0.00 PKD
ROOT
HETATM    1  C   UNL     1     -10.005  16.607  67.654  1.00  0.00    -0.264 C  
HETATM    2  C   UNL     1     -10.652  16.030  66.428  1.00  0.00    -0.284 C  
HETATM    3  O   UNL     1     -10.193  16.180  65.303  1.00  0.00    -0.520 OA 
ENDROOT
BRANCH   2   4
HETATM    4  O   UNL     1     -11.763  15.349  66.788  1.00  0.00    -0.078 OA 
BRANCH   4   5
HETATM    5  C   UNL     1     -11.674  14.082  67.177  1.00  0.00    -0.393 A  
HETATM    6  C   UNL     1     -12.034  13.453  68.357  1.00  0.00    -0.359 A  
HETATM    7  C   UNL     1     -11.702  12.058  68.392  1.00  0.00    -0.390 A  
HETATM    8  C   UNL     1     -11.138  11.673  67.205  1.00  0.00    -0.299 A  
HETATM    9  C   UNL     1     -10.745  10.283  66.890  1.00  0.00    -0.252 C  
HETATM   10  S   UNL     1     -10.930  12.954  66.114  1.00  0.00    -0.287 SA 
HETATM   11  C   UNL     1     -10.625   9.440  68.173  1.00  0.00    -0.212 C  
HETATM   12  N   UNL     1     -11.378   9.783  69.404  1.00  0.00    -0.112 NA 
HETATM   13  C   UNL     1     -11.947  11.139  69.546  1.00  0.00    -0.355 C  
BRANCH  12  14
HETATM   14  C   UNL     1     -10.617   9.340  70.630  1.00  0.00    -0.262 C  
BRANCH  14  15
HETATM   15  C   UNL     1      -9.424   8.409  70.377  1.00  0.00    -0.179 A  
HETATM   16  F   UNL     1     -10.823   6.502  70.051  1.00  0.00    -0.239 F  
HETATM   17  C   UNL     1      -8.097   8.857  70.515  1.00  0.00    -0.145 A  
HETATM   18  C   UNL     1      -9.598   7.037  70.130  1.00  0.00    -0.164 A  
HETATM   19  C   UNL     1      -8.525   6.150  69.992  1.00  0.00    -0.129 A  
HETATM   20  C   UNL     1      -7.013   7.981  70.369  1.00  0.00    -0.041 A  
HETATM   21  C   UNL     1      -7.227   6.628  70.106  1.00  0.00    -0.080 A  
ENDBRANCH  14  15
BRANCH  14  22
HETATM   22  C   UNL     1     -11.614   8.806  71.699  1.00  0.00    -0.320 C  
HETATM   23  O   UNL     1     -11.291   8.447  72.830  1.00  0.00    -0.346 OA 
BRANCH  22  24
HETATM   24  C   UNL     1     -13.054   8.736  71.279  1.00  0.00    -0.214 C  
HETATM   25  C   UNL     1     -13.962   7.640  71.796  1.00  0.00    -0.471 C  
HETATM   26  C   UNL     1     -14.122   9.041  72.304  1.00  0.00    -0.485 C  
ENDBRANCH  22  24
ENDBRANCH  14  22
ENDBRANCH  12  14
ENDBRANCH   4   5
ENDBRANCH   2   4
TORSDOF 6
ENDMDL
MODEL       99
REMARK 921   NORMALIZED FREE ENERGY PREDICTED BY IDOCK:   -4.85 KCAL/MOL
REMARK 922        TOTAL FREE ENERGY PREDICTED BY IDOCK:   -7.24 KCAL/MOL
REMARK 923 INTER-LIGAND FREE ENERGY PREDICTED BY IDOCK:   -6.76 KCAL/MOL
REMARK 924 INTRA-LIGAND FREE ENERGY PREDICTED BY IDOCK:   -0.48 KCAL/MOL
REMARK 927      BINDING AFFINITY PREDICTED BY RF-SCORE:    0.00 PKD
ROOT
HETATM    1  C   UNL     1     -10.740  18.411  65.832  1.00  0.00    -0.209 C  
HETATM    2  C   UNL     1     -10.561  17.067  65.187  1.00  0.00    -0.015 C  
HETATM    3  O   UNL     1     -11.251  16.684  64.251  1.00  0.00    -1.098 OA 
ENDROOT
BRANCH   2   4
HETATM    4  O   UNL     1      -9.547  16.412  65.794  1.00  0.00    -0.452 OA 
BRANCH   4   5
HETATM    5  C   UNL     1      -9.789  15.311  66.497  1.00  0.00    -0.266 A  
HETATM    6  C   UNL     1      -9.125  14.096  66.564  1.00  0.00    -0.198 A  
HETATM    7  C   UNL     1      -9.765  13.136  67.415  1.00  0.00    -0.220 A  
HETATM    8  C   UNL     1     -10.875  13.683  68.001  1.00  0.00    -0.246 A  
HETATM    9  C   UNL     1     -11.720  12.979  68.988  1.00  0.00    -0.376 C  
HETATM   10  S   UNL     1     -11.195  15.266  67.484  1.00  0.00    -0.288 SA 
HETATM   11  C   UNL     1     -11.480  11.458  68.934  1.00  0.00    -0.298 C  
HETATM   12  N   UNL     1     -10.200  10.888  68.448  1.00  0.00    -0.171 NA 
HETATM   13  C   UNL     1      -9.290  11.738  67.652  1.00  0.00    -0.180 C  
BRANCH  12  14
HETATM   14  C   UNL     1     -10.428   9.535  67.821  1.00  0.00    -0.254 C  
BRANCH  14  15
HETATM   15  C   UNL     1     -10.050   8.324  68.686  1.00  0.00    -0.212 A  
HETATM   16  F   UNL     1     -11.440   6.841  67.435  1.00  0.00    -0.368 F  
HETATM   17  C   UNL     1      -9.241   8.459  69.829  1.00  0.00    -0.157 A  
HETATM   18  C   UNL     1     -10.602   7.053  68.457  1.00  0.00    -0.202 A  
HETATM   19  C   UNL     1     -10.349   5.956  69.288  1.00  0.00    -0.312 A  
HETATM   20  C   UNL     1      -8.971   7.367  70.664  1.00  0.00    -0.155 A  
HETATM   21  C   UNL     1      -9.524   6.115  70.393  1.00  0.00    -0.179 A  
ENDBRANCH  14  15
BRANCH  14  22
HETATM   22  C   UNL     1      -9.803   9.507  66.396  1.00  0.00    -0.253 C  
HETATM   23  O   UNL     1     -10.171  10.217  65.463  1.00  0.00    -0.284 OA 
BRANCH  22  24
HETATM   24  C   UNL     1      -8.683   8.527  66.188  1.00  0.00    -0.176 C  
HETATM   25  C   UNL     1      -7.717   8.685  65.034  1.00  0.00    -0.103 C  
HETATM   26  C   UNL     1      -7.265   8.988  66.430  1.00  0.00    -0.087 C  
ENDBRANCH  22  24
ENDBRANCH  14  22
ENDBRANCH  12  14
ENDBRANCH   4   5
ENDBRANCH   2   4
TORSDOF 6
ENDMDL
MODEL      100
REMARK 921   NORMALIZED FREE ENERGY PREDICTED BY IDOCK:   -4.82 KCAL/MOL
REMARK 922        TOTAL FREE ENERGY PREDICTED BY IDOCK:   -7.19 KCAL/MOL
REMARK 923 INTER-LIGAND FREE ENERGY PREDICTED BY IDOCK:   -6.49 KCAL/MOL
REMARK 924 INTRA-LIGAND FREE ENERGY PREDICTED BY IDOCK:   -0.71 KCAL/MOL
REMARK 927      BINDING AFFINITY PREDICTED BY RF-SCORE:    0.00 PKD
ROOT
HETATM    1  C   UNL     1      -7.770   5.596  72.987  1.00  0.00    -0.101 C  
HETATM    2  C   UNL     1      -7.943   6.672  71.955  1.00  0.00    -0.102 C  
HETATM    3  O   UNL     1      -7.091   7.523  71.735  1.00  0.00    -0.061 OA 
ENDROOT
BRANCH   2   4
HETATM    4  O   UNL     1      -9.140   6.520  71.347  1.00  0.00    -0.148 OA 
BRANCH   4   5
HETATM    5  C   UNL     1      -9.741   7.561  70.782  1.00  0.00    -0.174 A  
HETATM    6  C   UNL     1      -9.796   7.991  69.467  1.00  0.00    -0.181 A  
HETATM    7  C   UNL     1     -10.513   9.221  69.291  1.00  0.00    -0.228 A  
HETATM    8  C   UNL     1     -11.016   9.654  70.488  1.00  0.00    -0.313 A  
HETATM    9  C   UNL     1     -11.862  10.856  70.642  1.00  0.00    -0.453 C  
HETATM   10  S   UNL     1     -10.574   8.671  71.797  1.00  0.00    -0.351 SA 
HETATM   11  C   UNL     1     -11.733  11.781  69.417  1.00  0.00    -0.341 C  
HETATM   12  N   UNL     1     -11.345  11.260  68.084  1.00  0.00    -0.279 NA 
HETATM   13  C   UNL     1     -10.705   9.931  67.989  1.00  0.00    -0.248 C  
BRANCH  12  14
HETATM   14  C   UNL     1     -10.611  12.317  67.296  1.00  0.00    -0.224 C  
BRANCH  14  15
HETATM   15  C   UNL     1     -11.176  12.626  65.902  1.00  0.00    -0.350 A  
HETATM   16  F   UNL     1     -11.277  14.972  66.329  1.00  0.00    -0.335 F  
HETATM   17  C   UNL     1     -11.520  11.600  65.003  1.00  0.00    -0.189 A  
HETATM   18  C   UNL     1     -11.501  13.935  65.513  1.00  0.00    -0.316 A  
HETATM   19  C   UNL     1     -12.106  14.232  64.286  1.00  0.00    -0.467 A  
HETATM   20  C   UNL     1     -12.116  11.885  63.767  1.00  0.00    -0.547 A  
HETATM   21  C   UNL     1     -12.407  13.200  63.408  1.00  0.00    -0.443 A  
ENDBRANCH  14  15
BRANCH  14  22
HETATM   22  C   UNL     1      -9.086  12.007  67.300  1.00  0.00    -0.178 C  
HETATM   23  O   UNL     1      -8.480  11.493  66.363  1.00  0.00    -0.175 OA 
BRANCH  22  24
HETATM   24  C   UNL     1      -8.344  12.371  68.555  1.00  0.00    -0.081 C  
HETATM   25  C   UNL     1      -6.858  12.113  68.682  1.00  0.00    -0.089 C  
HETATM   26  C   UNL     1      -7.359  13.516  68.506  1.00  0.00    -0.114 C  
ENDBRANCH  22  24
ENDBRANCH  14  22
ENDBRANCH  12  14
ENDBRANCH   4   5
ENDBRANCH   2   4
TORSDOF 6
ENDMDL
MODEL      101
REMARK 921   NORMALIZED FREE ENERGY PREDICTED BY IDOCK:   -4.82 KCAL/MOL
REMARK 922        TOTAL FREE ENERGY PREDICTED BY IDOCK:   -7.19 KCAL/MOL
REMARK 923 INTER-LIGAND FREE ENERGY PREDICTED BY IDOCK:   -6.63 KCAL/MOL
REMARK 924 INTRA-LIGAND FREE ENERGY PREDICTED BY IDOCK:   -0.56 KCAL/MOL
REMARK 927      BINDING AFFINITY PREDICTED BY RF-SCORE:    0.00 PKD
ROOT
HETATM    1  C   UNL     1      -9.817  19.962  66.217  1.00  0.00    -0.570 C  
HETATM    2  C   UNL     1     -10.392  18.612  66.534  1.00  0.00    -0.421 C  
HETATM    3  O   UNL     1     -11.034  18.386  67.551  1.00  0.00    -0.354 OA 
ENDROOT
BRANCH   2   4
HETATM    4  O   UNL     1     -10.089  17.752  65.535  1.00  0.00    -0.548 OA 
BRANCH   4   5
HETATM    5  C   UNL     1     -10.216  16.443  65.718  1.00  0.00    -0.348 A  
HETATM    6  C   UNL     1      -9.595  15.571  66.599  1.00  0.00    -0.273 A  
HETATM    7  C   UNL     1      -9.979  14.201  66.421  1.00  0.00    -0.302 A  
HETATM    8  C   UNL     1     -10.919  14.094  65.431  1.00  0.00    -0.327 A  
HETATM    9  C   UNL     1     -11.574  12.826  65.048  1.00  0.00    -0.372 C  
HETATM   10  S   UNL     1     -11.270  15.572  64.677  1.00  0.00    -0.290 SA 
HETATM   11  C   UNL     1     -10.770  11.615  65.556  1.00  0.00    -0.281 C  
HETATM   12  N   UNL     1      -9.878  11.712  66.737  1.00  0.00    -0.198 NA 
HETATM   13  C   UNL     1      -9.448  13.045  67.207  1.00  0.00    -0.224 C  
BRANCH  12  14
HETATM   14  C   UNL     1      -8.730  10.740  66.615  1.00  0.00    -0.147 C  
BRANCH  14  15
HETATM   15  C   UNL     1      -9.113   9.255  66.552  1.00  0.00    -0.191 A  
HETATM   16  F   UNL     1     -10.704   9.465  68.318  1.00  0.00    -0.241 F  
HETATM   17  C   UNL     1      -8.437   8.355  65.707  1.00  0.00    -0.169 A  
HETATM   18  C   UNL     1     -10.059   8.701  67.429  1.00  0.00    -0.229 A  
HETATM   19  C   UNL     1     -10.356   7.333  67.456  1.00  0.00    -0.310 A  
HETATM   20  C   UNL     1      -8.732   6.985  65.719  1.00  0.00    -0.116 A  
HETATM   21  C   UNL     1      -9.692   6.474  66.591  1.00  0.00    -0.201 A  
ENDBRANCH  14  15
BRANCH  14  22
HETATM   22  C   UNL     1      -7.653  11.065  67.690  1.00  0.00    -0.104 C  
HETATM   23  O   UNL     1      -7.826  10.953  68.901  1.00  0.00    -0.125 OA 
BRANCH  22  24
HETATM   24  C   UNL     1      -6.330  11.552  67.170  1.00  0.00    -0.124 C  
HETATM   25  C   UNL     1      -5.817  12.932  67.520  1.00  0.00    -0.115 C  
HETATM   26  C   UNL     1      -5.188  11.722  68.145  1.00  0.00    -0.045 C  
ENDBRANCH  22  24
ENDBRANCH  14  22
ENDBRANCH  12  14
ENDBRANCH   4   5
ENDBRANCH   2   4
TORSDOF 6
ENDMDL
MODEL      102
REMARK 921   NORMALIZED FREE ENERGY PREDICTED BY IDOCK:   -4.81 KCAL/MOL
REMARK 922        TOTAL FREE ENERGY PREDICTED BY IDOCK:   -7.19 KCAL/MOL
REMARK 923 INTER-LIGAND FREE ENERGY PREDICTED BY IDOCK:   -6.59 KCAL/MOL
REMARK 924 INTRA-LIGAND FREE ENERGY PREDICTED BY IDOCK:   -0.60 KCAL/MOL
REMARK 927      BINDING AFFINITY PREDICTED BY RF-SCORE:    0.00 PKD
ROOT
HETATM    1  C   UNL     1      -9.371   3.893  65.334  1.00  0.00    -0.159 C  
HETATM    2  C   UNL     1      -8.569   4.659  66.345  1.00  0.00    -0.112 C  
HETATM    3  O   UNL     1      -7.392   4.950  66.175  1.00  0.00    -0.075 OA 
ENDROOT
BRANCH   2   4
HETATM    4  O   UNL     1      -9.353   4.956  67.405  1.00  0.00    -0.121 OA 
BRANCH   4   5
HETATM    5  C   UNL     1      -9.614   6.222  67.710  1.00  0.00    -0.117 A  
HETATM    6  C   UNL     1     -10.315   7.208  67.033  1.00  0.00    -0.368 A  
HETATM    7  C   UNL     1     -10.306   8.480  67.694  1.00  0.00    -0.317 A  
HETATM    8  C   UNL     1      -9.628   8.395  68.882  1.00  0.00    -0.153 A  
HETATM    9  C   UNL     1      -9.494   9.514  69.838  1.00  0.00    -0.247 C  
HETATM   10  S   UNL     1      -8.949   6.866  69.158  1.00  0.00    -0.132 SA 
HETATM   11  C   UNL     1      -9.800  10.861  69.157  1.00  0.00    -0.145 C  
HETATM   12  N   UNL     1     -10.676  10.949  67.963  1.00  0.00    -0.202 NA 
HETATM   13  C   UNL     1     -10.953   9.727  67.181  1.00  0.00    -0.033 C  
BRANCH  12  14
HETATM   14  C   UNL     1     -10.269  12.115  67.094  1.00  0.00    -0.210 C  
BRANCH  14  15
HETATM   15  C   UNL     1     -10.731  13.499  67.572  1.00  0.00    -0.266 A  
HETATM   16  F   UNL     1      -9.297  14.641  66.044  1.00  0.00    -0.296 F  
HETATM   17  C   UNL     1     -11.610  13.647  68.661  1.00  0.00    -0.364 A  
HETATM   18  C   UNL     1     -10.194  14.680  67.036  1.00  0.00    -0.261 A  
HETATM   19  C   UNL     1     -10.527  15.951  67.519  1.00  0.00    -0.298 A  
HETATM   20  C   UNL     1     -11.959  14.913  69.148  1.00  0.00    -0.313 A  
HETATM   21  C   UNL     1     -11.419  16.065  68.576  1.00  0.00    -0.357 A  
ENDBRANCH  14  15
BRANCH  14  22
HETATM   22  C   UNL     1     -10.629  11.811  65.611  1.00  0.00    -0.268 C  
HETATM   23  O   UNL     1      -9.917  11.169  64.842  1.00  0.00    -0.241 OA 
BRANCH  22  24
HETATM   24  C   UNL     1     -11.939  12.364  65.125  1.00  0.00    -0.454 C  
HETATM   25  C   UNL     1     -11.997  13.286  63.927  1.00  0.00    -0.541 C  
HETATM   26  C   UNL     1     -12.485  11.874  63.804  1.00  0.00    -0.537 C  
ENDBRANCH  22  24
ENDBRANCH  14  22
ENDBRANCH  12  14
ENDBRANCH   4   5
ENDBRANCH   2   4
TORSDOF 6
ENDMDL
MODEL      103
REMARK 921   NORMALIZED FREE ENERGY PREDICTED BY IDOCK:   -4.81 KCAL/MOL
REMARK 922        TOTAL FREE ENERGY PREDICTED BY IDOCK:   -7.18 KCAL/MOL
REMARK 923 INTER-LIGAND FREE ENERGY PREDICTED BY IDOCK:   -6.87 KCAL/MOL
REMARK 924 INTRA-LIGAND FREE ENERGY PREDICTED BY IDOCK:   -0.31 KCAL/MOL
REMARK 927      BINDING AFFINITY PREDICTED BY RF-SCORE:    0.00 PKD
ROOT
HETATM    1  C   UNL     1     -11.503  13.416  67.425  1.00  0.00    -0.368 C  
HETATM    2  C   UNL     1     -10.297  13.427  66.531  1.00  0.00    -0.284 C  
HETATM    3  O   UNL     1      -9.589  14.414  66.384  1.00  0.00    -0.277 OA 
ENDROOT
BRANCH   2   4
HETATM    4  O   UNL     1     -10.149  12.208  65.966  1.00  0.00    -0.225 OA 
BRANCH   4   5
HETATM    5  C   UNL     1      -9.865  11.151  66.719  1.00  0.00    -0.200 A  
HETATM    6  C   UNL     1     -10.586  10.003  67.005  1.00  0.00    -0.279 A  
HETATM    7  C   UNL     1      -9.930   9.125  67.930  1.00  0.00    -0.228 A  
HETATM    8  C   UNL     1      -8.704   9.629  68.278  1.00  0.00    -0.120 A  
HETATM    9  C   UNL     1      -7.747   8.934  69.162  1.00  0.00    -0.092 C  
HETATM   10  S   UNL     1      -8.383  11.145  67.589  1.00  0.00    -0.125 SA 
HETATM   11  C   UNL     1      -8.450   7.835  69.981  1.00  0.00    -0.135 C  
HETATM   12  N   UNL     1      -9.693   7.183  69.504  1.00  0.00    -0.157 NA 
HETATM   13  C   UNL     1     -10.485   7.834  68.440  1.00  0.00    -0.166 C  
BRANCH  12  14
HETATM   14  C   UNL     1     -10.541   6.742  70.672  1.00  0.00    -0.224 C  
BRANCH  14  15
HETATM   15  C   UNL     1     -11.721   7.657  71.025  1.00  0.00    -0.306 A  
HETATM   16  F   UNL     1     -10.336   9.595  71.167  1.00  0.00    -0.359 F  
HETATM   17  C   UNL     1     -13.013   7.141  71.244  1.00  0.00    -0.378 A  
HETATM   18  C   UNL     1     -11.542   9.026  71.280  1.00  0.00    -0.317 A  
HETATM   19  C   UNL     1     -12.585   9.861  71.697  1.00  0.00    -0.519 A  
HETATM   20  C   UNL     1     -14.067   7.969  71.652  1.00  0.00    -0.516 A  
HETATM   21  C   UNL     1     -13.854   9.329  71.877  1.00  0.00    -0.414 A  
ENDBRANCH  14  15
BRANCH  14  22
HETATM   22  C   UNL     1      -9.625   6.403  71.884  1.00  0.00    -0.151 C  
HETATM   23  O   UNL     1      -8.695   5.600  71.848  1.00  0.00    -0.134 OA 
BRANCH  22  24
HETATM   24  C   UNL     1      -9.938   7.122  73.166  1.00  0.00    -0.269 C  
HETATM   25  C   UNL     1      -9.964   6.381  74.485  1.00  0.00    -0.370 C  
HETATM   26  C   UNL     1      -8.830   7.312  74.176  1.00  0.00    -0.262 C  
ENDBRANCH  22  24
ENDBRANCH  14  22
ENDBRANCH  12  14
ENDBRANCH   4   5
ENDBRANCH   2   4
TORSDOF 6
ENDMDL
MODEL      104
REMARK 921   NORMALIZED FREE ENERGY PREDICTED BY IDOCK:   -4.78 KCAL/MOL
REMARK 922        TOTAL FREE ENERGY PREDICTED BY IDOCK:   -7.15 KCAL/MOL
REMARK 923 INTER-LIGAND FREE ENERGY PREDICTED BY IDOCK:   -6.74 KCAL/MOL
REMARK 924 INTRA-LIGAND FREE ENERGY PREDICTED BY IDOCK:   -0.41 KCAL/MOL
REMARK 927      BINDING AFFINITY PREDICTED BY RF-SCORE:    0.00 PKD
ROOT
HETATM    1  C   UNL     1     -12.844  13.951  65.467  1.00  0.00    -0.471 C  
HETATM    2  C   UNL     1     -12.088  13.755  64.184  1.00  0.00    -0.433 C  
HETATM    3  O   UNL     1     -12.639  13.697  63.092  1.00  0.00    -0.792 OA 
ENDROOT
BRANCH   2   4
HETATM    4  O   UNL     1     -10.766  13.671  64.453  1.00  0.00    -0.410 OA 
BRANCH   4   5
HETATM    5  C   UNL     1     -10.318  12.783  65.333  1.00  0.00    -0.293 A  
HETATM    6  C   UNL     1     -10.339  11.397  65.336  1.00  0.00    -0.331 A  
HETATM    7  C   UNL     1      -9.795  10.815  66.529  1.00  0.00    -0.246 A  
HETATM    8  C   UNL     1      -9.338  11.793  67.371  1.00  0.00    -0.174 A  
HETATM    9  C   UNL     1      -8.658  11.526  68.655  1.00  0.00    -0.109 C  
HETATM   10  S   UNL     1      -9.628  13.362  66.796  1.00  0.00    -0.267 SA 
HETATM   11  C   UNL     1      -8.925  10.085  69.131  1.00  0.00    -0.169 C  
HETATM   12  N   UNL     1      -9.258   8.999  68.178  1.00  0.00    -0.136 NA 
HETATM   13  C   UNL     1      -9.717   9.350  66.818  1.00  0.00    -0.198 C  
BRANCH  12  14
HETATM   14  C   UNL     1     -10.138   7.966  68.840  1.00  0.00    -0.197 C  
BRANCH  14  15
HETATM   15  C   UNL     1      -9.960   7.808  70.356  1.00  0.00    -0.188 A  
HETATM   16  F   UNL     1     -12.152   8.630  70.823  1.00  0.00    -0.284 F  
HETATM   17  C   UNL     1      -8.730   7.415  70.917  1.00  0.00    -0.144 A  
HETATM   18  C   UNL     1     -10.970   8.176  71.259  1.00  0.00    -0.240 A  
HETATM   19  C   UNL     1     -10.798   8.132  72.647  1.00  0.00    -0.429 A  
HETATM   20  C   UNL     1      -8.549   7.357  72.305  1.00  0.00    -0.135 A  
HETATM   21  C   UNL     1      -9.583   7.714  73.170  1.00  0.00    -0.314 A  
ENDBRANCH  14  15
BRANCH  14  22
HETATM   22  C   UNL     1     -10.051   6.625  68.055  1.00  0.00    -0.154 C  
HETATM   23  O   UNL     1     -11.003   6.085  67.497  1.00  0.00    -0.304 OA 
BRANCH  22  24
HETATM   24  C   UNL     1      -8.695   5.979  68.004  1.00  0.00    -0.112 C  
HETATM   25  C   UNL     1      -8.457   4.736  67.174  1.00  0.00    -0.105 C  
HETATM   26  C   UNL     1      -7.906   6.053  66.716  1.00  0.00    -0.101 C  
ENDBRANCH  22  24
ENDBRANCH  14  22
ENDBRANCH  12  14
ENDBRANCH   4   5
ENDBRANCH   2   4
TORSDOF 6
ENDMDL
MODEL      105
REMARK 921   NORMALIZED FREE ENERGY PREDICTED BY IDOCK:   -4.77 KCAL/MOL
REMARK 922        TOTAL FREE ENERGY PREDICTED BY IDOCK:   -7.13 KCAL/MOL
REMARK 923 INTER-LIGAND FREE ENERGY PREDICTED BY IDOCK:   -6.71 KCAL/MOL
REMARK 924 INTRA-LIGAND FREE ENERGY PREDICTED BY IDOCK:   -0.42 KCAL/MOL
REMARK 927      BINDING AFFINITY PREDICTED BY RF-SCORE:    0.00 PKD
ROOT
HETATM    1  C   UNL     1     -14.378   7.531  71.626  1.00  0.00    -0.621 C  
HETATM    2  C   UNL     1     -13.426   8.643  71.958  1.00  0.00    -0.403 C  
HETATM    3  O   UNL     1     -13.788   9.803  72.111  1.00  0.00    -0.335 OA 
ENDROOT
BRANCH   2   4
HETATM    4  O   UNL     1     -12.174   8.145  72.059  1.00  0.00    -0.306 OA 
BRANCH   4   5
HETATM    5  C   UNL     1     -11.285   8.370  71.098  1.00  0.00    -0.263 A  
HETATM    6  C   UNL     1     -10.514   9.481  70.798  1.00  0.00    -0.384 A  
HETATM    7  C   UNL     1      -9.715   9.328  69.616  1.00  0.00    -0.192 A  
HETATM    8  C   UNL     1      -9.882   8.075  69.089  1.00  0.00    -0.178 A  
HETATM    9  C   UNL     1      -9.149   7.572  67.908  1.00  0.00    -0.130 C  
HETATM   10  S   UNL     1     -11.022   7.140  69.926  1.00  0.00    -0.234 SA 
HETATM   11  C   UNL     1      -8.541   8.734  67.100  1.00  0.00    -0.117 C  
HETATM   12  N   UNL     1      -8.213  10.035  67.732  1.00  0.00    -0.113 NA 
HETATM   13  C   UNL     1      -8.813  10.372  69.040  1.00  0.00    -0.172 C  
BRANCH  12  14
HETATM   14  C   UNL     1      -8.338  11.157  66.730  1.00  0.00    -0.152 C  
BRANCH  14  15
HETATM   15  C   UNL     1      -9.600  12.022  66.847  1.00  0.00    -0.209 A  
HETATM   16  F   UNL     1      -8.347  14.046  67.014  1.00  0.00    -0.197 F  
HETATM   17  C   UNL     1     -10.882  11.447  66.933  1.00  0.00    -0.335 A  
HETATM   18  C   UNL     1      -9.527  13.415  67.010  1.00  0.00    -0.247 A  
HETATM   19  C   UNL     1     -10.657  14.214  67.215  1.00  0.00    -0.277 A  
HETATM   20  C   UNL     1     -12.023  12.237  67.128  1.00  0.00    -0.207 A  
HETATM   21  C   UNL     1     -11.911  13.620  67.267  1.00  0.00    -0.429 A  
ENDBRANCH  14  15
BRANCH  14  22
HETATM   22  C   UNL     1      -8.085  10.607  65.297  1.00  0.00    -0.086 C  
HETATM   23  O   UNL     1      -6.977  10.320  64.849  1.00  0.00    -0.136 OA 
BRANCH  22  24
HETATM   24  C   UNL     1      -9.302  10.437  64.433  1.00  0.00    -0.321 C  
HETATM   25  C   UNL     1      -9.578  11.382  63.283  1.00  0.00    -0.373 C  
HETATM   26  C   UNL     1      -9.117   9.983  63.003  1.00  0.00    -0.298 C  
ENDBRANCH  22  24
ENDBRANCH  14  22
ENDBRANCH  12  14
ENDBRANCH   4   5
ENDBRANCH   2   4
TORSDOF 6
ENDMDL
MODEL      106
REMARK 921   NORMALIZED FREE ENERGY PREDICTED BY IDOCK:   -4.77 KCAL/MOL
REMARK 922        TOTAL FREE ENERGY PREDICTED BY IDOCK:   -7.12 KCAL/MOL
REMARK 923 INTER-LIGAND FREE ENERGY PREDICTED BY IDOCK:   -6.16 KCAL/MOL
REMARK 924 INTRA-LIGAND FREE ENERGY PREDICTED BY IDOCK:   -0.97 KCAL/MOL
REMARK 927      BINDING AFFINITY PREDICTED BY RF-SCORE:    0.00 PKD
ROOT
HETATM    1  C   UNL     1      -6.266  20.142  70.108  1.00  0.00    -0.388 C  
HETATM    2  C   UNL     1      -6.533  20.040  68.634  1.00  0.00    -0.301 C  
HETATM    3  O   UNL     1      -7.370  20.727  68.062  1.00  0.00    -0.184 OA 
ENDROOT
BRANCH   2   4
HETATM    4  O   UNL     1      -5.713  19.111  68.095  1.00  0.00    -0.200 OA 
BRANCH   4   5
HETATM    5  C   UNL     1      -6.136  17.863  67.927  1.00  0.00    -0.156 A  
HETATM    6  C   UNL     1      -7.232  17.343  67.257  1.00  0.00    -0.192 A  
HETATM    7  C   UNL     1      -7.359  15.920  67.376  1.00  0.00    -0.224 A  
HETATM    8  C   UNL     1      -6.318  15.407  68.103  1.00  0.00    -0.124 A  
HETATM    9  C   UNL     1      -6.115  13.965  68.352  1.00  0.00    -0.099 C  
HETATM   10  S   UNL     1      -5.267  16.597  68.700  1.00  0.00    -0.123 SA 
HETATM   11  C   UNL     1      -7.412  13.174  68.097  1.00  0.00    -0.131 C  
HETATM   12  N   UNL     1      -8.460  13.672  67.173  1.00  0.00    -0.198 NA 
HETATM   13  C   UNL     1      -8.458  15.097  66.783  1.00  0.00    -0.237 C  
BRANCH  12  14
HETATM   14  C   UNL     1      -9.822  13.190  67.608  1.00  0.00    -0.219 C  
BRANCH  14  15
HETATM   15  C   UNL     1     -10.128  11.711  67.333  1.00  0.00    -0.218 A  
HETATM   16  F   UNL     1     -10.748  11.292  69.600  1.00  0.00    -0.250 F  
HETATM   17  C   UNL     1      -9.873  11.126  66.079  1.00  0.00    -0.270 A  
HETATM   18  C   UNL     1     -10.547  10.843  68.355  1.00  0.00    -0.194 A  
HETATM   19  C   UNL     1     -10.739   9.471  68.152  1.00  0.00    -0.247 A  
HETATM   20  C   UNL     1     -10.071   9.756  65.861  1.00  0.00    -0.314 A  
HETATM   21  C   UNL     1     -10.506   8.929  66.897  1.00  0.00    -0.304 A  
ENDBRANCH  14  15
BRANCH  14  22
HETATM   22  C   UNL     1     -10.914  14.164  67.080  1.00  0.00    -0.299 C  
HETATM   23  O   UNL     1     -11.156  14.357  65.891  1.00  0.00    -0.308 OA 
BRANCH  22  24
HETATM   24  C   UNL     1     -11.699  14.902  68.128  1.00  0.00    -0.344 C  
HETATM   25  C   UNL     1     -12.063  14.238  69.438  1.00  0.00    -0.361 C  
HETATM   26  C   UNL     1     -11.001  15.296  69.410  1.00  0.00    -0.271 C  
ENDBRANCH  22  24
ENDBRANCH  14  22
ENDBRANCH  12  14
ENDBRANCH   4   5
ENDBRANCH   2   4
TORSDOF 6
ENDMDL
MODEL      107
REMARK 921   NORMALIZED FREE ENERGY PREDICTED BY IDOCK:   -4.76 KCAL/MOL
REMARK 922        TOTAL FREE ENERGY PREDICTED BY IDOCK:   -7.12 KCAL/MOL
REMARK 923 INTER-LIGAND FREE ENERGY PREDICTED BY IDOCK:   -6.67 KCAL/MOL
REMARK 924 INTRA-LIGAND FREE ENERGY PREDICTED BY IDOCK:   -0.45 KCAL/MOL
REMARK 927      BINDING AFFINITY PREDICTED BY RF-SCORE:    0.00 PKD
ROOT
HETATM    1  C   UNL     1     -10.213  19.513  68.391  1.00  0.00    -0.536 C  
HETATM    2  C   UNL     1      -8.746  19.572  68.077  1.00  0.00    -0.324 C  
HETATM    3  O   UNL     1      -8.195  20.587  67.670  1.00  0.00    -0.283 OA 
ENDROOT
BRANCH   2   4
HETATM    4  O   UNL     1      -8.187  18.366  68.325  1.00  0.00    -0.282 OA 
BRANCH   4   5
HETATM    5  C   UNL     1      -8.755  17.258  67.862  1.00  0.00    -0.231 A  
HETATM    6  C   UNL     1      -9.173  16.101  68.501  1.00  0.00    -0.210 A  
HETATM    7  C   UNL     1      -9.685  15.103  67.608  1.00  0.00    -0.211 A  
HETATM    8  C   UNL     1      -9.676  15.566  66.319  1.00  0.00    -0.302 A  
HETATM    9  C   UNL     1     -10.202  14.807  65.166  1.00  0.00    -0.410 C  
HETATM   10  S   UNL     1      -8.996  17.111  66.167  1.00  0.00    -0.124 SA 
HETATM   11  C   UNL     1     -10.335  13.310  65.505  1.00  0.00    -0.291 C  
HETATM   12  N   UNL     1     -10.512  12.840  66.900  1.00  0.00    -0.240 NA 
HETATM   13  C   UNL     1     -10.178  13.750  68.014  1.00  0.00    -0.248 C  
BRANCH  12  14
HETATM   14  C   UNL     1      -9.914  11.465  67.074  1.00  0.00    -0.201 C  
BRANCH  14  15
HETATM   15  C   UNL     1      -9.224  10.873  65.837  1.00  0.00    -0.214 A  
HETATM   16  F   UNL     1      -7.041  11.218  66.739  1.00  0.00    -0.114 F  
HETATM   17  C   UNL     1      -9.955  10.492  64.696  1.00  0.00    -0.415 A  
HETATM   18  C   UNL     1      -7.825  10.812  65.733  1.00  0.00    -0.106 A  
HETATM   19  C   UNL     1      -7.170  10.366  64.578  1.00  0.00    -0.008 A  
HETATM   20  C   UNL     1      -9.312  10.035  63.538  1.00  0.00    -0.301 A  
HETATM   21  C   UNL     1      -7.920   9.971  63.480  1.00  0.00    -0.157 A  
ENDBRANCH  14  15
BRANCH  14  22
HETATM   22  C   UNL     1     -10.965  10.516  67.719  1.00  0.00    -0.313 C  
HETATM   23  O   UNL     1     -12.109  10.850  68.020  1.00  0.00    -0.563 OA 
BRANCH  22  24
HETATM   24  C   UNL     1     -10.508   9.108  67.980  1.00  0.00    -0.276 C  
HETATM   25  C   UNL     1      -9.299   8.832  68.846  1.00  0.00    -0.145 C  
HETATM   26  C   UNL     1     -10.673   8.541  69.371  1.00  0.00    -0.166 C  
ENDBRANCH  22  24
ENDBRANCH  14  22
ENDBRANCH  12  14
ENDBRANCH   4   5
ENDBRANCH   2   4
TORSDOF 6
ENDMDL
MODEL      108
REMARK 921   NORMALIZED FREE ENERGY PREDICTED BY IDOCK:   -4.76 KCAL/MOL
REMARK 922        TOTAL FREE ENERGY PREDICTED BY IDOCK:   -7.12 KCAL/MOL
REMARK 923 INTER-LIGAND FREE ENERGY PREDICTED BY IDOCK:   -7.04 KCAL/MOL
REMARK 924 INTRA-LIGAND FREE ENERGY PREDICTED BY IDOCK:   -0.07 KCAL/MOL
REMARK 927      BINDING AFFINITY PREDICTED BY RF-SCORE:    0.00 PKD
ROOT
HETATM    1  C   UNL     1     -10.685  19.866  65.620  1.00  0.00    -0.377 C  
HETATM    2  C   UNL     1      -9.580  19.981  66.630  1.00  0.00    -0.425 C  
HETATM    3  O   UNL     1      -9.684  20.647  67.653  1.00  0.00    -0.404 OA 
ENDROOT
BRANCH   2   4
HETATM    4  O   UNL     1      -8.523  19.245  66.222  1.00  0.00    -0.318 OA 
BRANCH   4   5
HETATM    5  C   UNL     1      -8.441  17.958  66.540  1.00  0.00    -0.258 A  
HETATM    6  C   UNL     1      -9.032  16.834  65.987  1.00  0.00    -0.220 A  
HETATM    7  C   UNL     1      -8.724  15.618  66.683  1.00  0.00    -0.333 A  
HETATM    8  C   UNL     1      -7.866  15.868  67.721  1.00  0.00    -0.139 A  
HETATM    9  C   UNL     1      -7.299  14.820  68.595  1.00  0.00    -0.123 C  
HETATM   10  S   UNL     1      -7.508  17.515  67.913  1.00  0.00    -0.210 SA 
HETATM   11  C   UNL     1      -8.115  13.518  68.494  1.00  0.00    -0.108 C  
HETATM   12  N   UNL     1      -8.910  13.188  67.286  1.00  0.00    -0.200 NA 
HETATM   13  C   UNL     1      -9.244  14.262  66.328  1.00  0.00    -0.151 C  
BRANCH  12  14
HETATM   14  C   UNL     1     -10.106  12.344  67.654  1.00  0.00    -0.198 C  
BRANCH  14  15
HETATM   15  C   UNL     1      -9.819  11.129  68.547  1.00  0.00    -0.199 A  
HETATM   16  F   UNL     1     -11.774  11.486  69.870  1.00  0.00    -0.317 F  
HETATM   17  C   UNL     1      -8.634  10.382  68.417  1.00  0.00    -0.128 A  
HETATM   18  C   UNL     1     -10.658  10.790  69.621  1.00  0.00    -0.175 A  
HETATM   19  C   UNL     1     -10.368   9.746  70.508  1.00  0.00    -0.348 A  
HETATM   20  C   UNL     1      -8.337   9.329  69.292  1.00  0.00    -0.124 A  
HETATM   21  C   UNL     1      -9.205   9.010  70.336  1.00  0.00    -0.243 A  
ENDBRANCH  14  15
BRANCH  14  22
HETATM   22  C   UNL     1     -10.919  12.002  66.372  1.00  0.00    -0.296 C  
HETATM   23  O   UNL     1     -12.140  11.868  66.340  1.00  0.00    -0.552 OA 
BRANCH  22  24
HETATM   24  C   UNL     1     -10.118  11.828  65.113  1.00  0.00    -0.298 C  
HETATM   25  C   UNL     1      -9.994  10.471  64.453  1.00  0.00    -0.410 C  
HETATM   26  C   UNL     1     -10.852  11.528  63.825  1.00  0.00    -0.486 C  
ENDBRANCH  22  24
ENDBRANCH  14  22
ENDBRANCH  12  14
ENDBRANCH   4   5
ENDBRANCH   2   4
TORSDOF 6
ENDMDL
MODEL      109
REMARK 921   NORMALIZED FREE ENERGY PREDICTED BY IDOCK:   -4.75 KCAL/MOL
REMARK 922        TOTAL FREE ENERGY PREDICTED BY IDOCK:   -7.10 KCAL/MOL
REMARK 923 INTER-LIGAND FREE ENERGY PREDICTED BY IDOCK:   -6.35 KCAL/MOL
REMARK 924 INTRA-LIGAND FREE ENERGY PREDICTED BY IDOCK:   -0.75 KCAL/MOL
REMARK 927      BINDING AFFINITY PREDICTED BY RF-SCORE:    0.00 PKD
ROOT
HETATM    1  C   UNL     1     -10.015  19.749  68.986  1.00  0.00    -0.443 C  
HETATM    2  C   UNL     1      -9.524  18.529  68.262  1.00  0.00    -0.335 C  
HETATM    3  O   UNL     1      -8.384  18.100  68.384  1.00  0.00    -0.286 OA 
ENDROOT
BRANCH   2   4
HETATM    4  O   UNL     1     -10.525  18.023  67.508  1.00  0.00    -0.371 OA 
BRANCH   4   5
HETATM    5  C   UNL     1     -10.758  16.715  67.495  1.00  0.00    -0.278 A  
HETATM    6  C   UNL     1     -11.119  15.834  68.501  1.00  0.00    -0.335 A  
HETATM    7  C   UNL     1     -11.210  14.470  68.068  1.00  0.00    -0.308 A  
HETATM    8  C   UNL     1     -10.954  14.378  66.726  1.00  0.00    -0.314 A  
HETATM    9  C   UNL     1     -11.033  13.120  65.955  1.00  0.00    -0.288 C  
HETATM   10  S   UNL     1     -10.533  15.862  66.021  1.00  0.00    -0.349 SA 
HETATM   11  C   UNL     1     -10.988  11.897  66.889  1.00  0.00    -0.289 C  
HETATM   12  N   UNL     1     -11.429  11.979  68.302  1.00  0.00    -0.279 NA 
HETATM   13  C   UNL     1     -11.549  13.305  68.943  1.00  0.00    -0.314 C  
BRANCH  12  14
HETATM   14  C   UNL     1     -10.668  10.990  69.152  1.00  0.00    -0.234 C  
BRANCH  14  15
HETATM   15  C   UNL     1      -9.711  10.057  68.398  1.00  0.00    -0.157 A  
HETATM   16  F   UNL     1     -11.498   8.829  67.400  1.00  0.00     0.177 F  
HETATM   17  C   UNL     1      -8.318  10.118  68.591  1.00  0.00    -0.116 A  
HETATM   18  C   UNL     1     -10.185   9.013  67.588  1.00  0.00    -0.242 A  
HETATM   19  C   UNL     1      -9.336   8.090  66.967  1.00  0.00    -0.197 A  
HETATM   20  C   UNL     1      -7.456   9.206  67.967  1.00  0.00    -0.084 A  
HETATM   21  C   UNL     1      -7.965   8.193  67.154  1.00  0.00    -0.105 A  
ENDBRANCH  14  15
BRANCH  14  22
HETATM   22  C   UNL     1     -11.654  10.246  70.098  1.00  0.00    -0.299 C  
HETATM   23  O   UNL     1     -12.844  10.059  69.851  1.00  0.00     0.140 OA 
BRANCH  22  24
HETATM   24  C   UNL     1     -11.075   9.744  71.390  1.00  0.00    -0.317 C  
HETATM   25  C   UNL     1     -11.764   8.651  72.178  1.00  0.00    -0.442 C  
HETATM   26  C   UNL     1     -10.500   8.346  71.430  1.00  0.00    -0.286 C  
ENDBRANCH  22  24
ENDBRANCH  14  22
ENDBRANCH  12  14
ENDBRANCH   4   5
ENDBRANCH   2   4
TORSDOF 6
ENDMDL
MODEL      110
REMARK 921   NORMALIZED FREE ENERGY PREDICTED BY IDOCK:   -4.74 KCAL/MOL
REMARK 922        TOTAL FREE ENERGY PREDICTED BY IDOCK:   -7.09 KCAL/MOL
REMARK 923 INTER-LIGAND FREE ENERGY PREDICTED BY IDOCK:   -6.52 KCAL/MOL
REMARK 924 INTRA-LIGAND FREE ENERGY PREDICTED BY IDOCK:   -0.57 KCAL/MOL
REMARK 927      BINDING AFFINITY PREDICTED BY RF-SCORE:    0.00 PKD
ROOT
HETATM    1  C   UNL     1      -8.081   6.962  62.388  1.00  0.00    -0.108 C  
HETATM    2  C   UNL     1      -7.515   7.239  63.750  1.00  0.00    -0.097 C  
HETATM    3  O   UNL     1      -7.110   6.354  64.493  1.00  0.00    -0.052 OA 
ENDROOT
BRANCH   2   4
HETATM    4  O   UNL     1      -7.530   8.571  63.978  1.00  0.00    -0.105 OA 
BRANCH   4   5
HETATM    5  C   UNL     1      -8.182   9.064  65.025  1.00  0.00    -0.153 A  
HETATM    6  C   UNL     1      -9.473   9.547  65.163  1.00  0.00    -0.305 A  
HETATM    7  C   UNL     1      -9.763  10.053  66.473  1.00  0.00    -0.254 A  
HETATM    8  C   UNL     1      -8.680   9.891  67.297  1.00  0.00    -0.128 A  
HETATM    9  C   UNL     1      -8.674  10.246  68.731  1.00  0.00    -0.144 C  
HETATM   10  S   UNL     1      -7.330   9.234  66.509  1.00  0.00    -0.093 SA 
HETATM   11  C   UNL     1      -9.829  11.208  69.066  1.00  0.00    -0.114 C  
HETATM   12  N   UNL     1     -11.068  11.250  68.254  1.00  0.00    -0.218 NA 
HETATM   13  C   UNL     1     -11.062  10.660  66.899  1.00  0.00    -0.090 C  
BRANCH  12  14
HETATM   14  C   UNL     1     -11.673  12.633  68.282  1.00  0.00    -0.342 C  
BRANCH  14  15
HETATM   15  C   UNL     1     -10.984  13.682  67.398  1.00  0.00    -0.289 A  
HETATM   16  F   UNL     1     -12.934  14.016  66.063  1.00  0.00    -0.492 F  
HETATM   17  C   UNL     1      -9.616  13.982  67.539  1.00  0.00    -0.228 A  
HETATM   18  C   UNL     1     -11.650  14.291  66.322  1.00  0.00    -0.372 A  
HETATM   19  C   UNL     1     -11.017  15.178  65.444  1.00  0.00    -0.381 A  
HETATM   20  C   UNL     1      -8.974  14.876  66.673  1.00  0.00    -0.301 A  
HETATM   21  C   UNL     1      -9.674  15.475  65.626  1.00  0.00    -0.355 A  
ENDBRANCH  14  15
BRANCH  14  22
HETATM   22  C   UNL     1     -11.870  13.087  69.757  1.00  0.00    -0.311 C  
HETATM   23  O   UNL     1     -12.069  12.322  70.698  1.00  0.00    -0.363 OA 
BRANCH  22  24
HETATM   24  C   UNL     1     -11.813  14.568  70.002  1.00  0.00    -0.372 C  
HETATM   25  C   UNL     1     -12.986  15.300  70.617  1.00  0.00    -0.442 C  
HETATM   26  C   UNL     1     -11.748  15.063  71.429  1.00  0.00    -0.409 C  
ENDBRANCH  22  24
ENDBRANCH  14  22
ENDBRANCH  12  14
ENDBRANCH   4   5
ENDBRANCH   2   4
TORSDOF 6
ENDMDL
MODEL      111
REMARK 921   NORMALIZED FREE ENERGY PREDICTED BY IDOCK:   -4.72 KCAL/MOL
REMARK 922        TOTAL FREE ENERGY PREDICTED BY IDOCK:   -7.07 KCAL/MOL
REMARK 923 INTER-LIGAND FREE ENERGY PREDICTED BY IDOCK:   -7.28 KCAL/MOL
REMARK 924 INTRA-LIGAND FREE ENERGY PREDICTED BY IDOCK:    0.21 KCAL/MOL
REMARK 927      BINDING AFFINITY PREDICTED BY RF-SCORE:    0.00 PKD
ROOT
HETATM    1  C   UNL     1      -9.225  10.744  62.529  1.00  0.00    -0.334 C  
HETATM    2  C   UNL     1      -8.954   9.921  63.755  1.00  0.00    -0.250 C  
HETATM    3  O   UNL     1      -7.886   9.356  63.952  1.00  0.00    -0.117 OA 
ENDROOT
BRANCH   2   4
HETATM    4  O   UNL     1     -10.045   9.933  64.552  1.00  0.00    -0.145 OA 
BRANCH   4   5
HETATM    5  C   UNL     1     -10.277  10.967  65.354  1.00  0.00    -0.277 A  
HETATM    6  C   UNL     1     -10.201  12.334  65.140  1.00  0.00    -0.305 A  
HETATM    7  C   UNL     1     -10.475  13.116  66.310  1.00  0.00    -0.291 A  
HETATM    8  C   UNL     1     -10.795  12.302  67.364  1.00  0.00    -0.239 A  
HETATM    9  C   UNL     1     -11.198  12.796  68.697  1.00  0.00    -0.322 C  
HETATM   10  S   UNL     1     -10.687  10.651  66.993  1.00  0.00    -0.236 SA 
HETATM   11  C   UNL     1     -10.785  14.268  68.887  1.00  0.00    -0.257 C  
HETATM   12  N   UNL     1     -10.604  15.182  67.733  1.00  0.00    -0.259 NA 
HETATM   13  C   UNL     1     -10.437  14.609  66.381  1.00  0.00    -0.295 C  
BRANCH  12  14
HETATM   14  C   UNL     1      -9.572  16.236  68.049  1.00  0.00    -0.224 C  
BRANCH  14  15
HETATM   15  C   UNL     1      -9.924  17.668  67.623  1.00  0.00    -0.323 A  
HETATM   16  F   UNL     1     -10.287  17.033  65.351  1.00  0.00    -0.290 F  
HETATM   17  C   UNL     1      -9.821  18.750  68.517  1.00  0.00    -0.444 A  
HETATM   18  C   UNL     1     -10.234  17.985  66.290  1.00  0.00    -0.381 A  
HETATM   19  C   UNL     1     -10.465  19.296  65.858  1.00  0.00    -0.534 A  
HETATM   20  C   UNL     1     -10.059  20.065  68.099  1.00  0.00    -0.547 A  
HETATM   21  C   UNL     1     -10.383  20.338  66.770  1.00  0.00    -0.420 A  
ENDBRANCH  14  15
BRANCH  14  22
HETATM   22  C   UNL     1      -8.173  15.762  67.559  1.00  0.00    -0.162 C  
HETATM   23  O   UNL     1      -7.573  16.245  66.601  1.00  0.00    -0.238 OA 
BRANCH  22  24
HETATM   24  C   UNL     1      -7.553  14.632  68.331  1.00  0.00    -0.119 C  
HETATM   25  C   UNL     1      -6.150  14.157  68.022  1.00  0.00    -0.149 C  
HETATM   26  C   UNL     1      -6.412  14.941  69.273  1.00  0.00    -0.121 C  
ENDBRANCH  22  24
ENDBRANCH  14  22
ENDBRANCH  12  14
ENDBRANCH   4   5
ENDBRANCH   2   4
TORSDOF 6
ENDMDL
MODEL      112
REMARK 921   NORMALIZED FREE ENERGY PREDICTED BY IDOCK:   -4.72 KCAL/MOL
REMARK 922        TOTAL FREE ENERGY PREDICTED BY IDOCK:   -7.06 KCAL/MOL
REMARK 923 INTER-LIGAND FREE ENERGY PREDICTED BY IDOCK:   -6.26 KCAL/MOL
REMARK 924 INTRA-LIGAND FREE ENERGY PREDICTED BY IDOCK:   -0.80 KCAL/MOL
REMARK 927      BINDING AFFINITY PREDICTED BY RF-SCORE:    0.00 PKD
ROOT
HETATM    1  C   UNL     1      -9.392  17.835  66.625  1.00  0.00    -0.296 C  
HETATM    2  C   UNL     1     -10.198  17.318  67.782  1.00  0.00    -0.332 C  
HETATM    3  O   UNL     1     -10.106  17.779  68.913  1.00  0.00    -0.360 OA 
ENDROOT
BRANCH   2   4
HETATM    4  O   UNL     1     -11.000  16.317  67.356  1.00  0.00    -0.281 OA 
BRANCH   4   5
HETATM    5  C   UNL     1     -10.894  15.104  67.885  1.00  0.00    -0.291 A  
HETATM    6  C   UNL     1      -9.941  14.110  67.729  1.00  0.00    -0.235 A  
HETATM    7  C   UNL     1     -10.241  12.904  68.444  1.00  0.00    -0.238 A  
HETATM    8  C   UNL     1     -11.401  13.050  69.158  1.00  0.00    -0.273 A  
HETATM    9  C   UNL     1     -11.953  12.015  70.057  1.00  0.00    -0.400 C  
HETATM   10  S   UNL     1     -12.154  14.550  68.914  1.00  0.00    -0.180 SA 
HETATM   11  C   UNL     1     -11.340  10.636  69.751  1.00  0.00    -0.301 C  
HETATM   12  N   UNL     1     -10.003  10.499  69.125  1.00  0.00    -0.214 NA 
HETATM   13  C   UNL     1      -9.408  11.662  68.435  1.00  0.00    -0.191 C  
BRANCH  12  14
HETATM   14  C   UNL     1      -9.932   9.236  68.302  1.00  0.00    -0.173 C  
BRANCH  14  15
HETATM   15  C   UNL     1      -9.938   7.920  69.092  1.00  0.00    -0.184 A  
HETATM   16  F   UNL     1      -8.218   8.658  70.573  1.00  0.00    -0.091 F  
HETATM   17  C   UNL     1     -10.728   6.825  68.694  1.00  0.00    -0.279 A  
HETATM   18  C   UNL     1      -9.059   7.700  70.165  1.00  0.00    -0.150 A  
HETATM   19  C   UNL     1      -8.979   6.476  70.839  1.00  0.00    -0.147 A  
HETATM   20  C   UNL     1     -10.664   5.598  69.367  1.00  0.00    -0.365 A  
HETATM   21  C   UNL     1      -9.791   5.424  70.441  1.00  0.00    -0.270 A  
ENDBRANCH  14  15
BRANCH  14  22
HETATM   22  C   UNL     1      -8.766   9.346  67.276  1.00  0.00    -0.128 C  
HETATM   23  O   UNL     1      -7.580   9.439  67.582  1.00  0.00    -0.087 OA 
BRANCH  22  24
HETATM   24  C   UNL     1      -9.162   9.339  65.827  1.00  0.00    -0.283 C  
HETATM   25  C   UNL     1     -10.240  10.268  65.312  1.00  0.00    -0.308 C  
HETATM   26  C   UNL     1      -8.804  10.534  64.974  1.00  0.00    -0.207 C  
ENDBRANCH  22  24
ENDBRANCH  14  22
ENDBRANCH  12  14
ENDBRANCH   4   5
ENDBRANCH   2   4
TORSDOF 6
ENDMDL
MODEL      113
REMARK 921   NORMALIZED FREE ENERGY PREDICTED BY IDOCK:   -4.72 KCAL/MOL
REMARK 922        TOTAL FREE ENERGY PREDICTED BY IDOCK:   -7.05 KCAL/MOL
REMARK 923 INTER-LIGAND FREE ENERGY PREDICTED BY IDOCK:   -6.48 KCAL/MOL
REMARK 924 INTRA-LIGAND FREE ENERGY PREDICTED BY IDOCK:   -0.58 KCAL/MOL
REMARK 927      BINDING AFFINITY PREDICTED BY RF-SCORE:    0.00 PKD
ROOT
HETATM    1  C   UNL     1     -12.388  12.631  64.638  1.00  0.00    -0.546 C  
HETATM    2  C   UNL     1     -10.895  12.472  64.651  1.00  0.00    -0.310 C  
HETATM    3  O   UNL     1     -10.235  12.326  63.630  1.00  0.00    -0.416 OA 
ENDROOT
BRANCH   2   4
HETATM    4  O   UNL     1     -10.450  12.528  65.926  1.00  0.00    -0.255 OA 
BRANCH   4   5
HETATM    5  C   UNL     1     -10.046  11.424  66.543  1.00  0.00    -0.215 A  
HETATM    6  C   UNL     1     -10.749  10.349  67.064  1.00  0.00    -0.298 A  
HETATM    7  C   UNL     1      -9.919   9.379  67.716  1.00  0.00    -0.228 A  
HETATM    8  C   UNL     1      -8.601   9.739  67.624  1.00  0.00    -0.125 A  
HETATM    9  C   UNL     1      -7.483   8.919  68.134  1.00  0.00    -0.092 C  
HETATM   10  S   UNL     1      -8.367  11.234  66.858  1.00  0.00    -0.159 SA 
HETATM   11  C   UNL     1      -7.984   7.875  69.149  1.00  0.00    -0.118 C  
HETATM   12  N   UNL     1      -9.379   7.372  69.127  1.00  0.00    -0.147 NA 
HETATM   13  C   UNL     1     -10.407   8.137  68.392  1.00  0.00    -0.199 C  
BRANCH  12  14
HETATM   14  C   UNL     1      -9.824   6.986  70.516  1.00  0.00    -0.179 C  
BRANCH  14  15
HETATM   15  C   UNL     1      -9.557   5.530  70.924  1.00  0.00    -0.219 A  
HETATM   16  F   UNL     1     -10.121   4.692  68.761  1.00  0.00    -0.230 F  
HETATM   17  C   UNL     1      -9.240   5.183  72.250  1.00  0.00    -0.155 A  
HETATM   18  C   UNL     1      -9.749   4.467  70.027  1.00  0.00    -0.216 A  
HETATM   19  C   UNL     1      -9.606   3.125  70.401  1.00  0.00    -0.192 A  
HETATM   20  C   UNL     1      -9.084   3.845  72.635  1.00  0.00    -0.132 A  
HETATM   21  C   UNL     1      -9.265   2.816  71.710  1.00  0.00    -0.171 A  
ENDBRANCH  14  15
BRANCH  14  22
HETATM   22  C   UNL     1     -11.296   7.439  70.738  1.00  0.00    -0.280 C  
HETATM   23  O   UNL     1     -12.280   6.827  70.330  1.00  0.00    -0.324 OA 
BRANCH  22  24
HETATM   24  C   UNL     1     -11.481   8.720  71.502  1.00  0.00    -0.375 C  
HETATM   25  C   UNL     1     -12.384   9.815  70.976  1.00  0.00    -0.422 C  
HETATM   26  C   UNL     1     -12.821   8.989  72.148  1.00  0.00    -0.478 C  
ENDBRANCH  22  24
ENDBRANCH  14  22
ENDBRANCH  12  14
ENDBRANCH   4   5
ENDBRANCH   2   4
TORSDOF 6
ENDMDL
MODEL      114
REMARK 921   NORMALIZED FREE ENERGY PREDICTED BY IDOCK:   -4.70 KCAL/MOL
REMARK 922        TOTAL FREE ENERGY PREDICTED BY IDOCK:   -7.03 KCAL/MOL
REMARK 923 INTER-LIGAND FREE ENERGY PREDICTED BY IDOCK:   -5.96 KCAL/MOL
REMARK 924 INTRA-LIGAND FREE ENERGY PREDICTED BY IDOCK:   -1.07 KCAL/MOL
REMARK 927      BINDING AFFINITY PREDICTED BY RF-SCORE:    0.00 PKD
ROOT
HETATM    1  C   UNL     1     -12.427  12.909  64.847  1.00  0.00    -0.540 C  
HETATM    2  C   UNL     1     -11.684  13.265  66.102  1.00  0.00    -0.374 C  
HETATM    3  O   UNL     1     -10.724  14.024  66.112  1.00  0.00    -0.285 OA 
ENDROOT
BRANCH   2   4
HETATM    4  O   UNL     1     -12.253  12.632  67.153  1.00  0.00    -0.445 OA 
BRANCH   4   5
HETATM    5  C   UNL     1     -11.584  11.690  67.808  1.00  0.00    -0.289 A  
HETATM    6  C   UNL     1     -10.671  10.741  67.380  1.00  0.00    -0.317 A  
HETATM    7  C   UNL     1     -10.226   9.857  68.418  1.00  0.00    -0.203 A  
HETATM    8  C   UNL     1     -10.793  10.206  69.615  1.00  0.00    -0.263 A  
HETATM    9  C   UNL     1     -10.490   9.538  70.898  1.00  0.00    -0.382 C  
HETATM   10  S   UNL     1     -11.890  11.493  69.488  1.00  0.00    -0.359 SA 
HETATM   11  C   UNL     1      -9.838   8.163  70.663  1.00  0.00    -0.181 C  
HETATM   12  N   UNL     1      -9.083   7.860  69.423  1.00  0.00    -0.146 NA 
HETATM   13  C   UNL     1      -9.268   8.723  68.238  1.00  0.00    -0.140 C  
BRANCH  12  14
HETATM   14  C   UNL     1      -9.177   6.391  69.092  1.00  0.00    -0.133 C  
BRANCH  14  15
HETATM   15  C   UNL     1      -8.962   5.425  70.266  1.00  0.00    -0.158 A  
HETATM   16  F   UNL     1      -6.843   6.373  70.819  1.00  0.00    -0.055 F  
HETATM   17  C   UNL     1      -9.863   4.377  70.532  1.00  0.00    -0.285 A  
HETATM   18  C   UNL     1      -7.793   5.457  71.042  1.00  0.00    -0.103 A  
HETATM   19  C   UNL     1      -7.530   4.527  72.055  1.00  0.00    -0.082 A  
HETATM   20  C   UNL     1      -9.616   3.445  71.549  1.00  0.00    -0.233 A  
HETATM   21  C   UNL     1      -8.451   3.522  72.312  1.00  0.00    -0.090 A  
ENDBRANCH  14  15
BRANCH  14  22
HETATM   22  C   UNL     1      -8.292   6.077  67.851  1.00  0.00    -0.116 C  
HETATM   23  O   UNL     1      -7.082   6.281  67.793  1.00  0.00    -0.076 OA 
BRANCH  22  24
HETATM   24  C   UNL     1      -9.005   5.491  66.666  1.00  0.00    -0.118 C  
HETATM   25  C   UNL     1      -9.716   4.158  66.767  1.00  0.00    -0.234 C  
HETATM   26  C   UNL     1     -10.515   5.425  66.690  1.00  0.00    -0.356 C  
ENDBRANCH  22  24
ENDBRANCH  14  22
ENDBRANCH  12  14
ENDBRANCH   4   5
ENDBRANCH   2   4
TORSDOF 6
ENDMDL
MODEL      115
REMARK 921   NORMALIZED FREE ENERGY PREDICTED BY IDOCK:   -4.70 KCAL/MOL
REMARK 922        TOTAL FREE ENERGY PREDICTED BY IDOCK:   -7.03 KCAL/MOL
REMARK 923 INTER-LIGAND FREE ENERGY PREDICTED BY IDOCK:   -6.33 KCAL/MOL
REMARK 924 INTRA-LIGAND FREE ENERGY PREDICTED BY IDOCK:   -0.70 KCAL/MOL
REMARK 927      BINDING AFFINITY PREDICTED BY RF-SCORE:    0.00 PKD
ROOT
HETATM    1  C   UNL     1     -14.361   7.313  71.281  1.00  0.00    -0.356 C  
HETATM    2  C   UNL     1     -12.970   7.428  71.834  1.00  0.00    -0.258 C  
HETATM    3  O   UNL     1     -12.191   6.485  71.871  1.00  0.00    -0.343 OA 
ENDROOT
BRANCH   2   4
HETATM    4  O   UNL     1     -12.756   8.698  72.245  1.00  0.00    -0.363 OA 
BRANCH   4   5
HETATM    5  C   UNL     1     -12.411   9.636  71.370  1.00  0.00    -0.378 A  
HETATM    6  C   UNL     1     -11.714   9.568  70.174  1.00  0.00    -0.096 A  
HETATM    7  C   UNL     1     -11.497  10.846  69.560  1.00  0.00    -0.372 A  
HETATM    8  C   UNL     1     -12.085  11.837  70.301  1.00  0.00    -0.342 A  
HETATM    9  C   UNL     1     -12.105  13.261  69.907  1.00  0.00    -0.377 C  
HETATM   10  S   UNL     1     -12.798  11.271  71.732  1.00  0.00    -0.263 SA 
HETATM   11  C   UNL     1     -11.033  13.553  68.841  1.00  0.00    -0.252 C  
HETATM   12  N   UNL     1     -10.528  12.495  67.933  1.00  0.00    -0.212 NA 
HETATM   13  C   UNL     1     -10.753  11.078  68.284  1.00  0.00    -0.196 C  
BRANCH  12  14
HETATM   14  C   UNL     1      -9.099  12.776  67.536  1.00  0.00    -0.193 C  
BRANCH  14  15
HETATM   15  C   UNL     1      -8.749  14.251  67.297  1.00  0.00    -0.230 A  
HETATM   16  F   UNL     1     -10.336  14.470  65.528  1.00  0.00    -0.289 F  
HETATM   17  C   UNL     1      -7.695  14.879  67.987  1.00  0.00    -0.128 A  
HETATM   18  C   UNL     1      -9.370  15.002  66.286  1.00  0.00    -0.307 A  
HETATM   19  C   UNL     1      -9.002  16.319  65.985  1.00  0.00    -0.325 A  
HETATM   20  C   UNL     1      -7.323  16.200  67.702  1.00  0.00    -0.164 A  
HETATM   21  C   UNL     1      -7.977  16.920  66.703  1.00  0.00    -0.300 A  
ENDBRANCH  14  15
BRANCH  14  22
HETATM   22  C   UNL     1      -8.687  11.836  66.366  1.00  0.00    -0.147 C  
HETATM   23  O   UNL     1      -9.218  11.835  65.257  1.00  0.00    -0.115 OA 
BRANCH  22  24
HETATM   24  C   UNL     1      -7.567  10.878  66.655  1.00  0.00    -0.139 C  
HETATM   25  C   UNL     1      -7.326   9.674  65.771  1.00  0.00    -0.100 C  
HETATM   26  C   UNL     1      -6.386  10.840  65.712  1.00  0.00    -0.089 C  
ENDBRANCH  22  24
ENDBRANCH  14  22
ENDBRANCH  12  14
ENDBRANCH   4   5
ENDBRANCH   2   4
TORSDOF 6
ENDMDL
MODEL      116
REMARK 921   NORMALIZED FREE ENERGY PREDICTED BY IDOCK:   -4.69 KCAL/MOL
REMARK 922        TOTAL FREE ENERGY PREDICTED BY IDOCK:   -7.03 KCAL/MOL
REMARK 923 INTER-LIGAND FREE ENERGY PREDICTED BY IDOCK:   -6.18 KCAL/MOL
REMARK 924 INTRA-LIGAND FREE ENERGY PREDICTED BY IDOCK:   -0.85 KCAL/MOL
REMARK 927      BINDING AFFINITY PREDICTED BY RF-SCORE:    0.00 PKD
ROOT
HETATM    1  C   UNL     1     -11.640  16.309  70.007  1.00  0.00    -0.143 C  
HETATM    2  C   UNL     1     -10.856  16.170  68.734  1.00  0.00    -0.310 C  
HETATM    3  O   UNL     1      -9.673  16.474  68.647  1.00  0.00    -0.228 OA 
ENDROOT
BRANCH   2   4
HETATM    4  O   UNL     1     -11.657  15.667  67.769  1.00  0.00    -0.270 OA 
BRANCH   4   5
HETATM    5  C   UNL     1     -11.461  14.435  67.312  1.00  0.00    -0.359 A  
HETATM    6  C   UNL     1     -11.419  13.209  67.957  1.00  0.00    -0.346 A  
HETATM    7  C   UNL     1     -11.114  12.111  67.087  1.00  0.00    -0.345 A  
HETATM    8  C   UNL     1     -10.979  12.548  65.796  1.00  0.00    -0.292 A  
HETATM    9  C   UNL     1     -10.730  11.656  64.644  1.00  0.00    -0.371 C  
HETATM   10  S   UNL     1     -11.126  14.230  65.639  1.00  0.00    -0.327 SA 
HETATM   11  C   UNL     1     -10.204  10.286  65.111  1.00  0.00    -0.224 C  
HETATM   12  N   UNL     1     -10.503   9.756  66.463  1.00  0.00    -0.182 NA 
HETATM   13  C   UNL     1     -10.975  10.684  67.512  1.00  0.00    -0.310 C  
BRANCH  12  14
HETATM   14  C   UNL     1      -9.386   8.860  66.939  1.00  0.00    -0.168 C  
BRANCH  14  15
HETATM   15  C   UNL     1      -9.758   7.847  68.031  1.00  0.00    -0.182 A  
HETATM   16  F   UNL     1     -11.299   6.701  66.613  1.00  0.00    -0.439 F  
HETATM   17  C   UNL     1      -9.260   7.960  69.342  1.00  0.00    -0.145 A  
HETATM   18  C   UNL     1     -10.716   6.844  67.809  1.00  0.00    -0.254 A  
HETATM   19  C   UNL     1     -11.143   5.970  68.815  1.00  0.00    -0.329 A  
HETATM   20  C   UNL     1      -9.673   7.085  70.356  1.00  0.00    -0.178 A  
HETATM   21  C   UNL     1     -10.612   6.089  70.092  1.00  0.00    -0.341 A  
ENDBRANCH  14  15
BRANCH  14  22
HETATM   22  C   UNL     1      -8.136   9.721  67.283  1.00  0.00    -0.117 C  
HETATM   23  O   UNL     1      -8.126  10.631  68.109  1.00  0.00    -0.109 OA 
BRANCH  22  24
HETATM   24  C   UNL     1      -6.880   9.388  66.529  1.00  0.00    -0.083 C  
HETATM   25  C   UNL     1      -6.243   8.020  66.645  1.00  0.00    -0.054 C  
HETATM   26  C   UNL     1      -6.963   8.403  65.386  1.00  0.00    -0.074 C  
ENDBRANCH  22  24
ENDBRANCH  14  22
ENDBRANCH  12  14
ENDBRANCH   4   5
ENDBRANCH   2   4
TORSDOF 6
ENDMDL
MODEL      117
REMARK 921   NORMALIZED FREE ENERGY PREDICTED BY IDOCK:   -4.69 KCAL/MOL
REMARK 922        TOTAL FREE ENERGY PREDICTED BY IDOCK:   -7.03 KCAL/MOL
REMARK 923 INTER-LIGAND FREE ENERGY PREDICTED BY IDOCK:   -6.38 KCAL/MOL
REMARK 924 INTRA-LIGAND FREE ENERGY PREDICTED BY IDOCK:   -0.64 KCAL/MOL
REMARK 927      BINDING AFFINITY PREDICTED BY RF-SCORE:    0.00 PKD
ROOT
HETATM    1  C   UNL     1      -8.428  17.633  67.511  1.00  0.00    -0.220 C  
HETATM    2  C   UNL     1      -9.869  17.810  67.894  1.00  0.00    -0.306 C  
HETATM    3  O   UNL     1     -10.216  18.316  68.954  1.00  0.00    -0.386 OA 
ENDROOT
BRANCH   2   4
HETATM    4  O   UNL     1     -10.656  17.344  66.900  1.00  0.00    -0.303 OA 
BRANCH   4   5
HETATM    5  C   UNL     1     -10.769  16.037  66.693  1.00  0.00    -0.247 A  
HETATM    6  C   UNL     1     -10.920  14.975  67.570  1.00  0.00    -0.307 A  
HETATM    7  C   UNL     1     -10.939  13.693  66.926  1.00  0.00    -0.296 A  
HETATM    8  C   UNL     1     -10.845  13.841  65.568  1.00  0.00    -0.299 A  
HETATM    9  C   UNL     1     -10.904  12.718  64.610  1.00  0.00    -0.361 C  
HETATM   10  S   UNL     1     -10.652  15.453  65.080  1.00  0.00    -0.423 SA 
HETATM   11  C   UNL     1     -10.632  11.376  65.315  1.00  0.00    -0.277 C  
HETATM   12  N   UNL     1     -10.899  11.188  66.761  1.00  0.00    -0.274 NA 
HETATM   13  C   UNL     1     -11.060  12.376  67.624  1.00  0.00    -0.259 C  
BRANCH  12  14
HETATM   14  C   UNL     1      -9.952  10.169  67.346  1.00  0.00    -0.195 C  
BRANCH  14  15
HETATM   15  C   UNL     1      -8.574  10.699  67.765  1.00  0.00    -0.123 A  
HETATM   16  F   UNL     1      -8.837   9.957  70.018  1.00  0.00    -0.191 F  
HETATM   17  C   UNL     1      -7.770  11.442  66.880  1.00  0.00    -0.155 A  
HETATM   18  C   UNL     1      -8.111  10.585  69.086  1.00  0.00    -0.152 A  
HETATM   19  C   UNL     1      -6.902  11.144  69.515  1.00  0.00    -0.127 A  
HETATM   20  C   UNL     1      -6.553  11.998  67.296  1.00  0.00    -0.145 A  
HETATM   21  C   UNL     1      -6.118  11.848  68.612  1.00  0.00    -0.052 A  
ENDBRANCH  14  15
BRANCH  14  22
HETATM   22  C   UNL     1      -9.888   8.921  66.418  1.00  0.00    -0.283 C  
HETATM   23  O   UNL     1      -9.265   8.875  65.360  1.00  0.00    -0.205 OA 
BRANCH  22  24
HETATM   24  C   UNL     1     -10.658   7.717  66.881  1.00  0.00    -0.359 C  
HETATM   25  C   UNL     1      -9.974   6.379  67.061  1.00  0.00    -0.209 C  
HETATM   26  C   UNL     1     -10.387   7.173  68.265  1.00  0.00    -0.227 C  
ENDBRANCH  22  24
ENDBRANCH  14  22
ENDBRANCH  12  14
ENDBRANCH   4   5
ENDBRANCH   2   4
TORSDOF 6
ENDMDL
MODEL      118
REMARK 921   NORMALIZED FREE ENERGY PREDICTED BY IDOCK:   -4.68 KCAL/MOL
REMARK 922        TOTAL FREE ENERGY PREDICTED BY IDOCK:   -7.01 KCAL/MOL
REMARK 923 INTER-LIGAND FREE ENERGY PREDICTED BY IDOCK:   -6.24 KCAL/MOL
REMARK 924 INTRA-LIGAND FREE ENERGY PREDICTED BY IDOCK:   -0.77 KCAL/MOL
REMARK 927      BINDING AFFINITY PREDICTED BY RF-SCORE:    0.00 PKD
ROOT
HETATM    1  C   UNL     1     -11.748  16.044  70.674  1.00  0.00    -0.376 C  
HETATM    2  C   UNL     1     -10.805  15.806  69.530  1.00  0.00    -0.287 C  
HETATM    3  O   UNL     1      -9.604  16.033  69.602  1.00  0.00    -0.236 OA 
ENDROOT
BRANCH   2   4
HETATM    4  O   UNL     1     -11.495  15.313  68.478  1.00  0.00    -0.309 OA 
BRANCH   4   5
HETATM    5  C   UNL     1     -11.372  14.036  68.136  1.00  0.00    -0.292 A  
HETATM    6  C   UNL     1     -11.622  12.866  68.835  1.00  0.00    -0.360 A  
HETATM    7  C   UNL     1     -11.289  11.676  68.106  1.00  0.00    -0.358 A  
HETATM    8  C   UNL     1     -10.837  11.995  66.853  1.00  0.00    -0.259 A  
HETATM    9  C   UNL     1     -10.476  10.996  65.827  1.00  0.00    -0.290 C  
HETATM   10  S   UNL     1     -10.730  13.666  66.584  1.00  0.00    -0.281 SA 
HETATM   11  C   UNL     1     -10.239   9.613  66.463  1.00  0.00    -0.224 C  
HETATM   12  N   UNL     1     -10.874   9.226  67.745  1.00  0.00    -0.198 NA 
HETATM   13  C   UNL     1     -11.427  10.279  68.622  1.00  0.00    -0.112 C  
BRANCH  12  14
HETATM   14  C   UNL     1     -10.004   8.245  68.492  1.00  0.00    -0.190 C  
BRANCH  14  15
HETATM   15  C   UNL     1      -9.687   6.936  67.756  1.00  0.00    -0.148 A  
HETATM   16  F   UNL     1      -7.331   7.214  68.022  1.00  0.00    -0.085 F  
HETATM   17  C   UNL     1     -10.697   6.170  67.146  1.00  0.00    -0.422 A  
HETATM   18  C   UNL     1      -8.365   6.513  67.541  1.00  0.00    -0.121 A  
HETATM   19  C   UNL     1      -8.046   5.375  66.791  1.00  0.00    -0.105 A  
HETATM   20  C   UNL     1     -10.392   5.024  66.401  1.00  0.00    -0.335 A  
HETATM   21  C   UNL     1      -9.067   4.625  66.225  1.00  0.00    -0.122 A  
ENDBRANCH  14  15
BRANCH  14  22
HETATM   22  C   UNL     1     -10.565   8.037  69.929  1.00  0.00    -0.242 C  
HETATM   23  O   UNL     1     -11.640   7.500  70.182  1.00  0.00    -0.166 OA 
BRANCH  22  24
HETATM   24  C   UNL     1      -9.705   8.547  71.051  1.00  0.00    -0.243 C  
HETATM   25  C   UNL     1     -10.176   8.468  72.487  1.00  0.00    -0.323 C  
HETATM   26  C   UNL     1      -9.095   7.547  72.006  1.00  0.00    -0.157 C  
ENDBRANCH  22  24
ENDBRANCH  14  22
ENDBRANCH  12  14
ENDBRANCH   4   5
ENDBRANCH   2   4
TORSDOF 6
ENDMDL
MODEL      119
REMARK 921   NORMALIZED FREE ENERGY PREDICTED BY IDOCK:   -4.65 KCAL/MOL
REMARK 922        TOTAL FREE ENERGY PREDICTED BY IDOCK:   -6.96 KCAL/MOL
REMARK 923 INTER-LIGAND FREE ENERGY PREDICTED BY IDOCK:   -6.29 KCAL/MOL
REMARK 924 INTRA-LIGAND FREE ENERGY PREDICTED BY IDOCK:   -0.67 KCAL/MOL
REMARK 927      BINDING AFFINITY PREDICTED BY RF-SCORE:    0.00 PKD
ROOT
HETATM    1  C   UNL     1     -12.749  13.941  65.436  1.00  0.00    -0.525 C  
HETATM    2  C   UNL     1     -12.076  13.277  64.269  1.00  0.00    -0.416 C  
HETATM    3  O   UNL     1     -12.698  12.795  63.331  1.00  0.00    -0.698 OA 
ENDROOT
BRANCH   2   4
HETATM    4  O   UNL     1     -10.737  13.323  64.441  1.00  0.00    -0.382 OA 
BRANCH   4   5
HETATM    5  C   UNL     1     -10.095  12.290  64.976  1.00  0.00    -0.253 A  
HETATM    6  C   UNL     1      -9.794  11.034  64.477  1.00  0.00    -0.343 A  
HETATM    7  C   UNL     1      -9.131  10.181  65.421  1.00  0.00    -0.227 A  
HETATM    8  C   UNL     1      -8.915  10.850  66.597  1.00  0.00    -0.164 A  
HETATM    9  C   UNL     1      -8.193  10.277  67.752  1.00  0.00    -0.110 C  
HETATM   10  S   UNL     1      -9.561  12.418  66.605  1.00  0.00    -0.233 SA 
HETATM   11  C   UNL     1      -8.120   8.743  67.650  1.00  0.00    -0.106 C  
HETATM   12  N   UNL     1      -8.189   8.044  66.344  1.00  0.00    -0.109 NA 
HETATM   13  C   UNL     1      -8.715   8.768  65.168  1.00  0.00    -0.167 C  
BRANCH  12  14
HETATM   14  C   UNL     1      -8.806   6.676  66.508  1.00  0.00    -0.139 C  
BRANCH  14  15
HETATM   15  C   UNL     1      -9.372   6.359  67.899  1.00  0.00    -0.114 A  
HETATM   16  F   UNL     1     -11.628   6.682  67.189  1.00  0.00    -0.404 F  
HETATM   17  C   UNL     1      -8.530   6.139  69.005  1.00  0.00    -0.118 A  
HETATM   18  C   UNL     1     -10.751   6.409  68.162  1.00  0.00    -0.291 A  
HETATM   19  C   UNL     1     -11.285   6.219  69.442  1.00  0.00    -0.489 A  
HETATM   20  C   UNL     1      -9.053   5.937  70.289  1.00  0.00    -0.156 A  
HETATM   21  C   UNL     1     -10.430   5.975  70.507  1.00  0.00    -0.303 A  
ENDBRANCH  14  15
BRANCH  14  22
HETATM   22  C   UNL     1      -7.827   5.594  65.968  1.00  0.00    -0.100 C  
HETATM   23  O   UNL     1      -6.610   5.740  65.881  1.00  0.00    -0.042 OA 
BRANCH  22  24
HETATM   24  C   UNL     1      -8.453   4.300  65.529  1.00  0.00    -0.114 C  
HETATM   25  C   UNL     1      -9.823   4.279  64.886  1.00  0.00    -0.184 C  
HETATM   26  C   UNL     1      -8.603   4.035  64.049  1.00  0.00    -0.102 C  
ENDBRANCH  22  24
ENDBRANCH  14  22
ENDBRANCH  12  14
ENDBRANCH   4   5
ENDBRANCH   2   4
TORSDOF 6
ENDMDL
MODEL      120
REMARK 921   NORMALIZED FREE ENERGY PREDICTED BY IDOCK:   -4.64 KCAL/MOL
REMARK 922        TOTAL FREE ENERGY PREDICTED BY IDOCK:   -6.96 KCAL/MOL
REMARK 923 INTER-LIGAND FREE ENERGY PREDICTED BY IDOCK:   -6.03 KCAL/MOL
REMARK 924 INTRA-LIGAND FREE ENERGY PREDICTED BY IDOCK:   -0.93 KCAL/MOL
REMARK 927      BINDING AFFINITY PREDICTED BY RF-SCORE:    0.00 PKD
ROOT
HETATM    1  C   UNL     1      -9.618  19.074  66.103  1.00  0.00    -0.291 C  
HETATM    2  C   UNL     1     -10.260  17.918  66.815  1.00  0.00    -0.360 C  
HETATM    3  O   UNL     1     -10.836  18.038  67.889  1.00  0.00    -0.367 OA 
ENDROOT
BRANCH   2   4
HETATM    4  O   UNL     1     -10.099  16.796  66.080  1.00  0.00    -0.318 OA 
BRANCH   4   5
HETATM    5  C   UNL     1     -10.174  15.602  66.658  1.00  0.00    -0.279 A  
HETATM    6  C   UNL     1      -9.201  14.775  67.196  1.00  0.00    -0.233 A  
HETATM    7  C   UNL     1      -9.708  13.520  67.671  1.00  0.00    -0.229 A  
HETATM    8  C   UNL     1     -11.068  13.465  67.512  1.00  0.00    -0.274 A  
HETATM    9  C   UNL     1     -11.906  12.335  67.963  1.00  0.00    -0.368 C  
HETATM   10  S   UNL     1     -11.709  14.832  66.740  1.00  0.00    -0.236 SA 
HETATM   11  C   UNL     1     -11.051  11.077  68.206  1.00  0.00    -0.257 C  
HETATM   12  N   UNL     1      -9.610  11.167  68.542  1.00  0.00    -0.188 NA 
HETATM   13  C   UNL     1      -8.885  12.426  68.271  1.00  0.00    -0.174 C  
BRANCH  12  14
HETATM   14  C   UNL     1      -8.872   9.951  68.037  1.00  0.00    -0.125 C  
BRANCH  14  15
HETATM   15  C   UNL     1      -9.539   8.598  68.321  1.00  0.00    -0.160 A  
HETATM   16  F   UNL     1     -10.023   8.214  66.016  1.00  0.00    -0.251 F  
HETATM   17  C   UNL     1      -9.739   8.137  69.636  1.00  0.00    -0.170 A  
HETATM   18  C   UNL     1     -10.100   7.823  67.294  1.00  0.00    -0.238 A  
HETATM   19  C   UNL     1     -10.797   6.633  67.537  1.00  0.00    -0.417 A  
HETATM   20  C   UNL     1     -10.426   6.943  69.891  1.00  0.00    -0.239 A  
HETATM   21  C   UNL     1     -10.953   6.190  68.842  1.00  0.00    -0.424 A  
ENDBRANCH  14  15
BRANCH  14  22
HETATM   22  C   UNL     1      -7.382  10.022  68.481  1.00  0.00    -0.077 C  
HETATM   23  O   UNL     1      -7.011  10.248  69.630  1.00  0.00    -0.082 OA 
BRANCH  22  24
HETATM   24  C   UNL     1      -6.363   9.799  67.400  1.00  0.00    -0.068 C  
HETATM   25  C   UNL     1      -6.768   9.777  65.942  1.00  0.00    -0.091 C  
HETATM   26  C   UNL     1      -6.014  10.953  66.487  1.00  0.00    -0.118 C  
ENDBRANCH  22  24
ENDBRANCH  14  22
ENDBRANCH  12  14
ENDBRANCH   4   5
ENDBRANCH   2   4
TORSDOF 6
ENDMDL
MODEL      121
REMARK 921   NORMALIZED FREE ENERGY PREDICTED BY IDOCK:   -4.63 KCAL/MOL
REMARK 922        TOTAL FREE ENERGY PREDICTED BY IDOCK:   -6.94 KCAL/MOL
REMARK 923 INTER-LIGAND FREE ENERGY PREDICTED BY IDOCK:   -6.68 KCAL/MOL
REMARK 924 INTRA-LIGAND FREE ENERGY PREDICTED BY IDOCK:   -0.26 KCAL/MOL
REMARK 927      BINDING AFFINITY PREDICTED BY RF-SCORE:    0.00 PKD
ROOT
HETATM    1  C   UNL     1      -7.081   3.605  66.129  1.00  0.00    -0.063 C  
HETATM    2  C   UNL     1      -7.949   4.455  67.011  1.00  0.00    -0.101 C  
HETATM    3  O   UNL     1      -7.780   4.544  68.220  1.00  0.00    -0.078 OA 
ENDROOT
BRANCH   2   4
HETATM    4  O   UNL     1      -8.885   5.072  66.256  1.00  0.00    -0.115 OA 
BRANCH   4   5
HETATM    5  C   UNL     1      -8.962   6.398  66.237  1.00  0.00    -0.156 A  
HETATM    6  C   UNL     1      -9.514   7.302  67.131  1.00  0.00    -0.180 A  
HETATM    7  C   UNL     1      -9.439   8.665  66.693  1.00  0.00    -0.267 A  
HETATM    8  C   UNL     1      -8.784   8.745  65.493  1.00  0.00    -0.185 A  
HETATM    9  C   UNL     1      -8.478  10.015  64.802  1.00  0.00    -0.180 C  
HETATM   10  S   UNL     1      -8.350   7.231  64.864  1.00  0.00     0.056 SA 
HETATM   11  C   UNL     1      -9.353  11.161  65.343  1.00  0.00    -0.219 C  
HETATM   12  N   UNL     1      -9.918  11.130  66.714  1.00  0.00    -0.203 NA 
HETATM   13  C   UNL     1      -9.978   9.844  67.439  1.00  0.00    -0.189 C  
BRANCH  12  14
HETATM   14  C   UNL     1     -11.222  11.888  66.766  1.00  0.00    -0.327 C  
BRANCH  14  15
HETATM   15  C   UNL     1     -11.238  13.244  66.045  1.00  0.00    -0.316 A  
HETATM   16  F   UNL     1     -13.216  12.709  64.821  1.00  0.00    -0.471 F  
HETATM   17  C   UNL     1     -10.194  14.175  66.204  1.00  0.00    -0.313 A  
HETATM   18  C   UNL     1     -12.220  13.561  65.094  1.00  0.00    -0.428 A  
HETATM   19  C   UNL     1     -12.202  14.750  64.354  1.00  0.00    -0.447 A  
HETATM   20  C   UNL     1     -10.170  15.372  65.477  1.00  0.00    -0.411 A  
HETATM   21  C   UNL     1     -11.175  15.660  64.554  1.00  0.00    -0.337 A  
ENDBRANCH  14  15
BRANCH  14  22
HETATM   22  C   UNL     1     -11.731  11.953  68.235  1.00  0.00    -0.321 C  
HETATM   23  O   UNL     1     -12.437  11.096  68.762  1.00  0.00    -0.468 OA 
BRANCH  22  24
HETATM   24  C   UNL     1     -11.314  13.162  69.023  1.00  0.00    -0.332 C  
HETATM   25  C   UNL     1     -12.230  14.360  69.151  1.00  0.00    -0.255 C  
HETATM   26  C   UNL     1     -12.021  13.454  70.327  1.00  0.00    -0.378 C  
ENDBRANCH  22  24
ENDBRANCH  14  22
ENDBRANCH  12  14
ENDBRANCH   4   5
ENDBRANCH   2   4
TORSDOF 6
ENDMDL
MODEL      122
REMARK 921   NORMALIZED FREE ENERGY PREDICTED BY IDOCK:   -4.63 KCAL/MOL
REMARK 922        TOTAL FREE ENERGY PREDICTED BY IDOCK:   -6.93 KCAL/MOL
REMARK 923 INTER-LIGAND FREE ENERGY PREDICTED BY IDOCK:   -6.11 KCAL/MOL
REMARK 924 INTRA-LIGAND FREE ENERGY PREDICTED BY IDOCK:   -0.82 KCAL/MOL
REMARK 927      BINDING AFFINITY PREDICTED BY RF-SCORE:    0.00 PKD
ROOT
HETATM    1  C   UNL     1      -8.632   1.620  63.200  1.00  0.00    -0.072 C  
HETATM    2  C   UNL     1      -7.969   2.132  64.446  1.00  0.00    -0.074 C  
HETATM    3  O   UNL     1      -6.830   2.581  64.455  1.00  0.00    -0.040 OA 
ENDROOT
BRANCH   2   4
HETATM    4  O   UNL     1      -8.824   2.017  65.487  1.00  0.00    -0.115 OA 
BRANCH   4   5
HETATM    5  C   UNL     1      -9.131   3.081  66.221  1.00  0.00    -0.143 A  
HETATM    6  C   UNL     1      -8.775   3.445  67.509  1.00  0.00    -0.134 A  
HETATM    7  C   UNL     1      -9.385   4.664  67.954  1.00  0.00    -0.169 A  
HETATM    8  C   UNL     1     -10.152   5.204  66.957  1.00  0.00    -0.217 A  
HETATM    9  C   UNL     1     -10.862   6.495  67.068  1.00  0.00    -0.465 C  
HETATM   10  S   UNL     1     -10.214   4.242  65.562  1.00  0.00    -0.159 SA 
HETATM   11  C   UNL     1     -11.005   6.920  68.542  1.00  0.00    -0.136 C  
HETATM   12  N   UNL     1     -10.058   6.453  69.583  1.00  0.00    -0.170 NA 
HETATM   13  C   UNL     1      -9.205   5.279  69.305  1.00  0.00    -0.114 C  
BRANCH  12  14
HETATM   14  C   UNL     1     -10.746   6.368  70.924  1.00  0.00    -0.250 C  
BRANCH  14  15
HETATM   15  C   UNL     1     -11.828   7.424  71.189  1.00  0.00    -0.330 A  
HETATM   16  F   UNL     1     -10.272   9.229  71.062  1.00  0.00    -0.282 F  
HETATM   17  C   UNL     1     -13.152   7.060  71.498  1.00  0.00    -0.395 A  
HETATM   18  C   UNL     1     -11.519   8.791  71.270  1.00  0.00    -0.292 A  
HETATM   19  C   UNL     1     -12.469   9.763  71.605  1.00  0.00    -0.500 A  
HETATM   20  C   UNL     1     -14.114   8.025  71.826  1.00  0.00    -0.517 A  
HETATM   21  C   UNL     1     -13.773   9.376  71.877  1.00  0.00    -0.440 A  
ENDBRANCH  14  15
BRANCH  14  22
HETATM   22  C   UNL     1      -9.680   6.265  72.052  1.00  0.00    -0.151 C  
HETATM   23  O   UNL     1      -8.786   7.087  72.239  1.00  0.00    -0.125 OA 
BRANCH  22  24
HETATM   24  C   UNL     1      -9.783   5.062  72.947  1.00  0.00    -0.171 C  
HETATM   25  C   UNL     1     -10.014   5.218  74.435  1.00  0.00    -0.244 C  
HETATM   26  C   UNL     1     -11.125   4.727  73.556  1.00  0.00    -0.412 C  
ENDBRANCH  22  24
ENDBRANCH  14  22
ENDBRANCH  12  14
ENDBRANCH   4   5
ENDBRANCH   2   4
TORSDOF 6
ENDMDL
MODEL      123
REMARK 921   NORMALIZED FREE ENERGY PREDICTED BY IDOCK:   -4.62 KCAL/MOL
REMARK 922        TOTAL FREE ENERGY PREDICTED BY IDOCK:   -6.93 KCAL/MOL
REMARK 923 INTER-LIGAND FREE ENERGY PREDICTED BY IDOCK:   -6.32 KCAL/MOL
REMARK 924 INTRA-LIGAND FREE ENERGY PREDICTED BY IDOCK:   -0.61 KCAL/MOL
REMARK 927      BINDING AFFINITY PREDICTED BY RF-SCORE:    0.00 PKD
ROOT
HETATM    1  C   UNL     1      -8.073   7.341  62.564  1.00  0.00    -0.100 C  
HETATM    2  C   UNL     1      -7.796   7.996  63.886  1.00  0.00    -0.142 C  
HETATM    3  O   UNL     1      -7.436   7.368  64.874  1.00  0.00    -0.075 OA 
ENDROOT
BRANCH   2   4
HETATM    4  O   UNL     1      -7.997   9.327  63.776  1.00  0.00    -0.126 OA 
BRANCH   4   5
HETATM    5  C   UNL     1      -8.210  10.064  64.861  1.00  0.00    -0.154 A  
HETATM    6  C   UNL     1      -9.377  10.539  65.437  1.00  0.00    -0.255 A  
HETATM    7  C   UNL     1      -9.156  11.365  66.589  1.00  0.00    -0.187 A  
HETATM    8  C   UNL     1      -7.818  11.446  66.868  1.00  0.00    -0.158 A  
HETATM    9  C   UNL     1      -7.259  12.164  68.032  1.00  0.00    -0.099 C  
HETATM   10  S   UNL     1      -6.847  10.633  65.740  1.00  0.00    -0.056 SA 
HETATM   11  C   UNL     1      -8.284  13.157  68.612  1.00  0.00    -0.000 C  
HETATM   12  N   UNL     1      -9.744  12.959  68.438  1.00  0.00    -0.214 NA 
HETATM   13  C   UNL     1     -10.226  12.035  67.391  1.00  0.00    -0.200 C  
BRANCH  12  14
HETATM   14  C   UNL     1     -10.458  14.289  68.414  1.00  0.00    -0.249 C  
BRANCH  14  15
HETATM   15  C   UNL     1     -11.310  14.613  69.649  1.00  0.00    -0.317 A  
HETATM   16  F   UNL     1     -10.538  16.870  69.740  1.00  0.00    -0.300 F  
HETATM   17  C   UNL     1     -12.058  13.621  70.310  1.00  0.00    -0.427 A  
HETATM   18  C   UNL     1     -11.277  15.879  70.255  1.00  0.00    -0.380 A  
HETATM   19  C   UNL     1     -11.970  16.172  71.436  1.00  0.00    -0.451 A  
HETATM   20  C   UNL     1     -12.763  13.904  71.487  1.00  0.00    -0.440 A  
HETATM   21  C   UNL     1     -12.721  15.180  72.049  1.00  0.00    -0.418 A  
ENDBRANCH  14  15
BRANCH  14  22
HETATM   22  C   UNL     1     -11.220  14.448  67.067  1.00  0.00    -0.328 C  
HETATM   23  O   UNL     1     -12.425  14.256  66.924  1.00  0.00    -0.338 OA 
BRANCH  22  24
HETATM   24  C   UNL     1     -10.388  14.859  65.885  1.00  0.00    -0.330 C  
HETATM   25  C   UNL     1     -11.020  15.076  64.527  1.00  0.00    -0.209 C  
HETATM   26  C   UNL     1     -10.560  16.255  65.330  1.00  0.00    -0.371 C  
ENDBRANCH  22  24
ENDBRANCH  14  22
ENDBRANCH  12  14
ENDBRANCH   4   5
ENDBRANCH   2   4
TORSDOF 6
ENDMDL
MODEL      124
REMARK 921   NORMALIZED FREE ENERGY PREDICTED BY IDOCK:   -4.57 KCAL/MOL
REMARK 922        TOTAL FREE ENERGY PREDICTED BY IDOCK:   -6.86 KCAL/MOL
REMARK 923 INTER-LIGAND FREE ENERGY PREDICTED BY IDOCK:   -6.43 KCAL/MOL
REMARK 924 INTRA-LIGAND FREE ENERGY PREDICTED BY IDOCK:   -0.43 KCAL/MOL
REMARK 927      BINDING AFFINITY PREDICTED BY RF-SCORE:    0.00 PKD
ROOT
HETATM    1  C   UNL     1     -10.000  16.117  66.306  1.00  0.00    -0.336 C  
HETATM    2  C   UNL     1     -11.151  15.964  65.354  1.00  0.00    -0.195 C  
HETATM    3  O   UNL     1     -11.237  16.598  64.311  1.00  0.00    -1.098 OA 
ENDROOT
BRANCH   2   4
HETATM    4  O   UNL     1     -12.012  15.042  65.839  1.00  0.00    -0.131 OA 
BRANCH   4   5
HETATM    5  C   UNL     1     -11.646  13.769  65.934  1.00  0.00    -0.333 A  
HETATM    6  C   UNL     1     -11.753  12.855  66.970  1.00  0.00    -0.447 A  
HETATM    7  C   UNL     1     -11.163  11.580  66.677  1.00  0.00    -0.336 A  
HETATM    8  C   UNL     1     -10.667  11.567  65.400  1.00  0.00    -0.278 A  
HETATM    9  C   UNL     1     -10.057  10.381  64.765  1.00  0.00    -0.387 C  
HETATM   10  S   UNL     1     -10.822  13.056  64.605  1.00  0.00    -0.377 SA 
HETATM   11  C   UNL     1      -9.644   9.340  65.822  1.00  0.00    -0.271 C  
HETATM   12  N   UNL     1     -10.311   9.265  67.144  1.00  0.00    -0.254 NA 
HETATM   13  C   UNL     1     -11.106  10.418  67.616  1.00  0.00    -0.293 C  
BRANCH  12  14
HETATM   14  C   UNL     1      -9.353   8.751  68.191  1.00  0.00    -0.140 C  
BRANCH  14  15
HETATM   15  C   UNL     1      -7.979   8.299  67.678  1.00  0.00    -0.118 A  
HETATM   16  F   UNL     1      -8.881   6.372  66.596  1.00  0.00    -0.116 F  
HETATM   17  C   UNL     1      -6.798   8.971  68.044  1.00  0.00    -0.069 A  
HETATM   18  C   UNL     1      -7.823   7.119  66.933  1.00  0.00    -0.107 A  
HETATM   19  C   UNL     1      -6.571   6.635  66.536  1.00  0.00    -0.044 A  
HETATM   20  C   UNL     1      -5.540   8.502  67.644  1.00  0.00    -0.039 A  
HETATM   21  C   UNL     1      -5.426   7.335  66.889  1.00  0.00    -0.023 A  
ENDBRANCH  14  15
BRANCH  14  22
HETATM   22  C   UNL     1     -10.069   7.694  69.081  1.00  0.00    -0.194 C  
HETATM   23  O   UNL     1     -10.867   6.860  68.661  1.00  0.00    -0.219 OA 
BRANCH  22  24
HETATM   24  C   UNL     1      -9.739   7.736  70.546  1.00  0.00    -0.175 C  
HETATM   25  C   UNL     1     -10.827   7.618  71.592  1.00  0.00    -0.260 C  
HETATM   26  C   UNL     1      -9.891   6.469  71.358  1.00  0.00    -0.191 C  
ENDBRANCH  22  24
ENDBRANCH  14  22
ENDBRANCH  12  14
ENDBRANCH   4   5
ENDBRANCH   2   4
TORSDOF 6
ENDMDL
MODEL      125
REMARK 921   NORMALIZED FREE ENERGY PREDICTED BY IDOCK:   -4.56 KCAL/MOL
REMARK 922        TOTAL FREE ENERGY PREDICTED BY IDOCK:   -6.85 KCAL/MOL
REMARK 923 INTER-LIGAND FREE ENERGY PREDICTED BY IDOCK:   -6.48 KCAL/MOL
REMARK 924 INTRA-LIGAND FREE ENERGY PREDICTED BY IDOCK:   -0.37 KCAL/MOL
REMARK 927      BINDING AFFINITY PREDICTED BY RF-SCORE:    0.00 PKD
ROOT
HETATM    1  C   UNL     1      -9.372   6.189  74.403  1.00  0.00    -0.181 C  
HETATM    2  C   UNL     1      -9.008   6.263  72.949  1.00  0.00    -0.124 C  
HETATM    3  O   UNL     1      -7.869   6.078  72.540  1.00  0.00    -0.103 OA 
ENDROOT
BRANCH   2   4
HETATM    4  O   UNL     1     -10.115   6.544  72.225  1.00  0.00    -0.176 OA 
BRANCH   4   5
HETATM    5  C   UNL     1     -10.005   7.082  71.016  1.00  0.00    -0.188 A  
HETATM    6  C   UNL     1      -9.268   8.160  70.551  1.00  0.00    -0.157 A  
HETATM    7  C   UNL     1      -9.487   8.452  69.164  1.00  0.00    -0.155 A  
HETATM    8  C   UNL     1     -10.357   7.547  68.617  1.00  0.00    -0.200 A  
HETATM    9  C   UNL     1     -10.740   7.527  67.190  1.00  0.00    -0.379 C  
HETATM   10  S   UNL     1     -10.962   6.433  69.744  1.00  0.00    -0.390 SA 
HETATM   11  C   UNL     1     -10.417   8.873  66.514  1.00  0.00    -0.105 C  
HETATM   12  N   UNL     1      -9.352   9.767  67.029  1.00  0.00    -0.145 NA 
HETATM   13  C   UNL     1      -8.852   9.573  68.405  1.00  0.00    -0.124 C  
BRANCH  12  14
HETATM   14  C   UNL     1      -9.681  11.209  66.727  1.00  0.00    -0.193 C  
BRANCH  14  15
HETATM   15  C   UNL     1     -10.560  11.926  67.762  1.00  0.00    -0.233 A  
HETATM   16  F   UNL     1      -9.605  14.059  67.278  1.00  0.00    -0.216 F  
HETATM   17  C   UNL     1     -11.419  11.213  68.620  1.00  0.00    -0.363 A  
HETATM   18  C   UNL     1     -10.448  13.306  67.994  1.00  0.00    -0.242 A  
HETATM   19  C   UNL     1     -11.168  13.966  68.997  1.00  0.00    -0.312 A  
HETATM   20  C   UNL     1     -12.152  11.863  69.621  1.00  0.00    -0.304 A  
HETATM   21  C   UNL     1     -12.028  13.240  69.808  1.00  0.00    -0.391 A  
ENDBRANCH  14  15
BRANCH  14  22
HETATM   22  C   UNL     1     -10.205  11.332  65.267  1.00  0.00    -0.274 C  
HETATM   23  O   UNL     1      -9.579  10.972  64.273  1.00  0.00    -0.231 OA 
BRANCH  22  24
HETATM   24  C   UNL     1     -11.569  11.942  65.107  1.00  0.00    -0.278 C  
HETATM   25  C   UNL     1     -11.741  13.305  64.474  1.00  0.00    -0.420 C  
HETATM   26  C   UNL     1     -12.141  12.076  63.714  1.00  0.00    -0.599 C  
ENDBRANCH  22  24
ENDBRANCH  14  22
ENDBRANCH  12  14
ENDBRANCH   4   5
ENDBRANCH   2   4
TORSDOF 6
ENDMDL
MODEL      126
REMARK 921   NORMALIZED FREE ENERGY PREDICTED BY IDOCK:   -4.55 KCAL/MOL
REMARK 922        TOTAL FREE ENERGY PREDICTED BY IDOCK:   -6.83 KCAL/MOL
REMARK 923 INTER-LIGAND FREE ENERGY PREDICTED BY IDOCK:   -6.00 KCAL/MOL
REMARK 924 INTRA-LIGAND FREE ENERGY PREDICTED BY IDOCK:   -0.84 KCAL/MOL
REMARK 927      BINDING AFFINITY PREDICTED BY RF-SCORE:    0.00 PKD
ROOT
HETATM    1  C   UNL     1     -11.774  14.949  69.632  1.00  0.00    -0.356 C  
HETATM    2  C   UNL     1     -11.429  15.155  68.185  1.00  0.00    -0.342 C  
HETATM    3  O   UNL     1     -10.935  16.193  67.762  1.00  0.00    -0.328 OA 
ENDROOT
BRANCH   2   4
HETATM    4  O   UNL     1     -11.740  14.040  67.489  1.00  0.00    -0.343 OA 
BRANCH   4   5
HETATM    5  C   UNL     1     -11.115  12.896  67.744  1.00  0.00    -0.259 A  
HETATM    6  C   UNL     1     -11.593  11.639  68.077  1.00  0.00    -0.383 A  
HETATM    7  C   UNL     1     -10.561  10.678  68.337  1.00  0.00    -0.231 A  
HETATM    8  C   UNL     1      -9.327  11.242  68.145  1.00  0.00    -0.181 A  
HETATM    9  C   UNL     1      -8.054  10.501  68.264  1.00  0.00    -0.115 C  
HETATM   10  S   UNL     1      -9.396  12.889  67.751  1.00  0.00    -0.211 SA 
HETATM   11  C   UNL     1      -8.250   9.190  69.048  1.00  0.00    -0.115 C  
HETATM   12  N   UNL     1      -9.564   8.505  69.106  1.00  0.00    -0.165 NA 
HETATM   13  C   UNL     1     -10.783   9.257  68.744  1.00  0.00    -0.154 C  
BRANCH  12  14
HETATM   14  C   UNL     1      -9.710   7.750  70.404  1.00  0.00    -0.179 C  
BRANCH  14  15
HETATM   15  C   UNL     1      -9.627   6.221  70.302  1.00  0.00    -0.182 A  
HETATM   16  F   UNL     1      -8.985   5.979  72.588  1.00  0.00    -0.129 F  
HETATM   17  C   UNL     1      -9.801   5.554  69.074  1.00  0.00    -0.220 A  
HETATM   18  C   UNL     1      -9.242   5.429  71.395  1.00  0.00    -0.146 A  
HETATM   19  C   UNL     1      -9.066   4.043  71.302  1.00  0.00    -0.177 A  
HETATM   20  C   UNL     1      -9.638   4.166  68.971  1.00  0.00    -0.232 A  
HETATM   21  C   UNL     1      -9.272   3.411  70.084  1.00  0.00    -0.225 A  
ENDBRANCH  14  15
BRANCH  14  22
HETATM   22  C   UNL     1     -10.966   8.260  71.168  1.00  0.00    -0.245 C  
HETATM   23  O   UNL     1     -10.962   9.200  71.960  1.00  0.00    -0.349 OA 
BRANCH  22  24
HETATM   24  C   UNL     1     -12.247   7.524  70.893  1.00  0.00    -0.224 C  
HETATM   25  C   UNL     1     -12.844   6.592  71.925  1.00  0.00    -0.119 C  
HETATM   26  C   UNL     1     -13.487   7.920  71.661  1.00  0.00    -0.386 C  
ENDBRANCH  22  24
ENDBRANCH  14  22
ENDBRANCH  12  14
ENDBRANCH   4   5
ENDBRANCH   2   4
TORSDOF 6
ENDMDL
MODEL      127
REMARK 921   NORMALIZED FREE ENERGY PREDICTED BY IDOCK:   -4.54 KCAL/MOL
REMARK 922        TOTAL FREE ENERGY PREDICTED BY IDOCK:   -6.81 KCAL/MOL
REMARK 923 INTER-LIGAND FREE ENERGY PREDICTED BY IDOCK:   -6.55 KCAL/MOL
REMARK 924 INTRA-LIGAND FREE ENERGY PREDICTED BY IDOCK:   -0.27 KCAL/MOL
REMARK 927      BINDING AFFINITY PREDICTED BY RF-SCORE:    0.00 PKD
ROOT
HETATM    1  C   UNL     1     -10.261   6.525  74.269  1.00  0.00    -0.373 C  
HETATM    2  C   UNL     1      -9.627   7.609  73.446  1.00  0.00    -0.288 C  
HETATM    3  O   UNL     1      -8.448   7.923  73.557  1.00  0.00    -0.179 OA 
ENDROOT
BRANCH   2   4
HETATM    4  O   UNL     1     -10.548   8.129  72.605  1.00  0.00    -0.316 OA 
BRANCH   4   5
HETATM    5  C   UNL     1     -10.262   8.295  71.319  1.00  0.00    -0.202 A  
HETATM    6  C   UNL     1      -9.418   9.182  70.669  1.00  0.00    -0.316 A  
HETATM    7  C   UNL     1      -9.449   9.067  69.240  1.00  0.00    -0.157 A  
HETATM    8  C   UNL     1     -10.292   8.055  68.862  1.00  0.00    -0.209 A  
HETATM    9  C   UNL     1     -10.497   7.632  67.461  1.00  0.00    -0.336 C  
HETATM   10  S   UNL     1     -11.089   7.323  70.167  1.00  0.00    -0.235 SA 
HETATM   11  C   UNL     1     -10.022   8.721  66.481  1.00  0.00    -0.290 C  
HETATM   12  N   UNL     1      -8.983   9.709  66.858  1.00  0.00    -0.133 NA 
HETATM   13  C   UNL     1      -8.667   9.912  68.287  1.00  0.00    -0.119 C  
BRANCH  12  14
HETATM   14  C   UNL     1      -9.196  11.009  66.120  1.00  0.00    -0.190 C  
BRANCH  14  15
HETATM   15  C   UNL     1      -9.846  12.139  66.929  1.00  0.00    -0.213 A  
HETATM   16  F   UNL     1     -11.777  10.831  67.437  1.00  0.00    -0.323 F  
HETATM   17  C   UNL     1      -9.266  13.420  67.005  1.00  0.00    -0.242 A  
HETATM   18  C   UNL     1     -11.113  11.991  67.516  1.00  0.00    -0.275 A  
HETATM   19  C   UNL     1     -11.769  13.036  68.176  1.00  0.00    -0.391 A  
HETATM   20  C   UNL     1      -9.908  14.471  67.671  1.00  0.00    -0.223 A  
HETATM   21  C   UNL     1     -11.158  14.279  68.258  1.00  0.00    -0.276 A  
ENDBRANCH  14  15
BRANCH  14  22
HETATM   22  C   UNL     1      -9.896  10.728  64.759  1.00  0.00    -0.300 C  
HETATM   23  O   UNL     1     -11.021  11.124  64.463  1.00  0.00    -0.300 OA 
BRANCH  22  24
HETATM   24  C   UNL     1      -9.112   9.911  63.772  1.00  0.00    -0.293 C  
HETATM   25  C   UNL     1      -8.525  10.545  62.529  1.00  0.00    -0.233 C  
HETATM   26  C   UNL     1      -7.623  10.146  63.659  1.00  0.00    -0.139 C  
ENDBRANCH  22  24
ENDBRANCH  14  22
ENDBRANCH  12  14
ENDBRANCH   4   5
ENDBRANCH   2   4
TORSDOF 6
ENDMDL
MODEL      128
REMARK 921   NORMALIZED FREE ENERGY PREDICTED BY IDOCK:   -4.53 KCAL/MOL
REMARK 922        TOTAL FREE ENERGY PREDICTED BY IDOCK:   -6.80 KCAL/MOL
REMARK 923 INTER-LIGAND FREE ENERGY PREDICTED BY IDOCK:   -6.68 KCAL/MOL
REMARK 924 INTRA-LIGAND FREE ENERGY PREDICTED BY IDOCK:   -0.12 KCAL/MOL
REMARK 927      BINDING AFFINITY PREDICTED BY RF-SCORE:    0.00 PKD
ROOT
HETATM    1  C   UNL     1     -10.664   5.922  70.019  1.00  0.00    -0.396 C  
HETATM    2  C   UNL     1     -10.400   7.386  70.217  1.00  0.00    -0.212 C  
HETATM    3  O   UNL     1     -10.949   8.047  71.089  1.00  0.00    -0.235 OA 
ENDROOT
BRANCH   2   4
HETATM    4  O   UNL     1      -9.488   7.803  69.311  1.00  0.00    -0.155 OA 
BRANCH   4   5
HETATM    5  C   UNL     1      -9.583   9.013  68.773  1.00  0.00    -0.152 A  
HETATM    6  C   UNL     1      -8.939  10.205  69.066  1.00  0.00    -0.168 A  
HETATM    7  C   UNL     1      -9.388  11.313  68.273  1.00  0.00    -0.180 A  
HETATM    8  C   UNL     1     -10.333  10.901  67.371  1.00  0.00    -0.211 A  
HETATM    9  C   UNL     1     -10.949  11.785  66.360  1.00  0.00    -0.341 C  
HETATM   10  S   UNL     1     -10.736   9.261  67.523  1.00  0.00    -0.115 SA 
HETATM   11  C   UNL     1     -10.748  13.267  66.727  1.00  0.00    -0.276 C  
HETATM   12  N   UNL     1      -9.616  13.714  67.575  1.00  0.00    -0.215 NA 
HETATM   13  C   UNL     1      -8.893  12.719  68.392  1.00  0.00    -0.117 C  
BRANCH  12  14
HETATM   14  C   UNL     1      -9.997  14.945  68.360  1.00  0.00    -0.222 C  
BRANCH  14  15
HETATM   15  C   UNL     1     -11.088  14.751  69.422  1.00  0.00    -0.302 A  
HETATM   16  F   UNL     1     -10.797  16.951  70.301  1.00  0.00    -0.297 F  
HETATM   17  C   UNL     1     -11.726  13.510  69.604  1.00  0.00    -0.378 A  
HETATM   18  C   UNL     1     -11.403  15.758  70.349  1.00  0.00    -0.374 A  
HETATM   19  C   UNL     1     -12.324  15.572  71.386  1.00  0.00    -0.461 A  
HETATM   20  C   UNL     1     -12.658  13.314  70.633  1.00  0.00    -0.305 A  
HETATM   21  C   UNL     1     -12.958  14.346  71.522  1.00  0.00    -0.406 A  
ENDBRANCH  14  15
BRANCH  14  22
HETATM   22  C   UNL     1     -10.276  16.123  67.383  1.00  0.00    -0.272 C  
HETATM   23  O   UNL     1     -11.245  16.185  66.629  1.00  0.00    -0.036 OA 
BRANCH  22  24
HETATM   24  C   UNL     1      -9.267  17.237  67.389  1.00  0.00    -0.231 C  
HETATM   25  C   UNL     1      -9.302  18.323  66.337  1.00  0.00    -0.280 C  
HETATM   26  C   UNL     1      -9.731  18.632  67.740  1.00  0.00    -0.344 C  
ENDBRANCH  22  24
ENDBRANCH  14  22
ENDBRANCH  12  14
ENDBRANCH   4   5
ENDBRANCH   2   4
TORSDOF 6
ENDMDL
MODEL      129
REMARK 921   NORMALIZED FREE ENERGY PREDICTED BY IDOCK:   -4.50 KCAL/MOL
REMARK 922        TOTAL FREE ENERGY PREDICTED BY IDOCK:   -6.76 KCAL/MOL
REMARK 923 INTER-LIGAND FREE ENERGY PREDICTED BY IDOCK:   -6.22 KCAL/MOL
REMARK 924 INTRA-LIGAND FREE ENERGY PREDICTED BY IDOCK:   -0.54 KCAL/MOL
REMARK 927      BINDING AFFINITY PREDICTED BY RF-SCORE:    0.00 PKD
ROOT
HETATM    1  C   UNL     1     -12.785  13.638  65.305  1.00  0.00    -0.478 C  
HETATM    2  C   UNL     1     -12.198  12.673  64.316  1.00  0.00    -0.445 C  
HETATM    3  O   UNL     1     -12.873  12.093  63.475  1.00  0.00    -0.768 OA 
ENDROOT
BRANCH   2   4
HETATM    4  O   UNL     1     -10.864  12.584  64.515  1.00  0.00    -0.294 OA 
BRANCH   4   5
HETATM    5  C   UNL     1     -10.365  11.625  65.286  1.00  0.00    -0.269 A  
HETATM    6  C   UNL     1     -10.242  10.258  65.093  1.00  0.00    -0.295 A  
HETATM    7  C   UNL     1      -9.694   9.563  66.221  1.00  0.00    -0.310 A  
HETATM    8  C   UNL     1      -9.379  10.448  67.219  1.00  0.00    -0.146 A  
HETATM    9  C   UNL     1      -8.732  10.063  68.490  1.00  0.00    -0.123 C  
HETATM   10  S   UNL     1      -9.804  12.049  66.854  1.00  0.00    -0.207 SA 
HETATM   11  C   UNL     1      -8.870   8.549  68.742  1.00  0.00    -0.139 C  
HETATM   12  N   UNL     1      -9.045   7.587  67.628  1.00  0.00    -0.126 NA 
HETATM   13  C   UNL     1      -9.477   8.086  66.306  1.00  0.00    -0.172 C  
BRANCH  12  14
HETATM   14  C   UNL     1      -9.841   6.388  68.085  1.00  0.00    -0.127 C  
BRANCH  14  15
HETATM   15  C   UNL     1     -10.232   6.371  69.569  1.00  0.00    -0.228 A  
HETATM   16  F   UNL     1      -8.041   5.731  70.265  1.00  0.00    -0.096 F  
HETATM   17  C   UNL     1     -11.562   6.577  69.983  1.00  0.00    -0.455 A  
HETATM   18  C   UNL     1      -9.313   6.015  70.569  1.00  0.00    -0.160 A  
HETATM   19  C   UNL     1      -9.669   5.898  71.918  1.00  0.00    -0.173 A  
HETATM   20  C   UNL     1     -11.928   6.473  71.332  1.00  0.00    -0.371 A  
HETATM   21  C   UNL     1     -10.982   6.136  72.299  1.00  0.00    -0.302 A  
ENDBRANCH  14  15
BRANCH  14  22
HETATM   22  C   UNL     1      -9.144   5.083  67.605  1.00  0.00    -0.113 C  
HETATM   23  O   UNL     1      -9.653   3.966  67.654  1.00  0.00    -0.186 OA 
BRANCH  22  24
HETATM   24  C   UNL     1      -7.753   5.244  67.057  1.00  0.00    -0.096 C  
HETATM   25  C   UNL     1      -6.926   4.036  66.672  1.00  0.00    -0.059 C  
HETATM   26  C   UNL     1      -7.507   4.913  65.603  1.00  0.00    -0.078 C  
ENDBRANCH  22  24
ENDBRANCH  14  22
ENDBRANCH  12  14
ENDBRANCH   4   5
ENDBRANCH   2   4
TORSDOF 6
ENDMDL
MODEL      130
REMARK 921   NORMALIZED FREE ENERGY PREDICTED BY IDOCK:   -4.49 KCAL/MOL
REMARK 922        TOTAL FREE ENERGY PREDICTED BY IDOCK:   -6.74 KCAL/MOL
REMARK 923 INTER-LIGAND FREE ENERGY PREDICTED BY IDOCK:   -6.04 KCAL/MOL
REMARK 924 INTRA-LIGAND FREE ENERGY PREDICTED BY IDOCK:   -0.71 KCAL/MOL
REMARK 927      BINDING AFFINITY PREDICTED BY RF-SCORE:    0.00 PKD
ROOT
HETATM    1  C   UNL     1      -9.484   3.388  68.325  1.00  0.00    -0.210 C  
HETATM    2  C   UNL     1      -9.355   4.141  69.617  1.00  0.00    -0.171 C  
HETATM    3  O   UNL     1      -9.850   3.747  70.666  1.00  0.00    -0.184 OA 
ENDROOT
BRANCH   2   4
HETATM    4  O   UNL     1      -8.625   5.259  69.412  1.00  0.00    -0.099 OA 
BRANCH   4   5
HETATM    5  C   UNL     1      -9.229   6.427  69.222  1.00  0.00    -0.135 A  
HETATM    6  C   UNL     1      -9.675   7.057  68.071  1.00  0.00    -0.140 A  
HETATM    7  C   UNL     1     -10.224   8.361  68.303  1.00  0.00    -0.244 A  
HETATM    8  C   UNL     1     -10.213   8.651  69.641  1.00  0.00    -0.208 A  
HETATM    9  C   UNL     1     -10.773   9.890  70.222  1.00  0.00    -0.367 C  
HETATM   10  S   UNL     1      -9.490   7.442  70.584  1.00  0.00    -0.163 SA 
HETATM   11  C   UNL     1     -10.946  10.975  69.143  1.00  0.00    -0.237 C  
HETATM   12  N   UNL     1     -11.123  10.630  67.712  1.00  0.00    -0.305 NA 
HETATM   13  C   UNL     1     -10.752   9.278  67.246  1.00  0.00    -0.174 C  
BRANCH  12  14
HETATM   14  C   UNL     1     -10.565  11.722  66.832  1.00  0.00    -0.235 C  
BRANCH  14  15
HETATM   15  C   UNL     1      -9.372  12.500  67.406  1.00  0.00    -0.187 A  
HETATM   16  F   UNL     1      -7.844  10.718  66.972  1.00  0.00    -0.107 F  
HETATM   17  C   UNL     1      -9.538  13.755  68.020  1.00  0.00    -0.214 A  
HETATM   18  C   UNL     1      -8.086  11.938  67.466  1.00  0.00    -0.156 A  
HETATM   19  C   UNL     1      -7.004  12.588  68.071  1.00  0.00    -0.095 A  
HETATM   20  C   UNL     1      -8.461  14.420  68.619  1.00  0.00    -0.156 A  
HETATM   21  C   UNL     1      -7.193  13.838  68.643  1.00  0.00    -0.109 A  
ENDBRANCH  14  15
BRANCH  14  22
HETATM   22  C   UNL     1     -11.722  12.631  66.328  1.00  0.00    -0.402 C  
HETATM   23  O   UNL     1     -12.329  13.435  67.031  1.00  0.00    -0.311 OA 
BRANCH  22  24
HETATM   24  C   UNL     1     -12.095  12.479  64.880  1.00  0.00    -0.499 C  
HETATM   25  C   UNL     1     -12.104  13.673  63.951  1.00  0.00    -0.462 C  
HETATM   26  C   UNL     1     -11.017  12.647  63.834  1.00  0.00    -0.468 C  
ENDBRANCH  22  24
ENDBRANCH  14  22
ENDBRANCH  12  14
ENDBRANCH   4   5
ENDBRANCH   2   4
TORSDOF 6
ENDMDL
MODEL      131
REMARK 921   NORMALIZED FREE ENERGY PREDICTED BY IDOCK:   -4.48 KCAL/MOL
REMARK 922        TOTAL FREE ENERGY PREDICTED BY IDOCK:   -6.74 KCAL/MOL
REMARK 923 INTER-LIGAND FREE ENERGY PREDICTED BY IDOCK:   -6.02 KCAL/MOL
REMARK 924 INTRA-LIGAND FREE ENERGY PREDICTED BY IDOCK:   -0.72 KCAL/MOL
REMARK 927      BINDING AFFINITY PREDICTED BY RF-SCORE:    0.00 PKD
ROOT
HETATM    1  C   UNL     1      -8.003   4.335  68.402  1.00  0.00    -0.078 C  
HETATM    2  C   UNL     1      -9.409   4.290  67.875  1.00  0.00    -0.156 C  
HETATM    3  O   UNL     1      -9.716   3.685  66.856  1.00  0.00    -0.196 OA 
ENDROOT
BRANCH   2   4
HETATM    4  O   UNL     1     -10.217   4.995  68.698  1.00  0.00    -0.155 OA 
BRANCH   4   5
HETATM    5  C   UNL     1     -10.305   6.315  68.580  1.00  0.00    -0.206 A  
HETATM    6  C   UNL     1     -10.606   7.125  67.497  1.00  0.00    -0.348 A  
HETATM    7  C   UNL     1     -10.530   8.528  67.787  1.00  0.00    -0.287 A  
HETATM    8  C   UNL     1     -10.215   8.725  69.106  1.00  0.00    -0.207 A  
HETATM    9  C   UNL     1     -10.128  10.055  69.743  1.00  0.00    -0.284 C  
HETATM   10  S   UNL     1      -9.933   7.282  69.951  1.00  0.00    -0.185 SA 
HETATM   11  C   UNL     1      -9.985  11.165  68.685  1.00  0.00    -0.205 C  
HETATM   12  N   UNL     1     -10.485  10.991  67.300  1.00  0.00    -0.218 NA 
HETATM   13  C   UNL     1     -10.774   9.629  66.805  1.00  0.00    -0.078 C  
BRANCH  12  14
HETATM   14  C   UNL     1      -9.653  11.797  66.332  1.00  0.00    -0.218 C  
BRANCH  14  15
HETATM   15  C   UNL     1     -10.257  13.136  65.885  1.00  0.00    -0.294 A  
HETATM   16  F   UNL     1     -12.314  12.126  65.217  1.00  0.00    -0.451 F  
HETATM   17  C   UNL     1      -9.499  14.322  65.888  1.00  0.00    -0.159 A  
HETATM   18  C   UNL     1     -11.543  13.215  65.327  1.00  0.00    -0.321 A  
HETATM   19  C   UNL     1     -12.078  14.407  64.825  1.00  0.00    -0.462 A  
HETATM   20  C   UNL     1     -10.027  15.523  65.396  1.00  0.00    -0.339 A  
HETATM   21  C   UNL     1     -11.317  15.566  64.867  1.00  0.00    -0.339 A  
ENDBRANCH  14  15
BRANCH  14  22
HETATM   22  C   UNL     1      -9.198  10.890  65.153  1.00  0.00    -0.214 C  
HETATM   23  O   UNL     1      -9.756  10.841  64.059  1.00  0.00    -0.257 OA 
BRANCH  22  24
HETATM   24  C   UNL     1      -7.995  10.028  65.413  1.00  0.00    -0.141 C  
HETATM   25  C   UNL     1      -6.696  10.262  64.672  1.00  0.00    -0.084 C  
HETATM   26  C   UNL     1      -6.807  10.639  66.119  1.00  0.00    -0.135 C  
ENDBRANCH  22  24
ENDBRANCH  14  22
ENDBRANCH  12  14
ENDBRANCH   4   5
ENDBRANCH   2   4
TORSDOF 6
ENDMDL
MODEL      132
REMARK 921   NORMALIZED FREE ENERGY PREDICTED BY IDOCK:   -4.47 KCAL/MOL
REMARK 922        TOTAL FREE ENERGY PREDICTED BY IDOCK:   -6.72 KCAL/MOL
REMARK 923 INTER-LIGAND FREE ENERGY PREDICTED BY IDOCK:   -6.75 KCAL/MOL
REMARK 924 INTRA-LIGAND FREE ENERGY PREDICTED BY IDOCK:    0.03 KCAL/MOL
REMARK 927      BINDING AFFINITY PREDICTED BY RF-SCORE:    0.00 PKD
ROOT
HETATM    1  C   UNL     1     -13.928  15.500  72.395  1.00  0.00    -0.653 C  
HETATM    2  C   UNL     1     -12.499  15.460  71.938  1.00  0.00    -0.377 C  
HETATM    3  O   UNL     1     -11.554  15.599  72.705  1.00  0.00    -0.449 OA 
ENDROOT
BRANCH   2   4
HETATM    4  O   UNL     1     -12.461  15.245  70.605  1.00  0.00    -0.348 OA 
BRANCH   4   5
HETATM    5  C   UNL     1     -12.254  14.022  70.130  1.00  0.00    -0.359 A  
HETATM    6  C   UNL     1     -12.337  12.775  70.728  1.00  0.00    -0.375 A  
HETATM    7  C   UNL     1     -11.964  11.694  69.862  1.00  0.00    -0.414 A  
HETATM    8  C   UNL     1     -11.653  12.168  68.616  1.00  0.00    -0.321 A  
HETATM    9  C   UNL     1     -11.294  11.305  67.471  1.00  0.00    -0.360 C  
HETATM   10  S   UNL     1     -11.719  13.858  68.504  1.00  0.00    -0.372 SA 
HETATM   11  C   UNL     1     -10.880   9.900  67.947  1.00  0.00    -0.258 C  
HETATM   12  N   UNL     1     -11.365   9.339  69.231  1.00  0.00     0.101 NA 
HETATM   13  C   UNL     1     -11.931  10.249  70.247  1.00  0.00    -0.264 C  
BRANCH  12  14
HETATM   14  C   UNL     1     -10.349   8.383  69.808  1.00  0.00    -0.216 C  
BRANCH  14  15
HETATM   15  C   UNL     1      -8.882   8.825  69.708  1.00  0.00    -0.142 A  
HETATM   16  F   UNL     1      -8.691   9.150  72.065  1.00  0.00    -0.188 F  
HETATM   17  C   UNL     1      -8.248   8.996  68.463  1.00  0.00    -0.112 A  
HETATM   18  C   UNL     1      -8.149   9.210  70.842  1.00  0.00    -0.162 A  
HETATM   19  C   UNL     1      -6.843   9.707  70.767  1.00  0.00    -0.091 A  
HETATM   20  C   UNL     1      -6.937   9.484  68.376  1.00  0.00    -0.066 A  
HETATM   21  C   UNL     1      -6.234   9.838  69.527  1.00  0.00    -0.044 A  
ENDBRANCH  14  15
BRANCH  14  22
HETATM   22  C   UNL     1     -10.610   6.950  69.263  1.00  0.00    -0.226 C  
HETATM   23  O   UNL     1     -11.452   6.178  69.716  1.00  0.00    -0.433 OA 
BRANCH  22  24
HETATM   24  C   UNL     1      -9.750   6.518  68.109  1.00  0.00    -0.126 C  
HETATM   25  C   UNL     1      -9.983   5.189  67.422  1.00  0.00    -0.215 C  
HETATM   26  C   UNL     1     -10.366   6.463  66.729  1.00  0.00    -0.279 C  
ENDBRANCH  22  24
ENDBRANCH  14  22
ENDBRANCH  12  14
ENDBRANCH   4   5
ENDBRANCH   2   4
TORSDOF 6
ENDMDL
MODEL      133
REMARK 921   NORMALIZED FREE ENERGY PREDICTED BY IDOCK:   -4.47 KCAL/MOL
REMARK 922        TOTAL FREE ENERGY PREDICTED BY IDOCK:   -6.72 KCAL/MOL
REMARK 923 INTER-LIGAND FREE ENERGY PREDICTED BY IDOCK:   -6.23 KCAL/MOL
REMARK 924 INTRA-LIGAND FREE ENERGY PREDICTED BY IDOCK:   -0.49 KCAL/MOL
REMARK 927      BINDING AFFINITY PREDICTED BY RF-SCORE:    0.00 PKD
ROOT
HETATM    1  C   UNL     1     -11.066  14.745  64.970  1.00  0.00    -0.412 C  
HETATM    2  C   UNL     1     -12.110  13.940  65.688  1.00  0.00    -0.421 C  
HETATM    3  O   UNL     1     -13.150  13.576  65.153  1.00  0.00    -0.737 OA 
ENDROOT
BRANCH   2   4
HETATM    4  O   UNL     1     -11.700  13.703  66.953  1.00  0.00    -0.347 OA 
BRANCH   4   5
HETATM    5  C   UNL     1     -11.004  12.607  67.236  1.00  0.00    -0.256 A  
HETATM    6  C   UNL     1     -11.354  11.267  67.232  1.00  0.00    -0.329 A  
HETATM    7  C   UNL     1     -10.303  10.395  67.672  1.00  0.00    -0.260 A  
HETATM    8  C   UNL     1      -9.173  11.115  67.953  1.00  0.00    -0.154 A  
HETATM    9  C   UNL     1      -7.890  10.509  68.365  1.00  0.00    -0.110 C  
HETATM   10  S   UNL     1      -9.384  12.789  67.781  1.00  0.00    -0.207 SA 
HETATM   11  C   UNL     1      -8.096   9.068  68.866  1.00  0.00    -0.104 C  
HETATM   12  N   UNL     1      -9.244   8.244  68.418  1.00  0.00    -0.136 NA 
HETATM   13  C   UNL     1     -10.408   8.908  67.796  1.00  0.00    -0.242 C  
BRANCH  12  14
HETATM   14  C   UNL     1      -9.641   7.261  69.492  1.00  0.00    -0.155 C  
BRANCH  14  15
HETATM   15  C   UNL     1      -9.322   5.788  69.203  1.00  0.00    -0.146 A  
HETATM   16  F   UNL     1      -9.249   6.139  66.843  1.00  0.00    -0.119 F  
HETATM   17  C   UNL     1      -9.300   4.823  70.228  1.00  0.00    -0.217 A  
HETATM   18  C   UNL     1      -9.173   5.310  67.891  1.00  0.00    -0.112 A  
HETATM   19  C   UNL     1      -8.978   3.956  67.596  1.00  0.00    -0.156 A  
HETATM   20  C   UNL     1      -9.095   3.466  69.946  1.00  0.00    -0.197 A  
HETATM   21  C   UNL     1      -8.932   3.033  68.631  1.00  0.00    -0.190 A  
ENDBRANCH  14  15
BRANCH  14  22
HETATM   22  C   UNL     1     -11.119   7.512  69.910  1.00  0.00    -0.171 C  
HETATM   23  O   UNL     1     -12.079   6.874  69.484  1.00  0.00     0.128 OA 
BRANCH  22  24
HETATM   24  C   UNL     1     -11.343   8.622  70.898  1.00  0.00    -0.314 C  
HETATM   25  C   UNL     1     -11.976   8.347  72.245  1.00  0.00    -0.455 C  
HETATM   26  C   UNL     1     -10.510   8.648  72.159  1.00  0.00    -0.411 C  
ENDBRANCH  22  24
ENDBRANCH  14  22
ENDBRANCH  12  14
ENDBRANCH   4   5
ENDBRANCH   2   4
TORSDOF 6
ENDMDL
MODEL      134
REMARK 921   NORMALIZED FREE ENERGY PREDICTED BY IDOCK:   -4.47 KCAL/MOL
REMARK 922        TOTAL FREE ENERGY PREDICTED BY IDOCK:   -6.72 KCAL/MOL
REMARK 923 INTER-LIGAND FREE ENERGY PREDICTED BY IDOCK:   -5.72 KCAL/MOL
REMARK 924 INTRA-LIGAND FREE ENERGY PREDICTED BY IDOCK:   -1.00 KCAL/MOL
REMARK 927      BINDING AFFINITY PREDICTED BY RF-SCORE:    0.00 PKD
ROOT
HETATM    1  C   UNL     1     -11.560  12.290  66.035  1.00  0.00    -0.451 C  
HETATM    2  C   UNL     1     -11.367  12.657  67.477  1.00  0.00    -0.308 C  
HETATM    3  O   UNL     1     -10.551  13.493  67.845  1.00  0.00    -0.240 OA 
ENDROOT
BRANCH   2   4
HETATM    4  O   UNL     1     -12.222  11.940  68.239  1.00  0.00    -0.447 OA 
BRANCH   4   5
HETATM    5  C   UNL     1     -11.759  11.030  69.089  1.00  0.00    -0.333 A  
HETATM    6  C   UNL     1     -10.653  10.198  69.036  1.00  0.00    -0.245 A  
HETATM    7  C   UNL     1     -10.549   9.304  70.152  1.00  0.00    -0.266 A  
HETATM    8  C   UNL     1     -11.569   9.528  71.039  1.00  0.00    -0.344 A  
HETATM    9  C   UNL     1     -11.712   8.821  72.328  1.00  0.00    -0.398 C  
HETATM   10  S   UNL     1     -12.666  10.709  70.514  1.00  0.00    -0.254 SA 
HETATM   11  C   UNL     1     -10.872   7.530  72.345  1.00  0.00    -0.276 C  
HETATM   12  N   UNL     1      -9.669   7.372  71.493  1.00  0.00    -0.160 NA 
HETATM   13  C   UNL     1      -9.477   8.279  70.343  1.00  0.00    -0.167 C  
BRANCH  12  14
HETATM   14  C   UNL     1      -9.465   5.921  71.129  1.00  0.00    -0.161 C  
BRANCH  14  15
HETATM   15  C   UNL     1      -9.415   4.936  72.306  1.00  0.00    -0.173 A  
HETATM   16  F   UNL     1      -7.785   6.228  73.477  1.00  0.00    -0.094 F  
HETATM   17  C   UNL     1     -10.126   3.722  72.281  1.00  0.00    -0.228 A  
HETATM   18  C   UNL     1      -8.555   5.136  73.398  1.00  0.00    -0.115 A  
HETATM   19  C   UNL     1      -8.421   4.207  74.436  1.00  0.00    -0.093 A  
HETATM   20  C   UNL     1     -10.007   2.788  73.318  1.00  0.00    -0.176 A  
HETATM   21  C   UNL     1      -9.156   3.031  74.397  1.00  0.00    -0.093 A  
ENDBRANCH  14  15
BRANCH  14  22
HETATM   22  C   UNL     1      -8.262   5.791  70.151  1.00  0.00    -0.116 C  
HETATM   23  O   UNL     1      -7.116   6.151  70.410  1.00  0.00    -0.067 OA 
BRANCH  22  24
HETATM   24  C   UNL     1      -8.566   5.187  68.810  1.00  0.00    -0.089 C  
HETATM   25  C   UNL     1      -9.452   3.966  68.691  1.00  0.00    -0.217 C  
HETATM   26  C   UNL     1      -9.971   5.306  68.265  1.00  0.00    -0.214 C  
ENDBRANCH  22  24
ENDBRANCH  14  22
ENDBRANCH  12  14
ENDBRANCH   4   5
ENDBRANCH   2   4
TORSDOF 6
ENDMDL
MODEL      135
REMARK 921   NORMALIZED FREE ENERGY PREDICTED BY IDOCK:   -4.45 KCAL/MOL
REMARK 922        TOTAL FREE ENERGY PREDICTED BY IDOCK:   -6.70 KCAL/MOL
REMARK 923 INTER-LIGAND FREE ENERGY PREDICTED BY IDOCK:   -6.41 KCAL/MOL
REMARK 924 INTRA-LIGAND FREE ENERGY PREDICTED BY IDOCK:   -0.29 KCAL/MOL
REMARK 927      BINDING AFFINITY PREDICTED BY RF-SCORE:    0.00 PKD
ROOT
HETATM    1  C   UNL     1      -9.504   3.581  68.980  1.00  0.00    -0.213 C  
HETATM    2  C   UNL     1      -9.562   4.903  69.689  1.00  0.00    -0.173 C  
HETATM    3  O   UNL     1     -10.485   5.219  70.429  1.00  0.00    -0.271 OA 
ENDROOT
BRANCH   2   4
HETATM    4  O   UNL     1      -8.463   5.626  69.377  1.00  0.00    -0.105 OA 
BRANCH   4   5
HETATM    5  C   UNL     1      -8.587   6.830  68.831  1.00  0.00    -0.130 A  
HETATM    6  C   UNL     1      -8.372   8.100  69.341  1.00  0.00    -0.123 A  
HETATM    7  C   UNL     1      -8.690   9.153  68.421  1.00  0.00    -0.129 A  
HETATM    8  C   UNL     1      -9.096   8.631  67.221  1.00  0.00    -0.133 A  
HETATM    9  C   UNL     1      -9.431   9.448  66.036  1.00  0.00    -0.304 C  
HETATM   10  S   UNL     1      -9.178   6.937  67.220  1.00  0.00    -0.131 SA 
HETATM   11  C   UNL     1      -9.703  10.911  66.434  1.00  0.00    -0.201 C  
HETATM   12  N   UNL     1      -9.115  11.508  67.658  1.00  0.00    -0.164 NA 
HETATM   13  C   UNL     1      -8.584  10.616  68.710  1.00  0.00    -0.150 C  
BRANCH  12  14
HETATM   14  C   UNL     1     -10.020  12.582  68.209  1.00  0.00    -0.229 C  
BRANCH  14  15
HETATM   15  C   UNL     1     -11.098  12.109  69.195  1.00  0.00    -0.263 A  
HETATM   16  F   UNL     1     -11.301  14.266  70.198  1.00  0.00    -0.290 F  
HETATM   17  C   UNL     1     -11.479  10.757  69.278  1.00  0.00    -0.369 A  
HETATM   18  C   UNL     1     -11.653  12.975  70.151  1.00  0.00    -0.064 A  
HETATM   19  C   UNL     1     -12.566  12.546  71.122  1.00  0.00    -0.349 A  
HETATM   20  C   UNL     1     -12.398  10.317  70.239  1.00  0.00    -0.267 A  
HETATM   21  C   UNL     1     -12.943  11.212  71.160  1.00  0.00    -0.393 A  
ENDBRANCH  14  15
BRANCH  14  22
HETATM   22  C   UNL     1     -10.576  13.448  67.042  1.00  0.00    -0.264 C  
HETATM   23  O   UNL     1      -9.912  14.264  66.406  1.00  0.00    -0.272 OA 
BRANCH  22  24
HETATM   24  C   UNL     1     -12.026  13.247  66.705  1.00  0.00    -0.438 C  
HETATM   25  C   UNL     1     -12.753  14.211  65.793  1.00  0.00    -0.443 C  
HETATM   26  C   UNL     1     -12.392  12.843  65.295  1.00  0.00    -0.544 C  
ENDBRANCH  22  24
ENDBRANCH  14  22
ENDBRANCH  12  14
ENDBRANCH   4   5
ENDBRANCH   2   4
TORSDOF 6
ENDMDL
MODEL      136
REMARK 921   NORMALIZED FREE ENERGY PREDICTED BY IDOCK:   -4.44 KCAL/MOL
REMARK 922        TOTAL FREE ENERGY PREDICTED BY IDOCK:   -6.68 KCAL/MOL
REMARK 923 INTER-LIGAND FREE ENERGY PREDICTED BY IDOCK:   -6.35 KCAL/MOL
REMARK 924 INTRA-LIGAND FREE ENERGY PREDICTED BY IDOCK:   -0.33 KCAL/MOL
REMARK 927      BINDING AFFINITY PREDICTED BY RF-SCORE:    0.00 PKD
ROOT
HETATM    1  C   UNL     1     -12.194  12.512  64.832  1.00  0.00    -0.534 C  
HETATM    2  C   UNL     1     -11.013  11.723  65.319  1.00  0.00    -0.295 C  
HETATM    3  O   UNL     1     -10.621  10.705  64.763  1.00  0.00    -0.291 OA 
ENDROOT
BRANCH   2   4
HETATM    4  O   UNL     1     -10.496  12.323  66.414  1.00  0.00    -0.230 OA 
BRANCH   4   5
HETATM    5  C   UNL     1     -10.384  11.652  67.555  1.00  0.00    -0.197 A  
HETATM    6  C   UNL     1      -9.332  10.936  68.104  1.00  0.00    -0.165 A  
HETATM    7  C   UNL     1      -9.654  10.300  69.348  1.00  0.00    -0.237 A  
HETATM    8  C   UNL     1     -10.939  10.600  69.718  1.00  0.00    -0.280 A  
HETATM    9  C   UNL     1     -11.558  10.157  70.984  1.00  0.00    -0.462 C  
HETATM   10  S   UNL     1     -11.764  11.540  68.573  1.00  0.00    -0.296 SA 
HETATM   11  C   UNL     1     -10.774   8.982  71.599  1.00  0.00    -0.371 C  
HETATM   12  N   UNL     1      -9.335   8.771  71.314  1.00  0.00    -0.225 NA 
HETATM   13  C   UNL     1      -8.726   9.442  70.147  1.00  0.00    -0.221 C  
BRANCH  12  14
HETATM   14  C   UNL     1      -8.991   7.304  71.386  1.00  0.00    -0.138 C  
BRANCH  14  15
HETATM   15  C   UNL     1      -9.055   6.536  70.058  1.00  0.00    -0.150 A  
HETATM   16  F   UNL     1     -11.353   7.079  69.713  1.00  0.00    -0.286 F  
HETATM   17  C   UNL     1      -7.966   5.774  69.594  1.00  0.00    -0.100 A  
HETATM   18  C   UNL     1     -10.243   6.447  69.315  1.00  0.00    -0.192 A  
HETATM   19  C   UNL     1     -10.353   5.675  68.153  1.00  0.00    -0.254 A  
HETATM   20  C   UNL     1      -8.061   5.004  68.427  1.00  0.00    -0.086 A  
HETATM   21  C   UNL     1      -9.253   4.957  67.705  1.00  0.00    -0.138 A  
ENDBRANCH  14  15
BRANCH  14  22
HETATM   22  C   UNL     1      -9.795   6.634  72.537  1.00  0.00    -0.165 C  
HETATM   23  O   UNL     1      -9.897   7.095  73.672  1.00  0.00    -0.238 OA 
BRANCH  22  24
HETATM   24  C   UNL     1     -10.470   5.335  72.199  1.00  0.00    -0.278 C  
HETATM   25  C   UNL     1     -10.315   4.122  73.091  1.00  0.00    -0.237 C  
HETATM   26  C   UNL     1     -11.615   4.868  73.068  1.00  0.00    -0.284 C  
ENDBRANCH  22  24
ENDBRANCH  14  22
ENDBRANCH  12  14
ENDBRANCH   4   5
ENDBRANCH   2   4
TORSDOF 6
ENDMDL
MODEL      137
REMARK 921   NORMALIZED FREE ENERGY PREDICTED BY IDOCK:   -4.44 KCAL/MOL
REMARK 922        TOTAL FREE ENERGY PREDICTED BY IDOCK:   -6.68 KCAL/MOL
REMARK 923 INTER-LIGAND FREE ENERGY PREDICTED BY IDOCK:   -6.63 KCAL/MOL
REMARK 924 INTRA-LIGAND FREE ENERGY PREDICTED BY IDOCK:   -0.05 KCAL/MOL
REMARK 927      BINDING AFFINITY PREDICTED BY RF-SCORE:    0.00 PKD
ROOT
HETATM    1  C   UNL     1     -11.835  15.587  72.576  1.00  0.00    -0.572 C  
HETATM    2  C   UNL     1     -12.831  15.425  71.465  1.00  0.00    -0.429 C  
HETATM    3  O   UNL     1     -14.012  15.169  71.665  1.00  0.00    -0.432 OA 
ENDROOT
BRANCH   2   4
HETATM    4  O   UNL     1     -12.212  15.614  70.279  1.00  0.00    -0.385 OA 
BRANCH   4   5
HETATM    5  C   UNL     1     -11.958  14.580  69.484  1.00  0.00    -0.319 A  
HETATM    6  C   UNL     1     -12.173  13.220  69.644  1.00  0.00    -0.258 A  
HETATM    7  C   UNL     1     -11.686  12.427  68.553  1.00  0.00    -0.373 A  
HETATM    8  C   UNL     1     -11.155  13.231  67.579  1.00  0.00    -0.270 A  
HETATM    9  C   UNL     1     -10.629  12.731  66.293  1.00  0.00    -0.275 C  
HETATM   10  S   UNL     1     -11.159  14.876  67.992  1.00  0.00    -0.307 SA 
HETATM   11  C   UNL     1     -10.338  11.220  66.366  1.00  0.00    -0.245 C  
HETATM   12  N   UNL     1     -11.048  10.335  67.320  1.00  0.00    -0.222 NA 
HETATM   13  C   UNL     1     -11.755  10.936  68.469  1.00  0.00    -0.237 C  
BRANCH  12  14
HETATM   14  C   UNL     1     -10.169   9.175  67.720  1.00  0.00    -0.224 C  
BRANCH  14  15
HETATM   15  C   UNL     1     -10.679   8.320  68.888  1.00  0.00    -0.089 A  
HETATM   16  F   UNL     1      -9.949   9.897  70.523  1.00  0.00    -0.301 F  
HETATM   17  C   UNL     1     -11.214   7.034  68.681  1.00  0.00     0.004 A  
HETATM   18  C   UNL     1     -10.512   8.721  70.223  1.00  0.00    -0.208 A  
HETATM   19  C   UNL     1     -10.882   7.917  71.307  1.00  0.00    -0.263 A  
HETATM   20  C   UNL     1     -11.597   6.224  69.758  1.00  0.00    -0.330 A  
HETATM   21  C   UNL     1     -11.433   6.665  71.070  1.00  0.00    -0.382 A  
ENDBRANCH  14  15
BRANCH  14  22
HETATM   22  C   UNL     1      -8.703   9.667  67.896  1.00  0.00    -0.119 C  
HETATM   23  O   UNL     1      -8.388  10.740  68.404  1.00  0.00    -0.118 OA 
BRANCH  22  24
HETATM   24  C   UNL     1      -7.633   8.739  67.394  1.00  0.00    -0.090 C  
HETATM   25  C   UNL     1      -7.922   7.744  66.291  1.00  0.00    -0.100 C  
HETATM   26  C   UNL     1      -7.085   8.954  66.001  1.00  0.00    -0.088 C  
ENDBRANCH  22  24
ENDBRANCH  14  22
ENDBRANCH  12  14
ENDBRANCH   4   5
ENDBRANCH   2   4
TORSDOF 6
ENDMDL
MODEL      138
REMARK 921   NORMALIZED FREE ENERGY PREDICTED BY IDOCK:   -4.42 KCAL/MOL
REMARK 922        TOTAL FREE ENERGY PREDICTED BY IDOCK:   -6.66 KCAL/MOL
REMARK 923 INTER-LIGAND FREE ENERGY PREDICTED BY IDOCK:   -6.16 KCAL/MOL
REMARK 924 INTRA-LIGAND FREE ENERGY PREDICTED BY IDOCK:   -0.50 KCAL/MOL
REMARK 927      BINDING AFFINITY PREDICTED BY RF-SCORE:    0.00 PKD
ROOT
HETATM    1  C   UNL     1     -10.414   5.474  68.843  1.00  0.00    -0.282 C  
HETATM    2  C   UNL     1     -10.585   5.599  67.357  1.00  0.00    -0.237 C  
HETATM    3  O   UNL     1     -10.194   4.746  66.570  1.00  0.00    -0.233 OA 
ENDROOT
BRANCH   2   4
HETATM    4  O   UNL     1     -11.223   6.757  67.076  1.00  0.00    -0.393 OA 
BRANCH   4   5
HETATM    5  C   UNL     1     -10.555   7.904  67.068  1.00  0.00    -0.311 A  
HETATM    6  C   UNL     1     -10.808   9.123  67.677  1.00  0.00    -0.160 A  
HETATM    7  C   UNL     1      -9.850  10.140  67.354  1.00  0.00    -0.225 A  
HETATM    8  C   UNL     1      -8.873   9.632  66.539  1.00  0.00    -0.142 A  
HETATM    9  C   UNL     1      -7.700  10.403  66.078  1.00  0.00    -0.136 C  
HETATM   10  S   UNL     1      -9.138   8.016  66.102  1.00  0.00    -0.151 SA 
HETATM   11  C   UNL     1      -7.936  11.916  66.240  1.00  0.00     0.235 C  
HETATM   12  N   UNL     1      -8.881  12.454  67.249  1.00  0.00    -0.184 NA 
HETATM   13  C   UNL     1      -9.890  11.553  67.843  1.00  0.00    -0.185 C  
BRANCH  12  14
HETATM   14  C   UNL     1      -9.474  13.759  66.776  1.00  0.00    -0.275 C  
BRANCH  14  15
HETATM   15  C   UNL     1      -8.573  14.994  66.918  1.00  0.00    -0.280 A  
HETATM   16  F   UNL     1      -7.325  14.030  68.709  1.00  0.00    -0.107 F  
HETATM   17  C   UNL     1      -8.800  16.162  66.166  1.00  0.00    -0.367 A  
HETATM   18  C   UNL     1      -7.569  15.065  67.897  1.00  0.00    -0.139 A  
HETATM   19  C   UNL     1      -6.799  16.215  68.110  1.00  0.00    -0.132 A  
HETATM   20  C   UNL     1      -8.030  17.316  66.363  1.00  0.00    -0.338 A  
HETATM   21  C   UNL     1      -7.029  17.342  67.333  1.00  0.00    -0.185 A  
ENDBRANCH  14  15
BRANCH  14  22
HETATM   22  C   UNL     1     -10.891  13.942  67.391  1.00  0.00    -0.285 C  
HETATM   23  O   UNL     1     -11.109  14.150  68.582  1.00  0.00    -0.241 OA 
BRANCH  22  24
HETATM   24  C   UNL     1     -12.043  13.846  66.430  1.00  0.00    -0.489 C  
HETATM   25  C   UNL     1     -11.845  14.103  64.952  1.00  0.00    -0.407 C  
HETATM   26  C   UNL     1     -12.065  12.703  65.441  1.00  0.00    -0.516 C  
ENDBRANCH  22  24
ENDBRANCH  14  22
ENDBRANCH  12  14
ENDBRANCH   4   5
ENDBRANCH   2   4
TORSDOF 6
ENDMDL
MODEL      139
REMARK 921   NORMALIZED FREE ENERGY PREDICTED BY IDOCK:   -4.40 KCAL/MOL
REMARK 922        TOTAL FREE ENERGY PREDICTED BY IDOCK:   -6.63 KCAL/MOL
REMARK 923 INTER-LIGAND FREE ENERGY PREDICTED BY IDOCK:   -6.34 KCAL/MOL
REMARK 924 INTRA-LIGAND FREE ENERGY PREDICTED BY IDOCK:   -0.30 KCAL/MOL
REMARK 927      BINDING AFFINITY PREDICTED BY RF-SCORE:    0.00 PKD
ROOT
HETATM    1  C   UNL     1      -9.399   3.018  71.968  1.00  0.00    -0.189 C  
HETATM    2  C   UNL     1      -8.783   4.295  72.463  1.00  0.00    -0.105 C  
HETATM    3  O   UNL     1      -9.068   4.793  73.544  1.00  0.00    -0.114 OA 
ENDROOT
BRANCH   2   4
HETATM    4  O   UNL     1      -7.901   4.750  71.545  1.00  0.00    -0.094 OA 
BRANCH   4   5
HETATM    5  C   UNL     1      -8.198   5.808  70.799  1.00  0.00    -0.123 A  
HETATM    6  C   UNL     1      -8.166   7.166  71.072  1.00  0.00    -0.109 A  
HETATM    7  C   UNL     1      -8.635   7.983  69.991  1.00  0.00    -0.134 A  
HETATM    8  C   UNL     1      -8.966   7.204  68.914  1.00  0.00    -0.129 A  
HETATM    9  C   UNL     1      -9.419   7.741  67.614  1.00  0.00    -0.168 C  
HETATM   10  S   UNL     1      -8.805   5.543  69.213  1.00  0.00    -0.106 SA 
HETATM   11  C   UNL     1      -9.897   9.199  67.756  1.00  0.00    -0.174 C  
HETATM   12  N   UNL     1      -9.397  10.081  68.838  1.00  0.00    -0.164 NA 
HETATM   13  C   UNL     1      -8.739   9.475  70.015  1.00  0.00    -0.221 C  
BRANCH  12  14
HETATM   14  C   UNL     1     -10.445  11.098  69.218  1.00  0.00    -0.151 C  
BRANCH  14  15
HETATM   15  C   UNL     1     -11.539  10.607  70.177  1.00  0.00    -0.414 A  
HETATM   16  F   UNL     1     -12.215  12.826  70.739  1.00  0.00    -0.420 F  
HETATM   17  C   UNL     1     -11.697   9.241  70.476  1.00  0.00    -0.225 A  
HETATM   18  C   UNL     1     -12.340  11.503  70.902  1.00  0.00    -0.359 A  
HETATM   19  C   UNL     1     -13.278  11.083  71.852  1.00  0.00    -0.503 A  
HETATM   20  C   UNL     1     -12.638   8.806  71.418  1.00  0.00    -0.337 A  
HETATM   21  C   UNL     1     -13.430   9.727  72.105  1.00  0.00    -0.491 A  
ENDBRANCH  14  15
BRANCH  14  22
HETATM   22  C   UNL     1     -10.997  11.784  67.936  1.00  0.00    -0.221 C  
HETATM   23  O   UNL     1     -12.105  11.563  67.453  1.00  0.00    -0.593 OA 
BRANCH  22  24
HETATM   24  C   UNL     1     -10.080  12.771  67.270  1.00  0.00    -0.226 C  
HETATM   25  C   UNL     1     -10.496  13.487  66.003  1.00  0.00    -0.299 C  
HETATM   26  C   UNL     1     -10.450  14.236  67.301  1.00  0.00    -0.269 C  
ENDBRANCH  22  24
ENDBRANCH  14  22
ENDBRANCH  12  14
ENDBRANCH   4   5
ENDBRANCH   2   4
TORSDOF 6
ENDMDL
MODEL      140
REMARK 921   NORMALIZED FREE ENERGY PREDICTED BY IDOCK:   -4.39 KCAL/MOL
REMARK 922        TOTAL FREE ENERGY PREDICTED BY IDOCK:   -6.62 KCAL/MOL
REMARK 923 INTER-LIGAND FREE ENERGY PREDICTED BY IDOCK:   -6.10 KCAL/MOL
REMARK 924 INTRA-LIGAND FREE ENERGY PREDICTED BY IDOCK:   -0.52 KCAL/MOL
REMARK 927      BINDING AFFINITY PREDICTED BY RF-SCORE:    0.00 PKD
ROOT
HETATM    1  C   UNL     1      -9.843  17.296  67.965  1.00  0.00    -0.284 C  
HETATM    2  C   UNL     1     -10.381  16.846  66.637  1.00  0.00    -0.299 C  
HETATM    3  O   UNL     1      -9.959  17.275  65.571  1.00  0.00    -0.557 OA 
ENDROOT
BRANCH   2   4
HETATM    4  O   UNL     1     -11.352  15.928  66.837  1.00  0.00    -0.081 OA 
BRANCH   4   5
HETATM    5  C   UNL     1     -11.128  14.648  66.564  1.00  0.00    -0.329 A  
HETATM    6  C   UNL     1     -10.738  13.588  67.367  1.00  0.00    -0.269 A  
HETATM    7  C   UNL     1     -10.546  12.361  66.650  1.00  0.00    -0.256 A  
HETATM    8  C   UNL     1     -10.844  12.532  65.324  1.00  0.00    -0.286 A  
HETATM    9  C   UNL     1     -10.814  11.444  64.324  1.00  0.00    -0.416 C  
HETATM   10  S   UNL     1     -11.257  14.129  64.930  1.00  0.00    -0.392 SA 
HETATM   11  C   UNL     1      -9.995  10.245  64.838  1.00  0.00    -0.323 C  
HETATM   12  N   UNL     1      -9.823   9.983  66.287  1.00  0.00    -0.222 NA 
HETATM   13  C   UNL     1     -10.099  11.068  67.253  1.00  0.00    -0.189 C  
BRANCH  12  14
HETATM   14  C   UNL     1      -8.505   9.295  66.547  1.00  0.00    -0.126 C  
BRANCH  14  15
HETATM   15  C   UNL     1      -7.453   9.421  65.436  1.00  0.00    -0.099 A  
HETATM   16  F   UNL     1      -8.311   7.539  64.244  1.00  0.00    -0.128 F  
HETATM   17  C   UNL     1      -6.410  10.362  65.511  1.00  0.00    -0.126 A  
HETATM   18  C   UNL     1      -7.404   8.515  64.364  1.00  0.00    -0.097 A  
HETATM   19  C   UNL     1      -6.398   8.549  63.390  1.00  0.00    -0.085 A  
HETATM   20  C   UNL     1      -5.404  10.413  64.538  1.00  0.00    -0.142 A  
HETATM   21  C   UNL     1      -5.399   9.508  63.476  1.00  0.00    -0.071 A  
ENDBRANCH  14  15
BRANCH  14  22
HETATM   22  C   UNL     1      -8.761   7.831  67.006  1.00  0.00    -0.129 C  
HETATM   23  O   UNL     1      -7.881   7.051  67.363  1.00  0.00    -0.108 OA 
BRANCH  22  24
HETATM   24  C   UNL     1     -10.194   7.378  66.990  1.00  0.00    -0.357 C  
HETATM   25  C   UNL     1     -10.544   5.914  66.834  1.00  0.00    -0.384 C  
HETATM   26  C   UNL     1     -10.713   6.582  68.166  1.00  0.00    -0.347 C  
ENDBRANCH  22  24
ENDBRANCH  14  22
ENDBRANCH  12  14
ENDBRANCH   4   5
ENDBRANCH   2   4
TORSDOF 6
ENDMDL
MODEL      141
REMARK 921   NORMALIZED FREE ENERGY PREDICTED BY IDOCK:   -4.39 KCAL/MOL
REMARK 922        TOTAL FREE ENERGY PREDICTED BY IDOCK:   -6.62 KCAL/MOL
REMARK 923 INTER-LIGAND FREE ENERGY PREDICTED BY IDOCK:   -5.83 KCAL/MOL
REMARK 924 INTRA-LIGAND FREE ENERGY PREDICTED BY IDOCK:   -0.78 KCAL/MOL
REMARK 927      BINDING AFFINITY PREDICTED BY RF-SCORE:    0.00 PKD
ROOT
HETATM    1  C   UNL     1     -10.856   3.976  73.500  1.00  0.00    -0.336 C  
HETATM    2  C   UNL     1     -10.799   5.463  73.299  1.00  0.00    -0.298 C  
HETATM    3  O   UNL     1      -9.890   6.157  73.736  1.00  0.00    -0.162 OA 
ENDROOT
BRANCH   2   4
HETATM    4  O   UNL     1     -11.872   5.858  72.579  1.00  0.00    -0.295 OA 
BRANCH   4   5
HETATM    5  C   UNL     1     -11.786   6.910  71.773  1.00  0.00    -0.316 A  
HETATM    6  C   UNL     1     -11.305   7.043  70.480  1.00  0.00    -0.355 A  
HETATM    7  C   UNL     1     -11.336   8.390  69.989  1.00  0.00    -0.003 A  
HETATM    8  C   UNL     1     -11.887   9.226  70.924  1.00  0.00    -0.282 A  
HETATM    9  C   UNL     1     -12.126  10.667  70.704  1.00  0.00    -0.461 C  
HETATM   10  S   UNL     1     -12.275   8.443  72.377  1.00  0.00    -0.313 SA 
HETATM   11  C   UNL     1     -11.294  11.190  69.519  1.00  0.00    -0.290 C  
HETATM   12  N   UNL     1     -10.846  10.294  68.425  1.00  0.00    -0.229 NA 
HETATM   13  C   UNL     1     -10.854   8.832  68.644  1.00  0.00     0.028 C  
BRANCH  12  14
HETATM   14  C   UNL     1      -9.546  10.786  67.836  1.00  0.00    -0.160 C  
BRANCH  14  15
HETATM   15  C   UNL     1      -9.456  12.297  67.583  1.00  0.00    -0.188 A  
HETATM   16  F   UNL     1     -11.533  12.349  66.409  1.00  0.00    -0.329 F  
HETATM   17  C   UNL     1      -8.316  13.038  67.946  1.00  0.00    -0.170 A  
HETATM   18  C   UNL     1     -10.444  12.983  66.858  1.00  0.00    -0.254 A  
HETATM   19  C   UNL     1     -10.338  14.340  66.532  1.00  0.00    -0.278 A  
HETATM   20  C   UNL     1      -8.202  14.399  67.633  1.00  0.00    -0.185 A  
HETATM   21  C   UNL     1      -9.214  15.050  66.928  1.00  0.00    -0.265 A  
ENDBRANCH  14  15
BRANCH  14  22
HETATM   22  C   UNL     1      -9.172   9.919  66.599  1.00  0.00    -0.153 C  
HETATM   23  O   UNL     1      -9.804   9.904  65.546  1.00  0.00    -0.283 OA 
BRANCH  22  24
HETATM   24  C   UNL     1      -7.953   9.053  66.748  1.00  0.00    -0.107 C  
HETATM   25  C   UNL     1      -6.914   8.979  65.650  1.00  0.00    -0.080 C  
HETATM   26  C   UNL     1      -6.608   9.720  66.917  1.00  0.00    -0.067 C  
ENDBRANCH  22  24
ENDBRANCH  14  22
ENDBRANCH  12  14
ENDBRANCH   4   5
ENDBRANCH   2   4
TORSDOF 6
ENDMDL
MODEL      142
REMARK 921   NORMALIZED FREE ENERGY PREDICTED BY IDOCK:   -4.39 KCAL/MOL
REMARK 922        TOTAL FREE ENERGY PREDICTED BY IDOCK:   -6.61 KCAL/MOL
REMARK 923 INTER-LIGAND FREE ENERGY PREDICTED BY IDOCK:   -5.83 KCAL/MOL
REMARK 924 INTRA-LIGAND FREE ENERGY PREDICTED BY IDOCK:   -0.78 KCAL/MOL
REMARK 927      BINDING AFFINITY PREDICTED BY RF-SCORE:    0.00 PKD
ROOT
HETATM    1  C   UNL     1     -12.579  14.113  65.476  1.00  0.00    -0.501 C  
HETATM    2  C   UNL     1     -11.960  13.319  64.362  1.00  0.00    -0.406 C  
HETATM    3  O   UNL     1     -12.561  13.039  63.333  1.00  0.00    -0.722 OA 
ENDROOT
BRANCH   2   4
HETATM    4  O   UNL     1     -10.688  13.003  64.693  1.00  0.00    -0.324 OA 
BRANCH   4   5
HETATM    5  C   UNL     1     -10.400  11.795  65.165  1.00  0.00    -0.279 A  
HETATM    6  C   UNL     1     -10.681  11.189  66.378  1.00  0.00    -0.303 A  
HETATM    7  C   UNL     1     -10.123   9.874  66.510  1.00  0.00    -0.298 A  
HETATM    8  C   UNL     1      -9.472   9.516  65.359  1.00  0.00    -0.269 A  
HETATM    9  C   UNL     1      -8.845   8.196  65.142  1.00  0.00     0.024 C  
HETATM   10  S   UNL     1      -9.451  10.744  64.190  1.00  0.00    -0.291 SA 
HETATM   11  C   UNL     1      -8.620   7.466  66.480  1.00  0.00    -0.132 C  
HETATM   12  N   UNL     1      -9.452   7.753  67.674  1.00  0.00    -0.142 NA 
HETATM   13  C   UNL     1     -10.241   9.001  67.718  1.00  0.00    -0.230 C  
BRANCH  12  14
HETATM   14  C   UNL     1      -8.660   7.521  68.938  1.00  0.00    -0.129 C  
BRANCH  14  15
HETATM   15  C   UNL     1      -8.583   6.067  69.423  1.00  0.00    -0.122 A  
HETATM   16  F   UNL     1     -10.950   5.776  69.311  1.00  0.00    -0.351 F  
HETATM   17  C   UNL     1      -7.367   5.491  69.834  1.00  0.00    -0.069 A  
HETATM   18  C   UNL     1      -9.738   5.290  69.607  1.00  0.00    -0.182 A  
HETATM   19  C   UNL     1      -9.703   3.995  70.138  1.00  0.00    -0.265 A  
HETATM   20  C   UNL     1      -7.317   4.192  70.358  1.00  0.00    -0.045 A  
HETATM   21  C   UNL     1      -8.484   3.444  70.508  1.00  0.00    -0.097 A  
ENDBRANCH  14  15
BRANCH  14  22
HETATM   22  C   UNL     1      -9.121   8.525  70.034  1.00  0.00    -0.147 C  
HETATM   23  O   UNL     1     -10.200   8.465  70.620  1.00  0.00    -0.190 OA 
BRANCH  22  24
HETATM   24  C   UNL     1      -8.156   9.628  70.365  1.00  0.00    -0.198 C  
HETATM   25  C   UNL     1      -6.829   9.327  71.028  1.00  0.00    -0.091 C  
HETATM   26  C   UNL     1      -6.866   9.719  69.581  1.00  0.00    -0.072 C  
ENDBRANCH  22  24
ENDBRANCH  14  22
ENDBRANCH  12  14
ENDBRANCH   4   5
ENDBRANCH   2   4
TORSDOF 6
ENDMDL
MODEL      143
REMARK 921   NORMALIZED FREE ENERGY PREDICTED BY IDOCK:   -4.37 KCAL/MOL
REMARK 922        TOTAL FREE ENERGY PREDICTED BY IDOCK:   -6.59 KCAL/MOL
REMARK 923 INTER-LIGAND FREE ENERGY PREDICTED BY IDOCK:   -6.10 KCAL/MOL
REMARK 924 INTRA-LIGAND FREE ENERGY PREDICTED BY IDOCK:   -0.49 KCAL/MOL
REMARK 927      BINDING AFFINITY PREDICTED BY RF-SCORE:    0.00 PKD
ROOT
HETATM    1  C   UNL     1      -9.470  19.154  66.685  1.00  0.00    -0.387 C  
HETATM    2  C   UNL     1      -9.952  18.000  67.516  1.00  0.00    -0.327 C  
HETATM    3  O   UNL     1      -9.962  18.022  68.740  1.00  0.00    -0.361 OA 
ENDROOT
BRANCH   2   4
HETATM    4  O   UNL     1     -10.356  17.001  66.700  1.00  0.00    -0.308 OA 
BRANCH   4   5
HETATM    5  C   UNL     1     -10.188  15.734  67.060  1.00  0.00    -0.280 A  
HETATM    6  C   UNL     1      -9.125  14.861  66.891  1.00  0.00    -0.271 A  
HETATM    7  C   UNL     1      -9.381  13.538  67.382  1.00  0.00    -0.228 A  
HETATM    8  C   UNL     1     -10.626  13.473  67.950  1.00  0.00    -0.248 A  
HETATM    9  C   UNL     1     -11.170  12.269  68.611  1.00  0.00    -0.305 C  
HETATM   10  S   UNL     1     -11.497  14.923  67.824  1.00  0.00    -0.336 SA 
HETATM   11  C   UNL     1     -10.386  11.010  68.196  1.00  0.00    -0.182 C  
HETATM   12  N   UNL     1      -8.978  11.085  67.738  1.00  0.00    -0.138 NA 
HETATM   13  C   UNL     1      -8.429  12.387  67.306  1.00  0.00    -0.183 C  
BRANCH  12  14
HETATM   14  C   UNL     1      -8.679   9.975  66.760  1.00  0.00    -0.129 C  
BRANCH  14  15
HETATM   15  C   UNL     1      -8.822  10.335  65.275  1.00  0.00    -0.200 A  
HETATM   16  F   UNL     1      -6.747   9.305  64.699  1.00  0.00    -0.076 F  
HETATM   17  C   UNL     1      -9.884  11.133  64.809  1.00  0.00    -0.326 A  
HETATM   18  C   UNL     1      -7.831  10.002  64.337  1.00  0.00    -0.144 A  
HETATM   19  C   UNL     1      -7.892  10.401  62.997  1.00  0.00    -0.127 A  
HETATM   20  C   UNL     1      -9.961  11.531  63.468  1.00  0.00    -0.429 A  
HETATM   21  C   UNL     1      -8.966  11.164  62.562  1.00  0.00    -0.347 A  
ENDBRANCH  14  15
BRANCH  14  22
HETATM   22  C   UNL     1      -9.457   8.692  67.172  1.00  0.00    -0.160 C  
HETATM   23  O   UNL     1     -10.586   8.409  66.778  1.00  0.00    -0.295 OA 
BRANCH  22  24
HETATM   24  C   UNL     1      -8.747   7.768  68.121  1.00  0.00    -0.126 C  
HETATM   25  C   UNL     1      -7.378   7.216  67.789  1.00  0.00    -0.097 C  
HETATM   26  C   UNL     1      -7.519   8.275  68.841  1.00  0.00    -0.092 C  
ENDBRANCH  22  24
ENDBRANCH  14  22
ENDBRANCH  12  14
ENDBRANCH   4   5
ENDBRANCH   2   4
TORSDOF 6
ENDMDL
MODEL      144
REMARK 921   NORMALIZED FREE ENERGY PREDICTED BY IDOCK:   -4.36 KCAL/MOL
REMARK 922        TOTAL FREE ENERGY PREDICTED BY IDOCK:   -6.58 KCAL/MOL
REMARK 923 INTER-LIGAND FREE ENERGY PREDICTED BY IDOCK:   -6.86 KCAL/MOL
REMARK 924 INTRA-LIGAND FREE ENERGY PREDICTED BY IDOCK:    0.28 KCAL/MOL
REMARK 927      BINDING AFFINITY PREDICTED BY RF-SCORE:    0.00 PKD
ROOT
HETATM    1  C   UNL     1      -6.400   8.547  66.569  1.00  0.00    -0.058 C  
HETATM    2  C   UNL     1      -7.821   8.106  66.369  1.00  0.00    -0.093 C  
HETATM    3  O   UNL     1      -8.127   7.145  65.675  1.00  0.00    -0.118 OA 
ENDROOT
BRANCH   2   4
HETATM    4  O   UNL     1      -8.643   8.920  67.069  1.00  0.00    -0.115 OA 
BRANCH   4   5
HETATM    5  C   UNL     1      -8.883  10.155  66.644  1.00  0.00    -0.132 A  
HETATM    6  C   UNL     1      -8.376  11.381  67.042  1.00  0.00    -0.161 A  
HETATM    7  C   UNL     1      -8.959  12.497  66.355  1.00  0.00    -0.077 A  
HETATM    8  C   UNL     1      -9.863  12.063  65.422  1.00  0.00    -0.220 A  
HETATM    9  C   UNL     1     -10.588  12.957  64.497  1.00  0.00    -0.403 C  
HETATM   10  S   UNL     1     -10.074  10.380  65.425  1.00  0.00    -0.260 SA 
HETATM   11  C   UNL     1     -10.554  14.414  64.997  1.00  0.00    -0.432 C  
HETATM   12  N   UNL     1      -9.469  14.909  65.878  1.00  0.00    -0.296 NA 
HETATM   13  C   UNL     1      -8.625  13.934  66.599  1.00  0.00     0.068 C  
BRANCH  12  14
HETATM   14  C   UNL     1      -9.977  16.013  66.773  1.00  0.00    -0.258 C  
BRANCH  14  15
HETATM   15  C   UNL     1     -10.916  15.576  67.907  1.00  0.00    -0.316 A  
HETATM   16  F   UNL     1     -10.227  17.363  69.331  1.00  0.00    -0.301 F  
HETATM   17  C   UNL     1     -11.670  14.391  67.823  1.00  0.00    -0.407 A  
HETATM   18  C   UNL     1     -10.963  16.264  69.130  1.00  0.00    -0.324 A  
HETATM   19  C   UNL     1     -11.738  15.831  70.213  1.00  0.00    -0.373 A  
HETATM   20  C   UNL     1     -12.457  13.953  68.896  1.00  0.00     0.132 A  
HETATM   21  C   UNL     1     -12.493  14.674  70.090  1.00  0.00    -0.369 A  
ENDBRANCH  14  15
BRANCH  14  22
HETATM   22  C   UNL     1     -10.540  17.174  65.904  1.00  0.00    -0.215 C  
HETATM   23  O   UNL     1     -10.916  17.050  64.741  1.00  0.00    -0.835 OA 
BRANCH  22  24
HETATM   24  C   UNL     1     -10.607  18.520  66.568  1.00  0.00    -0.375 C  
HETATM   25  C   UNL     1      -9.357  19.349  66.771  1.00  0.00    -0.395 C  
HETATM   26  C   UNL     1     -10.357  19.753  65.729  1.00  0.00    -0.522 C  
ENDBRANCH  22  24
ENDBRANCH  14  22
ENDBRANCH  12  14
ENDBRANCH   4   5
ENDBRANCH   2   4
TORSDOF 6
ENDMDL
MODEL      145
REMARK 921   NORMALIZED FREE ENERGY PREDICTED BY IDOCK:   -4.35 KCAL/MOL
REMARK 922        TOTAL FREE ENERGY PREDICTED BY IDOCK:   -6.56 KCAL/MOL
REMARK 923 INTER-LIGAND FREE ENERGY PREDICTED BY IDOCK:   -6.62 KCAL/MOL
REMARK 924 INTRA-LIGAND FREE ENERGY PREDICTED BY IDOCK:    0.06 KCAL/MOL
REMARK 927      BINDING AFFINITY PREDICTED BY RF-SCORE:    0.00 PKD
ROOT
HETATM    1  C   UNL     1      -8.311   5.111  67.547  1.00  0.00    -0.106 C  
HETATM    2  C   UNL     1      -8.759   4.907  66.129  1.00  0.00    -0.117 C  
HETATM    3  O   UNL     1      -8.664   3.832  65.551  1.00  0.00    -0.113 OA 
ENDROOT
BRANCH   2   4
HETATM    4  O   UNL     1      -9.264   6.066  65.649  1.00  0.00    -0.089 OA 
BRANCH   4   5
HETATM    5  C   UNL     1      -9.166   7.183  66.361  1.00  0.00    -0.157 A  
HETATM    6  C   UNL     1     -10.066   7.825  67.196  1.00  0.00    -0.328 A  
HETATM    7  C   UNL     1      -9.577   9.063  67.729  1.00  0.00    -0.178 A  
HETATM    8  C   UNL     1      -8.295   9.291  67.305  1.00  0.00    -0.125 A  
HETATM    9  C   UNL     1      -7.478  10.446  67.730  1.00  0.00    -0.088 C  
HETATM   10  S   UNL     1      -7.722   8.106  66.235  1.00  0.00    -0.096 SA 
HETATM   11  C   UNL     1      -8.363  11.562  68.316  1.00  0.00    -0.154 C  
HETATM   12  N   UNL     1      -9.685  11.270  68.923  1.00  0.00    -0.170 NA 
HETATM   13  C   UNL     1     -10.341   9.979  68.631  1.00  0.00    -0.190 C  
BRANCH  12  14
HETATM   14  C   UNL     1     -10.615  12.446  68.754  1.00  0.00    -0.183 C  
BRANCH  14  15
HETATM   15  C   UNL     1     -11.655  12.642  69.867  1.00  0.00    -0.248 A  
HETATM   16  F   UNL     1     -11.659  15.015  69.614  1.00  0.00    -0.250 F  
HETATM   17  C   UNL     1     -12.113  11.562  70.645  1.00  0.00    -0.450 A  
HETATM   18  C   UNL     1     -12.094  13.920  70.249  1.00  0.00    -0.353 A  
HETATM   19  C   UNL     1     -12.967  14.131  71.322  1.00  0.00    -0.426 A  
HETATM   20  C   UNL     1     -12.995  11.759  71.716  1.00  0.00    -0.466 A  
HETATM   21  C   UNL     1     -13.424  13.043  72.053  1.00  0.00    -0.584 A  
ENDBRANCH  14  15
BRANCH  14  22
HETATM   22  C   UNL     1     -11.224  12.431  67.323  1.00  0.00    -0.303 C  
HETATM   23  O   UNL     1     -12.063  11.621  66.934  1.00  0.00    -0.512 OA 
BRANCH  22  24
HETATM   24  C   UNL     1     -10.720  13.488  66.382  1.00  0.00    -0.287 C  
HETATM   25  C   UNL     1     -11.523  13.892  65.164  1.00  0.00    -0.324 C  
HETATM   26  C   UNL     1     -11.437  14.819  66.339  1.00  0.00    -0.319 C  
ENDBRANCH  22  24
ENDBRANCH  14  22
ENDBRANCH  12  14
ENDBRANCH   4   5
ENDBRANCH   2   4
TORSDOF 6
ENDMDL
MODEL      146
REMARK 921   NORMALIZED FREE ENERGY PREDICTED BY IDOCK:   -4.32 KCAL/MOL
REMARK 922        TOTAL FREE ENERGY PREDICTED BY IDOCK:   -6.52 KCAL/MOL
REMARK 923 INTER-LIGAND FREE ENERGY PREDICTED BY IDOCK:   -6.59 KCAL/MOL
REMARK 924 INTRA-LIGAND FREE ENERGY PREDICTED BY IDOCK:    0.07 KCAL/MOL
REMARK 927      BINDING AFFINITY PREDICTED BY RF-SCORE:    0.00 PKD
ROOT
HETATM    1  C   UNL     1     -11.318   7.435  72.684  1.00  0.00    -0.360 C  
HETATM    2  C   UNL     1      -9.825   7.591  72.642  1.00  0.00    -0.191 C  
HETATM    3  O   UNL     1      -9.159   7.865  73.631  1.00  0.00    -0.266 OA 
ENDROOT
BRANCH   2   4
HETATM    4  O   UNL     1      -9.389   7.374  71.381  1.00  0.00    -0.143 OA 
BRANCH   4   5
HETATM    5  C   UNL     1      -9.574   8.294  70.441  1.00  0.00    -0.168 A  
HETATM    6  C   UNL     1      -9.290   9.649  70.410  1.00  0.00    -0.268 A  
HETATM    7  C   UNL     1      -9.716  10.301  69.205  1.00  0.00    -0.240 A  
HETATM    8  C   UNL     1     -10.272   9.393  68.344  1.00  0.00    -0.197 A  
HETATM    9  C   UNL     1     -10.749   9.728  66.986  1.00  0.00    -0.236 C  
HETATM   10  S   UNL     1     -10.363   7.826  68.987  1.00  0.00    -0.201 SA 
HETATM   11  C   UNL     1     -10.961  11.246  66.835  1.00  0.00    -0.290 C  
HETATM   12  N   UNL     1     -10.221  12.223  67.670  1.00  0.00    -0.200 NA 
HETATM   13  C   UNL     1      -9.566  11.759  68.911  1.00  0.00     0.046 C  
BRANCH  12  14
HETATM   14  C   UNL     1     -11.044  13.471  67.878  1.00  0.00    -0.265 C  
BRANCH  14  15
HETATM   15  C   UNL     1     -11.251  14.351  66.638  1.00  0.00    -0.340 A  
HETATM   16  F   UNL     1     -12.782  12.810  65.649  1.00  0.00    -0.500 F  
HETATM   17  C   UNL     1     -10.508  15.530  66.439  1.00  0.00    -0.310 A  
HETATM   18  C   UNL     1     -12.088  13.953  65.583  1.00  0.00    -0.421 A  
HETATM   19  C   UNL     1     -12.219  14.691  64.401  1.00  0.00    -0.473 A  
HETATM   20  C   UNL     1     -10.638  16.282  65.264  1.00  0.00    -0.357 A  
HETATM   21  C   UNL     1     -11.495  15.864  64.246  1.00  0.00    -0.197 A  
ENDBRANCH  14  15
BRANCH  14  22
HETATM   22  C   UNL     1     -10.510  14.248  69.117  1.00  0.00    -0.159 C  
HETATM   23  O   UNL     1      -9.422  14.816  69.163  1.00  0.00    -0.188 OA 
BRANCH  22  24
HETATM   24  C   UNL     1     -11.416  14.275  70.316  1.00  0.00    -0.226 C  
HETATM   25  C   UNL     1     -12.742  15.002  70.271  1.00  0.00    -0.319 C  
HETATM   26  C   UNL     1     -12.714  13.503  70.260  1.00  0.00    -0.118 C  
ENDBRANCH  22  24
ENDBRANCH  14  22
ENDBRANCH  12  14
ENDBRANCH   4   5
ENDBRANCH   2   4
TORSDOF 6
ENDMDL
MODEL      147
REMARK 921   NORMALIZED FREE ENERGY PREDICTED BY IDOCK:   -4.30 KCAL/MOL
REMARK 922        TOTAL FREE ENERGY PREDICTED BY IDOCK:   -6.50 KCAL/MOL
REMARK 923 INTER-LIGAND FREE ENERGY PREDICTED BY IDOCK:   -6.18 KCAL/MOL
REMARK 924 INTRA-LIGAND FREE ENERGY PREDICTED BY IDOCK:   -0.32 KCAL/MOL
REMARK 927      BINDING AFFINITY PREDICTED BY RF-SCORE:    0.00 PKD
ROOT
HETATM    1  C   UNL     1     -10.463  13.549  67.610  1.00  0.00    -0.239 C  
HETATM    2  C   UNL     1     -11.635  12.611  67.594  1.00  0.00    -0.357 C  
HETATM    3  O   UNL     1     -12.041  12.075  66.571  1.00  0.00    -0.617 OA 
ENDROOT
BRANCH   2   4
HETATM    4  O   UNL     1     -12.115  12.474  68.850  1.00  0.00    -0.264 OA 
BRANCH   4   5
HETATM    5  C   UNL     1     -11.755  11.434  69.594  1.00  0.00    -0.345 A  
HETATM    6  C   UNL     1     -10.542  10.781  69.740  1.00  0.00    -0.191 A  
HETATM    7  C   UNL     1     -10.600   9.643  70.611  1.00  0.00    -0.386 A  
HETATM    8  C   UNL     1     -11.860   9.505  71.131  1.00  0.00    -0.358 A  
HETATM    9  C   UNL     1     -12.237   8.472  72.118  1.00  0.00    -0.446 C  
HETATM   10  S   UNL     1     -12.962  10.646  70.531  1.00  0.00    -0.080 SA 
HETATM   11  C   UNL     1     -11.205   7.330  72.143  1.00  0.00    -0.252 C  
HETATM   12  N   UNL     1      -9.796   7.544  71.730  1.00  0.00    -0.163 NA 
HETATM   13  C   UNL     1      -9.454   8.737  70.930  1.00  0.00    -0.216 C  
BRANCH  12  14
HETATM   14  C   UNL     1      -9.214   6.274  71.159  1.00  0.00    -0.153 C  
BRANCH  14  15
HETATM   15  C   UNL     1      -9.382   6.083  69.645  1.00  0.00    -0.161 A  
HETATM   16  F   UNL     1     -11.757   6.299  69.757  1.00  0.00    -0.478 F  
HETATM   17  C   UNL     1      -8.289   5.767  68.816  1.00  0.00    -0.104 A  
HETATM   18  C   UNL     1     -10.649   6.079  69.039  1.00  0.00    -0.291 A  
HETATM   19  C   UNL     1     -10.836   5.812  67.677  1.00  0.00    -0.264 A  
HETATM   20  C   UNL     1      -8.463   5.507  67.450  1.00  0.00    -0.109 A  
HETATM   21  C   UNL     1      -9.735   5.532  66.881  1.00  0.00    -0.163 A  
ENDBRANCH  14  15
BRANCH  14  22
HETATM   22  C   UNL     1      -9.690   5.055  72.001  1.00  0.00    -0.164 C  
HETATM   23  O   UNL     1     -10.511   4.225  71.618  1.00  0.00    -0.075 OA 
BRANCH  22  24
HETATM   24  C   UNL     1      -9.083   4.925  73.370  1.00  0.00    -0.117 C  
HETATM   25  C   UNL     1      -7.894   4.021  73.610  1.00  0.00    -0.084 C  
HETATM   26  C   UNL     1      -7.710   5.509  73.611  1.00  0.00    -0.102 C  
ENDBRANCH  22  24
ENDBRANCH  14  22
ENDBRANCH  12  14
ENDBRANCH   4   5
ENDBRANCH   2   4
TORSDOF 6
ENDMDL
MODEL      148
REMARK 921   NORMALIZED FREE ENERGY PREDICTED BY IDOCK:   -4.30 KCAL/MOL
REMARK 922        TOTAL FREE ENERGY PREDICTED BY IDOCK:   -6.49 KCAL/MOL
REMARK 923 INTER-LIGAND FREE ENERGY PREDICTED BY IDOCK:   -6.29 KCAL/MOL
REMARK 924 INTRA-LIGAND FREE ENERGY PREDICTED BY IDOCK:   -0.20 KCAL/MOL
REMARK 927      BINDING AFFINITY PREDICTED BY RF-SCORE:    0.00 PKD
ROOT
HETATM    1  C   UNL     1     -12.016  15.760  64.197  1.00  0.00     0.012 C  
HETATM    2  C   UNL     1     -10.748  15.493  64.956  1.00  0.00    -0.441 C  
HETATM    3  O   UNL     1     -10.123  16.373  65.533  1.00  0.00    -0.508 OA 
ENDROOT
BRANCH   2   4
HETATM    4  O   UNL     1     -10.458  14.175  64.890  1.00  0.00    -0.404 OA 
BRANCH   4   5
HETATM    5  C   UNL     1     -10.449  13.436  65.994  1.00  0.00    -0.294 A  
HETATM    6  C   UNL     1      -9.437  12.730  66.623  1.00  0.00    -0.249 A  
HETATM    7  C   UNL     1      -9.873  12.001  67.778  1.00  0.00    -0.190 A  
HETATM    8  C   UNL     1     -11.205  12.223  68.007  1.00  0.00    -0.269 A  
HETATM    9  C   UNL     1     -11.947  11.673  69.160  1.00  0.00    -0.378 C  
HETATM   10  S   UNL     1     -11.933  13.201  66.829  1.00  0.00    -0.338 SA 
HETATM   11  C   UNL     1     -11.186  10.494  69.794  1.00  0.00    -0.298 C  
HETATM   12  N   UNL     1      -9.714  10.361  69.674  1.00  0.00    -0.175 NA 
HETATM   13  C   UNL     1      -9.005  11.131  68.631  1.00  0.00    -0.162 C  
BRANCH  12  14
HETATM   14  C   UNL     1      -9.310   8.907  69.698  1.00  0.00    -0.163 C  
BRANCH  14  15
HETATM   15  C   UNL     1      -8.735   8.350  68.388  1.00  0.00    -0.136 A  
HETATM   16  F   UNL     1     -10.741   8.795  67.174  1.00  0.00    -0.350 F  
HETATM   17  C   UNL     1      -7.468   7.738  68.341  1.00  0.00    -0.104 A  
HETATM   18  C   UNL     1      -9.497   8.302  67.210  1.00  0.00    -0.151 A  
HETATM   19  C   UNL     1      -9.030   7.713  66.029  1.00  0.00    -0.178 A  
HETATM   20  C   UNL     1      -6.985   7.154  67.163  1.00  0.00    -0.078 A  
HETATM   21  C   UNL     1      -7.765   7.143  66.007  1.00  0.00    -0.099 A  
ENDBRANCH  14  15
BRANCH  14  22
HETATM   22  C   UNL     1     -10.468   8.052  70.288  1.00  0.00    -0.222 C  
HETATM   23  O   UNL     1     -11.255   7.390  69.614  1.00  0.00    -0.171 OA 
BRANCH  22  24
HETATM   24  C   UNL     1     -10.603   8.070  71.784  1.00  0.00    -0.296 C  
HETATM   25  C   UNL     1     -11.949   7.868  72.446  1.00  0.00    -0.373 C  
HETATM   26  C   UNL     1     -10.924   6.775  72.496  1.00  0.00    -0.281 C  
ENDBRANCH  22  24
ENDBRANCH  14  22
ENDBRANCH  12  14
ENDBRANCH   4   5
ENDBRANCH   2   4
TORSDOF 6
ENDMDL
MODEL      149
REMARK 921   NORMALIZED FREE ENERGY PREDICTED BY IDOCK:   -4.29 KCAL/MOL
REMARK 922        TOTAL FREE ENERGY PREDICTED BY IDOCK:   -6.48 KCAL/MOL
REMARK 923 INTER-LIGAND FREE ENERGY PREDICTED BY IDOCK:   -6.36 KCAL/MOL
REMARK 924 INTRA-LIGAND FREE ENERGY PREDICTED BY IDOCK:   -0.12 KCAL/MOL
REMARK 927      BINDING AFFINITY PREDICTED BY RF-SCORE:    0.00 PKD
ROOT
HETATM    1  C   UNL     1     -13.651  13.544  72.353  1.00  0.00    -0.709 C  
HETATM    2  C   UNL     1     -13.437  14.600  71.307  1.00  0.00    -0.386 C  
HETATM    3  O   UNL     1     -14.286  15.435  71.025  1.00  0.00    -0.447 OA 
ENDROOT
BRANCH   2   4
HETATM    4  O   UNL     1     -12.200  14.463  70.781  1.00  0.00    -0.298 OA 
BRANCH   4   5
HETATM    5  C   UNL     1     -11.967  13.542  69.852  1.00  0.00    -0.348 A  
HETATM    6  C   UNL     1     -11.762  12.175  69.941  1.00  0.00    -0.361 A  
HETATM    7  C   UNL     1     -11.475  11.551  68.682  1.00  0.00    -0.354 A  
HETATM    8  C   UNL     1     -11.519  12.475  67.672  1.00  0.00    -0.334 A  
HETATM    9  C   UNL     1     -11.336  12.145  66.243  1.00  0.00    -0.411 C  
HETATM   10  S   UNL     1     -11.807  14.054  68.219  1.00  0.00    -0.360 SA 
HETATM   11  C   UNL     1     -10.661  10.771  66.076  1.00  0.00    -0.156 C  
HETATM   12  N   UNL     1     -10.766   9.720  67.117  1.00  0.00    -0.237 NA 
HETATM   13  C   UNL     1     -11.184  10.098  68.483  1.00  0.00    -0.168 C  
BRANCH  12  14
HETATM   14  C   UNL     1      -9.538   8.841  67.107  1.00  0.00    -0.175 C  
BRANCH  14  15
HETATM   15  C   UNL     1      -8.584   9.038  65.921  1.00  0.00    -0.172 A  
HETATM   16  F   UNL     1      -7.911  11.205  66.664  1.00  0.00    -0.134 F  
HETATM   17  C   UNL     1      -8.505   8.100  64.875  1.00  0.00    -0.094 A  
HETATM   18  C   UNL     1      -7.847  10.223  65.757  1.00  0.00    -0.145 A  
HETATM   19  C   UNL     1      -7.044  10.466  64.636  1.00  0.00    -0.017 A  
HETATM   20  C   UNL     1      -7.697   8.327  63.753  1.00  0.00    -0.145 A  
HETATM   21  C   UNL     1      -6.966   9.509  63.635  1.00  0.00    -0.104 A  
ENDBRANCH  14  15
BRANCH  14  22
HETATM   22  C   UNL     1      -9.954   7.360  67.338  1.00  0.00    -0.183 C  
HETATM   23  O   UNL     1     -10.762   6.749  66.642  1.00  0.00    -0.245 OA 
BRANCH  22  24
HETATM   24  C   UNL     1      -9.306   6.669  68.505  1.00  0.00    -0.125 C  
HETATM   25  C   UNL     1      -7.805   6.706  68.693  1.00  0.00    -0.114 C  
HETATM   26  C   UNL     1      -8.688   7.515  69.594  1.00  0.00    -0.137 C  
ENDBRANCH  22  24
ENDBRANCH  14  22
ENDBRANCH  12  14
ENDBRANCH   4   5
ENDBRANCH   2   4
TORSDOF 6
ENDMDL
MODEL      150
REMARK 921   NORMALIZED FREE ENERGY PREDICTED BY IDOCK:   -4.29 KCAL/MOL
REMARK 922        TOTAL FREE ENERGY PREDICTED BY IDOCK:   -6.47 KCAL/MOL
REMARK 923 INTER-LIGAND FREE ENERGY PREDICTED BY IDOCK:   -5.95 KCAL/MOL
REMARK 924 INTRA-LIGAND FREE ENERGY PREDICTED BY IDOCK:   -0.53 KCAL/MOL
REMARK 927      BINDING AFFINITY PREDICTED BY RF-SCORE:    0.00 PKD
ROOT
HETATM    1  C   UNL     1     -13.490  15.413  71.564  1.00  0.00    -0.601 C  
HETATM    2  C   UNL     1     -11.998  15.261  71.648  1.00  0.00    -0.372 C  
HETATM    3  O   UNL     1     -11.425  14.899  72.667  1.00  0.00    -0.243 OA 
ENDROOT
BRANCH   2   4
HETATM    4  O   UNL     1     -11.450  15.572  70.453  1.00  0.00    -0.283 OA 
BRANCH   4   5
HETATM    5  C   UNL     1     -11.141  14.612  69.588  1.00  0.00    -0.253 A  
HETATM    6  C   UNL     1     -11.791  13.437  69.245  1.00  0.00    -0.385 A  
HETATM    7  C   UNL     1     -11.074  12.637  68.296  1.00  0.00    -0.295 A  
HETATM    8  C   UNL     1      -9.916  13.266  67.920  1.00  0.00    -0.233 A  
HETATM    9  C   UNL     1      -8.982  12.739  66.904  1.00  0.00    -0.213 C  
HETATM   10  S   UNL     1      -9.650  14.726  68.740  1.00  0.00    -0.205 SA 
HETATM   11  C   UNL     1      -9.221  11.236  66.662  1.00  0.00    -0.180 C  
HETATM   12  N   UNL     1     -10.538  10.605  66.920  1.00  0.00    -0.257 NA 
HETATM   13  C   UNL     1     -11.520  11.310  67.769  1.00  0.00    -0.275 C  
BRANCH  12  14
HETATM   14  C   UNL     1     -10.363   9.158  67.311  1.00  0.00    -0.270 C  
BRANCH  14  15
HETATM   15  C   UNL     1     -10.115   8.893  68.803  1.00  0.00    -0.215 A  
HETATM   16  F   UNL     1     -11.535   6.975  68.825  1.00  0.00    -0.093 F  
HETATM   17  C   UNL     1      -9.360   9.780  69.593  1.00  0.00    -0.237 A  
HETATM   18  C   UNL     1     -10.740   7.831  69.477  1.00  0.00    -0.198 A  
HETATM   19  C   UNL     1     -10.606   7.626  70.855  1.00  0.00    -0.219 A  
HETATM   20  C   UNL     1      -9.211   9.580  70.972  1.00  0.00    -0.029 A  
HETATM   21  C   UNL     1      -9.832   8.502  71.602  1.00  0.00    -0.317 A  
ENDBRANCH  14  15
BRANCH  14  22
HETATM   22  C   UNL     1      -9.321   8.485  66.373  1.00  0.00    -0.213 C  
HETATM   23  O   UNL     1      -9.282   8.639  65.155  1.00  0.00    -0.076 OA 
BRANCH  22  24
HETATM   24  C   UNL     1      -8.316   7.589  67.041  1.00  0.00    -0.121 C  
HETATM   25  C   UNL     1      -7.694   6.428  66.296  1.00  0.00    -0.099 C  
HETATM   26  C   UNL     1      -6.876   7.651  66.586  1.00  0.00    -0.066 C  
ENDBRANCH  22  24
ENDBRANCH  14  22
ENDBRANCH  12  14
ENDBRANCH   4   5
ENDBRANCH   2   4
TORSDOF 6
ENDMDL
MODEL      151
REMARK 921   NORMALIZED FREE ENERGY PREDICTED BY IDOCK:   -4.27 KCAL/MOL
REMARK 922        TOTAL FREE ENERGY PREDICTED BY IDOCK:   -6.45 KCAL/MOL
REMARK 923 INTER-LIGAND FREE ENERGY PREDICTED BY IDOCK:   -5.71 KCAL/MOL
REMARK 924 INTRA-LIGAND FREE ENERGY PREDICTED BY IDOCK:   -0.74 KCAL/MOL
REMARK 927      BINDING AFFINITY PREDICTED BY RF-SCORE:    0.00 PKD
ROOT
HETATM    1  C   UNL     1      -6.584   6.215  70.961  1.00  0.00    -0.050 C  
HETATM    2  C   UNL     1      -6.321   7.293  69.949  1.00  0.00    -0.035 C  
HETATM    3  O   UNL     1      -5.756   7.079  68.884  1.00  0.00    -0.017 OA 
ENDROOT
BRANCH   2   4
HETATM    4  O   UNL     1      -6.807   8.467  70.410  1.00  0.00    -0.036 OA 
BRANCH   4   5
HETATM    5  C   UNL     1      -7.655   9.175  69.672  1.00  0.00    -0.080 A  
HETATM    6  C   UNL     1      -7.472   9.920  68.518  1.00  0.00    -0.082 A  
HETATM    7  C   UNL     1      -8.657  10.593  68.071  1.00  0.00    -0.122 A  
HETATM    8  C   UNL     1      -9.713  10.292  68.890  1.00  0.00    -0.189 A  
HETATM    9  C   UNL     1     -11.093  10.769  68.666  1.00  0.00    -0.312 C  
HETATM   10  S   UNL     1      -9.285   9.306  70.202  1.00  0.00    -0.243 SA 
HETATM   11  C   UNL     1     -11.111  11.971  67.704  1.00  0.00    -0.264 C  
HETATM   12  N   UNL     1     -10.035  12.188  66.707  1.00  0.00    -0.201 NA 
HETATM   13  C   UNL     1      -8.746  11.486  66.875  1.00  0.00    -0.181 C  
BRANCH  12  14
HETATM   14  C   UNL     1      -9.863  13.661  66.426  1.00  0.00    -0.296 C  
BRANCH  14  15
HETATM   15  C   UNL     1     -10.145  14.604  67.604  1.00  0.00    -0.228 A  
HETATM   16  F   UNL     1      -8.050  14.130  68.646  1.00  0.00    -0.130 F  
HETATM   17  C   UNL     1     -11.387  15.250  67.749  1.00  0.00    -0.331 A  
HETATM   18  C   UNL     1      -9.231  14.760  68.659  1.00  0.00    -0.194 A  
HETATM   19  C   UNL     1      -9.505  15.539  69.789  1.00  0.00    -0.178 A  
HETATM   20  C   UNL     1     -11.670  16.040  68.872  1.00  0.00    -0.322 A  
HETATM   21  C   UNL     1     -10.729  16.186  69.890  1.00  0.00    -0.328 A  
ENDBRANCH  14  15
BRANCH  14  22
HETATM   22  C   UNL     1     -10.626  14.038  65.124  1.00  0.00    -0.386 C  
HETATM   23  O   UNL     1     -10.671  15.171  64.650  1.00  0.00    -0.366 OA 
BRANCH  22  24
HETATM   24  C   UNL     1     -11.346  12.914  64.435  1.00  0.00    -0.402 C  
HETATM   25  C   UNL     1     -12.843  12.744  64.583  1.00  0.00    -0.355 C  
HETATM   26  C   UNL     1     -12.275  13.245  63.289  1.00  0.00    -0.387 C  
ENDBRANCH  22  24
ENDBRANCH  14  22
ENDBRANCH  12  14
ENDBRANCH   4   5
ENDBRANCH   2   4
TORSDOF 6
ENDMDL
MODEL      152
REMARK 921   NORMALIZED FREE ENERGY PREDICTED BY IDOCK:   -4.26 KCAL/MOL
REMARK 922        TOTAL FREE ENERGY PREDICTED BY IDOCK:   -6.44 KCAL/MOL
REMARK 923 INTER-LIGAND FREE ENERGY PREDICTED BY IDOCK:   -5.99 KCAL/MOL
REMARK 924 INTRA-LIGAND FREE ENERGY PREDICTED BY IDOCK:   -0.45 KCAL/MOL
REMARK 927      BINDING AFFINITY PREDICTED BY RF-SCORE:    0.00 PKD
ROOT
HETATM    1  C   UNL     1     -11.022  14.153  67.927  1.00  0.00    -0.264 C  
HETATM    2  C   UNL     1     -11.862  12.913  68.034  1.00  0.00    -0.343 C  
HETATM    3  O   UNL     1     -12.194  12.251  67.059  1.00  0.00    -0.522 OA 
ENDROOT
BRANCH   2   4
HETATM    4  O   UNL     1     -12.152  12.681  69.334  1.00  0.00    -0.264 OA 
BRANCH   4   5
HETATM    5  C   UNL     1     -11.772  11.547  69.911  1.00  0.00    -0.343 A  
HETATM    6  C   UNL     1     -10.724  10.682  69.643  1.00  0.00    -0.290 A  
HETATM    7  C   UNL     1     -10.708   9.517  70.479  1.00  0.00    -0.359 A  
HETATM    8  C   UNL     1     -11.732   9.569  71.387  1.00  0.00    -0.393 A  
HETATM    9  C   UNL     1     -11.955   8.555  72.439  1.00  0.00    -0.434 C  
HETATM   10  S   UNL     1     -12.734  10.923  71.192  1.00  0.00    -0.431 SA 
HETATM   11  C   UNL     1     -11.205   7.250  72.114  1.00  0.00    -0.252 C  
HETATM   12  N   UNL     1      -9.994   7.239  71.258  1.00  0.00    -0.188 NA 
HETATM   13  C   UNL     1      -9.713   8.404  70.394  1.00  0.00    -0.173 C  
BRANCH  12  14
HETATM   14  C   UNL     1      -9.880   5.927  70.520  1.00  0.00    -0.183 C  
BRANCH  14  15
HETATM   15  C   UNL     1      -9.527   4.704  71.378  1.00  0.00    -0.217 A  
HETATM   16  F   UNL     1      -9.859   3.185  69.567  1.00  0.00    -0.215 F  
HETATM   17  C   UNL     1      -9.282   4.819  72.759  1.00  0.00    -0.143 A  
HETATM   18  C   UNL     1      -9.565   3.402  70.855  1.00  0.00    -0.169 A  
HETATM   19  C   UNL     1      -9.341   2.264  71.639  1.00  0.00    -0.183 A  
HETATM   20  C   UNL     1      -9.046   3.689  73.553  1.00  0.00    -0.099 A  
HETATM   21  C   UNL     1      -9.073   2.412  72.993  1.00  0.00    -0.090 A  
ENDBRANCH  14  15
BRANCH  14  22
HETATM   22  C   UNL     1      -8.964   6.106  69.275  1.00  0.00    -0.123 C  
HETATM   23  O   UNL     1      -9.373   6.198  68.120  1.00  0.00    -0.117 OA 
BRANCH  22  24
HETATM   24  C   UNL     1      -7.487   6.159  69.547  1.00  0.00    -0.092 C  
HETATM   25  C   UNL     1      -6.596   4.978  69.229  1.00  0.00    -0.047 C  
HETATM   26  C   UNL     1      -6.537   6.207  68.373  1.00  0.00    -0.058 C  
ENDBRANCH  22  24
ENDBRANCH  14  22
ENDBRANCH  12  14
ENDBRANCH   4   5
ENDBRANCH   2   4
TORSDOF 6
ENDMDL
MODEL      153
REMARK 921   NORMALIZED FREE ENERGY PREDICTED BY IDOCK:   -4.25 KCAL/MOL
REMARK 922        TOTAL FREE ENERGY PREDICTED BY IDOCK:   -6.42 KCAL/MOL
REMARK 923 INTER-LIGAND FREE ENERGY PREDICTED BY IDOCK:   -5.38 KCAL/MOL
REMARK 924 INTRA-LIGAND FREE ENERGY PREDICTED BY IDOCK:   -1.04 KCAL/MOL
REMARK 927      BINDING AFFINITY PREDICTED BY RF-SCORE:    0.00 PKD
ROOT
HETATM    1  C   UNL     1     -14.411   8.702  72.199  1.00  0.00    -0.518 C  
HETATM    2  C   UNL     1     -13.026   8.158  72.001  1.00  0.00    -0.305 C  
HETATM    3  O   UNL     1     -12.803   6.973  71.787  1.00  0.00    -0.353 OA 
ENDROOT
BRANCH   2   4
HETATM    4  O   UNL     1     -12.132   9.168  72.090  1.00  0.00    -0.362 OA 
BRANCH   4   5
HETATM    5  C   UNL     1     -11.226   9.345  71.135  1.00  0.00    -0.357 A  
HETATM    6  C   UNL     1     -11.325   9.870  69.856  1.00  0.00    -0.273 A  
HETATM    7  C   UNL     1     -10.099   9.820  69.115  1.00  0.00    -0.200 A  
HETATM    8  C   UNL     1      -9.097   9.293  69.887  1.00  0.00    -0.191 A  
HETATM    9  C   UNL     1      -7.693   9.167  69.443  1.00  0.00    -0.080 C  
HETATM   10  S   UNL     1      -9.623   8.793  71.419  1.00  0.00    -0.287 SA 
HETATM   11  C   UNL     1      -7.588   9.268  67.910  1.00  0.00    -0.084 C  
HETATM   12  N   UNL     1      -8.603   9.990  67.105  1.00  0.00    -0.128 NA 
HETATM   13  C   UNL     1      -9.919  10.287  67.706  1.00  0.00    -0.173 C  
BRANCH  12  14
HETATM   14  C   UNL     1      -8.716   9.382  65.729  1.00  0.00    -0.158 C  
BRANCH  14  15
HETATM   15  C   UNL     1      -8.500   7.864  65.647  1.00  0.00    -0.160 A  
HETATM   16  F   UNL     1     -10.508   7.391  66.848  1.00  0.00    -0.313 F  
HETATM   17  C   UNL     1      -7.327   7.316  65.097  1.00  0.00    -0.081 A  
HETATM   18  C   UNL     1      -9.397   6.960  66.238  1.00  0.00    -0.099 A  
HETATM   19  C   UNL     1      -9.174   5.578  66.260  1.00  0.00    -0.161 A  
HETATM   20  C   UNL     1      -7.097   5.934  65.105  1.00  0.00    -0.064 A  
HETATM   21  C   UNL     1      -8.021   5.065  65.684  1.00  0.00    -0.107 A  
ENDBRANCH  14  15
BRANCH  14  22
HETATM   22  C   UNL     1      -7.847  10.194  64.725  1.00  0.00    -0.146 C  
HETATM   23  O   UNL     1      -6.639  10.384  64.850  1.00  0.00    -0.121 OA 
BRANCH  22  24
HETATM   24  C   UNL     1      -8.572  10.771  63.543  1.00  0.00    -0.063 C  
HETATM   25  C   UNL     1      -9.234   9.871  62.522  1.00  0.00    -0.307 C  
HETATM   26  C   UNL     1     -10.078  10.648  63.488  1.00  0.00    -0.288 C  
ENDBRANCH  22  24
ENDBRANCH  14  22
ENDBRANCH  12  14
ENDBRANCH   4   5
ENDBRANCH   2   4
TORSDOF 6
ENDMDL
MODEL      154
REMARK 921   NORMALIZED FREE ENERGY PREDICTED BY IDOCK:   -4.23 KCAL/MOL
REMARK 922        TOTAL FREE ENERGY PREDICTED BY IDOCK:   -6.40 KCAL/MOL
REMARK 923 INTER-LIGAND FREE ENERGY PREDICTED BY IDOCK:   -6.16 KCAL/MOL
REMARK 924 INTRA-LIGAND FREE ENERGY PREDICTED BY IDOCK:   -0.25 KCAL/MOL
REMARK 927      BINDING AFFINITY PREDICTED BY RF-SCORE:    0.00 PKD
ROOT
HETATM    1  C   UNL     1     -13.566   8.892  72.721  1.00  0.00    -0.275 C  
HETATM    2  C   UNL     1     -13.388   9.627  71.425  1.00  0.00    -0.368 C  
HETATM    3  O   UNL     1     -14.171   9.522  70.490  1.00  0.00     0.279 OA 
ENDROOT
BRANCH   2   4
HETATM    4  O   UNL     1     -12.271  10.386  71.491  1.00  0.00    -0.367 OA 
BRANCH   4   5
HETATM    5  C   UNL     1     -12.211  11.545  70.845  1.00  0.00    -0.322 A  
HETATM    6  C   UNL     1     -11.779  11.867  69.569  1.00  0.00    -0.410 A  
HETATM    7  C   UNL     1     -11.822  13.272  69.282  1.00  0.00    -0.383 A  
HETATM    8  C   UNL     1     -12.333  13.960  70.351  1.00  0.00    -0.363 A  
HETATM    9  C   UNL     1     -12.574  15.418  70.354  1.00  0.00    -0.433 C  
HETATM   10  S   UNL     1     -12.670  12.972  71.687  1.00  0.00    -0.134 SA 
HETATM   11  C   UNL     1     -11.784  16.110  69.227  1.00  0.00    -0.223 C  
HETATM   12  N   UNL     1     -11.383  15.385  67.998  1.00  0.00    -0.339 NA 
HETATM   13  C   UNL     1     -11.390  13.907  68.000  1.00  0.00    -0.288 C  
BRANCH  12  14
HETATM   14  C   UNL     1     -10.104  15.959  67.439  1.00  0.00    -0.252 C  
BRANCH  14  15
HETATM   15  C   UNL     1      -8.804  15.431  68.061  1.00  0.00    -0.165 A  
HETATM   16  F   UNL     1      -8.455  13.859  66.299  1.00  0.00     0.035 F  
HETATM   17  C   UNL     1      -8.360  15.868  69.323  1.00  0.00    -0.238 A  
HETATM   18  C   UNL     1      -8.072  14.391  67.466  1.00  0.00    -0.190 A  
HETATM   19  C   UNL     1      -6.937  13.827  68.061  1.00  0.00    -0.137 A  
HETATM   20  C   UNL     1      -7.220  15.318  69.924  1.00  0.00    -0.080 A  
HETATM   21  C   UNL     1      -6.508  14.299  69.293  1.00  0.00    -0.115 A  
ENDBRANCH  14  15
BRANCH  14  22
HETATM   22  C   UNL     1     -10.198  17.512  67.407  1.00  0.00    -0.337 C  
HETATM   23  O   UNL     1     -11.250  18.141  67.317  1.00  0.00    -0.033 OA 
BRANCH  22  24
HETATM   24  C   UNL     1      -8.893  18.252  67.489  1.00  0.00    -0.256 C  
HETATM   25  C   UNL     1      -8.746  19.635  66.893  1.00  0.00    -0.374 C  
HETATM   26  C   UNL     1      -8.807  19.469  68.382  1.00  0.00    -0.389 C  
ENDBRANCH  22  24
ENDBRANCH  14  22
ENDBRANCH  12  14
ENDBRANCH   4   5
ENDBRANCH   2   4
TORSDOF 6
ENDMDL
MODEL      155
REMARK 921   NORMALIZED FREE ENERGY PREDICTED BY IDOCK:   -4.23 KCAL/MOL
REMARK 922        TOTAL FREE ENERGY PREDICTED BY IDOCK:   -6.40 KCAL/MOL
REMARK 923 INTER-LIGAND FREE ENERGY PREDICTED BY IDOCK:   -5.55 KCAL/MOL
REMARK 924 INTRA-LIGAND FREE ENERGY PREDICTED BY IDOCK:   -0.85 KCAL/MOL
REMARK 927      BINDING AFFINITY PREDICTED BY RF-SCORE:    0.00 PKD
ROOT
HETATM    1  C   UNL     1      -6.610  13.840  67.706  1.00  0.00    -0.181 C  
HETATM    2  C   UNL     1      -6.760  12.389  67.349  1.00  0.00    -0.152 C  
HETATM    3  O   UNL     1      -5.931  11.781  66.684  1.00  0.00    -0.144 OA 
ENDROOT
BRANCH   2   4
HETATM    4  O   UNL     1      -7.908  11.915  67.881  1.00  0.00    -0.121 OA 
BRANCH   4   5
HETATM    5  C   UNL     1      -7.890  10.840  68.661  1.00  0.00    -0.122 A  
HETATM    6  C   UNL     1      -8.664   9.691  68.663  1.00  0.00    -0.124 A  
HETATM    7  C   UNL     1      -8.354   8.789  69.734  1.00  0.00    -0.127 A  
HETATM    8  C   UNL     1      -7.315   9.276  70.482  1.00  0.00    -0.116 A  
HETATM    9  C   UNL     1      -6.707   8.555  71.619  1.00  0.00    -0.079 C  
HETATM   10  S   UNL     1      -6.783  10.805  69.975  1.00  0.00    -0.102 SA 
HETATM   11  C   UNL     1      -7.642   7.444  72.131  1.00  0.00    -0.084 C  
HETATM   12  N   UNL     1      -8.654   6.810  71.252  1.00  0.00    -0.125 NA 
HETATM   13  C   UNL     1      -9.046   7.490  70.000  1.00  0.00    -0.148 C  
BRANCH  12  14
HETATM   14  C   UNL     1      -9.842   6.349  72.059  1.00  0.00    -0.156 C  
BRANCH  14  15
HETATM   15  C   UNL     1     -10.039   4.830  72.154  1.00  0.00    -0.252 A  
HETATM   16  F   UNL     1     -11.263   4.991  74.197  1.00  0.00    -0.309 F  
HETATM   17  C   UNL     1      -9.435   3.950  71.235  1.00  0.00    -0.229 A  
HETATM   18  C   UNL     1     -10.715   4.240  73.234  1.00  0.00    -0.220 A  
HETATM   19  C   UNL     1     -10.825   2.853  73.392  1.00  0.00    -0.300 A  
HETATM   20  C   UNL     1      -9.546   2.561  71.378  1.00  0.00    -0.225 A  
HETATM   21  C   UNL     1     -10.242   2.013  72.455  1.00  0.00    -0.230 A  
ENDBRANCH  14  15
BRANCH  14  22
HETATM   22  C   UNL     1     -11.115   7.119  71.603  1.00  0.00    -0.235 C  
HETATM   23  O   UNL     1     -11.866   6.747  70.704  1.00  0.00    -0.370 OA 
BRANCH  22  24
HETATM   24  C   UNL     1     -11.405   8.401  72.332  1.00  0.00    -0.448 C  
HETATM   25  C   UNL     1     -11.732   9.669  71.573  1.00  0.00    -0.472 C  
HETATM   26  C   UNL     1     -12.817   8.942  72.309  1.00  0.00    -0.475 C  
ENDBRANCH  22  24
ENDBRANCH  14  22
ENDBRANCH  12  14
ENDBRANCH   4   5
ENDBRANCH   2   4
TORSDOF 6
ENDMDL
MODEL      156
REMARK 921   NORMALIZED FREE ENERGY PREDICTED BY IDOCK:   -4.23 KCAL/MOL
REMARK 922        TOTAL FREE ENERGY PREDICTED BY IDOCK:   -6.40 KCAL/MOL
REMARK 923 INTER-LIGAND FREE ENERGY PREDICTED BY IDOCK:   -6.11 KCAL/MOL
REMARK 924 INTRA-LIGAND FREE ENERGY PREDICTED BY IDOCK:   -0.29 KCAL/MOL
REMARK 927      BINDING AFFINITY PREDICTED BY RF-SCORE:    0.00 PKD
ROOT
HETATM    1  C   UNL     1     -13.525  14.187  72.434  1.00  0.00    -0.616 C  
HETATM    2  C   UNL     1     -12.363  15.048  72.030  1.00  0.00    -0.347 C  
HETATM    3  O   UNL     1     -11.403  15.253  72.762  1.00  0.00    -0.374 OA 
ENDROOT
BRANCH   2   4
HETATM    4  O   UNL     1     -12.565  15.512  70.777  1.00  0.00    -0.409 OA 
BRANCH   4   5
HETATM    5  C   UNL     1     -11.997  14.908  69.739  1.00  0.00    -0.323 A  
HETATM    6  C   UNL     1     -12.368  13.793  69.006  1.00  0.00    -0.103 A  
HETATM    7  C   UNL     1     -11.424  13.431  67.988  1.00  0.00    -0.339 A  
HETATM    8  C   UNL     1     -10.386  14.324  67.963  1.00  0.00    -0.229 A  
HETATM    9  C   UNL     1      -9.279  14.276  66.985  1.00  0.00    -0.249 C  
HETATM   10  S   UNL     1     -10.489  15.508  69.173  1.00  0.00    -0.248 SA 
HETATM   11  C   UNL     1      -9.192  12.890  66.318  1.00  0.00    -0.077 C  
HETATM   12  N   UNL     1     -10.375  12.003  66.209  1.00  0.00    -0.217 NA 
HETATM   13  C   UNL     1     -11.550  12.259  67.068  1.00  0.00    -0.349 C  
BRANCH  12  14
HETATM   14  C   UNL     1      -9.953  10.554  66.219  1.00  0.00    -0.221 C  
BRANCH  14  15
HETATM   15  C   UNL     1      -9.981   9.858  67.587  1.00  0.00    -0.212 A  
HETATM   16  F   UNL     1      -8.586  11.512  68.594  1.00  0.00    -0.150 F  
HETATM   17  C   UNL     1     -10.606   8.610  67.766  1.00  0.00    -0.249 A  
HETATM   18  C   UNL     1      -9.271  10.366  68.687  1.00  0.00    -0.164 A  
HETATM   19  C   UNL     1      -9.202   9.701  69.917  1.00  0.00    -0.255 A  
HETATM   20  C   UNL     1     -10.553   7.939  68.995  1.00  0.00    -0.177 A  
HETATM   21  C   UNL     1      -9.853   8.485  70.071  1.00  0.00    -0.181 A  
ENDBRANCH  14  15
BRANCH  14  22
HETATM   22  C   UNL     1      -8.601  10.398  65.464  1.00  0.00    -0.169 C  
HETATM   23  O   UNL     1      -8.453  10.595  64.260  1.00  0.00    -0.156 OA 
BRANCH  22  24
HETATM   24  C   UNL     1      -7.427   9.971  66.298  1.00  0.00    -0.106 C  
HETATM   25  C   UNL     1      -6.252   9.250  65.674  1.00  0.00    -0.063 C  
HETATM   26  C   UNL     1      -6.106  10.679  66.103  1.00  0.00    -0.121 C  
ENDBRANCH  22  24
ENDBRANCH  14  22
ENDBRANCH  12  14
ENDBRANCH   4   5
ENDBRANCH   2   4
TORSDOF 6
ENDMDL
MODEL      157
REMARK 921   NORMALIZED FREE ENERGY PREDICTED BY IDOCK:   -4.22 KCAL/MOL
REMARK 922        TOTAL FREE ENERGY PREDICTED BY IDOCK:   -6.39 KCAL/MOL
REMARK 923 INTER-LIGAND FREE ENERGY PREDICTED BY IDOCK:   -5.93 KCAL/MOL
REMARK 924 INTRA-LIGAND FREE ENERGY PREDICTED BY IDOCK:   -0.46 KCAL/MOL
REMARK 927      BINDING AFFINITY PREDICTED BY RF-SCORE:    0.00 PKD
ROOT
HETATM    1  C   UNL     1     -11.590  14.739  66.829  1.00  0.00    -0.333 C  
HETATM    2  C   UNL     1     -11.728  13.367  66.235  1.00  0.00    -0.366 C  
HETATM    3  O   UNL     1     -12.734  12.999  65.643  1.00  0.00    -0.506 OA 
ENDROOT
BRANCH   2   4
HETATM    4  O   UNL     1     -10.593  12.667  66.460  1.00  0.00    -0.249 OA 
BRANCH   4   5
HETATM    5  C   UNL     1     -10.465  11.937  67.562  1.00  0.00    -0.209 A  
HETATM    6  C   UNL     1      -9.381  11.259  68.097  1.00  0.00    -0.181 A  
HETATM    7  C   UNL     1      -9.690  10.529  69.292  1.00  0.00    -0.215 A  
HETATM    8  C   UNL     1     -11.000  10.722  69.643  1.00  0.00    -0.264 A  
HETATM    9  C   UNL     1     -11.618  10.164  70.864  1.00  0.00    -0.459 C  
HETATM   10  S   UNL     1     -11.858  11.675  68.534  1.00  0.00    -0.230 SA 
HETATM   11  C   UNL     1     -10.773   9.008  71.430  1.00  0.00    -0.331 C  
HETATM   12  N   UNL     1      -9.316   8.908  71.173  1.00  0.00    -0.234 NA 
HETATM   13  C   UNL     1      -8.726   9.686  70.064  1.00  0.00    -0.231 C  
BRANCH  12  14
HETATM   14  C   UNL     1      -8.877   7.464  71.168  1.00  0.00    -0.142 C  
BRANCH  14  15
HETATM   15  C   UNL     1      -9.628   6.533  72.130  1.00  0.00    -0.151 A  
HETATM   16  F   UNL     1      -9.131   7.892  74.028  1.00  0.00    -0.300 F  
HETATM   17  C   UNL     1     -10.176   5.311  71.696  1.00  0.00    -0.274 A  
HETATM   18  C   UNL     1      -9.685   6.789  73.509  1.00  0.00    -0.203 A  
HETATM   19  C   UNL     1     -10.280   5.908  74.419  1.00  0.00    -0.304 A  
HETATM   20  C   UNL     1     -10.782   4.425  72.595  1.00  0.00    -0.204 A  
HETATM   21  C   UNL     1     -10.836   4.724  73.957  1.00  0.00    -0.322 A  
ENDBRANCH  14  15
BRANCH  14  22
HETATM   22  C   UNL     1      -7.329   7.388  71.301  1.00  0.00    -0.076 C  
HETATM   23  O   UNL     1      -6.697   7.777  72.281  1.00  0.00    -0.054 OA 
BRANCH  22  24
HETATM   24  C   UNL     1      -6.596   6.798  70.130  1.00  0.00    -0.044 C  
HETATM   25  C   UNL     1      -5.290   6.058  70.323  1.00  0.00    -0.013 C  
HETATM   26  C   UNL     1      -6.538   5.293  69.997  1.00  0.00    -0.039 C  
ENDBRANCH  22  24
ENDBRANCH  14  22
ENDBRANCH  12  14
ENDBRANCH   4   5
ENDBRANCH   2   4
TORSDOF 6
ENDMDL
MODEL      158
REMARK 921   NORMALIZED FREE ENERGY PREDICTED BY IDOCK:   -4.17 KCAL/MOL
REMARK 922        TOTAL FREE ENERGY PREDICTED BY IDOCK:   -6.32 KCAL/MOL
REMARK 923 INTER-LIGAND FREE ENERGY PREDICTED BY IDOCK:   -6.11 KCAL/MOL
REMARK 924 INTRA-LIGAND FREE ENERGY PREDICTED BY IDOCK:   -0.21 KCAL/MOL
REMARK 927      BINDING AFFINITY PREDICTED BY RF-SCORE:    0.00 PKD
ROOT
HETATM    1  C   UNL     1     -12.529  14.078  65.435  1.00  0.00    -0.520 C  
HETATM    2  C   UNL     1     -11.920  13.580  64.157  1.00  0.00    -0.448 C  
HETATM    3  O   UNL     1     -12.517  13.593  63.088  1.00  0.00    -0.786 OA 
ENDROOT
BRANCH   2   4
HETATM    4  O   UNL     1     -10.660  13.153  64.399  1.00  0.00    -0.384 OA 
BRANCH   4   5
HETATM    5  C   UNL     1     -10.448  11.931  64.876  1.00  0.00    -0.287 A  
HETATM    6  C   UNL     1     -10.953  11.276  65.987  1.00  0.00    -0.237 A  
HETATM    7  C   UNL     1     -10.407   9.963  66.180  1.00  0.00    -0.223 A  
HETATM    8  C   UNL     1      -9.534   9.658  65.170  1.00  0.00    -0.265 A  
HETATM    9  C   UNL     1      -8.851   8.354  65.035  1.00  0.00    -0.028 C  
HETATM   10  S   UNL     1      -9.306  10.930  64.072  1.00  0.00    -0.233 SA 
HETATM   11  C   UNL     1      -8.882   7.576  66.364  1.00  0.00    -0.156 C  
HETATM   12  N   UNL     1      -9.938   7.807  67.378  1.00  0.00    -0.176 NA 
HETATM   13  C   UNL     1     -10.745   9.043  67.309  1.00  0.00    -0.151 C  
BRANCH  12  14
HETATM   14  C   UNL     1      -9.408   7.536  68.765  1.00  0.00    -0.147 C  
BRANCH  14  15
HETATM   15  C   UNL     1      -8.154   8.323  69.168  1.00  0.00    -0.120 A  
HETATM   16  F   UNL     1      -9.167   9.155  71.163  1.00  0.00    -0.257 F  
HETATM   17  C   UNL     1      -7.031   8.403  68.323  1.00  0.00    -0.073 A  
HETATM   18  C   UNL     1      -8.119   9.110  70.331  1.00  0.00    -0.152 A  
HETATM   19  C   UNL     1      -7.023   9.912  70.671  1.00  0.00    -0.073 A  
HETATM   20  C   UNL     1      -5.924   9.195  68.657  1.00  0.00    -0.044 A  
HETATM   21  C   UNL     1      -5.919   9.947  69.831  1.00  0.00    -0.045 A  
ENDBRANCH  14  15
BRANCH  14  22
HETATM   22  C   UNL     1      -9.283   6.001  68.987  1.00  0.00    -0.121 C  
HETATM   23  O   UNL     1      -8.405   5.298  68.491  1.00  0.00    -0.090 OA 
BRANCH  22  24
HETATM   24  C   UNL     1     -10.328   5.375  69.866  1.00  0.00    -0.377 C  
HETATM   25  C   UNL     1     -10.316   5.595  71.364  1.00  0.00    -0.287 C  
HETATM   26  C   UNL     1     -11.354   6.273  70.520  1.00  0.00    -0.428 C  
ENDBRANCH  22  24
ENDBRANCH  14  22
ENDBRANCH  12  14
ENDBRANCH   4   5
ENDBRANCH   2   4
TORSDOF 6
ENDMDL
MODEL      159
REMARK 921   NORMALIZED FREE ENERGY PREDICTED BY IDOCK:   -4.17 KCAL/MOL
REMARK 922        TOTAL FREE ENERGY PREDICTED BY IDOCK:   -6.32 KCAL/MOL
REMARK 923 INTER-LIGAND FREE ENERGY PREDICTED BY IDOCK:   -6.36 KCAL/MOL
REMARK 924 INTRA-LIGAND FREE ENERGY PREDICTED BY IDOCK:    0.04 KCAL/MOL
REMARK 927      BINDING AFFINITY PREDICTED BY RF-SCORE:    0.00 PKD
ROOT
HETATM    1  C   UNL     1     -11.675  14.307  66.468  1.00  0.00    -0.409 C  
HETATM    2  C   UNL     1     -11.539  12.822  66.295  1.00  0.00    -0.379 C  
HETATM    3  O   UNL     1     -12.350  12.150  65.671  1.00  0.00    -0.560 OA 
ENDROOT
BRANCH   2   4
HETATM    4  O   UNL     1     -10.414  12.401  66.914  1.00  0.00    -0.223 OA 
BRANCH   4   5
HETATM    5  C   UNL     1     -10.492  11.679  68.026  1.00  0.00    -0.194 A  
HETATM    6  C   UNL     1      -9.575  10.851  68.654  1.00  0.00    -0.192 A  
HETATM    7  C   UNL     1     -10.092  10.197  69.821  1.00  0.00    -0.269 A  
HETATM    8  C   UNL     1     -11.381  10.595  70.058  1.00  0.00    -0.324 A  
HETATM    9  C   UNL     1     -12.178  10.159  71.223  1.00  0.00    -0.496 C  
HETATM   10  S   UNL     1     -11.986  11.649  68.876  1.00  0.00    -0.219 SA 
HETATM   11  C   UNL     1     -11.573   8.896  71.864  1.00  0.00    -0.371 C  
HETATM   12  N   UNL     1     -10.132   8.570  71.733  1.00  0.00    -0.252 NA 
HETATM   13  C   UNL     1      -9.338   9.230  70.676  1.00  0.00    -0.270 C  
BRANCH  12  14
HETATM   14  C   UNL     1      -9.922   7.076  71.770  1.00  0.00    -0.176 C  
BRANCH  14  15
HETATM   15  C   UNL     1      -8.848   6.527  70.822  1.00  0.00    -0.144 A  
HETATM   16  F   UNL     1      -7.194   6.451  72.542  1.00  0.00    -0.078 F  
HETATM   17  C   UNL     1      -9.087   6.381  69.443  1.00  0.00    -0.140 A  
HETATM   18  C   UNL     1      -7.538   6.274  71.260  1.00  0.00    -0.094 A  
HETATM   19  C   UNL     1      -6.516   5.865  70.396  1.00  0.00    -0.036 A  
HETATM   20  C   UNL     1      -8.075   5.963  68.569  1.00  0.00    -0.106 A  
HETATM   21  C   UNL     1      -6.790   5.703  69.045  1.00  0.00    -0.062 A  
ENDBRANCH  14  15
BRANCH  14  22
HETATM   22  C   UNL     1     -11.295   6.352  71.649  1.00  0.00    -0.289 C  
HETATM   23  O   UNL     1     -12.022   6.406  70.660  1.00  0.00    -0.340 OA 
BRANCH  22  24
HETATM   24  C   UNL     1     -11.724   5.551  72.846  1.00  0.00    -0.216 C  
HETATM   25  C   UNL     1     -11.083   4.215  73.157  1.00  0.00    -0.269 C  
HETATM   26  C   UNL     1     -10.763   5.410  74.004  1.00  0.00    -0.253 C  
ENDBRANCH  22  24
ENDBRANCH  14  22
ENDBRANCH  12  14
ENDBRANCH   4   5
ENDBRANCH   2   4
TORSDOF 6
ENDMDL
MODEL      160
REMARK 921   NORMALIZED FREE ENERGY PREDICTED BY IDOCK:   -4.17 KCAL/MOL
REMARK 922        TOTAL FREE ENERGY PREDICTED BY IDOCK:   -6.31 KCAL/MOL
REMARK 923 INTER-LIGAND FREE ENERGY PREDICTED BY IDOCK:   -5.45 KCAL/MOL
REMARK 924 INTRA-LIGAND FREE ENERGY PREDICTED BY IDOCK:   -0.86 KCAL/MOL
REMARK 927      BINDING AFFINITY PREDICTED BY RF-SCORE:    0.00 PKD
ROOT
HETATM    1  C   UNL     1     -12.698  13.865  65.526  1.00  0.00    -0.536 C  
HETATM    2  C   UNL     1     -11.947  13.524  64.272  1.00  0.00    -0.432 C  
HETATM    3  O   UNL     1     -12.479  13.488  63.170  1.00  0.00    -0.759 OA 
ENDROOT
BRANCH   2   4
HETATM    4  O   UNL     1     -10.651  13.292  64.576  1.00  0.00    -0.379 OA 
BRANCH   4   5
HETATM    5  C   UNL     1     -10.196  12.047  64.659  1.00  0.00    -0.282 A  
HETATM    6  C   UNL     1     -10.248  11.113  65.682  1.00  0.00    -0.310 A  
HETATM    7  C   UNL     1      -9.567   9.888  65.380  1.00  0.00    -0.350 A  
HETATM    8  C   UNL     1      -9.059   9.926  64.108  1.00  0.00    -0.252 A  
HETATM    9  C   UNL     1      -8.360   8.795  63.464  1.00  0.00    -0.147 C  
HETATM   10  S   UNL     1      -9.311  11.411  63.330  1.00  0.00    -0.211 SA 
HETATM   11  C   UNL     1      -7.884   7.772  64.513  1.00  0.00    -0.138 C  
HETATM   12  N   UNL     1      -8.557   7.633  65.827  1.00  0.00    -0.147 NA 
HETATM   13  C   UNL     1      -9.436   8.720  66.305  1.00  0.00    -0.234 C  
BRANCH  12  14
HETATM   14  C   UNL     1      -7.576   7.174  66.878  1.00  0.00    -0.101 C  
BRANCH  14  15
HETATM   15  C   UNL     1      -8.000   5.951  67.703  1.00  0.00    -0.102 A  
HETATM   16  F   UNL     1      -5.766   5.127  67.860  1.00  0.00    -0.014 F  
HETATM   17  C   UNL     1      -9.355   5.671  67.961  1.00  0.00    -0.114 A  
HETATM   18  C   UNL     1      -7.071   4.985  68.120  1.00  0.00    -0.062 A  
HETATM   19  C   UNL     1      -7.445   3.814  68.790  1.00  0.00    -0.054 A  
HETATM   20  C   UNL     1      -9.741   4.507  68.638  1.00  0.00    -0.203 A  
HETATM   21  C   UNL     1      -8.786   3.580  69.054  1.00  0.00    -0.159 A  
ENDBRANCH  14  15
BRANCH  14  22
HETATM   22  C   UNL     1      -7.130   8.389  67.742  1.00  0.00    -0.083 C  
HETATM   23  O   UNL     1      -6.323   9.241  67.377  1.00  0.00    -0.061 OA 
BRANCH  22  24
HETATM   24  C   UNL     1      -7.747   8.486  69.109  1.00  0.00    -0.091 C  
HETATM   25  C   UNL     1      -6.982   9.094  70.265  1.00  0.00    -0.059 C  
HETATM   26  C   UNL     1      -8.116   9.852  69.641  1.00  0.00    -0.171 C  
ENDBRANCH  22  24
ENDBRANCH  14  22
ENDBRANCH  12  14
ENDBRANCH   4   5
ENDBRANCH   2   4
TORSDOF 6
ENDMDL
MODEL      161
REMARK 921   NORMALIZED FREE ENERGY PREDICTED BY IDOCK:   -4.16 KCAL/MOL
REMARK 922        TOTAL FREE ENERGY PREDICTED BY IDOCK:   -6.31 KCAL/MOL
REMARK 923 INTER-LIGAND FREE ENERGY PREDICTED BY IDOCK:   -5.64 KCAL/MOL
REMARK 924 INTRA-LIGAND FREE ENERGY PREDICTED BY IDOCK:   -0.66 KCAL/MOL
REMARK 927      BINDING AFFINITY PREDICTED BY RF-SCORE:    0.00 PKD
ROOT
HETATM    1  C   UNL     1      -6.063   4.142  63.373  1.00  0.00    -0.018 C  
HETATM    2  C   UNL     1      -5.828   3.707  64.791  1.00  0.00    -0.022 C  
HETATM    3  O   UNL     1      -5.744   2.530  65.118  1.00  0.00    -0.016 OA 
ENDROOT
BRANCH   2   4
HETATM    4  O   UNL     1      -5.722   4.798  65.581  1.00  0.00    -0.017 OA 
BRANCH   4   5
HETATM    5  C   UNL     1      -6.748   5.631  65.712  1.00  0.00    -0.055 A  
HETATM    6  C   UNL     1      -6.895   6.970  65.388  1.00  0.00    -0.052 A  
HETATM    7  C   UNL     1      -8.167   7.518  65.759  1.00  0.00    -0.137 A  
HETATM    8  C   UNL     1      -8.958   6.549  66.316  1.00  0.00    -0.156 A  
HETATM    9  C   UNL     1     -10.356   6.769  66.743  1.00  0.00    -0.286 C  
HETATM   10  S   UNL     1      -8.177   5.052  66.471  1.00  0.00    -0.107 SA 
HETATM   11  C   UNL     1     -10.652   8.271  66.907  1.00  0.00    -0.232 C  
HETATM   12  N   UNL     1      -9.888   9.302  66.164  1.00  0.00    -0.281 NA 
HETATM   13  C   UNL     1      -8.589   8.938  65.559  1.00  0.00    -0.168 C  
BRANCH  12  14
HETATM   14  C   UNL     1      -9.821  10.585  66.956  1.00  0.00    -0.183 C  
BRANCH  14  15
HETATM   15  C   UNL     1     -10.417  10.531  68.369  1.00  0.00    -0.212 A  
HETATM   16  F   UNL     1      -8.577   9.276  69.230  1.00  0.00    -0.122 F  
HETATM   17  C   UNL     1     -11.700  11.038  68.648  1.00  0.00    -0.367 A  
HETATM   18  C   UNL     1      -9.770   9.854  69.416  1.00  0.00    -0.214 A  
HETATM   19  C   UNL     1     -10.337   9.708  70.688  1.00  0.00    -0.365 A  
HETATM   20  C   UNL     1     -12.273  10.907  69.920  1.00  0.00    -0.408 A  
HETATM   21  C   UNL     1     -11.592  10.244  70.940  1.00  0.00    -0.454 A  
ENDBRANCH  14  15
BRANCH  14  22
HETATM   22  C   UNL     1     -10.361  11.761  66.092  1.00  0.00    -0.230 C  
HETATM   23  O   UNL     1     -10.254  12.948  66.392  1.00  0.00    -0.256 OA 
BRANCH  22  24
HETATM   24  C   UNL     1     -11.059  11.376  64.818  1.00  0.00    -0.258 C  
HETATM   25  C   UNL     1     -11.829  12.400  64.013  1.00  0.00    -0.521 C  
HETATM   26  C   UNL     1     -10.511  11.894  63.508  1.00  0.00    -0.505 C  
ENDBRANCH  22  24
ENDBRANCH  14  22
ENDBRANCH  12  14
ENDBRANCH   4   5
ENDBRANCH   2   4
TORSDOF 6
ENDMDL
MODEL      162
REMARK 921   NORMALIZED FREE ENERGY PREDICTED BY IDOCK:   -4.15 KCAL/MOL
REMARK 922        TOTAL FREE ENERGY PREDICTED BY IDOCK:   -6.29 KCAL/MOL
REMARK 923 INTER-LIGAND FREE ENERGY PREDICTED BY IDOCK:   -5.42 KCAL/MOL
REMARK 924 INTRA-LIGAND FREE ENERGY PREDICTED BY IDOCK:   -0.86 KCAL/MOL
REMARK 927      BINDING AFFINITY PREDICTED BY RF-SCORE:    0.00 PKD
ROOT
HETATM    1  C   UNL     1      -5.131   2.901  68.558  1.00  0.00    -0.011 C  
HETATM    2  C   UNL     1      -6.372   3.076  67.733  1.00  0.00    -0.033 C  
HETATM    3  O   UNL     1      -6.413   2.827  66.535  1.00  0.00    -0.030 OA 
ENDROOT
BRANCH   2   4
HETATM    4  O   UNL     1      -7.374   3.523  68.522  1.00  0.00    -0.050 OA 
BRANCH   4   5
HETATM    5  C   UNL     1      -7.974   4.677  68.253  1.00  0.00    -0.084 A  
HETATM    6  C   UNL     1      -7.506   5.981  68.256  1.00  0.00    -0.086 A  
HETATM    7  C   UNL     1      -8.516   6.957  67.963  1.00  0.00    -0.124 A  
HETATM    8  C   UNL     1      -9.711   6.342  67.702  1.00  0.00    -0.119 A  
HETATM    9  C   UNL     1     -10.938   7.060  67.297  1.00  0.00    -0.372 C  
HETATM   10  S   UNL     1      -9.653   4.657  67.886  1.00  0.00    -0.148 SA 
HETATM   11  C   UNL     1     -10.838   8.558  67.639  1.00  0.00    -0.002 C  
HETATM   12  N   UNL     1      -9.529   9.245  67.754  1.00  0.00    -0.139 NA 
HETATM   13  C   UNL     1      -8.304   8.437  67.927  1.00  0.00    -0.131 C  
BRANCH  12  14
HETATM   14  C   UNL     1      -9.615  10.387  68.738  1.00  0.00    -0.177 C  
BRANCH  14  15
HETATM   15  C   UNL     1     -10.688  10.251  69.828  1.00  0.00    -0.328 A  
HETATM   16  F   UNL     1      -9.630   8.348  70.805  1.00  0.00    -0.161 F  
HETATM   17  C   UNL     1     -11.834  11.069  69.840  1.00  0.00    -0.431 A  
HETATM   18  C   UNL     1     -10.645   9.220  70.780  1.00  0.00    -0.285 A  
HETATM   19  C   UNL     1     -11.659   9.018  71.723  1.00  0.00    -0.444 A  
HETATM   20  C   UNL     1     -12.851  10.882  70.785  1.00  0.00    -0.378 A  
HETATM   21  C   UNL     1     -12.763   9.859  71.727  1.00  0.00    -0.523 A  
ENDBRANCH  14  15
BRANCH  14  22
HETATM   22  C   UNL     1      -9.671  11.738  67.968  1.00  0.00    -0.185 C  
HETATM   23  O   UNL     1      -9.120  12.771  68.340  1.00  0.00    -0.192 OA 
BRANCH  22  24
HETATM   24  C   UNL     1     -10.466  11.736  66.693  1.00  0.00    -0.259 C  
HETATM   25  C   UNL     1     -11.565  12.750  66.461  1.00  0.00    -0.435 C  
HETATM   26  C   UNL     1     -10.270  12.873  65.717  1.00  0.00    -0.298 C  
ENDBRANCH  22  24
ENDBRANCH  14  22
ENDBRANCH  12  14
ENDBRANCH   4   5
ENDBRANCH   2   4
TORSDOF 6
ENDMDL
MODEL      163
REMARK 921   NORMALIZED FREE ENERGY PREDICTED BY IDOCK:   -4.14 KCAL/MOL
REMARK 922        TOTAL FREE ENERGY PREDICTED BY IDOCK:   -6.28 KCAL/MOL
REMARK 923 INTER-LIGAND FREE ENERGY PREDICTED BY IDOCK:   -5.98 KCAL/MOL
REMARK 924 INTRA-LIGAND FREE ENERGY PREDICTED BY IDOCK:   -0.31 KCAL/MOL
REMARK 927      BINDING AFFINITY PREDICTED BY RF-SCORE:    0.00 PKD
ROOT
HETATM    1  C   UNL     1      -5.447   3.063  66.657  1.00  0.00    -0.017 C  
HETATM    2  C   UNL     1      -5.877   3.736  67.929  1.00  0.00    -0.026 C  
HETATM    3  O   UNL     1      -6.001   3.134  68.988  1.00  0.00    -0.023 OA 
ENDROOT
BRANCH   2   4
HETATM    4  O   UNL     1      -6.078   5.051  67.693  1.00  0.00    -0.025 OA 
BRANCH   4   5
HETATM    5  C   UNL     1      -7.180   5.649  68.131  1.00  0.00    -0.072 A  
HETATM    6  C   UNL     1      -7.368   6.769  68.925  1.00  0.00    -0.094 A  
HETATM    7  C   UNL     1      -8.744   7.044  69.219  1.00  0.00    -0.136 A  
HETATM    8  C   UNL     1      -9.556   6.136  68.593  1.00  0.00    -0.127 A  
HETATM    9  C   UNL     1     -11.032   6.180  68.637  1.00  0.00    -0.415 C  
HETATM   10  S   UNL     1      -8.699   4.940  67.750  1.00  0.00    -0.103 SA 
HETATM   11  C   UNL     1     -11.523   7.061  69.801  1.00  0.00    -0.130 C  
HETATM   12  N   UNL     1     -10.688   8.153  70.358  1.00  0.00    -0.229 NA 
HETATM   13  C   UNL     1      -9.238   8.167  70.074  1.00  0.00    -0.155 C  
BRANCH  12  14
HETATM   14  C   UNL     1     -10.996   8.361  71.821  1.00  0.00    -0.291 C  
BRANCH  14  15
HETATM   15  C   UNL     1     -10.812   7.134  72.725  1.00  0.00    -0.337 A  
HETATM   16  F   UNL     1      -9.084   8.178  73.998  1.00  0.00    -0.320 F  
HETATM   17  C   UNL     1     -11.507   5.934  72.488  1.00  0.00    -0.347 A  
HETATM   18  C   UNL     1      -9.845   7.108  73.743  1.00  0.00    -0.313 A  
HETATM   19  C   UNL     1      -9.592   5.969  74.517  1.00  0.00    -0.232 A  
HETATM   20  C   UNL     1     -11.270   4.790  73.262  1.00  0.00    -0.421 A  
HETATM   21  C   UNL     1     -10.314   4.809  74.278  1.00  0.00    -0.317 A  
ENDBRANCH  14  15
BRANCH  14  22
HETATM   22  C   UNL     1     -12.384   9.048  71.970  1.00  0.00    -0.384 C  
HETATM   23  O   UNL     1     -13.212   8.758  72.831  1.00  0.00    -0.307 OA 
BRANCH  22  24
HETATM   24  C   UNL     1     -12.696  10.127  70.972  1.00  0.00    -0.481 C  
HETATM   25  C   UNL     1     -12.906  11.558  71.416  1.00  0.00    -0.489 C  
HETATM   26  C   UNL     1     -11.647  11.180  70.695  1.00  0.00    -0.188 C  
ENDBRANCH  22  24
ENDBRANCH  14  22
ENDBRANCH  12  14
ENDBRANCH   4   5
ENDBRANCH   2   4
TORSDOF 6
ENDMDL
MODEL      164
REMARK 921   NORMALIZED FREE ENERGY PREDICTED BY IDOCK:   -4.14 KCAL/MOL
REMARK 922        TOTAL FREE ENERGY PREDICTED BY IDOCK:   -6.28 KCAL/MOL
REMARK 923 INTER-LIGAND FREE ENERGY PREDICTED BY IDOCK:   -5.34 KCAL/MOL
REMARK 924 INTRA-LIGAND FREE ENERGY PREDICTED BY IDOCK:   -0.94 KCAL/MOL
REMARK 927      BINDING AFFINITY PREDICTED BY RF-SCORE:    0.00 PKD
ROOT
HETATM    1  C   UNL     1     -10.679  13.984  67.462  1.00  0.00    -0.271 C  
HETATM    2  C   UNL     1     -11.492  12.816  66.983  1.00  0.00    -0.341 C  
HETATM    3  O   UNL     1     -11.443  12.402  65.831  1.00  0.00    -0.337 OA 
ENDROOT
BRANCH   2   4
HETATM    4  O   UNL     1     -12.233  12.337  68.006  1.00  0.00    -0.383 OA 
BRANCH   4   5
HETATM    5  C   UNL     1     -11.735  11.408  68.814  1.00  0.00    -0.339 A  
HETATM    6  C   UNL     1     -10.688  10.514  68.656  1.00  0.00    -0.247 A  
HETATM    7  C   UNL     1     -10.518   9.622  69.766  1.00  0.00    -0.263 A  
HETATM    8  C   UNL     1     -11.425   9.910  70.752  1.00  0.00    -0.354 A  
HETATM    9  C   UNL     1     -11.472   9.220  72.057  1.00  0.00    -0.271 C  
HETATM   10  S   UNL     1     -12.504  11.148  70.330  1.00  0.00    -0.243 SA 
HETATM   11  C   UNL     1     -10.709   7.883  72.002  1.00  0.00    -0.241 C  
HETATM   12  N   UNL     1      -9.612   7.651  71.032  1.00  0.00    -0.163 NA 
HETATM   13  C   UNL     1      -9.491   8.539  69.857  1.00  0.00    -0.163 C  
BRANCH  12  14
HETATM   14  C   UNL     1      -9.529   6.189  70.666  1.00  0.00    -0.168 C  
BRANCH  14  15
HETATM   15  C   UNL     1      -8.126   5.569  70.701  1.00  0.00    -0.115 A  
HETATM   16  F   UNL     1      -8.977   3.339  70.709  1.00  0.00    -0.112 F  
HETATM   17  C   UNL     1      -6.971   6.365  70.823  1.00  0.00    -0.068 A  
HETATM   18  C   UNL     1      -7.935   4.178  70.748  1.00  0.00    -0.056 A  
HETATM   19  C   UNL     1      -6.671   3.591  70.876  1.00  0.00    -0.032 A  
HETATM   20  C   UNL     1      -5.700   5.789  70.942  1.00  0.00    -0.017 A  
HETATM   21  C   UNL     1      -5.549   4.403  70.967  1.00  0.00    -0.012 A  
ENDBRANCH  14  15
BRANCH  14  22
HETATM   22  C   UNL     1     -10.293   5.939  69.334  1.00  0.00    -0.247 C  
HETATM   23  O   UNL     1     -11.515   5.987  69.215  1.00  0.00    -0.345 OA 
BRANCH  22  24
HETATM   24  C   UNL     1      -9.442   5.615  68.139  1.00  0.00    -0.125 C  
HETATM   25  C   UNL     1      -9.746   4.412  67.272  1.00  0.00    -0.222 C  
HETATM   26  C   UNL     1     -10.035   5.791  66.760  1.00  0.00    -0.207 C  
ENDBRANCH  22  24
ENDBRANCH  14  22
ENDBRANCH  12  14
ENDBRANCH   4   5
ENDBRANCH   2   4
TORSDOF 6
ENDMDL
MODEL      165
REMARK 921   NORMALIZED FREE ENERGY PREDICTED BY IDOCK:   -4.13 KCAL/MOL
REMARK 922        TOTAL FREE ENERGY PREDICTED BY IDOCK:   -6.27 KCAL/MOL
REMARK 923 INTER-LIGAND FREE ENERGY PREDICTED BY IDOCK:   -5.63 KCAL/MOL
REMARK 924 INTRA-LIGAND FREE ENERGY PREDICTED BY IDOCK:   -0.64 KCAL/MOL
REMARK 927      BINDING AFFINITY PREDICTED BY RF-SCORE:    0.00 PKD
ROOT
HETATM    1  C   UNL     1      -8.091   5.839  62.852  1.00  0.00    -0.110 C  
HETATM    2  C   UNL     1      -8.106   5.793  64.352  1.00  0.00    -0.133 C  
HETATM    3  O   UNL     1      -8.524   4.829  64.982  1.00  0.00    -0.125 OA 
ENDROOT
BRANCH   2   4
HETATM    4  O   UNL     1      -7.593   6.944  64.840  1.00  0.00    -0.091 OA 
BRANCH   4   5
HETATM    5  C   UNL     1      -8.401   7.917  65.248  1.00  0.00    -0.133 A  
HETATM    6  C   UNL     1      -8.694   9.158  64.707  1.00  0.00    -0.208 A  
HETATM    7  C   UNL     1      -9.587   9.941  65.510  1.00  0.00    -0.341 A  
HETATM    8  C   UNL     1      -9.973   9.236  66.619  1.00  0.00    -0.264 A  
HETATM    9  C   UNL     1     -10.944   9.732  67.616  1.00  0.00    -0.226 C  
HETATM   10  S   UNL     1      -9.226   7.719  66.742  1.00  0.00    -0.172 SA 
HETATM   11  C   UNL     1     -11.111  11.259  67.510  1.00  0.00    -0.286 C  
HETATM   12  N   UNL     1     -10.845  11.987  66.246  1.00  0.00    -0.267 NA 
HETATM   13  C   UNL     1     -10.051  11.326  65.189  1.00  0.00    -0.275 C  
BRANCH  12  14
HETATM   14  C   UNL     1     -10.375  13.392  66.532  1.00  0.00    -0.284 C  
BRANCH  14  15
HETATM   15  C   UNL     1      -8.992  13.515  67.186  1.00  0.00    -0.230 A  
HETATM   16  F   UNL     1      -8.611  15.682  66.260  1.00  0.00    -0.296 F  
HETATM   17  C   UNL     1      -8.417  12.448  67.902  1.00  0.00    -0.166 A  
HETATM   18  C   UNL     1      -8.180  14.644  66.987  1.00  0.00    -0.157 A  
HETATM   19  C   UNL     1      -6.879  14.739  67.492  1.00  0.00    -0.181 A  
HETATM   20  C   UNL     1      -7.119  12.536  68.421  1.00  0.00    -0.107 A  
HETATM   21  C   UNL     1      -6.350  13.682  68.218  1.00  0.00    -0.107 A  
ENDBRANCH  14  15
BRANCH  14  22
HETATM   22  C   UNL     1     -11.494  14.175  67.279  1.00  0.00    -0.350 C  
HETATM   23  O   UNL     1     -12.616  14.383  66.825  1.00  0.00    -0.219 OA 
BRANCH  22  24
HETATM   24  C   UNL     1     -11.133  14.700  68.640  1.00  0.00    -0.276 C  
HETATM   25  C   UNL     1     -11.066  16.189  68.905  1.00  0.00    -0.347 C  
HETATM   26  C   UNL     1     -12.204  15.384  69.458  1.00  0.00    -0.277 C  
ENDBRANCH  22  24
ENDBRANCH  14  22
ENDBRANCH  12  14
ENDBRANCH   4   5
ENDBRANCH   2   4
TORSDOF 6
ENDMDL
MODEL      166
REMARK 921   NORMALIZED FREE ENERGY PREDICTED BY IDOCK:   -4.11 KCAL/MOL
REMARK 922        TOTAL FREE ENERGY PREDICTED BY IDOCK:   -6.24 KCAL/MOL
REMARK 923 INTER-LIGAND FREE ENERGY PREDICTED BY IDOCK:   -5.31 KCAL/MOL
REMARK 924 INTRA-LIGAND FREE ENERGY PREDICTED BY IDOCK:   -0.93 KCAL/MOL
REMARK 927      BINDING AFFINITY PREDICTED BY RF-SCORE:    0.00 PKD
ROOT
HETATM    1  C   UNL     1      -7.631   2.101  70.155  1.00  0.00    -0.042 C  
HETATM    2  C   UNL     1      -6.731   3.245  69.787  1.00  0.00    -0.034 C  
HETATM    3  O   UNL     1      -5.676   3.093  69.185  1.00  0.00    -0.020 OA 
ENDROOT
BRANCH   2   4
HETATM    4  O   UNL     1      -7.284   4.403  70.213  1.00  0.00    -0.047 OA 
BRANCH   4   5
HETATM    5  C   UNL     1      -7.868   5.224  69.348  1.00  0.00    -0.088 A  
HETATM    6  C   UNL     1      -7.358   6.229  68.543  1.00  0.00    -0.086 A  
HETATM    7  C   UNL     1      -8.359   6.930  67.791  1.00  0.00    -0.120 A  
HETATM    8  C   UNL     1      -9.596   6.391  68.027  1.00  0.00    -0.118 A  
HETATM    9  C   UNL     1     -10.833   6.840  67.355  1.00  0.00    -0.417 C  
HETATM   10  S   UNL     1      -9.577   5.145  69.176  1.00  0.00    -0.160 SA 
HETATM   11  C   UNL     1     -10.646   8.233  66.728  1.00  0.00    -0.156 C  
HETATM   12  N   UNL     1      -9.309   8.733  66.325  1.00  0.00    -0.204 NA 
HETATM   13  C   UNL     1      -8.101   8.076  66.866  1.00  0.00    -0.108 C  
BRANCH  12  14
HETATM   14  C   UNL     1      -9.251  10.237  66.436  1.00  0.00    -0.158 C  
BRANCH  14  15
HETATM   15  C   UNL     1     -10.358  11.006  65.702  1.00  0.00    -0.311 A  
HETATM   16  F   UNL     1      -9.725  10.130  63.574  1.00  0.00    -0.326 F  
HETATM   17  C   UNL     1     -11.183  11.929  66.372  1.00  0.00    -0.387 A  
HETATM   18  C   UNL     1     -10.510  10.927  64.308  1.00  0.00    -0.335 A  
HETATM   19  C   UNL     1     -11.449  11.691  63.604  1.00  0.00    -0.458 A  
HETATM   20  C   UNL     1     -12.133  12.692  65.680  1.00  0.00    -0.502 A  
HETATM   21  C   UNL     1     -12.267  12.572  64.297  1.00  0.00    -0.535 A  
ENDBRANCH  14  15
BRANCH  14  22
HETATM   22  C   UNL     1      -7.814  10.731  66.098  1.00  0.00    -0.155 C  
HETATM   23  O   UNL     1      -7.213  10.459  65.062  1.00  0.00    -0.129 OA 
BRANCH  22  24
HETATM   24  C   UNL     1      -7.153  11.591  67.138  1.00  0.00    -0.140 C  
HETATM   25  C   UNL     1      -7.952  12.600  67.935  1.00  0.00    -0.156 C  
HETATM   26  C   UNL     1      -7.473  11.341  68.594  1.00  0.00    -0.118 C  
ENDBRANCH  22  24
ENDBRANCH  14  22
ENDBRANCH  12  14
ENDBRANCH   4   5
ENDBRANCH   2   4
TORSDOF 6
ENDMDL
MODEL      167
REMARK 921   NORMALIZED FREE ENERGY PREDICTED BY IDOCK:   -4.11 KCAL/MOL
REMARK 922        TOTAL FREE ENERGY PREDICTED BY IDOCK:   -6.24 KCAL/MOL
REMARK 923 INTER-LIGAND FREE ENERGY PREDICTED BY IDOCK:   -5.98 KCAL/MOL
REMARK 924 INTRA-LIGAND FREE ENERGY PREDICTED BY IDOCK:   -0.25 KCAL/MOL
REMARK 927      BINDING AFFINITY PREDICTED BY RF-SCORE:    0.00 PKD
ROOT
HETATM    1  C   UNL     1      -6.588   5.149  70.486  1.00  0.00    -0.035 C  
HETATM    2  C   UNL     1      -6.536   6.631  70.716  1.00  0.00    -0.052 C  
HETATM    3  O   UNL     1      -5.486   7.241  70.872  1.00  0.00    -0.026 OA 
ENDROOT
BRANCH   2   4
HETATM    4  O   UNL     1      -7.792   7.130  70.706  1.00  0.00    -0.093 OA 
BRANCH   4   5
HETATM    5  C   UNL     1      -8.163   7.990  69.765  1.00  0.00    -0.120 A  
HETATM    6  C   UNL     1      -8.118   9.374  69.712  1.00  0.00    -0.134 A  
HETATM    7  C   UNL     1      -8.688   9.924  68.516  1.00  0.00    -0.121 A  
HETATM    8  C   UNL     1      -9.106   8.922  67.682  1.00  0.00    -0.134 A  
HETATM    9  C   UNL     1      -9.677   9.149  66.339  1.00  0.00    -0.330 C  
HETATM   10  S   UNL     1      -8.904   7.373  68.342  1.00  0.00    -0.120 SA 
HETATM   11  C   UNL     1     -10.152  10.606  66.181  1.00  0.00    -0.249 C  
HETATM   12  N   UNL     1      -9.567  11.708  66.982  1.00  0.00    -0.182 NA 
HETATM   13  C   UNL     1      -8.803  11.382  68.204  1.00  0.00    -0.162 C  
BRANCH  12  14
HETATM   14  C   UNL     1     -10.586  12.798  67.207  1.00  0.00    -0.233 C  
BRANCH  14  15
HETATM   15  C   UNL     1     -11.201  12.860  68.612  1.00  0.00    -0.321 A  
HETATM   16  F   UNL     1     -11.847  10.563  68.564  1.00  0.00    -0.332 F  
HETATM   17  C   UNL     1     -11.293  14.071  69.323  1.00  0.00    -0.318 A  
HETATM   18  C   UNL     1     -11.821  11.743  69.195  1.00  0.00    -0.326 A  
HETATM   19  C   UNL     1     -12.473  11.798  70.432  1.00  0.00    -0.280 A  
HETATM   20  C   UNL     1     -11.935  14.137  70.567  1.00  0.00    -0.393 A  
HETATM   21  C   UNL     1     -12.522  13.001  71.122  1.00  0.00    -0.364 A  
ENDBRANCH  14  15
BRANCH  14  22
HETATM   22  C   UNL     1     -11.639  12.774  66.062  1.00  0.00    -0.383 C  
HETATM   23  O   UNL     1     -12.759  12.279  66.160  1.00  0.00     0.038 OA 
BRANCH  22  24
HETATM   24  C   UNL     1     -11.215  13.402  64.764  1.00  0.00    -0.360 C  
HETATM   25  C   UNL     1     -12.029  13.208  63.504  1.00  0.00    -0.580 C  
HETATM   26  C   UNL     1     -12.046  14.534  64.204  1.00  0.00    -0.377 C  
ENDBRANCH  22  24
ENDBRANCH  14  22
ENDBRANCH  12  14
ENDBRANCH   4   5
ENDBRANCH   2   4
TORSDOF 6
ENDMDL
MODEL      168
REMARK 921   NORMALIZED FREE ENERGY PREDICTED BY IDOCK:   -4.10 KCAL/MOL
REMARK 922        TOTAL FREE ENERGY PREDICTED BY IDOCK:   -6.22 KCAL/MOL
REMARK 923 INTER-LIGAND FREE ENERGY PREDICTED BY IDOCK:   -5.67 KCAL/MOL
REMARK 924 INTRA-LIGAND FREE ENERGY PREDICTED BY IDOCK:   -0.55 KCAL/MOL
REMARK 927      BINDING AFFINITY PREDICTED BY RF-SCORE:    0.00 PKD
ROOT
HETATM    1  C   UNL     1     -12.498  12.697  64.552  1.00  0.00    -0.525 C  
HETATM    2  C   UNL     1     -11.016  12.515  64.395  1.00  0.00    -0.340 C  
HETATM    3  O   UNL     1     -10.475  12.396  63.303  1.00  0.00    -0.395 OA 
ENDROOT
BRANCH   2   4
HETATM    4  O   UNL     1     -10.433  12.519  65.614  1.00  0.00    -0.262 OA 
BRANCH   4   5
HETATM    5  C   UNL     1      -9.886  11.410  66.098  1.00  0.00    -0.222 A  
HETATM    6  C   UNL     1     -10.399  10.137  66.289  1.00  0.00    -0.245 A  
HETATM    7  C   UNL     1      -9.477   9.230  66.908  1.00  0.00    -0.211 A  
HETATM    8  C   UNL     1      -8.273   9.848  67.124  1.00  0.00    -0.121 A  
HETATM    9  C   UNL     1      -7.086   9.170  67.684  1.00  0.00    -0.082 C  
HETATM   10  S   UNL     1      -8.271  11.485  66.680  1.00  0.00    -0.126 SA 
HETATM   11  C   UNL     1      -7.483   7.864  68.397  1.00  0.00    -0.100 C  
HETATM   12  N   UNL     1      -8.712   7.119  68.032  1.00  0.00    -0.127 NA 
HETATM   13  C   UNL     1      -9.768   7.806  67.260  1.00  0.00    -0.171 C  
BRANCH  12  14
HETATM   14  C   UNL     1      -9.256   6.377  69.228  1.00  0.00    -0.135 C  
BRANCH  14  15
HETATM   15  C   UNL     1     -10.046   7.221  70.237  1.00  0.00    -0.196 A  
HETATM   16  F   UNL     1     -11.516   5.421  70.779  1.00  0.00    -0.135 F  
HETATM   17  C   UNL     1      -9.789   8.594  70.410  1.00  0.00    -0.207 A  
HETATM   18  C   UNL     1     -11.149   6.699  70.932  1.00  0.00    -0.286 A  
HETATM   19  C   UNL     1     -11.944   7.474  71.784  1.00  0.00    -0.334 A  
HETATM   20  C   UNL     1     -10.572   9.379  71.267  1.00  0.00    -0.400 A  
HETATM   21  C   UNL     1     -11.647   8.819  71.956  1.00  0.00    -0.436 A  
ENDBRANCH  14  15
BRANCH  14  22
HETATM   22  C   UNL     1      -8.125   5.525  69.873  1.00  0.00    -0.097 C  
HETATM   23  O   UNL     1      -7.296   5.960  70.669  1.00  0.00    -0.080 OA 
BRANCH  22  24
HETATM   24  C   UNL     1      -8.076   4.079  69.465  1.00  0.00    -0.061 C  
HETATM   25  C   UNL     1      -9.306   3.202  69.562  1.00  0.00    -0.228 C  
HETATM   26  C   UNL     1      -8.818   3.654  68.219  1.00  0.00    -0.151 C  
ENDBRANCH  22  24
ENDBRANCH  14  22
ENDBRANCH  12  14
ENDBRANCH   4   5
ENDBRANCH   2   4
TORSDOF 6
ENDMDL
MODEL      169
REMARK 921   NORMALIZED FREE ENERGY PREDICTED BY IDOCK:   -4.08 KCAL/MOL
REMARK 922        TOTAL FREE ENERGY PREDICTED BY IDOCK:   -6.19 KCAL/MOL
REMARK 923 INTER-LIGAND FREE ENERGY PREDICTED BY IDOCK:   -6.98 KCAL/MOL
REMARK 924 INTRA-LIGAND FREE ENERGY PREDICTED BY IDOCK:    0.79 KCAL/MOL
REMARK 927      BINDING AFFINITY PREDICTED BY RF-SCORE:    0.00 PKD
ROOT
HETATM    1  C   UNL     1     -10.675  19.326  66.438  1.00  0.00    -0.479 C  
HETATM    2  C   UNL     1      -9.552  20.163  66.979  1.00  0.00    -0.424 C  
HETATM    3  O   UNL     1      -9.734  21.243  67.526  1.00  0.00    -0.250 OA 
ENDROOT
BRANCH   2   4
HETATM    4  O   UNL     1      -8.378  19.527  66.766  1.00  0.00    -0.273 OA 
BRANCH   4   5
HETATM    5  C   UNL     1      -8.307  18.204  66.860  1.00  0.00    -0.245 A  
HETATM    6  C   UNL     1      -9.079  17.198  66.301  1.00  0.00    -0.260 A  
HETATM    7  C   UNL     1      -8.696  15.880  66.717  1.00  0.00    -0.303 A  
HETATM    8  C   UNL     1      -7.610  15.938  67.548  1.00  0.00    -0.161 A  
HETATM    9  C   UNL     1      -6.926  14.750  68.098  1.00  0.00    -0.130 C  
HETATM   10  S   UNL     1      -7.114  17.523  67.893  1.00  0.00    -0.186 SA 
HETATM   11  C   UNL     1      -7.824  13.502  68.000  1.00  0.00    -0.147 C  
HETATM   12  N   UNL     1      -8.892  13.390  66.978  1.00  0.00    -0.223 NA 
HETATM   13  C   UNL     1      -9.368  14.611  66.297  1.00  0.00    -0.262 C  
BRANCH  12  14
HETATM   14  C   UNL     1     -10.024  12.531  67.488  1.00  0.00    -0.201 C  
BRANCH  14  15
HETATM   15  C   UNL     1      -9.901  11.026  67.207  1.00  0.00    -0.204 A  
HETATM   16  F   UNL     1      -8.342  11.360  65.431  1.00  0.00    -0.061 F  
HETATM   17  C   UNL     1     -10.701  10.084  67.880  1.00  0.00    -0.322 A  
HETATM   18  C   UNL     1      -9.087  10.534  66.174  1.00  0.00    -0.162 A  
HETATM   19  C   UNL     1      -9.032   9.177  65.836  1.00  0.00    -0.231 A  
HETATM   20  C   UNL     1     -10.647   8.721  67.557  1.00  0.00    -0.298 A  
HETATM   21  C   UNL     1      -9.812   8.268  66.536  1.00  0.00    -0.323 A  
ENDBRANCH  14  15
BRANCH  14  22
HETATM   22  C   UNL     1     -11.385  13.142  67.047  1.00  0.00    -0.312 C  
HETATM   23  O   UNL     1     -11.944  14.075  67.620  1.00  0.00    -0.368 OA 
BRANCH  22  24
HETATM   24  C   UNL     1     -12.026  12.518  65.841  1.00  0.00    -0.472 C  
HETATM   25  C   UNL     1     -12.804  13.359  64.851  1.00  0.00    -0.292 C  
HETATM   26  C   UNL     1     -11.453  12.826  64.476  1.00  0.00    -0.389 C  
ENDBRANCH  22  24
ENDBRANCH  14  22
ENDBRANCH  12  14
ENDBRANCH   4   5
ENDBRANCH   2   4
TORSDOF 6
ENDMDL
MODEL      170
REMARK 921   NORMALIZED FREE ENERGY PREDICTED BY IDOCK:   -4.07 KCAL/MOL
REMARK 922        TOTAL FREE ENERGY PREDICTED BY IDOCK:   -6.18 KCAL/MOL
REMARK 923 INTER-LIGAND FREE ENERGY PREDICTED BY IDOCK:   -5.87 KCAL/MOL
REMARK 924 INTRA-LIGAND FREE ENERGY PREDICTED BY IDOCK:   -0.31 KCAL/MOL
REMARK 927      BINDING AFFINITY PREDICTED BY RF-SCORE:    0.00 PKD
ROOT
HETATM    1  C   UNL     1     -10.482   3.917  72.882  1.00  0.00    -0.247 C  
HETATM    2  C   UNL     1     -10.884   5.193  72.199  1.00  0.00    -0.151 C  
HETATM    3  O   UNL     1     -11.764   5.927  72.630  1.00  0.00    -0.280 OA 
ENDROOT
BRANCH   2   4
HETATM    4  O   UNL     1     -10.126   5.366  71.093  1.00  0.00    -0.193 OA 
BRANCH   4   5
HETATM    5  C   UNL     1      -9.867   6.588  70.644  1.00  0.00    -0.183 A  
HETATM    6  C   UNL     1     -10.557   7.414  69.771  1.00  0.00    -0.245 A  
HETATM    7  C   UNL     1      -9.887   8.653  69.498  1.00  0.00    -0.187 A  
HETATM    8  C   UNL     1      -8.726   8.735  70.219  1.00  0.00    -0.161 A  
HETATM    9  C   UNL     1      -7.835   9.914  70.217  1.00  0.00    -0.151 C  
HETATM   10  S   UNL     1      -8.399   7.341  71.127  1.00  0.00    -0.112 SA 
HETATM   11  C   UNL     1      -8.119  10.818  69.003  1.00  0.00    -0.140 C  
HETATM   12  N   UNL     1      -9.444  10.835  68.337  1.00  0.00    -0.166 NA 
HETATM   13  C   UNL     1     -10.383   9.719  68.574  1.00  0.00    -0.202 C  
BRANCH  12  14
HETATM   14  C   UNL     1      -9.295  11.169  66.873  1.00  0.00    -0.175 C  
BRANCH  14  15
HETATM   15  C   UNL     1     -10.360  12.108  66.289  1.00  0.00    -0.250 A  
HETATM   16  F   UNL     1     -10.752  13.170  68.390  1.00  0.00    -0.226 F  
HETATM   17  C   UNL     1     -10.795  11.990  64.955  1.00  0.00    -0.351 A  
HETATM   18  C   UNL     1     -11.045  13.034  67.091  1.00  0.00    -0.273 A  
HETATM   19  C   UNL     1     -12.086  13.834  66.604  1.00  0.00    -0.471 A  
HETATM   20  C   UNL     1     -11.828  12.792  64.453  1.00  0.00    -0.446 A  
HETATM   21  C   UNL     1     -12.472  13.715  65.277  1.00  0.00    -0.517 A  
ENDBRANCH  14  15
BRANCH  14  22
HETATM   22  C   UNL     1      -9.098   9.859  66.055  1.00  0.00    -0.158 C  
HETATM   23  O   UNL     1     -10.015   9.143  65.660  1.00  0.00    -0.232 OA 
BRANCH  22  24
HETATM   24  C   UNL     1      -7.676   9.478  65.756  1.00  0.00    -0.100 C  
HETATM   25  C   UNL     1      -6.992   9.958  64.494  1.00  0.00    -0.131 C  
HETATM   26  C   UNL     1      -6.612  10.550  65.819  1.00  0.00    -0.123 C  
ENDBRANCH  22  24
ENDBRANCH  14  22
ENDBRANCH  12  14
ENDBRANCH   4   5
ENDBRANCH   2   4
TORSDOF 6
ENDMDL
MODEL      171
REMARK 921   NORMALIZED FREE ENERGY PREDICTED BY IDOCK:   -4.07 KCAL/MOL
REMARK 922        TOTAL FREE ENERGY PREDICTED BY IDOCK:   -6.18 KCAL/MOL
REMARK 923 INTER-LIGAND FREE ENERGY PREDICTED BY IDOCK:   -5.44 KCAL/MOL
REMARK 924 INTRA-LIGAND FREE ENERGY PREDICTED BY IDOCK:   -0.74 KCAL/MOL
REMARK 927      BINDING AFFINITY PREDICTED BY RF-SCORE:    0.00 PKD
ROOT
HETATM    1  C   UNL     1      -7.734   3.813  67.704  1.00  0.00    -0.074 C  
HETATM    2  C   UNL     1      -9.230   3.865  67.587  1.00  0.00    -0.167 C  
HETATM    3  O   UNL     1      -9.826   3.560  66.562  1.00  0.00    -0.096 OA 
ENDROOT
BRANCH   2   4
HETATM    4  O   UNL     1      -9.756   4.277  68.761  1.00  0.00    -0.162 OA 
BRANCH   4   5
HETATM    5  C   UNL     1     -10.103   5.548  68.930  1.00  0.00    -0.198 A  
HETATM    6  C   UNL     1     -10.133   6.619  68.052  1.00  0.00    -0.175 A  
HETATM    7  C   UNL     1     -10.516   7.857  68.666  1.00  0.00    -0.196 A  
HETATM    8  C   UNL     1     -10.807   7.663  69.990  1.00  0.00    -0.243 A  
HETATM    9  C   UNL     1     -11.300   8.725  70.891  1.00  0.00    -0.322 C  
HETATM   10  S   UNL     1     -10.547   6.069  70.507  1.00  0.00    -0.287 SA 
HETATM   11  C   UNL     1     -11.019  10.121  70.304  1.00  0.00    -0.317 C  
HETATM   12  N   UNL     1     -10.871  10.337  68.845  1.00  0.00    -0.217 NA 
HETATM   13  C   UNL     1     -10.606   9.177  67.968  1.00  0.00    -0.197 C  
BRANCH  12  14
HETATM   14  C   UNL     1      -9.943  11.495  68.573  1.00  0.00    -0.204 C  
BRANCH  14  15
HETATM   15  C   UNL     1     -10.619  12.818  68.185  1.00  0.00    -0.242 A  
HETATM   16  F   UNL     1     -11.889  11.800  66.440  1.00  0.00    -0.393 F  
HETATM   17  C   UNL     1     -10.253  14.037  68.787  1.00  0.00    -0.200 A  
HETATM   18  C   UNL     1     -11.532  12.895  67.121  1.00  0.00    -0.336 A  
HETATM   19  C   UNL     1     -12.088  14.104  66.686  1.00  0.00    -0.480 A  
HETATM   20  C   UNL     1     -10.810  15.252  68.368  1.00  0.00    -0.257 A  
HETATM   21  C   UNL     1     -11.729  15.285  67.319  1.00  0.00    -0.088 A  
ENDBRANCH  14  15
BRANCH  14  22
HETATM   22  C   UNL     1      -8.825  11.049  67.586  1.00  0.00    -0.131 C  
HETATM   23  O   UNL     1      -8.835  11.276  66.378  1.00  0.00    -0.172 OA 
BRANCH  22  24
HETATM   24  C   UNL     1      -7.679  10.288  68.190  1.00  0.00    -0.092 C  
HETATM   25  C   UNL     1      -6.405  10.996  68.598  1.00  0.00    -0.047 C  
HETATM   26  C   UNL     1      -7.355  10.509  69.650  1.00  0.00    -0.151 C  
ENDBRANCH  22  24
ENDBRANCH  14  22
ENDBRANCH  12  14
ENDBRANCH   4   5
ENDBRANCH   2   4
TORSDOF 6
ENDMDL
MODEL      172
REMARK 921   NORMALIZED FREE ENERGY PREDICTED BY IDOCK:   -4.06 KCAL/MOL
REMARK 922        TOTAL FREE ENERGY PREDICTED BY IDOCK:   -6.17 KCAL/MOL
REMARK 923 INTER-LIGAND FREE ENERGY PREDICTED BY IDOCK:   -6.02 KCAL/MOL
REMARK 924 INTRA-LIGAND FREE ENERGY PREDICTED BY IDOCK:   -0.15 KCAL/MOL
REMARK 927      BINDING AFFINITY PREDICTED BY RF-SCORE:    0.00 PKD
ROOT
HETATM    1  C   UNL     1     -11.193   7.280  73.052  1.00  0.00    -0.309 C  
HETATM    2  C   UNL     1     -11.000   5.846  72.651  1.00  0.00    -0.264 C  
HETATM    3  O   UNL     1     -11.735   4.946  73.035  1.00  0.00    -0.278 OA 
ENDROOT
BRANCH   2   4
HETATM    4  O   UNL     1      -9.932   5.752  71.829  1.00  0.00    -0.164 OA 
BRANCH   4   5
HETATM    5  C   UNL     1      -9.854   6.513  70.743  1.00  0.00    -0.184 A  
HETATM    6  C   UNL     1      -9.177   7.695  70.493  1.00  0.00    -0.159 A  
HETATM    7  C   UNL     1      -9.415   8.232  69.184  1.00  0.00    -0.155 A  
HETATM    8  C   UNL     1     -10.239   7.401  68.472  1.00  0.00    -0.183 A  
HETATM    9  C   UNL     1     -10.625   7.630  67.064  1.00  0.00    -0.406 C  
HETATM   10  S   UNL     1     -10.780   6.066  69.366  1.00  0.00    -0.364 SA 
HETATM   11  C   UNL     1     -10.375   9.093  66.655  1.00  0.00    -0.218 C  
HETATM   12  N   UNL     1      -9.356   9.929  67.335  1.00  0.00    -0.137 NA 
HETATM   13  C   UNL     1      -8.842   9.507  68.654  1.00  0.00    -0.132 C  
BRANCH  12  14
HETATM   14  C   UNL     1      -9.761  11.383  67.308  1.00  0.00    -0.185 C  
BRANCH  14  15
HETATM   15  C   UNL     1      -8.686  12.386  67.751  1.00  0.00    -0.176 A  
HETATM   16  F   UNL     1      -9.512  14.097  66.306  1.00  0.00    -0.275 F  
HETATM   17  C   UNL     1      -7.648  12.015  68.626  1.00  0.00    -0.112 A  
HETATM   18  C   UNL     1      -8.610  13.676  67.201  1.00  0.00    -0.192 A  
HETATM   19  C   UNL     1      -7.584  14.574  67.517  1.00  0.00    -0.211 A  
HETATM   20  C   UNL     1      -6.621  12.908  68.957  1.00  0.00    -0.102 A  
HETATM   21  C   UNL     1      -6.590  14.188  68.405  1.00  0.00    -0.106 A  
ENDBRANCH  14  15
BRANCH  14  22
HETATM   22  C   UNL     1     -11.123  11.560  68.038  1.00  0.00    -0.254 C  
HETATM   23  O   UNL     1     -12.219  11.512  67.484  1.00  0.00    -0.463 OA 
BRANCH  22  24
HETATM   24  C   UNL     1     -11.049  11.811  69.518  1.00  0.00    -0.199 C  
HETATM   25  C   UNL     1     -12.285  12.185  70.306  1.00  0.00    -0.344 C  
HETATM   26  C   UNL     1     -11.694  10.815  70.453  1.00  0.00    -0.445 C  
ENDBRANCH  22  24
ENDBRANCH  14  22
ENDBRANCH  12  14
ENDBRANCH   4   5
ENDBRANCH   2   4
TORSDOF 6
ENDMDL
MODEL      173
REMARK 921   NORMALIZED FREE ENERGY PREDICTED BY IDOCK:   -4.06 KCAL/MOL
REMARK 922        TOTAL FREE ENERGY PREDICTED BY IDOCK:   -6.17 KCAL/MOL
REMARK 923 INTER-LIGAND FREE ENERGY PREDICTED BY IDOCK:   -5.71 KCAL/MOL
REMARK 924 INTRA-LIGAND FREE ENERGY PREDICTED BY IDOCK:   -0.46 KCAL/MOL
REMARK 927      BINDING AFFINITY PREDICTED BY RF-SCORE:    0.00 PKD
ROOT
HETATM    1  C   UNL     1     -13.274  13.782  72.540  1.00  0.00    -0.599 C  
HETATM    2  C   UNL     1     -12.887  12.696  71.578  1.00  0.00    -0.268 C  
HETATM    3  O   UNL     1     -12.231  12.910  70.566  1.00  0.00    -0.368 OA 
ENDROOT
BRANCH   2   4
HETATM    4  O   UNL     1     -13.363  11.513  72.024  1.00  0.00    -0.476 OA 
BRANCH   4   5
HETATM    5  C   UNL     1     -12.744  10.381  71.709  1.00  0.00    -0.421 A  
HETATM    6  C   UNL     1     -11.467  10.131  71.232  1.00  0.00    -0.327 A  
HETATM    7  C   UNL     1     -11.215   8.746  70.957  1.00  0.00    -0.329 A  
HETATM    8  C   UNL     1     -12.309   7.989  71.283  1.00  0.00    -0.271 A  
HETATM    9  C   UNL     1     -12.352   6.515  71.184  1.00  0.00    -0.196 C  
HETATM   10  S   UNL     1     -13.627   8.910  71.819  1.00  0.00    -0.426 SA 
HETATM   11  C   UNL     1     -11.226   5.990  70.273  1.00  0.00    -0.322 C  
HETATM   12  N   UNL     1      -9.973   6.754  70.064  1.00  0.00    -0.175 NA 
HETATM   13  C   UNL     1      -9.940   8.191  70.408  1.00  0.00    -0.188 C  
BRANCH  12  14
HETATM   14  C   UNL     1      -9.403   6.471  68.695  1.00  0.00    -0.125 C  
BRANCH  14  15
HETATM   15  C   UNL     1      -8.125   7.240  68.331  1.00  0.00    -0.125 A  
HETATM   16  F   UNL     1      -6.737   5.788  69.620  1.00  0.00    -0.046 F  
HETATM   17  C   UNL     1      -8.170   8.431  67.582  1.00  0.00    -0.126 A  
HETATM   18  C   UNL     1      -6.870   6.867  68.839  1.00  0.00    -0.072 A  
HETATM   19  C   UNL     1      -5.706   7.606  68.600  1.00  0.00    -0.027 A  
HETATM   20  C   UNL     1      -7.010   9.174  67.327  1.00  0.00    -0.078 A  
HETATM   21  C   UNL     1      -5.778   8.761  67.834  1.00  0.00    -0.035 A  
ENDBRANCH  14  15
BRANCH  14  22
HETATM   22  C   UNL     1     -10.528   6.583  67.627  1.00  0.00    -0.230 C  
HETATM   23  O   UNL     1     -11.337   7.506  67.565  1.00  0.00     0.161 OA 
BRANCH  22  24
HETATM   24  C   UNL     1     -10.599   5.463  66.627  1.00  0.00    -0.359 C  
HETATM   25  C   UNL     1      -9.349   4.949  65.947  1.00  0.00    -0.162 C  
HETATM   26  C   UNL     1     -10.017   4.120  67.003  1.00  0.00    -0.116 C  
ENDBRANCH  22  24
ENDBRANCH  14  22
ENDBRANCH  12  14
ENDBRANCH   4   5
ENDBRANCH   2   4
TORSDOF 6
ENDMDL
MODEL      174
REMARK 921   NORMALIZED FREE ENERGY PREDICTED BY IDOCK:   -4.05 KCAL/MOL
REMARK 922        TOTAL FREE ENERGY PREDICTED BY IDOCK:   -6.16 KCAL/MOL
REMARK 923 INTER-LIGAND FREE ENERGY PREDICTED BY IDOCK:   -5.28 KCAL/MOL
REMARK 924 INTRA-LIGAND FREE ENERGY PREDICTED BY IDOCK:   -0.88 KCAL/MOL
REMARK 927      BINDING AFFINITY PREDICTED BY RF-SCORE:    0.00 PKD
ROOT
HETATM    1  C   UNL     1     -11.034   3.510  73.577  1.00  0.00    -0.330 C  
HETATM    2  C   UNL     1     -10.610   4.865  73.087  1.00  0.00    -0.220 C  
HETATM    3  O   UNL     1      -9.445   5.239  73.096  1.00  0.00    -0.142 OA 
ENDROOT
BRANCH   2   4
HETATM    4  O   UNL     1     -11.696   5.542  72.652  1.00  0.00    -0.293 OA 
BRANCH   4   5
HETATM    5  C   UNL     1     -11.557   6.557  71.806  1.00  0.00    -0.312 A  
HETATM    6  C   UNL     1     -11.287   6.594  70.447  1.00  0.00    -0.421 A  
HETATM    7  C   UNL     1     -11.153   7.921  69.922  1.00  0.00    -0.123 A  
HETATM    8  C   UNL     1     -11.373   8.848  70.906  1.00  0.00    -0.283 A  
HETATM    9  C   UNL     1     -11.377  10.308  70.679  1.00  0.00    -0.431 C  
HETATM   10  S   UNL     1     -11.646   8.156  72.430  1.00  0.00    -0.402 SA 
HETATM   11  C   UNL     1     -10.677  10.662  69.354  1.00  0.00    -0.244 C  
HETATM   12  N   UNL     1     -10.595   9.694  68.233  1.00  0.00    -0.222 NA 
HETATM   13  C   UNL     1     -10.834   8.261  68.501  1.00  0.00     0.093 C  
BRANCH  12  14
HETATM   14  C   UNL     1      -9.347   9.933  67.419  1.00  0.00    -0.137 C  
BRANCH  14  15
HETATM   15  C   UNL     1      -8.326  10.904  68.028  1.00  0.00    -0.122 A  
HETATM   16  F   UNL     1      -7.418   9.235  69.473  1.00  0.00    -0.067 F  
HETATM   17  C   UNL     1      -8.322  12.272  67.698  1.00  0.00    -0.166 A  
HETATM   18  C   UNL     1      -7.440  10.502  69.041  1.00  0.00    -0.112 A  
HETATM   19  C   UNL     1      -6.566  11.390  69.679  1.00  0.00    -0.128 A  
HETATM   20  C   UNL     1      -7.445  13.169  68.322  1.00  0.00    -0.129 A  
HETATM   21  C   UNL     1      -6.566  12.728  69.311  1.00  0.00    -0.086 A  
ENDBRANCH  14  15
BRANCH  14  22
HETATM   22  C   UNL     1      -9.737  10.272  65.951  1.00  0.00    -0.225 C  
HETATM   23  O   UNL     1     -10.535  11.151  65.631  1.00  0.00    -0.254 OA 
BRANCH  22  24
HETATM   24  C   UNL     1      -9.076   9.444  64.886  1.00  0.00    -0.258 C  
HETATM   25  C   UNL     1      -7.578   9.232  64.884  1.00  0.00    -0.108 C  
HETATM   26  C   UNL     1      -8.488   8.106  65.272  1.00  0.00    -0.157 C  
ENDBRANCH  22  24
ENDBRANCH  14  22
ENDBRANCH  12  14
ENDBRANCH   4   5
ENDBRANCH   2   4
TORSDOF 6
ENDMDL
MODEL      175
REMARK 921   NORMALIZED FREE ENERGY PREDICTED BY IDOCK:   -4.05 KCAL/MOL
REMARK 922        TOTAL FREE ENERGY PREDICTED BY IDOCK:   -6.15 KCAL/MOL
REMARK 923 INTER-LIGAND FREE ENERGY PREDICTED BY IDOCK:   -5.17 KCAL/MOL
REMARK 924 INTRA-LIGAND FREE ENERGY PREDICTED BY IDOCK:   -0.98 KCAL/MOL
REMARK 927      BINDING AFFINITY PREDICTED BY RF-SCORE:    0.00 PKD
ROOT
HETATM    1  C   UNL     1      -6.718   1.926  65.486  1.00  0.00    -0.034 C  
HETATM    2  C   UNL     1      -6.302   3.265  66.020  1.00  0.00    -0.032 C  
HETATM    3  O   UNL     1      -5.701   3.400  67.079  1.00  0.00    -0.021 OA 
ENDROOT
BRANCH   2   4
HETATM    4  O   UNL     1      -6.686   4.230  65.156  1.00  0.00    -0.046 OA 
BRANCH   4   5
HETATM    5  C   UNL     1      -7.586   5.137  65.521  1.00  0.00    -0.086 A  
HETATM    6  C   UNL     1      -7.582   6.520  65.448  1.00  0.00    -0.089 A  
HETATM    7  C   UNL     1      -8.746   7.131  66.022  1.00  0.00    -0.162 A  
HETATM    8  C   UNL     1      -9.614   6.173  66.472  1.00  0.00    -0.151 A  
HETATM    9  C   UNL     1     -10.939   6.468  67.056  1.00  0.00    -0.466 C  
HETATM   10  S   UNL     1      -9.021   4.594  66.295  1.00  0.00    -0.123 SA 
HETATM   11  C   UNL     1     -11.029   7.939  67.503  1.00  0.00     0.065 C  
HETATM   12  N   UNL     1     -10.193   8.995  66.882  1.00  0.00    -0.260 NA 
HETATM   13  C   UNL     1      -8.996   8.603  66.109  1.00  0.00    -0.180 C  
BRANCH  12  14
HETATM   14  C   UNL     1      -9.909  10.096  67.874  1.00  0.00    -0.151 C  
BRANCH  14  15
HETATM   15  C   UNL     1     -10.022   9.708  69.355  1.00  0.00    -0.207 A  
HETATM   16  F   UNL     1      -7.897   8.622  69.361  1.00  0.00    -0.088 F  
HETATM   17  C   UNL     1     -11.194   9.957  70.094  1.00  0.00    -0.347 A  
HETATM   18  C   UNL     1      -9.019   8.969  70.003  1.00  0.00    -0.175 A  
HETATM   19  C   UNL     1      -9.142   8.521  71.323  1.00  0.00    -0.250 A  
HETATM   20  C   UNL     1     -11.325   9.523  71.420  1.00  0.00    -0.462 A  
HETATM   21  C   UNL     1     -10.298   8.807  72.035  1.00  0.00    -0.411 A  
ENDBRANCH  14  15
BRANCH  14  22
HETATM   22  C   UNL     1     -10.724  11.366  67.494  1.00  0.00    -0.222 C  
HETATM   23  O   UNL     1     -11.810  11.346  66.919  1.00  0.00    -0.489 OA 
BRANCH  22  24
HETATM   24  C   UNL     1     -10.103  12.682  67.866  1.00  0.00    -0.222 C  
HETATM   25  C   UNL     1     -10.686  13.986  67.365  1.00  0.00    -0.285 C  
HETATM   26  C   UNL     1     -10.856  13.598  68.804  1.00  0.00    -0.279 C  
ENDBRANCH  22  24
ENDBRANCH  14  22
ENDBRANCH  12  14
ENDBRANCH   4   5
ENDBRANCH   2   4
TORSDOF 6
ENDMDL
MODEL      176
REMARK 921   NORMALIZED FREE ENERGY PREDICTED BY IDOCK:   -4.03 KCAL/MOL
REMARK 922        TOTAL FREE ENERGY PREDICTED BY IDOCK:   -6.12 KCAL/MOL
REMARK 923 INTER-LIGAND FREE ENERGY PREDICTED BY IDOCK:   -5.46 KCAL/MOL
REMARK 924 INTRA-LIGAND FREE ENERGY PREDICTED BY IDOCK:   -0.67 KCAL/MOL
REMARK 927      BINDING AFFINITY PREDICTED BY RF-SCORE:    0.00 PKD
ROOT
HETATM    1  C   UNL     1      -6.750   3.120  65.514  1.00  0.00    -0.044 C  
HETATM    2  C   UNL     1      -6.384   2.516  66.839  1.00  0.00    -0.028 C  
HETATM    3  O   UNL     1      -5.277   2.048  67.071  1.00  0.00    -0.008 OA 
ENDROOT
BRANCH   2   4
HETATM    4  O   UNL     1      -7.444   2.596  67.674  1.00  0.00    -0.056 OA 
BRANCH   4   5
HETATM    5  C   UNL     1      -8.014   3.769  67.921  1.00  0.00    -0.084 A  
HETATM    6  C   UNL     1      -7.600   4.855  68.676  1.00  0.00    -0.077 A  
HETATM    7  C   UNL     1      -8.561   5.918  68.734  1.00  0.00    -0.110 A  
HETATM    8  C   UNL     1      -9.659   5.610  67.975  1.00  0.00    -0.120 A  
HETATM    9  C   UNL     1     -10.801   6.523  67.767  1.00  0.00    -0.395 C  
HETATM   10  S   UNL     1      -9.584   4.063  67.284  1.00  0.00    -0.156 SA 
HETATM   11  C   UNL     1     -10.821   7.633  68.835  1.00  0.00    -0.017 C  
HETATM   12  N   UNL     1      -9.586   8.068  69.530  1.00  0.00    -0.163 NA 
HETATM   13  C   UNL     1      -8.395   7.194  69.497  1.00  0.00    -0.133 C  
BRANCH  12  14
HETATM   14  C   UNL     1      -9.907   8.561  70.920  1.00  0.00    -0.189 C  
BRANCH  14  15
HETATM   15  C   UNL     1     -10.230   7.476  71.957  1.00  0.00    -0.234 A  
HETATM   16  F   UNL     1      -8.747   8.410  73.577  1.00  0.00    -0.293 F  
HETATM   17  C   UNL     1     -11.060   6.383  71.645  1.00  0.00    -0.314 A  
HETATM   18  C   UNL     1      -9.608   7.451  73.215  1.00  0.00    -0.232 A  
HETATM   19  C   UNL     1      -9.813   6.421  74.141  1.00  0.00    -0.296 A  
HETATM   20  C   UNL     1     -11.281   5.351  72.566  1.00  0.00    -0.305 A  
HETATM   21  C   UNL     1     -10.659   5.371  73.815  1.00  0.00    -0.325 A  
ENDBRANCH  14  15
BRANCH  14  22
HETATM   22  C   UNL     1     -10.973   9.691  70.841  1.00  0.00    -0.342 C  
HETATM   23  O   UNL     1     -10.903  10.659  70.088  1.00  0.00    -0.261 OA 
BRANCH  22  24
HETATM   24  C   UNL     1     -12.148   9.553  71.768  1.00  0.00    -0.459 C  
HETATM   25  C   UNL     1     -13.159  10.669  71.912  1.00  0.00    -0.563 C  
HETATM   26  C   UNL     1     -13.529   9.420  71.170  1.00  0.00    -0.253 C  
ENDBRANCH  22  24
ENDBRANCH  14  22
ENDBRANCH  12  14
ENDBRANCH   4   5
ENDBRANCH   2   4
TORSDOF 6
ENDMDL
MODEL      177
REMARK 921   NORMALIZED FREE ENERGY PREDICTED BY IDOCK:   -3.99 KCAL/MOL
REMARK 922        TOTAL FREE ENERGY PREDICTED BY IDOCK:   -6.08 KCAL/MOL
REMARK 923 INTER-LIGAND FREE ENERGY PREDICTED BY IDOCK:   -5.33 KCAL/MOL
REMARK 924 INTRA-LIGAND FREE ENERGY PREDICTED BY IDOCK:   -0.75 KCAL/MOL
REMARK 927      BINDING AFFINITY PREDICTED BY RF-SCORE:    0.00 PKD
ROOT
HETATM    1  C   UNL     1     -12.689  10.421  71.424  1.00  0.00    -0.551 C  
HETATM    2  C   UNL     1     -13.169   9.322  72.327  1.00  0.00    -0.460 C  
HETATM    3  O   UNL     1     -14.356   9.092  72.518  1.00  0.00    -0.570 OA 
ENDROOT
BRANCH   2   4
HETATM    4  O   UNL     1     -12.103   8.672  72.845  1.00  0.00    -0.217 OA 
BRANCH   4   5
HETATM    5  C   UNL     1     -11.291   7.982  72.052  1.00  0.00    -0.302 A  
HETATM    6  C   UNL     1     -10.016   8.250  71.581  1.00  0.00    -0.277 A  
HETATM    7  C   UNL     1      -9.512   7.253  70.682  1.00  0.00    -0.164 A  
HETATM    8  C   UNL     1     -10.418   6.236  70.542  1.00  0.00    -0.221 A  
HETATM    9  C   UNL     1     -10.176   5.020  69.738  1.00  0.00    -0.336 C  
HETATM   10  S   UNL     1     -11.862   6.503  71.389  1.00  0.00    -0.297 SA 
HETATM   11  C   UNL     1      -9.017   5.236  68.746  1.00  0.00    -0.110 C  
HETATM   12  N   UNL     1      -7.950   6.234  69.000  1.00  0.00    -0.108 NA 
HETATM   13  C   UNL     1      -8.182   7.297  69.999  1.00  0.00    -0.132 C  
BRANCH  12  14
HETATM   14  C   UNL     1      -7.406   6.769  67.698  1.00  0.00    -0.096 C  
BRANCH  14  15
HETATM   15  C   UNL     1      -8.243   7.864  67.022  1.00  0.00    -0.117 A  
HETATM   16  F   UNL     1      -6.359   9.301  66.739  1.00  0.00    -0.061 F  
HETATM   17  C   UNL     1      -9.642   7.758  66.909  1.00  0.00    -0.256 A  
HETATM   18  C   UNL     1      -7.672   9.078  66.608  1.00  0.00    -0.096 A  
HETATM   19  C   UNL     1      -8.429  10.129  66.077  1.00  0.00    -0.136 A  
HETATM   20  C   UNL     1     -10.410   8.799  66.371  1.00  0.00    -0.169 A  
HETATM   21  C   UNL     1      -9.803   9.984  65.953  1.00  0.00    -0.330 A  
ENDBRANCH  14  15
BRANCH  14  22
HETATM   22  C   UNL     1      -7.046   5.584  66.755  1.00  0.00    -0.070 C  
HETATM   23  O   UNL     1      -6.297   4.658  67.060  1.00  0.00    -0.038 OA 
BRANCH  22  24
HETATM   24  C   UNL     1      -7.670   5.616  65.389  1.00  0.00    -0.087 C  
HETATM   25  C   UNL     1      -6.845   5.345  64.151  1.00  0.00    -0.047 C  
HETATM   26  C   UNL     1      -7.822   4.316  64.633  1.00  0.00    -0.085 C  
ENDBRANCH  22  24
ENDBRANCH  14  22
ENDBRANCH  12  14
ENDBRANCH   4   5
ENDBRANCH   2   4
TORSDOF 6
ENDMDL
MODEL      178
REMARK 921   NORMALIZED FREE ENERGY PREDICTED BY IDOCK:   -3.99 KCAL/MOL
REMARK 922        TOTAL FREE ENERGY PREDICTED BY IDOCK:   -6.07 KCAL/MOL
REMARK 923 INTER-LIGAND FREE ENERGY PREDICTED BY IDOCK:   -5.66 KCAL/MOL
REMARK 924 INTRA-LIGAND FREE ENERGY PREDICTED BY IDOCK:   -0.41 KCAL/MOL
REMARK 927      BINDING AFFINITY PREDICTED BY RF-SCORE:    0.00 PKD
ROOT
HETATM    1  C   UNL     1      -9.404   1.494  65.073  1.00  0.00    -0.054 C  
HETATM    2  C   UNL     1      -8.604   2.013  66.232  1.00  0.00    -0.112 C  
HETATM    3  O   UNL     1      -7.392   1.865  66.321  1.00  0.00    -0.058 OA 
ENDROOT
BRANCH   2   4
HETATM    4  O   UNL     1      -9.428   2.644  67.098  1.00  0.00    -0.123 OA 
BRANCH   4   5
HETATM    5  C   UNL     1      -9.358   3.962  67.249  1.00  0.00    -0.191 A  
HETATM    6  C   UNL     1      -9.182   4.752  68.373  1.00  0.00    -0.162 A  
HETATM    7  C   UNL     1      -9.229   6.160  68.102  1.00  0.00    -0.117 A  
HETATM    8  C   UNL     1      -9.397   6.381  66.761  1.00  0.00    -0.147 A  
HETATM    9  C   UNL     1      -9.419   7.723  66.142  1.00  0.00    -0.135 C  
HETATM   10  S   UNL     1      -9.580   4.954  65.863  1.00  0.00    -0.180 SA 
HETATM   11  C   UNL     1      -9.681   8.813  67.198  1.00  0.00    -0.191 C  
HETATM   12  N   UNL     1      -9.336   8.613  68.626  1.00  0.00    -0.142 NA 
HETATM   13  C   UNL     1      -9.099   7.243  69.125  1.00  0.00    -0.137 C  
BRANCH  12  14
HETATM   14  C   UNL     1     -10.272   9.400  69.511  1.00  0.00    -0.209 C  
BRANCH  14  15
HETATM   15  C   UNL     1     -10.375  10.902  69.209  1.00  0.00    -0.211 A  
HETATM   16  F   UNL     1     -12.601  11.045  70.060  1.00  0.00    -0.349 F  
HETATM   17  C   UNL     1      -9.353  11.588  68.526  1.00  0.00    -0.171 A  
HETATM   18  C   UNL     1     -11.547  11.628  69.477  1.00  0.00    -0.331 A  
HETATM   19  C   UNL     1     -11.700  12.974  69.123  1.00  0.00    -0.378 A  
HETATM   20  C   UNL     1      -9.491  12.937  68.176  1.00  0.00    -0.218 A  
HETATM   21  C   UNL     1     -10.663  13.631  68.476  1.00  0.00    -0.269 A  
ENDBRANCH  14  15
BRANCH  14  22
HETATM   22  C   UNL     1      -9.973   9.080  71.004  1.00  0.00    -0.279 C  
HETATM   23  O   UNL     1      -8.863   9.170  71.524  1.00  0.00    -0.330 OA 
BRANCH  22  24
HETATM   24  C   UNL     1     -11.145   8.628  71.828  1.00  0.00    -0.396 C  
HETATM   25  C   UNL     1     -11.672   7.213  71.720  1.00  0.00    -0.324 C  
HETATM   26  C   UNL     1     -10.907   7.632  72.939  1.00  0.00    -0.446 C  
ENDBRANCH  22  24
ENDBRANCH  14  22
ENDBRANCH  12  14
ENDBRANCH   4   5
ENDBRANCH   2   4
TORSDOF 6
ENDMDL
MODEL      179
REMARK 921   NORMALIZED FREE ENERGY PREDICTED BY IDOCK:   -3.99 KCAL/MOL
REMARK 922        TOTAL FREE ENERGY PREDICTED BY IDOCK:   -6.07 KCAL/MOL
REMARK 923 INTER-LIGAND FREE ENERGY PREDICTED BY IDOCK:   -5.25 KCAL/MOL
REMARK 924 INTRA-LIGAND FREE ENERGY PREDICTED BY IDOCK:   -0.82 KCAL/MOL
REMARK 927      BINDING AFFINITY PREDICTED BY RF-SCORE:    0.00 PKD
ROOT
HETATM    1  C   UNL     1     -12.717   9.274  72.080  1.00  0.00    -0.465 C  
HETATM    2  C   UNL     1     -12.703   7.788  71.866  1.00  0.00    -0.302 C  
HETATM    3  O   UNL     1     -13.726   7.120  71.783  1.00  0.00    -0.354 OA 
ENDROOT
BRANCH   2   4
HETATM    4  O   UNL     1     -11.424   7.361  71.779  1.00  0.00    -0.252 OA 
BRANCH   4   5
HETATM    5  C   UNL     1     -10.742   7.517  70.650  1.00  0.00    -0.230 A  
HETATM    6  C   UNL     1      -9.574   8.206  70.367  1.00  0.00    -0.171 A  
HETATM    7  C   UNL     1      -9.206   8.174  68.981  1.00  0.00    -0.148 A  
HETATM    8  C   UNL     1     -10.098   7.416  68.269  1.00  0.00    -0.177 A  
HETATM    9  C   UNL     1      -9.967   7.125  66.826  1.00  0.00    -0.278 C  
HETATM   10  S   UNL     1     -11.383   6.832  69.209  1.00  0.00    -0.100 SA 
HETATM   11  C   UNL     1      -9.000   8.116  66.150  1.00  0.00    -0.178 C  
HETATM   12  N   UNL     1      -7.930   8.804  66.912  1.00  0.00    -0.098 NA 
HETATM   13  C   UNL     1      -8.014   8.852  68.386  1.00  0.00    -0.105 C  
BRANCH  12  14
HETATM   14  C   UNL     1      -7.630  10.151  66.302  1.00  0.00    -0.111 C  
BRANCH  14  15
HETATM   15  C   UNL     1      -8.833  10.907  65.722  1.00  0.00    -0.202 A  
HETATM   16  F   UNL     1      -9.642  11.525  67.881  1.00  0.00    -0.161 F  
HETATM   17  C   UNL     1      -9.113  10.899  64.343  1.00  0.00    -0.175 A  
HETATM   18  C   UNL     1      -9.784  11.526  66.550  1.00  0.00    -0.203 A  
HETATM   19  C   UNL     1     -10.939  12.138  66.050  1.00  0.00    -0.332 A  
HETATM   20  C   UNL     1     -10.261  11.517  63.829  1.00  0.00    -0.429 A  
HETATM   21  C   UNL     1     -11.173  12.138  64.683  1.00  0.00    -0.374 A  
ENDBRANCH  14  15
BRANCH  14  22
HETATM   22  C   UNL     1      -6.434  10.023  65.315  1.00  0.00    -0.112 C  
HETATM   23  O   UNL     1      -5.724  10.961  64.959  1.00  0.00    -0.088 OA 
BRANCH  22  24
HETATM   24  C   UNL     1      -6.168   8.645  64.779  1.00  0.00    -0.065 C  
HETATM   25  C   UNL     1      -6.807   8.176  63.490  1.00  0.00    -0.076 C  
HETATM   26  C   UNL     1      -5.345   8.506  63.519  1.00  0.00    -0.062 C  
ENDBRANCH  22  24
ENDBRANCH  14  22
ENDBRANCH  12  14
ENDBRANCH   4   5
ENDBRANCH   2   4
TORSDOF 6
ENDMDL
MODEL      180
REMARK 921   NORMALIZED FREE ENERGY PREDICTED BY IDOCK:   -3.96 KCAL/MOL
REMARK 922        TOTAL FREE ENERGY PREDICTED BY IDOCK:   -6.04 KCAL/MOL
REMARK 923 INTER-LIGAND FREE ENERGY PREDICTED BY IDOCK:   -5.31 KCAL/MOL
REMARK 924 INTRA-LIGAND FREE ENERGY PREDICTED BY IDOCK:   -0.73 KCAL/MOL
REMARK 927      BINDING AFFINITY PREDICTED BY RF-SCORE:    0.00 PKD
ROOT
HETATM    1  C   UNL     1      -7.706   1.713  64.849  1.00  0.00    -0.064 C  
HETATM    2  C   UNL     1      -7.477   2.707  65.951  1.00  0.00    -0.068 C  
HETATM    3  O   UNL     1      -6.380   2.887  66.464  1.00  0.00    -0.027 OA 
ENDROOT
BRANCH   2   4
HETATM    4  O   UNL     1      -8.641   3.331  66.239  1.00  0.00    -0.111 OA 
BRANCH   4   5
HETATM    5  C   UNL     1      -8.674   4.651  66.384  1.00  0.00    -0.112 A  
HETATM    6  C   UNL     1      -8.918   5.450  67.489  1.00  0.00    -0.108 A  
HETATM    7  C   UNL     1      -8.923   6.854  67.196  1.00  0.00    -0.121 A  
HETATM    8  C   UNL     1      -8.636   7.065  65.874  1.00  0.00    -0.145 A  
HETATM    9  C   UNL     1      -8.496   8.404  65.264  1.00  0.00    -0.189 C  
HETATM   10  S   UNL     1      -8.452   5.630  64.990  1.00  0.00    -0.105 SA 
HETATM   11  C   UNL     1      -9.140   9.485  66.152  1.00  0.00    -0.166 C  
HETATM   12  N   UNL     1      -9.291   9.302  67.616  1.00  0.00    -0.128 NA 
HETATM   13  C   UNL     1      -9.186   7.943  68.186  1.00  0.00    -0.136 C  
BRANCH  12  14
HETATM   14  C   UNL     1     -10.500  10.053  68.120  1.00  0.00    -0.211 C  
BRANCH  14  15
HETATM   15  C   UNL     1     -10.621  11.513  67.662  1.00  0.00    -0.235 A  
HETATM   16  F   UNL     1      -8.556  12.134  68.686  1.00  0.00    -0.155 F  
HETATM   17  C   UNL     1     -11.771  11.985  67.003  1.00  0.00    -0.341 A  
HETATM   18  C   UNL     1      -9.652  12.473  67.997  1.00  0.00    -0.212 A  
HETATM   19  C   UNL     1      -9.786  13.828  67.674  1.00  0.00    -0.234 A  
HETATM   20  C   UNL     1     -11.912  13.338  66.666  1.00  0.00    -0.446 A  
HETATM   21  C   UNL     1     -10.920  14.259  66.999  1.00  0.00    -0.305 A  
ENDBRANCH  14  15
BRANCH  14  22
HETATM   22  C   UNL     1     -10.625   9.866  69.660  1.00  0.00    -0.250 C  
HETATM   23  O   UNL     1      -9.671   9.733  70.423  1.00  0.00    -0.255 OA 
BRANCH  22  24
HETATM   24  C   UNL     1     -12.024   9.849  70.209  1.00  0.00    -0.209 C  
HETATM   25  C   UNL     1     -12.273   9.833  71.702  1.00  0.00    -0.488 C  
HETATM   26  C   UNL     1     -12.539  11.082  70.915  1.00  0.00    -0.488 C  
ENDBRANCH  22  24
ENDBRANCH  14  22
ENDBRANCH  12  14
ENDBRANCH   4   5
ENDBRANCH   2   4
TORSDOF 6
ENDMDL
MODEL      181
REMARK 921   NORMALIZED FREE ENERGY PREDICTED BY IDOCK:   -3.95 KCAL/MOL
REMARK 922        TOTAL FREE ENERGY PREDICTED BY IDOCK:   -6.03 KCAL/MOL
REMARK 923 INTER-LIGAND FREE ENERGY PREDICTED BY IDOCK:   -5.35 KCAL/MOL
REMARK 924 INTRA-LIGAND FREE ENERGY PREDICTED BY IDOCK:   -0.68 KCAL/MOL
REMARK 927      BINDING AFFINITY PREDICTED BY RF-SCORE:    0.00 PKD
ROOT
HETATM    1  C   UNL     1     -11.785  12.482  67.347  1.00  0.00    -0.432 C  
HETATM    2  C   UNL     1     -11.786  12.907  68.787  1.00  0.00    -0.323 C  
HETATM    3  O   UNL     1     -11.209  13.912  69.182  1.00  0.00    -0.253 OA 
ENDROOT
BRANCH   2   4
HETATM    4  O   UNL     1     -12.509  12.025  69.512  1.00  0.00    -0.052 OA 
BRANCH   4   5
HETATM    5  C   UNL     1     -11.905  11.031  70.153  1.00  0.00    -0.357 A  
HETATM    6  C   UNL     1     -10.661  10.444  69.981  1.00  0.00    -0.321 A  
HETATM    7  C   UNL     1     -10.419   9.336  70.858  1.00  0.00    -0.372 A  
HETATM    8  C   UNL     1     -11.484   9.154  71.700  1.00  0.00    -0.381 A  
HETATM    9  C   UNL     1     -11.524   8.138  72.773  1.00  0.00    -0.397 C  
HETATM   10  S   UNL     1     -12.770  10.217  71.395  1.00  0.00    -0.462 SA 
HETATM   11  C   UNL     1     -10.458   7.051  72.542  1.00  0.00    -0.216 C  
HETATM   12  N   UNL     1      -9.226   7.319  71.761  1.00  0.00    -0.142 NA 
HETATM   13  C   UNL     1      -9.179   8.500  70.874  1.00  0.00    -0.175 C  
BRANCH  12  14
HETATM   14  C   UNL     1      -8.747   6.061  71.080  1.00  0.00    -0.132 C  
BRANCH  14  15
HETATM   15  C   UNL     1      -7.644   6.248  70.028  1.00  0.00    -0.096 A  
HETATM   16  F   UNL     1      -5.961   6.617  71.680  1.00  0.00    -0.034 F  
HETATM   17  C   UNL     1      -7.935   6.268  68.651  1.00  0.00    -0.105 A  
HETATM   18  C   UNL     1      -6.320   6.544  70.393  1.00  0.00    -0.043 A  
HETATM   19  C   UNL     1      -5.318   6.813  69.453  1.00  0.00    -0.014 A  
HETATM   20  C   UNL     1      -6.938   6.527  67.701  1.00  0.00    -0.079 A  
HETATM   21  C   UNL     1      -5.630   6.797  68.101  1.00  0.00    -0.016 A  
ENDBRANCH  14  15
BRANCH  14  22
HETATM   22  C   UNL     1      -9.969   5.245  70.568  1.00  0.00    -0.229 C  
HETATM   23  O   UNL     1     -10.868   5.707  69.869  1.00  0.00    -0.331 OA 
BRANCH  22  24
HETATM   24  C   UNL     1     -10.017   3.802  70.986  1.00  0.00    -0.118 C  
HETATM   25  C   UNL     1      -9.504   2.711  70.071  1.00  0.00    -0.148 C  
HETATM   26  C   UNL     1      -8.717   3.093  71.289  1.00  0.00    -0.120 C  
ENDBRANCH  22  24
ENDBRANCH  14  22
ENDBRANCH  12  14
ENDBRANCH   4   5
ENDBRANCH   2   4
TORSDOF 6
ENDMDL
MODEL      182
REMARK 921   NORMALIZED FREE ENERGY PREDICTED BY IDOCK:   -3.93 KCAL/MOL
REMARK 922        TOTAL FREE ENERGY PREDICTED BY IDOCK:   -6.00 KCAL/MOL
REMARK 923 INTER-LIGAND FREE ENERGY PREDICTED BY IDOCK:   -5.86 KCAL/MOL
REMARK 924 INTRA-LIGAND FREE ENERGY PREDICTED BY IDOCK:   -0.14 KCAL/MOL
REMARK 927      BINDING AFFINITY PREDICTED BY RF-SCORE:    0.00 PKD
ROOT
HETATM    1  C   UNL     1     -14.406   8.078  71.802  1.00  0.00    -0.583 C  
HETATM    2  C   UNL     1     -13.301   9.034  72.148  1.00  0.00    -0.455 C  
HETATM    3  O   UNL     1     -13.498  10.221  72.372  1.00  0.00    -0.310 OA 
ENDROOT
BRANCH   2   4
HETATM    4  O   UNL     1     -12.126   8.368  72.174  1.00  0.00    -0.327 OA 
BRANCH   4   5
HETATM    5  C   UNL     1     -11.234   8.547  71.206  1.00  0.00    -0.265 A  
HETATM    6  C   UNL     1     -10.373   9.597  70.929  1.00  0.00    -0.334 A  
HETATM    7  C   UNL     1      -9.608   9.415  69.730  1.00  0.00    -0.216 A  
HETATM    8  C   UNL     1      -9.892   8.200  69.163  1.00  0.00    -0.182 A  
HETATM    9  C   UNL     1      -9.222   7.676  67.955  1.00  0.00    -0.139 C  
HETATM   10  S   UNL     1     -11.097   7.340  69.989  1.00  0.00    -0.206 SA 
HETATM   11  C   UNL     1      -8.527   8.808  67.176  1.00  0.00    -0.110 C  
HETATM   12  N   UNL     1      -8.076  10.052  67.845  1.00  0.00    -0.108 NA 
HETATM   13  C   UNL     1      -8.625  10.395  69.173  1.00  0.00    -0.164 C  
BRANCH  12  14
HETATM   14  C   UNL     1      -8.116  11.214  66.882  1.00  0.00    -0.150 C  
BRANCH  14  15
HETATM   15  C   UNL     1      -8.423  10.863  65.420  1.00  0.00    -0.088 A  
HETATM   16  F   UNL     1     -10.499  12.040  65.445  1.00  0.00    -0.269 F  
HETATM   17  C   UNL     1      -7.594   9.999  64.680  1.00  0.00    -0.143 A  
HETATM   18  C   UNL     1      -9.613  11.275  64.797  1.00  0.00    -0.235 A  
HETATM   19  C   UNL     1      -9.960  10.887  63.498  1.00  0.00    -0.419 A  
HETATM   20  C   UNL     1      -7.926   9.612  63.375  1.00  0.00    -0.145 A  
HETATM   21  C   UNL     1      -9.108  10.058  62.783  1.00  0.00    -0.304 A  
ENDBRANCH  14  15
BRANCH  14  22
HETATM   22  C   UNL     1      -6.840  12.086  67.063  1.00  0.00    -0.097 C  
HETATM   23  O   UNL     1      -5.776  11.887  66.482  1.00  0.00    -0.265 OA 
BRANCH  22  24
HETATM   24  C   UNL     1      -6.958  13.235  68.025  1.00  0.00    -0.120 C  
HETATM   25  C   UNL     1      -6.143  13.267  69.300  1.00  0.00    -0.100 C  
HETATM   26  C   UNL     1      -5.789  14.182  68.166  1.00  0.00    -0.129 C  
ENDBRANCH  22  24
ENDBRANCH  14  22
ENDBRANCH  12  14
ENDBRANCH   4   5
ENDBRANCH   2   4
TORSDOF 6
ENDMDL
MODEL      183
REMARK 921   NORMALIZED FREE ENERGY PREDICTED BY IDOCK:   -3.93 KCAL/MOL
REMARK 922        TOTAL FREE ENERGY PREDICTED BY IDOCK:   -5.99 KCAL/MOL
REMARK 923 INTER-LIGAND FREE ENERGY PREDICTED BY IDOCK:   -5.91 KCAL/MOL
REMARK 924 INTRA-LIGAND FREE ENERGY PREDICTED BY IDOCK:   -0.08 KCAL/MOL
REMARK 927      BINDING AFFINITY PREDICTED BY RF-SCORE:    0.00 PKD
ROOT
HETATM    1  C   UNL     1      -8.926   5.666  65.402  1.00  0.00    -0.079 C  
HETATM    2  C   UNL     1      -9.842   4.563  65.848  1.00  0.00    -0.226 C  
HETATM    3  O   UNL     1      -9.981   3.522  65.220  1.00  0.00    -0.111 OA 
ENDROOT
BRANCH   2   4
HETATM    4  O   UNL     1     -10.436   4.919  67.009  1.00  0.00    -0.194 OA 
BRANCH   4   5
HETATM    5  C   UNL     1     -10.318   6.159  67.469  1.00  0.00    -0.208 A  
HETATM    6  C   UNL     1     -10.999   7.326  67.160  1.00  0.00    -0.285 A  
HETATM    7  C   UNL     1     -10.507   8.481  67.853  1.00  0.00    -0.262 A  
HETATM    8  C   UNL     1      -9.491   8.131  68.702  1.00  0.00    -0.147 A  
HETATM    9  C   UNL     1      -8.814   9.078  69.612  1.00  0.00    -0.145 C  
HETATM   10  S   UNL     1      -9.077   6.490  68.612  1.00  0.00    -0.127 SA 
HETATM   11  C   UNL     1      -9.062  10.534  69.178  1.00  0.00    -0.166 C  
HETATM   12  N   UNL     1     -10.261  10.921  68.396  1.00  0.00    -0.171 NA 
HETATM   13  C   UNL     1     -11.030   9.873  67.693  1.00  0.00    -0.200 C  
BRANCH  12  14
HETATM   14  C   UNL     1      -9.959  12.109  67.516  1.00  0.00    -0.197 C  
BRANCH  14  15
HETATM   15  C   UNL     1     -10.284  13.485  68.113  1.00  0.00    -0.249 A  
HETATM   16  F   UNL     1     -12.042  12.615  69.473  1.00  0.00    -0.330 F  
HETATM   17  C   UNL     1      -9.645  14.654  67.661  1.00  0.00    -0.212 A  
HETATM   18  C   UNL     1     -11.328  13.659  69.037  1.00  0.00    -0.287 A  
HETATM   19  C   UNL     1     -11.707  14.915  69.523  1.00  0.00    -0.353 A  
HETATM   20  C   UNL     1     -10.009  15.917  68.148  1.00  0.00    -0.222 A  
HETATM   21  C   UNL     1     -11.038  16.047  69.079  1.00  0.00    -0.320 A  
ENDBRANCH  14  15
BRANCH  14  22
HETATM   22  C   UNL     1     -10.565  11.879  66.101  1.00  0.00    -0.258 C  
HETATM   23  O   UNL     1     -11.764  11.948  65.841  1.00  0.00    -0.424 OA 
BRANCH  22  24
HETATM   24  C   UNL     1      -9.585  11.549  65.011  1.00  0.00    -0.222 C  
HETATM   25  C   UNL     1      -8.669  10.350  65.127  1.00  0.00    -0.194 C  
HETATM   26  C   UNL     1      -9.825  10.313  64.174  1.00  0.00    -0.319 C  
ENDBRANCH  22  24
ENDBRANCH  14  22
ENDBRANCH  12  14
ENDBRANCH   4   5
ENDBRANCH   2   4
TORSDOF 6
ENDMDL
MODEL      184
REMARK 921   NORMALIZED FREE ENERGY PREDICTED BY IDOCK:   -3.92 KCAL/MOL
REMARK 922        TOTAL FREE ENERGY PREDICTED BY IDOCK:   -5.98 KCAL/MOL
REMARK 923 INTER-LIGAND FREE ENERGY PREDICTED BY IDOCK:   -6.23 KCAL/MOL
REMARK 924 INTRA-LIGAND FREE ENERGY PREDICTED BY IDOCK:    0.25 KCAL/MOL
REMARK 927      BINDING AFFINITY PREDICTED BY RF-SCORE:    0.00 PKD
ROOT
HETATM    1  C   UNL     1      -8.504   3.823  66.015  1.00  0.00    -0.110 C  
HETATM    2  C   UNL     1      -9.517   4.841  66.454  1.00  0.00    -0.158 C  
HETATM    3  O   UNL     1     -10.342   4.619  67.331  1.00  0.00    -0.096 OA 
ENDROOT
BRANCH   2   4
HETATM    4  O   UNL     1      -9.343   5.979  65.747  1.00  0.00    -0.092 OA 
BRANCH   4   5
HETATM    5  C   UNL     1      -9.462   7.161  66.341  1.00  0.00    -0.123 A  
HETATM    6  C   UNL     1     -10.518   7.750  67.017  1.00  0.00    -0.419 A  
HETATM    7  C   UNL     1     -10.246   9.088  67.457  1.00  0.00    -0.302 A  
HETATM    8  C   UNL     1      -8.965   9.446  67.132  1.00  0.00    -0.130 A  
HETATM    9  C   UNL     1      -8.349  10.736  67.504  1.00  0.00    -0.115 C  
HETATM   10  S   UNL     1      -8.139   8.255  66.251  1.00  0.00    -0.114 SA 
HETATM   11  C   UNL     1      -9.423  11.771  67.884  1.00  0.00    -0.191 C  
HETATM   12  N   UNL     1     -10.754  11.362  68.395  1.00  0.00    -0.192 NA 
HETATM   13  C   UNL     1     -11.209   9.972  68.183  1.00  0.00    -0.127 C  
BRANCH  12  14
HETATM   14  C   UNL     1     -11.802  12.380  68.018  1.00  0.00    -0.316 C  
BRANCH  14  15
HETATM   15  C   UNL     1     -11.494  13.230  66.777  1.00  0.00    -0.387 A  
HETATM   16  F   UNL     1      -9.975  14.636  67.966  1.00  0.00    -0.209 F  
HETATM   17  C   UNL     1     -12.176  13.034  65.562  1.00  0.00    -0.521 A  
HETATM   18  C   UNL     1     -10.618  14.326  66.834  1.00  0.00    -0.273 A  
HETATM   19  C   UNL     1     -10.394  15.174  65.742  1.00  0.00    -0.359 A  
HETATM   20  C   UNL     1     -11.954  13.870  64.459  1.00  0.00    -0.464 A  
HETATM   21  C   UNL     1     -11.061  14.938  64.549  1.00  0.00    -0.249 A  
ENDBRANCH  14  15
BRANCH  14  22
HETATM   22  C   UNL     1     -12.192  13.217  69.270  1.00  0.00    -0.147 C  
HETATM   23  O   UNL     1     -12.661  14.353  69.227  1.00  0.00    -0.138 OA 
BRANCH  22  24
HETATM   24  C   UNL     1     -11.958  12.559  70.600  1.00  0.00    -0.196 C  
HETATM   25  C   UNL     1     -12.956  12.709  71.727  1.00  0.00    -0.417 C  
HETATM   26  C   UNL     1     -12.844  11.402  71.000  1.00  0.00    -0.381 C  
ENDBRANCH  22  24
ENDBRANCH  14  22
ENDBRANCH  12  14
ENDBRANCH   4   5
ENDBRANCH   2   4
TORSDOF 6
ENDMDL
MODEL      185
REMARK 921   NORMALIZED FREE ENERGY PREDICTED BY IDOCK:   -3.88 KCAL/MOL
REMARK 922        TOTAL FREE ENERGY PREDICTED BY IDOCK:   -5.93 KCAL/MOL
REMARK 923 INTER-LIGAND FREE ENERGY PREDICTED BY IDOCK:   -5.87 KCAL/MOL
REMARK 924 INTRA-LIGAND FREE ENERGY PREDICTED BY IDOCK:   -0.06 KCAL/MOL
REMARK 927      BINDING AFFINITY PREDICTED BY RF-SCORE:    0.00 PKD
ROOT
HETATM    1  C   UNL     1     -10.893  12.465  67.430  1.00  0.00    -0.273 C  
HETATM    2  C   UNL     1     -10.323  12.325  66.048  1.00  0.00    -0.245 C  
HETATM    3  O   UNL     1     -10.002  13.287  65.362  1.00  0.00    -0.266 OA 
ENDROOT
BRANCH   2   4
HETATM    4  O   UNL     1     -10.229  11.014  65.735  1.00  0.00    -0.244 OA 
BRANCH   4   5
HETATM    5  C   UNL     1      -9.802  10.139  66.638  1.00  0.00    -0.200 A  
HETATM    6  C   UNL     1     -10.486   9.288  67.492  1.00  0.00    -0.338 A  
HETATM    7  C   UNL     1      -9.631   8.541  68.368  1.00  0.00    -0.157 A  
HETATM    8  C   UNL     1      -8.317   8.827  68.110  1.00  0.00    -0.122 A  
HETATM    9  C   UNL     1      -7.181   8.174  68.792  1.00  0.00    -0.083 C  
HETATM   10  S   UNL     1      -8.111  10.014  66.917  1.00  0.00    -0.117 SA 
HETATM   11  C   UNL     1      -7.637   7.497  70.098  1.00  0.00    -0.088 C  
HETATM   12  N   UNL     1      -9.035   7.043  70.294  1.00  0.00    -0.148 NA 
HETATM   13  C   UNL     1     -10.094   7.573  69.410  1.00  0.00    -0.190 C  
BRANCH  12  14
HETATM   14  C   UNL     1      -9.412   7.105  71.754  1.00  0.00    -0.151 C  
BRANCH  14  15
HETATM   15  C   UNL     1      -9.919   5.794  72.370  1.00  0.00    -0.194 A  
HETATM   16  F   UNL     1     -10.062   6.734  74.559  1.00  0.00    -0.329 F  
HETATM   17  C   UNL     1     -10.009   4.610  71.614  1.00  0.00    -0.262 A  
HETATM   18  C   UNL     1     -10.188   5.680  73.744  1.00  0.00    -0.231 A  
HETATM   19  C   UNL     1     -10.559   4.472  74.346  1.00  0.00    -0.289 A  
HETATM   20  C   UNL     1     -10.389   3.397  72.203  1.00  0.00    -0.075 A  
HETATM   21  C   UNL     1     -10.666   3.328  73.568  1.00  0.00    -0.306 A  
ENDBRANCH  14  15
BRANCH  14  22
HETATM   22  C   UNL     1     -10.353   8.319  72.000  1.00  0.00    -0.279 C  
HETATM   23  O   UNL     1     -10.035   9.492  71.818  1.00  0.00    -0.088 OA 
BRANCH  22  24
HETATM   24  C   UNL     1     -11.732   7.992  72.499  1.00  0.00    -0.446 C  
HETATM   25  C   UNL     1     -12.833   9.030  72.476  1.00  0.00    -0.408 C  
HETATM   26  C   UNL     1     -12.860   7.894  71.497  1.00  0.00    -0.340 C  
ENDBRANCH  22  24
ENDBRANCH  14  22
ENDBRANCH  12  14
ENDBRANCH   4   5
ENDBRANCH   2   4
TORSDOF 6
ENDMDL
MODEL      186
REMARK 921   NORMALIZED FREE ENERGY PREDICTED BY IDOCK:   -3.88 KCAL/MOL
REMARK 922        TOTAL FREE ENERGY PREDICTED BY IDOCK:   -5.92 KCAL/MOL
REMARK 923 INTER-LIGAND FREE ENERGY PREDICTED BY IDOCK:   -5.47 KCAL/MOL
REMARK 924 INTRA-LIGAND FREE ENERGY PREDICTED BY IDOCK:   -0.46 KCAL/MOL
REMARK 927      BINDING AFFINITY PREDICTED BY RF-SCORE:    0.00 PKD
ROOT
HETATM    1  C   UNL     1      -5.670   4.040  67.723  1.00  0.00    -0.022 C  
HETATM    2  C   UNL     1      -6.958   4.459  68.370  1.00  0.00    -0.052 C  
HETATM    3  O   UNL     1      -7.997   3.823  68.252  1.00  0.00    -0.071 OA 
ENDROOT
BRANCH   2   4
HETATM    4  O   UNL     1      -6.756   5.597  69.071  1.00  0.00    -0.055 OA 
BRANCH   4   5
HETATM    5  C   UNL     1      -7.570   6.635  68.911  1.00  0.00    -0.101 A  
HETATM    6  C   UNL     1      -8.102   7.221  67.774  1.00  0.00    -0.115 A  
HETATM    7  C   UNL     1      -8.899   8.383  68.043  1.00  0.00    -0.142 A  
HETATM    8  C   UNL     1      -8.974   8.607  69.393  1.00  0.00    -0.145 A  
HETATM    9  C   UNL     1      -9.775   9.686  70.007  1.00  0.00    -0.280 C  
HETATM   10  S   UNL     1      -8.052   7.515  70.306  1.00  0.00    -0.113 SA 
HETATM   11  C   UNL     1     -10.130  10.768  68.970  1.00  0.00    -0.211 C  
HETATM   12  N   UNL     1     -10.205  10.463  67.521  1.00  0.00    -0.198 NA 
HETATM   13  C   UNL     1      -9.570   9.231  67.010  1.00  0.00    -0.171 C  
BRANCH  12  14
HETATM   14  C   UNL     1      -9.848  11.682  66.705  1.00  0.00    -0.200 C  
BRANCH  14  15
HETATM   15  C   UNL     1      -9.017  12.751  67.428  1.00  0.00    -0.195 A  
HETATM   16  F   UNL     1     -10.954  13.855  68.282  1.00  0.00    -0.237 F  
HETATM   17  C   UNL     1      -7.618  12.818  67.287  1.00  0.00    -0.116 A  
HETATM   18  C   UNL     1      -9.623  13.792  68.151  1.00  0.00    -0.216 A  
HETATM   19  C   UNL     1      -8.893  14.832  68.738  1.00  0.00    -0.179 A  
HETATM   20  C   UNL     1      -6.875  13.848  67.878  1.00  0.00    -0.166 A  
HETATM   21  C   UNL     1      -7.512  14.854  68.605  1.00  0.00    -0.124 A  
ENDBRANCH  14  15
BRANCH  14  22
HETATM   22  C   UNL     1     -11.125  12.241  66.014  1.00  0.00    -0.309 C  
HETATM   23  O   UNL     1     -12.261  12.148  66.475  1.00  0.00    -0.584 OA 
BRANCH  22  24
HETATM   24  C   UNL     1     -10.912  12.929  64.695  1.00  0.00    -0.357 C  
HETATM   25  C   UNL     1     -10.487  12.147  63.471  1.00  0.00    -0.490 C  
HETATM   26  C   UNL     1     -11.891  12.662  63.575  1.00  0.00    -0.619 C  
ENDBRANCH  22  24
ENDBRANCH  14  22
ENDBRANCH  12  14
ENDBRANCH   4   5
ENDBRANCH   2   4
TORSDOF 6
ENDMDL
MODEL      187
REMARK 921   NORMALIZED FREE ENERGY PREDICTED BY IDOCK:   -3.86 KCAL/MOL
REMARK 922        TOTAL FREE ENERGY PREDICTED BY IDOCK:   -5.90 KCAL/MOL
REMARK 923 INTER-LIGAND FREE ENERGY PREDICTED BY IDOCK:   -5.47 KCAL/MOL
REMARK 924 INTRA-LIGAND FREE ENERGY PREDICTED BY IDOCK:   -0.44 KCAL/MOL
REMARK 927      BINDING AFFINITY PREDICTED BY RF-SCORE:    0.00 PKD
ROOT
HETATM    1  C   UNL     1      -6.038  18.433  69.706  1.00  0.00    -0.225 C  
HETATM    2  C   UNL     1      -7.003  17.790  68.753  1.00  0.00    -0.257 C  
HETATM    3  O   UNL     1      -8.191  18.084  68.713  1.00  0.00    -0.289 OA 
ENDROOT
BRANCH   2   4
HETATM    4  O   UNL     1      -6.345  16.890  67.989  1.00  0.00    -0.137 OA 
BRANCH   4   5
HETATM    5  C   UNL     1      -6.751  15.626  67.946  1.00  0.00    -0.150 A  
HETATM    6  C   UNL     1      -7.540  14.942  67.036  1.00  0.00    -0.027 A  
HETATM    7  C   UNL     1      -7.793  13.579  67.401  1.00  0.00    -0.157 A  
HETATM    8  C   UNL     1      -7.141  13.268  68.565  1.00  0.00    -0.105 A  
HETATM    9  C   UNL     1      -7.139  11.924  69.177  1.00  0.00    -0.053 C  
HETATM   10  S   UNL     1      -6.322  14.587  69.247  1.00  0.00    -0.126 SA 
HETATM   11  C   UNL     1      -8.290  11.064  68.621  1.00  0.00    -0.153 C  
HETATM   12  N   UNL     1      -8.873  11.315  67.281  1.00  0.00    -0.148 NA 
HETATM   13  C   UNL     1      -8.634  12.617  66.624  1.00  0.00    -0.029 C  
BRANCH  12  14
HETATM   14  C   UNL     1     -10.327  10.908  67.253  1.00  0.00    -0.216 C  
BRANCH  14  15
HETATM   15  C   UNL     1     -11.175  11.535  66.137  1.00  0.00    -0.265 A  
HETATM   16  F   UNL     1     -10.268  10.091  64.467  1.00  0.00    -0.387 F  
HETATM   17  C   UNL     1     -11.992  12.656  66.375  1.00  0.00    -0.425 A  
HETATM   18  C   UNL     1     -11.073  11.105  64.804  1.00  0.00    -0.066 A  
HETATM   19  C   UNL     1     -11.764  11.723  63.755  1.00  0.00    -0.499 A  
HETATM   20  C   UNL     1     -12.696  13.277  65.334  1.00  0.00    -0.460 A  
HETATM   21  C   UNL     1     -12.583  12.809  64.025  1.00  0.00    -0.379 A  
ENDBRANCH  14  15
BRANCH  14  22
HETATM   22  C   UNL     1     -10.942  11.066  68.673  1.00  0.00    -0.224 C  
HETATM   23  O   UNL     1     -10.955  12.117  69.310  1.00  0.00    -0.200 OA 
BRANCH  22  24
HETATM   24  C   UNL     1     -11.545   9.826  69.270  1.00  0.00     0.113 C  
HETATM   25  C   UNL     1     -10.670   8.679  69.727  1.00  0.00    -0.215 C  
HETATM   26  C   UNL     1     -11.336   9.558  70.743  1.00  0.00    -0.387 C  
ENDBRANCH  22  24
ENDBRANCH  14  22
ENDBRANCH  12  14
ENDBRANCH   4   5
ENDBRANCH   2   4
TORSDOF 6
ENDMDL
MODEL      188
REMARK 921   NORMALIZED FREE ENERGY PREDICTED BY IDOCK:   -3.86 KCAL/MOL
REMARK 922        TOTAL FREE ENERGY PREDICTED BY IDOCK:   -5.90 KCAL/MOL
REMARK 923 INTER-LIGAND FREE ENERGY PREDICTED BY IDOCK:   -5.49 KCAL/MOL
REMARK 924 INTRA-LIGAND FREE ENERGY PREDICTED BY IDOCK:   -0.41 KCAL/MOL
REMARK 927      BINDING AFFINITY PREDICTED BY RF-SCORE:    0.00 PKD
ROOT
HETATM    1  C   UNL     1     -11.904  11.316  68.425  1.00  0.00    -0.331 C  
HETATM    2  C   UNL     1     -11.882  12.208  69.632  1.00  0.00    -0.322 C  
HETATM    3  O   UNL     1     -11.460  13.357  69.599  1.00  0.00    -0.261 OA 
ENDROOT
BRANCH   2   4
HETATM    4  O   UNL     1     -12.395  11.542  70.690  1.00  0.00    -0.361 OA 
BRANCH   4   5
HETATM    5  C   UNL     1     -11.943  10.333  71.002  1.00  0.00    -0.385 A  
HETATM    6  C   UNL     1     -10.664   9.800  71.006  1.00  0.00    -0.342 A  
HETATM    7  C   UNL     1     -10.619   8.410  71.355  1.00  0.00    -0.296 A  
HETATM    8  C   UNL     1     -11.877   7.952  71.648  1.00  0.00    -0.288 A  
HETATM    9  C   UNL     1     -12.168   6.579  72.111  1.00  0.00    -0.277 C  
HETATM   10  S   UNL     1     -13.085   9.122  71.430  1.00  0.00    -0.270 SA 
HETATM   11  C   UNL     1     -10.997   5.630  71.795  1.00  0.00    -0.226 C  
HETATM   12  N   UNL     1      -9.608   6.129  71.644  1.00  0.00    -0.152 NA 
HETATM   13  C   UNL     1      -9.383   7.571  71.411  1.00  0.00    -0.141 C  
BRANCH  12  14
HETATM   14  C   UNL     1      -8.834   5.258  70.686  1.00  0.00    -0.130 C  
BRANCH  14  15
HETATM   15  C   UNL     1      -9.135   5.469  69.196  1.00  0.00    -0.127 A  
HETATM   16  F   UNL     1      -6.824   5.433  68.598  1.00  0.00    -0.050 F  
HETATM   17  C   UNL     1     -10.443   5.705  68.734  1.00  0.00    -0.289 A  
HETATM   18  C   UNL     1      -8.107   5.572  68.244  1.00  0.00    -0.096 A  
HETATM   19  C   UNL     1      -8.350   5.860  66.896  1.00  0.00    -0.108 A  
HETATM   20  C   UNL     1     -10.700   5.985  67.386  1.00  0.00    -0.393 A  
HETATM   21  C   UNL     1      -9.655   6.060  66.466  1.00  0.00    -0.182 A  
ENDBRANCH  14  15
BRANCH  14  22
HETATM   22  C   UNL     1      -8.926   3.772  71.139  1.00  0.00    -0.098 C  
HETATM   23  O   UNL     1      -9.753   2.967  70.716  1.00  0.00    -0.162 OA 
BRANCH  22  24
HETATM   24  C   UNL     1      -7.923   3.335  72.169  1.00  0.00    -0.059 C  
HETATM   25  C   UNL     1      -7.226   4.346  73.053  1.00  0.00    -0.074 C  
HETATM   26  C   UNL     1      -8.286   3.458  73.631  1.00  0.00    -0.075 C  
ENDBRANCH  22  24
ENDBRANCH  14  22
ENDBRANCH  12  14
ENDBRANCH   4   5
ENDBRANCH   2   4
TORSDOF 6
ENDMDL
MODEL      189
REMARK 921   NORMALIZED FREE ENERGY PREDICTED BY IDOCK:   -3.85 KCAL/MOL
REMARK 922        TOTAL FREE ENERGY PREDICTED BY IDOCK:   -5.88 KCAL/MOL
REMARK 923 INTER-LIGAND FREE ENERGY PREDICTED BY IDOCK:   -5.28 KCAL/MOL
REMARK 924 INTRA-LIGAND FREE ENERGY PREDICTED BY IDOCK:   -0.60 KCAL/MOL
REMARK 927      BINDING AFFINITY PREDICTED BY RF-SCORE:    0.00 PKD
ROOT
HETATM    1  C   UNL     1     -13.185  15.605  73.202  1.00  0.00    -0.674 C  
HETATM    2  C   UNL     1     -13.279  15.705  71.706  1.00  0.00    -0.465 C  
HETATM    3  O   UNL     1     -14.316  15.495  71.091  1.00  0.00    -0.516 OA 
ENDROOT
BRANCH   2   4
HETATM    4  O   UNL     1     -12.074  16.062  71.207  1.00  0.00    -0.417 OA 
BRANCH   4   5
HETATM    5  C   UNL     1     -11.528  15.364  70.218  1.00  0.00    -0.316 A  
HETATM    6  C   UNL     1     -11.844  14.128  69.677  1.00  0.00    -0.379 A  
HETATM    7  C   UNL     1     -10.946  13.703  68.643  1.00  0.00    -0.290 A  
HETATM    8  C   UNL     1     -10.000  14.666  68.409  1.00  0.00    -0.227 A  
HETATM    9  C   UNL     1      -8.966  14.569  67.358  1.00  0.00    -0.207 C  
HETATM   10  S   UNL     1     -10.126  15.998  69.450  1.00  0.00    -0.271 SA 
HETATM   11  C   UNL     1      -8.798  13.114  66.882  1.00  0.00    -0.179 C  
HETATM   12  N   UNL     1      -9.898  12.126  66.994  1.00  0.00    -0.201 NA 
HETATM   13  C   UNL     1     -11.027  12.405  67.906  1.00  0.00    -0.228 C  
BRANCH  12  14
HETATM   14  C   UNL     1      -9.343  10.733  67.167  1.00  0.00    -0.155 C  
BRANCH  14  15
HETATM   15  C   UNL     1      -7.928  10.504  66.618  1.00  0.00    -0.125 A  
HETATM   16  F   UNL     1      -8.573  11.044  64.385  1.00  0.00    -0.139 F  
HETATM   17  C   UNL     1      -6.892  10.009  67.433  1.00  0.00    -0.082 A  
HETATM   18  C   UNL     1      -7.635  10.646  65.252  1.00  0.00    -0.006 A  
HETATM   19  C   UNL     1      -6.377  10.351  64.712  1.00  0.00    -0.074 A  
HETATM   20  C   UNL     1      -5.627   9.719  66.907  1.00  0.00    -0.046 A  
HETATM   21  C   UNL     1      -5.369   9.892  65.547  1.00  0.00    -0.052 A  
ENDBRANCH  14  15
BRANCH  14  22
HETATM   22  C   UNL     1     -10.385   9.689  66.670  1.00  0.00    -0.208 C  
HETATM   23  O   UNL     1     -11.005   9.778  65.613  1.00  0.00     0.602 OA 
BRANCH  22  24
HETATM   24  C   UNL     1     -10.621   8.514  67.575  1.00  0.00    -0.284 C  
HETATM   25  C   UNL     1     -11.135   7.201  67.025  1.00  0.00    -0.159 C  
HETATM   26  C   UNL     1      -9.705   7.317  67.461  1.00  0.00    -0.181 C  
ENDBRANCH  22  24
ENDBRANCH  14  22
ENDBRANCH  12  14
ENDBRANCH   4   5
ENDBRANCH   2   4
TORSDOF 6
ENDMDL
MODEL      190
REMARK 921   NORMALIZED FREE ENERGY PREDICTED BY IDOCK:   -3.84 KCAL/MOL
REMARK 922        TOTAL FREE ENERGY PREDICTED BY IDOCK:   -5.87 KCAL/MOL
REMARK 923 INTER-LIGAND FREE ENERGY PREDICTED BY IDOCK:   -7.25 KCAL/MOL
REMARK 924 INTRA-LIGAND FREE ENERGY PREDICTED BY IDOCK:    1.37 KCAL/MOL
REMARK 927      BINDING AFFINITY PREDICTED BY RF-SCORE:    0.00 PKD
ROOT
HETATM    1  C   UNL     1     -13.119  13.900  72.334  1.00  0.00    -0.532 C  
HETATM    2  C   UNL     1     -13.158  14.743  71.092  1.00  0.00    -0.382 C  
HETATM    3  O   UNL     1     -13.533  15.908  71.093  1.00  0.00    -0.502 OA 
ENDROOT
BRANCH   2   4
HETATM    4  O   UNL     1     -12.717  14.014  70.043  1.00  0.00    -0.276 OA 
BRANCH   4   5
HETATM    5  C   UNL     1     -11.711  14.456  69.297  1.00  0.00    -0.317 A  
HETATM    6  C   UNL     1     -10.481  14.998  69.635  1.00  0.00    -0.226 A  
HETATM    7  C   UNL     1      -9.702  15.412  68.505  1.00  0.00    -0.204 A  
HETATM    8  C   UNL     1     -10.362  15.122  67.340  1.00  0.00    -0.244 A  
HETATM    9  C   UNL     1      -9.802  15.359  65.993  1.00  0.00    -0.355 C  
HETATM   10  S   UNL     1     -11.902  14.457  67.589  1.00  0.00    -0.352 SA 
HETATM   11  C   UNL     1      -8.628  16.355  66.052  1.00  0.00    -0.211 C  
HETATM   12  N   UNL     1      -7.818  16.533  67.280  1.00  0.00    -0.146 NA 
HETATM   13  C   UNL     1      -8.354  16.055  68.572  1.00  0.00    -0.191 C  
BRANCH  12  14
HETATM   14  C   UNL     1      -7.280  17.941  67.360  1.00  0.00    -0.184 C  
BRANCH  14  15
HETATM   15  C   UNL     1      -6.714  18.365  68.722  1.00  0.00    -0.267 A  
HETATM   16  F   UNL     1      -7.966  20.397  68.748  1.00  0.00    -0.072 F  
HETATM   17  C   UNL     1      -5.710  17.619  69.368  1.00  0.00    -0.217 A  
HETATM   18  C   UNL     1      -7.071  19.584  69.321  1.00  0.00    -0.337 A  
HETATM   19  C   UNL     1      -6.498  20.038  70.515  1.00  0.00    -0.220 A  
HETATM   20  C   UNL     1      -5.135  18.058  70.568  1.00  0.00    -0.255 A  
HETATM   21  C   UNL     1      -5.530  19.266  71.142  1.00  0.00    -0.261 A  
ENDBRANCH  14  15
BRANCH  14  22
HETATM   22  C   UNL     1      -8.327  18.934  66.779  1.00  0.00    -0.281 C  
HETATM   23  O   UNL     1      -9.541  18.835  66.940  1.00  0.00    -0.290 OA 
BRANCH  22  24
HETATM   24  C   UNL     1      -7.775  20.072  65.968  1.00  0.00    -0.318 C  
HETATM   25  C   UNL     1      -6.580  20.865  66.454  1.00  0.00    -0.298 C  
HETATM   26  C   UNL     1      -6.423  19.905  65.313  1.00  0.00    -0.308 C  
ENDBRANCH  22  24
ENDBRANCH  14  22
ENDBRANCH  12  14
ENDBRANCH   4   5
ENDBRANCH   2   4
TORSDOF 6
ENDMDL
MODEL      191
REMARK 921   NORMALIZED FREE ENERGY PREDICTED BY IDOCK:   -3.84 KCAL/MOL
REMARK 922        TOTAL FREE ENERGY PREDICTED BY IDOCK:   -5.87 KCAL/MOL
REMARK 923 INTER-LIGAND FREE ENERGY PREDICTED BY IDOCK:   -5.43 KCAL/MOL
REMARK 924 INTRA-LIGAND FREE ENERGY PREDICTED BY IDOCK:   -0.44 KCAL/MOL
REMARK 927      BINDING AFFINITY PREDICTED BY RF-SCORE:    0.00 PKD
ROOT
HETATM    1  C   UNL     1     -12.219  13.458  63.504  1.00  0.00    -0.468 C  
HETATM    2  C   UNL     1     -11.159  12.668  64.216  1.00  0.00    -0.362 C  
HETATM    3  O   UNL     1     -10.064  12.430  63.722  1.00  0.00    -0.394 OA 
ENDROOT
BRANCH   2   4
HETATM    4  O   UNL     1     -11.616  12.305  65.435  1.00  0.00    -0.348 OA 
BRANCH   4   5
HETATM    5  C   UNL     1     -10.890  11.510  66.212  1.00  0.00    -0.282 A  
HETATM    6  C   UNL     1     -10.160  10.366  65.934  1.00  0.00    -0.326 A  
HETATM    7  C   UNL     1      -9.565   9.765  67.092  1.00  0.00    -0.211 A  
HETATM    8  C   UNL     1      -9.835  10.512  68.208  1.00  0.00    -0.149 A  
HETATM    9  C   UNL     1      -9.309  10.204  69.554  1.00  0.00    -0.230 C  
HETATM   10  S   UNL     1     -10.840  11.842  67.898  1.00  0.00    -0.225 SA 
HETATM   11  C   UNL     1      -8.821   8.745  69.636  1.00  0.00    -0.141 C  
HETATM   12  N   UNL     1      -8.375   8.005  68.431  1.00  0.00    -0.126 NA 
HETATM   13  C   UNL     1      -8.750   8.511  67.095  1.00  0.00    -0.129 C  
BRANCH  12  14
HETATM   14  C   UNL     1      -8.641   6.528  68.589  1.00  0.00    -0.124 C  
BRANCH  14  15
HETATM   15  C   UNL     1      -7.831   5.600  67.673  1.00  0.00    -0.097 A  
HETATM   16  F   UNL     1      -5.742   6.367  68.536  1.00  0.00    -0.015 F  
HETATM   17  C   UNL     1      -8.454   4.811  66.687  1.00  0.00    -0.106 A  
HETATM   18  C   UNL     1      -6.427   5.596  67.682  1.00  0.00    -0.047 A  
HETATM   19  C   UNL     1      -5.666   4.831  66.791  1.00  0.00    -0.021 A  
HETATM   20  C   UNL     1      -7.703   4.033  65.796  1.00  0.00    -0.090 A  
HETATM   21  C   UNL     1      -6.309   4.042  65.849  1.00  0.00    -0.033 A  
ENDBRANCH  14  15
BRANCH  14  22
HETATM   22  C   UNL     1     -10.174   6.266  68.550  1.00  0.00    -0.176 C  
HETATM   23  O   UNL     1     -10.915   6.615  67.633  1.00  0.00    -0.293 OA 
BRANCH  22  24
HETATM   24  C   UNL     1     -10.748   5.540  69.734  1.00  0.00    -0.355 C  
HETATM   25  C   UNL     1     -10.127   5.681  71.107  1.00  0.00    -0.262 C  
HETATM   26  C   UNL     1     -11.438   6.346  70.811  1.00  0.00    -0.415 C  
ENDBRANCH  22  24
ENDBRANCH  14  22
ENDBRANCH  12  14
ENDBRANCH   4   5
ENDBRANCH   2   4
TORSDOF 6
ENDMDL
MODEL      192
REMARK 921   NORMALIZED FREE ENERGY PREDICTED BY IDOCK:   -3.83 KCAL/MOL
REMARK 922        TOTAL FREE ENERGY PREDICTED BY IDOCK:   -5.85 KCAL/MOL
REMARK 923 INTER-LIGAND FREE ENERGY PREDICTED BY IDOCK:   -5.25 KCAL/MOL
REMARK 924 INTRA-LIGAND FREE ENERGY PREDICTED BY IDOCK:   -0.60 KCAL/MOL
REMARK 927      BINDING AFFINITY PREDICTED BY RF-SCORE:    0.00 PKD
ROOT
HETATM    1  C   UNL     1      -8.363   3.913  64.553  1.00  0.00    -0.098 C  
HETATM    2  C   UNL     1      -7.007   4.427  64.943  1.00  0.00    -0.057 C  
HETATM    3  O   UNL     1      -6.401   4.022  65.926  1.00  0.00    -0.031 OA 
ENDROOT
BRANCH   2   4
HETATM    4  O   UNL     1      -6.608   5.357  64.047  1.00  0.00    -0.039 OA 
BRANCH   4   5
HETATM    5  C   UNL     1      -7.109   6.587  64.090  1.00  0.00    -0.057 A  
HETATM    6  C   UNL     1      -7.315   7.461  65.145  1.00  0.00    -0.077 A  
HETATM    7  C   UNL     1      -7.950   8.688  64.761  1.00  0.00    -0.141 A  
HETATM    8  C   UNL     1      -8.162   8.712  63.408  1.00  0.00    -0.155 A  
HETATM    9  C   UNL     1      -8.737   9.864  62.683  1.00  0.00    -0.219 C  
HETATM   10  S   UNL     1      -7.697   7.279  62.631  1.00  0.00    -0.127 SA 
HETATM   11  C   UNL     1      -9.465  10.817  63.649  1.00  0.00    -0.291 C  
HETATM   12  N   UNL     1      -9.105  10.895  65.086  1.00  0.00    -0.200 NA 
HETATM   13  C   UNL     1      -8.320   9.799  65.691  1.00  0.00    -0.134 C  
BRANCH  12  14
HETATM   14  C   UNL     1     -10.309  11.273  65.913  1.00  0.00    -0.253 C  
BRANCH  14  15
HETATM   15  C   UNL     1     -10.427  12.758  66.283  1.00  0.00    -0.273 A  
HETATM   16  F   UNL     1     -12.732  12.854  65.670  1.00  0.00    -0.509 F  
HETATM   17  C   UNL     1      -9.306  13.510  66.680  1.00  0.00    -0.254 A  
HETATM   18  C   UNL     1     -11.627  13.467  66.111  1.00  0.00    -0.343 A  
HETATM   19  C   UNL     1     -11.735  14.842  66.350  1.00  0.00    -0.193 A  
HETATM   20  C   UNL     1      -9.403  14.885  66.931  1.00  0.00    -0.258 A  
HETATM   21  C   UNL     1     -10.618  15.551  66.768  1.00  0.00    -0.307 A  
ENDBRANCH  14  15
BRANCH  14  22
HETATM   22  C   UNL     1     -10.429  10.312  67.131  1.00  0.00    -0.254 C  
HETATM   23  O   UNL     1     -10.783   9.138  67.056  1.00  0.00    -0.234 OA 
BRANCH  22  24
HETATM   24  C   UNL     1     -10.086  10.901  68.470  1.00  0.00    -0.193 C  
HETATM   25  C   UNL     1     -10.666  10.326  69.744  1.00  0.00    -0.328 C  
HETATM   26  C   UNL     1      -9.222  10.096  69.414  1.00  0.00    -0.229 C  
ENDBRANCH  22  24
ENDBRANCH  14  22
ENDBRANCH  12  14
ENDBRANCH   4   5
ENDBRANCH   2   4
TORSDOF 6
ENDMDL
MODEL      193
REMARK 921   NORMALIZED FREE ENERGY PREDICTED BY IDOCK:   -3.81 KCAL/MOL
REMARK 922        TOTAL FREE ENERGY PREDICTED BY IDOCK:   -5.83 KCAL/MOL
REMARK 923 INTER-LIGAND FREE ENERGY PREDICTED BY IDOCK:   -6.22 KCAL/MOL
REMARK 924 INTRA-LIGAND FREE ENERGY PREDICTED BY IDOCK:    0.39 KCAL/MOL
REMARK 927      BINDING AFFINITY PREDICTED BY RF-SCORE:    0.00 PKD
ROOT
HETATM    1  C   UNL     1      -9.001  19.522  66.897  1.00  0.00    -0.379 C  
HETATM    2  C   UNL     1      -8.994  18.196  66.194  1.00  0.00    -0.091 C  
HETATM    3  O   UNL     1      -7.970  17.672  65.775  1.00  0.00    -0.549 OA 
ENDROOT
BRANCH   2   4
HETATM    4  O   UNL     1     -10.257  17.719  66.126  1.00  0.00    -0.376 OA 
BRANCH   4   5
HETATM    5  C   UNL     1     -10.514  16.456  66.447  1.00  0.00    -0.286 A  
HETATM    6  C   UNL     1     -10.355  15.756  67.632  1.00  0.00    -0.281 A  
HETATM    7  C   UNL     1     -10.700  14.367  67.532  1.00  0.00    -0.271 A  
HETATM    8  C   UNL     1     -11.154  14.079  66.272  1.00  0.00    -0.307 A  
HETATM    9  C   UNL     1     -11.655  12.751  65.860  1.00  0.00    -0.428 C  
HETATM   10  S   UNL     1     -11.089  15.403  65.216  1.00  0.00    -0.337 SA 
HETATM   11  C   UNL     1     -11.195  11.658  66.842  1.00  0.00    -0.313 C  
HETATM   12  N   UNL     1     -10.865  11.968  68.254  1.00  0.00    -0.217 NA 
HETATM   13  C   UNL     1     -10.600  13.369  68.641  1.00  0.00    -0.241 C  
BRANCH  12  14
HETATM   14  C   UNL     1      -9.819  11.013  68.775  1.00  0.00    -0.198 C  
BRANCH  14  15
HETATM   15  C   UNL     1      -8.414  11.166  68.174  1.00  0.00    -0.138 A  
HETATM   16  F   UNL     1      -9.061  10.179  66.099  1.00  0.00    -0.156 F  
HETATM   17  C   UNL     1      -7.333  11.642  68.939  1.00  0.00    -0.107 A  
HETATM   18  C   UNL     1      -8.114  10.713  66.879  1.00  0.00    -0.124 A  
HETATM   19  C   UNL     1      -6.821  10.754  66.344  1.00  0.00    -0.135 A  
HETATM   20  C   UNL     1      -6.036  11.696  68.412  1.00  0.00    -0.049 A  
HETATM   21  C   UNL     1      -5.780  11.254  67.114  1.00  0.00    -0.077 A  
ENDBRANCH  14  15
BRANCH  14  22
HETATM   22  C   UNL     1     -10.367   9.558  68.724  1.00  0.00    -0.208 C  
HETATM   23  O   UNL     1     -10.148   8.765  67.811  1.00  0.00    -0.183 OA 
BRANCH  22  24
HETATM   24  C   UNL     1     -11.222   9.136  69.885  1.00  0.00    -0.118 C  
HETATM   25  C   UNL     1     -10.956   7.837  70.615  1.00  0.00    -0.255 C  
HETATM   26  C   UNL     1     -10.615   9.142  71.270  1.00  0.00    -0.399 C  
ENDBRANCH  22  24
ENDBRANCH  14  22
ENDBRANCH  12  14
ENDBRANCH   4   5
ENDBRANCH   2   4
TORSDOF 6
ENDMDL
MODEL      194
REMARK 921   NORMALIZED FREE ENERGY PREDICTED BY IDOCK:   -3.81 KCAL/MOL
REMARK 922        TOTAL FREE ENERGY PREDICTED BY IDOCK:   -5.83 KCAL/MOL
REMARK 923 INTER-LIGAND FREE ENERGY PREDICTED BY IDOCK:   -6.06 KCAL/MOL
REMARK 924 INTRA-LIGAND FREE ENERGY PREDICTED BY IDOCK:    0.23 KCAL/MOL
REMARK 927      BINDING AFFINITY PREDICTED BY RF-SCORE:    0.00 PKD
ROOT
HETATM    1  C   UNL     1      -8.752  19.133  67.659  1.00  0.00    -0.329 C  
HETATM    2  C   UNL     1      -8.805  17.909  66.792  1.00  0.00    -0.258 C  
HETATM    3  O   UNL     1      -7.822  17.218  66.559  1.00  0.00    -0.233 OA 
ENDROOT
BRANCH   2   4
HETATM    4  O   UNL     1     -10.071  17.725  66.356  1.00  0.00    -0.327 OA 
BRANCH   4   5
HETATM    5  C   UNL     1     -10.541  16.497  66.164  1.00  0.00    -0.236 A  
HETATM    6  C   UNL     1     -10.476  15.353  66.943  1.00  0.00    -0.295 A  
HETATM    7  C   UNL     1     -11.068  14.201  66.328  1.00  0.00    -0.318 A  
HETATM    8  C   UNL     1     -11.603  14.533  65.111  1.00  0.00    -0.371 A  
HETATM    9  C   UNL     1     -12.346  13.589  64.251  1.00  0.00    -0.392 C  
HETATM   10  S   UNL     1     -11.331  16.150  64.678  1.00  0.00    -0.117 SA 
HETATM   11  C   UNL     1     -12.060  12.131  64.657  1.00  0.00    -0.311 C  
HETATM   12  N   UNL     1     -11.640  11.774  66.033  1.00  0.00    -0.404 NA 
HETATM   13  C   UNL     1     -11.116  12.831  66.923  1.00  0.00    -0.270 C  
BRANCH  12  14
HETATM   14  C   UNL     1     -10.767  10.543  66.017  1.00  0.00    -0.016 C  
BRANCH  14  15
HETATM   15  C   UNL     1     -10.031  10.226  67.326  1.00  0.00    -0.233 A  
HETATM   16  F   UNL     1      -8.226  11.702  66.812  1.00  0.00    -0.151 F  
HETATM   17  C   UNL     1     -10.499   9.241  68.215  1.00  0.00    -0.260 A  
HETATM   18  C   UNL     1      -8.788  10.806  67.632  1.00  0.00    -0.132 A  
HETATM   19  C   UNL     1      -8.053  10.462  68.772  1.00  0.00    -0.125 A  
HETATM   20  C   UNL     1      -9.776   8.895  69.365  1.00  0.00    -0.169 A  
HETATM   21  C   UNL     1      -8.555   9.507  69.644  1.00  0.00    -0.189 A  
ENDBRANCH  14  15
BRANCH  14  22
HETATM   22  C   UNL     1      -9.839  10.576  64.768  1.00  0.00    -0.323 C  
HETATM   23  O   UNL     1      -9.664  11.566  64.060  1.00  0.00    -0.242 OA 
BRANCH  22  24
HETATM   24  C   UNL     1      -9.133   9.292  64.438  1.00  0.00    -0.111 C  
HETATM   25  C   UNL     1      -8.714   8.978  63.018  1.00  0.00    -0.126 C  
HETATM   26  C   UNL     1      -7.677   9.349  64.035  1.00  0.00    -0.121 C  
ENDBRANCH  22  24
ENDBRANCH  14  22
ENDBRANCH  12  14
ENDBRANCH   4   5
ENDBRANCH   2   4
TORSDOF 6
ENDMDL
MODEL      195
REMARK 921   NORMALIZED FREE ENERGY PREDICTED BY IDOCK:   -3.79 KCAL/MOL
REMARK 922        TOTAL FREE ENERGY PREDICTED BY IDOCK:   -5.80 KCAL/MOL
REMARK 923 INTER-LIGAND FREE ENERGY PREDICTED BY IDOCK:   -4.83 KCAL/MOL
REMARK 924 INTRA-LIGAND FREE ENERGY PREDICTED BY IDOCK:   -0.97 KCAL/MOL
REMARK 927      BINDING AFFINITY PREDICTED BY RF-SCORE:    0.00 PKD
ROOT
HETATM    1  C   UNL     1      -8.178   5.636  62.775  1.00  0.00    -0.103 C  
HETATM    2  C   UNL     1      -8.374   5.295  64.224  1.00  0.00    -0.134 C  
HETATM    3  O   UNL     1      -9.015   4.320  64.595  1.00  0.00    -0.134 OA 
ENDROOT
BRANCH   2   4
HETATM    4  O   UNL     1      -7.736   6.209  64.988  1.00  0.00    -0.086 OA 
BRANCH   4   5
HETATM    5  C   UNL     1      -8.390   7.268  65.450  1.00  0.00    -0.122 A  
HETATM    6  C   UNL     1      -8.315   8.612  65.122  1.00  0.00    -0.178 A  
HETATM    7  C   UNL     1      -9.165   9.449  65.919  1.00  0.00    -0.269 A  
HETATM    8  C   UNL     1      -9.891   8.690  66.799  1.00  0.00    -0.253 A  
HETATM    9  C   UNL     1     -10.910   9.239  67.717  1.00  0.00    -0.192 C  
HETATM   10  S   UNL     1      -9.506   7.040  66.737  1.00  0.00    -0.166 SA 
HETATM   11  C   UNL     1     -10.739  10.760  67.885  1.00  0.00    -0.239 C  
HETATM   12  N   UNL     1     -10.095  11.592  66.840  1.00  0.00    -0.208 NA 
HETATM   13  C   UNL     1      -9.267  10.936  65.806  1.00  0.00    -0.201 C  
BRANCH  12  14
HETATM   14  C   UNL     1      -9.411  12.786  67.461  1.00  0.00    -0.189 C  
BRANCH  14  15
HETATM   15  C   UNL     1      -9.705  14.142  66.805  1.00  0.00    -0.283 A  
HETATM   16  F   UNL     1      -8.788  15.366  68.637  1.00  0.00    -0.157 F  
HETATM   17  C   UNL     1     -10.415  14.236  65.593  1.00  0.00    -0.336 A  
HETATM   18  C   UNL     1      -9.400  15.353  67.447  1.00  0.00    -0.201 A  
HETATM   19  C   UNL     1      -9.744  16.601  66.914  1.00  0.00    -0.261 A  
HETATM   20  C   UNL     1     -10.757  15.479  65.044  1.00  0.00    -0.463 A  
HETATM   21  C   UNL     1     -10.420  16.661  65.703  1.00  0.00    -0.313 A  
ENDBRANCH  14  15
BRANCH  14  22
HETATM   22  C   UNL     1      -7.893  12.488  67.633  1.00  0.00    -0.162 C  
HETATM   23  O   UNL     1      -7.013  12.920  66.892  1.00  0.00     0.056 OA 
BRANCH  22  24
HETATM   24  C   UNL     1      -7.523  11.605  68.791  1.00  0.00    -0.114 C  
HETATM   25  C   UNL     1      -6.722  10.339  68.577  1.00  0.00    -0.057 C  
HETATM   26  C   UNL     1      -6.073  11.533  69.210  1.00  0.00    -0.068 C  
ENDBRANCH  22  24
ENDBRANCH  14  22
ENDBRANCH  12  14
ENDBRANCH   4   5
ENDBRANCH   2   4
TORSDOF 6
ENDMDL
MODEL      196
REMARK 921   NORMALIZED FREE ENERGY PREDICTED BY IDOCK:   -3.76 KCAL/MOL
REMARK 922        TOTAL FREE ENERGY PREDICTED BY IDOCK:   -5.76 KCAL/MOL
REMARK 923 INTER-LIGAND FREE ENERGY PREDICTED BY IDOCK:   -4.69 KCAL/MOL
REMARK 924 INTRA-LIGAND FREE ENERGY PREDICTED BY IDOCK:   -1.07 KCAL/MOL
REMARK 927      BINDING AFFINITY PREDICTED BY RF-SCORE:    0.00 PKD
ROOT
HETATM    1  C   UNL     1     -10.979   7.334  73.128  1.00  0.00    -0.384 C  
HETATM    2  C   UNL     1      -9.576   6.886  73.418  1.00  0.00    -0.174 C  
HETATM    3  O   UNL     1      -8.959   7.241  74.415  1.00  0.00    -0.216 OA 
ENDROOT
BRANCH   2   4
HETATM    4  O   UNL     1      -9.157   6.060  72.434  1.00  0.00    -0.138 OA 
BRANCH   4   5
HETATM    5  C   UNL     1      -8.937   6.533  71.212  1.00  0.00    -0.141 A  
HETATM    6  C   UNL     1      -8.297   7.679  70.769  1.00  0.00    -0.117 A  
HETATM    7  C   UNL     1      -8.336   7.848  69.346  1.00  0.00    -0.132 A  
HETATM    8  C   UNL     1      -8.974   6.788  68.757  1.00  0.00    -0.130 A  
HETATM    9  C   UNL     1      -9.123   6.621  67.297  1.00  0.00    -0.119 C  
HETATM   10  S   UNL     1      -9.584   5.668  69.875  1.00  0.00    -0.170 SA 
HETATM   11  C   UNL     1      -8.892   7.955  66.563  1.00  0.00    -0.152 C  
HETATM   12  N   UNL     1      -8.057   9.032  67.149  1.00  0.00    -0.106 NA 
HETATM   13  C   UNL     1      -7.755   9.003  68.595  1.00  0.00    -0.096 C  
BRANCH  12  14
HETATM   14  C   UNL     1      -8.535  10.385  66.682  1.00  0.00    -0.126 C  
BRANCH  14  15
HETATM   15  C   UNL     1      -8.910  10.487  65.197  1.00  0.00    -0.206 A  
HETATM   16  F   UNL     1      -6.801   9.628  64.479  1.00  0.00    -0.088 F  
HETATM   17  C   UNL     1     -10.120  11.072  64.781  1.00  0.00    -0.367 A  
HETATM   18  C   UNL     1      -8.007  10.128  64.183  1.00  0.00    -0.154 A  
HETATM   19  C   UNL     1      -8.289  10.301  62.823  1.00  0.00    -0.177 A  
HETATM   20  C   UNL     1     -10.418  11.242  63.423  1.00  0.00    -0.424 A  
HETATM   21  C   UNL     1      -9.503  10.855  62.443  1.00  0.00    -0.205 A  
ENDBRANCH  14  15
BRANCH  14  22
HETATM   22  C   UNL     1      -7.538  11.483  67.154  1.00  0.00    -0.149 C  
HETATM   23  O   UNL     1      -6.331  11.471  66.922  1.00  0.00    -0.123 OA 
BRANCH  22  24
HETATM   24  C   UNL     1      -8.131  12.612  67.948  1.00  0.00    -0.165 C  
HETATM   25  C   UNL     1      -9.132  13.560  67.324  1.00  0.00    -0.225 C  
HETATM   26  C   UNL     1      -9.594  12.542  68.324  1.00  0.00    -0.209 C  
ENDBRANCH  22  24
ENDBRANCH  14  22
ENDBRANCH  12  14
ENDBRANCH   4   5
ENDBRANCH   2   4
TORSDOF 6
ENDMDL
MODEL      197
REMARK 921   NORMALIZED FREE ENERGY PREDICTED BY IDOCK:   -3.75 KCAL/MOL
REMARK 922        TOTAL FREE ENERGY PREDICTED BY IDOCK:   -5.75 KCAL/MOL
REMARK 923 INTER-LIGAND FREE ENERGY PREDICTED BY IDOCK:   -5.56 KCAL/MOL
REMARK 924 INTRA-LIGAND FREE ENERGY PREDICTED BY IDOCK:   -0.19 KCAL/MOL
REMARK 927      BINDING AFFINITY PREDICTED BY RF-SCORE:    0.00 PKD
ROOT
HETATM    1  C   UNL     1      -7.271  18.016  67.868  1.00  0.00    -0.222 C  
HETATM    2  C   UNL     1      -7.144  17.220  66.601  1.00  0.00    -0.243 C  
HETATM    3  O   UNL     1      -6.063  16.939  66.100  1.00  0.00    -0.221 OA 
ENDROOT
BRANCH   2   4
HETATM    4  O   UNL     1      -8.377  16.888  66.158  1.00  0.00    -0.366 OA 
BRANCH   4   5
HETATM    5  C   UNL     1      -8.943  15.750  66.544  1.00  0.00    -0.306 A  
HETATM    6  C   UNL     1      -8.496  14.734  67.373  1.00  0.00    -0.218 A  
HETATM    7  C   UNL     1      -9.408  13.632  67.478  1.00  0.00    -0.223 A  
HETATM    8  C   UNL     1     -10.541  13.880  66.751  1.00  0.00    -0.277 A  
HETATM    9  C   UNL     1     -11.707  12.974  66.704  1.00  0.00    -0.438 C  
HETATM   10  S   UNL     1     -10.483  15.345  65.898  1.00  0.00    -0.363 SA 
HETATM   11  C   UNL     1     -11.326  11.560  67.180  1.00  0.00    -0.284 C  
HETATM   12  N   UNL     1     -10.190  11.329  68.105  1.00  0.00    -0.174 NA 
HETATM   13  C   UNL     1      -9.175  12.389  68.277  1.00  0.00    -0.189 C  
BRANCH  12  14
HETATM   14  C   UNL     1      -9.577   9.972  67.862  1.00  0.00    -0.145 C  
BRANCH  14  15
HETATM   15  C   UNL     1      -9.130   9.687  66.421  1.00  0.00    -0.191 A  
HETATM   16  F   UNL     1      -7.973   7.694  67.043  1.00  0.00    -0.107 F  
HETATM   17  C   UNL     1      -9.387  10.595  65.377  1.00  0.00    -0.250 A  
HETATM   18  C   UNL     1      -8.330   8.578  66.103  1.00  0.00    -0.119 A  
HETATM   19  C   UNL     1      -7.830   8.348  64.816  1.00  0.00    -0.128 A  
HETATM   20  C   UNL     1      -8.901  10.372  64.082  1.00  0.00    -0.228 A  
HETATM   21  C   UNL     1      -8.124   9.248  63.801  1.00  0.00    -0.155 A  
ENDBRANCH  14  15
BRANCH  14  22
HETATM   22  C   UNL     1     -10.495   8.868  68.464  1.00  0.00    -0.182 C  
HETATM   23  O   UNL     1     -11.145   8.067  67.796  1.00  0.00     0.046 OA 
BRANCH  22  24
HETATM   24  C   UNL     1     -10.567   8.818  69.964  1.00  0.00    -0.232 C  
HETATM   25  C   UNL     1     -11.861   8.470  70.668  1.00  0.00    -0.111 C  
HETATM   26  C   UNL     1     -10.740   7.475  70.635  1.00  0.00    -0.239 C  
ENDBRANCH  22  24
ENDBRANCH  14  22
ENDBRANCH  12  14
ENDBRANCH   4   5
ENDBRANCH   2   4
TORSDOF 6
ENDMDL
MODEL      198
REMARK 921   NORMALIZED FREE ENERGY PREDICTED BY IDOCK:   -3.74 KCAL/MOL
REMARK 922        TOTAL FREE ENERGY PREDICTED BY IDOCK:   -5.74 KCAL/MOL
REMARK 923 INTER-LIGAND FREE ENERGY PREDICTED BY IDOCK:   -5.13 KCAL/MOL
REMARK 924 INTRA-LIGAND FREE ENERGY PREDICTED BY IDOCK:   -0.61 KCAL/MOL
REMARK 927      BINDING AFFINITY PREDICTED BY RF-SCORE:    0.00 PKD
ROOT
HETATM    1  C   UNL     1      -5.755   4.588  63.161  1.00  0.00    -0.017 C  
HETATM    2  C   UNL     1      -6.909   3.816  63.731  1.00  0.00    -0.044 C  
HETATM    3  O   UNL     1      -7.661   3.141  63.040  1.00  0.00    -0.064 OA 
ENDROOT
BRANCH   2   4
HETATM    4  O   UNL     1      -6.947   3.993  65.070  1.00  0.00    -0.055 OA 
BRANCH   4   5
HETATM    5  C   UNL     1      -7.689   4.961  65.596  1.00  0.00    -0.087 A  
HETATM    6  C   UNL     1      -7.380   6.260  65.968  1.00  0.00    -0.080 A  
HETATM    7  C   UNL     1      -8.476   6.965  66.566  1.00  0.00    -0.125 A  
HETATM    8  C   UNL     1      -9.597   6.178  66.582  1.00  0.00    -0.152 A  
HETATM    9  C   UNL     1     -10.917   6.631  67.069  1.00  0.00    -0.463 C  
HETATM   10  S   UNL     1      -9.328   4.615  65.982  1.00  0.00    -0.170 SA 
HETATM   11  C   UNL     1     -10.779   7.888  67.947  1.00  0.00    -0.079 C  
HETATM   12  N   UNL     1      -9.635   8.821  67.799  1.00  0.00    -0.145 NA 
HETATM   13  C   UNL     1      -8.423   8.366  67.088  1.00  0.00    -0.123 C  
BRANCH  12  14
HETATM   14  C   UNL     1      -9.321   9.486  69.116  1.00  0.00    -0.163 C  
BRANCH  14  15
HETATM   15  C   UNL     1     -10.514   9.705  70.057  1.00  0.00    -0.301 A  
HETATM   16  F   UNL     1      -9.884   7.893  71.477  1.00  0.00    -0.172 F  
HETATM   17  C   UNL     1     -11.510  10.659  69.775  1.00  0.00    -0.375 A  
HETATM   18  C   UNL     1     -10.739   8.876  71.168  1.00  0.00    -0.263 A  
HETATM   19  C   UNL     1     -11.869   8.994  71.985  1.00  0.00    -0.426 A  
HETATM   20  C   UNL     1     -12.641  10.794  70.590  1.00  0.00    -0.446 A  
HETATM   21  C   UNL     1     -12.820   9.963  71.696  1.00  0.00    -0.537 A  
ENDBRANCH  14  15
BRANCH  14  22
HETATM   22  C   UNL     1      -8.476  10.768  68.866  1.00  0.00    -0.149 C  
HETATM   23  O   UNL     1      -7.428  11.034  69.451  1.00  0.00    -0.126 OA 
BRANCH  22  24
HETATM   24  C   UNL     1      -9.016  11.722  67.837  1.00  0.00    -0.180 C  
HETATM   25  C   UNL     1      -9.266  13.174  68.180  1.00  0.00    -0.215 C  
HETATM   26  C   UNL     1      -8.105  12.805  67.307  1.00  0.00    -0.172 C  
ENDBRANCH  22  24
ENDBRANCH  14  22
ENDBRANCH  12  14
ENDBRANCH   4   5
ENDBRANCH   2   4
TORSDOF 6
ENDMDL
MODEL      199
REMARK 921   NORMALIZED FREE ENERGY PREDICTED BY IDOCK:   -3.72 KCAL/MOL
REMARK 922        TOTAL FREE ENERGY PREDICTED BY IDOCK:   -5.71 KCAL/MOL
REMARK 923 INTER-LIGAND FREE ENERGY PREDICTED BY IDOCK:   -6.10 KCAL/MOL
REMARK 924 INTRA-LIGAND FREE ENERGY PREDICTED BY IDOCK:    0.39 KCAL/MOL
REMARK 927      BINDING AFFINITY PREDICTED BY RF-SCORE:    0.00 PKD
ROOT
HETATM    1  C   UNL     1     -13.277  11.470  71.890  1.00  0.00    -0.479 C  
HETATM    2  C   UNL     1     -13.313  12.971  71.924  1.00  0.00    -0.446 C  
HETATM    3  O   UNL     1     -14.187  13.600  72.506  1.00  0.00    -0.724 OA 
ENDROOT
BRANCH   2   4
HETATM    4  O   UNL     1     -12.255  13.459  71.239  1.00  0.00    -0.273 OA 
BRANCH   4   5
HETATM    5  C   UNL     1     -11.931  12.948  70.056  1.00  0.00    -0.309 A  
HETATM    6  C   UNL     1     -11.467  11.696  69.689  1.00  0.00    -0.359 A  
HETATM    7  C   UNL     1     -11.173  11.576  68.290  1.00  0.00    -0.322 A  
HETATM    8  C   UNL     1     -11.472  12.743  67.639  1.00  0.00    -0.334 A  
HETATM    9  C   UNL     1     -11.350  12.929  66.179  1.00  0.00    -0.356 C  
HETATM   10  S   UNL     1     -12.005  13.973  68.678  1.00  0.00    -0.318 SA 
HETATM   11  C   UNL     1     -10.445  11.847  65.560  1.00  0.00    -0.268 C  
HETATM   12  N   UNL     1     -10.266  10.521  66.200  1.00  0.00    -0.242 NA 
HETATM   13  C   UNL     1     -10.633  10.353  67.621  1.00  0.00    -0.257 C  
BRANCH  12  14
HETATM   14  C   UNL     1      -8.901   9.961  65.882  1.00  0.00    -0.148 C  
BRANCH  14  15
HETATM   15  C   UNL     1      -7.749  10.462  66.764  1.00  0.00    -0.114 A  
HETATM   16  F   UNL     1      -7.394   8.311  67.736  1.00  0.00    -0.084 F  
HETATM   17  C   UNL     1      -7.399  11.825  66.816  1.00  0.00    -0.052 A  
HETATM   18  C   UNL     1      -7.083   9.611  67.660  1.00  0.00    -0.088 A  
HETATM   19  C   UNL     1      -6.096  10.064  68.544  1.00  0.00    -0.045 A  
HETATM   20  C   UNL     1      -6.406  12.289  67.688  1.00  0.00    -0.122 A  
HETATM   21  C   UNL     1      -5.753  11.409  68.551  1.00  0.00    -0.042 A  
ENDBRANCH  14  15
BRANCH  14  22
HETATM   22  C   UNL     1      -8.624  10.091  64.356  1.00  0.00    -0.190 C  
HETATM   23  O   UNL     1      -8.912  11.077  63.681  1.00  0.00    -0.166 OA 
BRANCH  22  24
HETATM   24  C   UNL     1      -7.967   8.909  63.703  1.00  0.00    -0.154 C  
HETATM   25  C   UNL     1      -6.616   8.413  64.173  1.00  0.00    -0.071 C  
HETATM   26  C   UNL     1      -7.851   7.622  64.488  1.00  0.00    -0.134 C  
ENDBRANCH  22  24
ENDBRANCH  14  22
ENDBRANCH  12  14
ENDBRANCH   4   5
ENDBRANCH   2   4
TORSDOF 6
ENDMDL
MODEL      200
REMARK 921   NORMALIZED FREE ENERGY PREDICTED BY IDOCK:   -3.71 KCAL/MOL
REMARK 922        TOTAL FREE ENERGY PREDICTED BY IDOCK:   -5.70 KCAL/MOL
REMARK 923 INTER-LIGAND FREE ENERGY PREDICTED BY IDOCK:   -4.89 KCAL/MOL
REMARK 924 INTRA-LIGAND FREE ENERGY PREDICTED BY IDOCK:   -0.81 KCAL/MOL
REMARK 927      BINDING AFFINITY PREDICTED BY RF-SCORE:    0.00 PKD
ROOT
HETATM    1  C   UNL     1      -7.627   5.084  63.566  1.00  0.00    -0.063 C  
HETATM    2  C   UNL     1      -6.242   5.181  64.137  1.00  0.00    -0.022 C  
HETATM    3  O   UNL     1      -5.516   4.206  64.287  1.00  0.00    -0.012 OA 
ENDROOT
BRANCH   2   4
HETATM    4  O   UNL     1      -5.967   6.473  64.423  1.00  0.00    -0.032 OA 
BRANCH   4   5
HETATM    5  C   UNL     1      -6.372   7.004  65.571  1.00  0.00    -0.043 A  
HETATM    6  C   UNL     1      -7.177   6.507  66.583  1.00  0.00    -0.073 A  
HETATM    7  C   UNL     1      -7.423   7.447  67.639  1.00  0.00    -0.097 A  
HETATM    8  C   UNL     1      -6.751   8.616  67.402  1.00  0.00    -0.063 A  
HETATM    9  C   UNL     1      -6.738   9.764  68.332  1.00  0.00    -0.060 C  
HETATM   10  S   UNL     1      -5.921   8.625  65.923  1.00  0.00    -0.048 SA 
HETATM   11  C   UNL     1      -7.898   9.668  69.342  1.00  0.00    -0.104 C  
HETATM   12  N   UNL     1      -8.505   8.367  69.710  1.00  0.00    -0.125 NA 
HETATM   13  C   UNL     1      -8.277   7.194  68.840  1.00  0.00    -0.125 C  
BRANCH  12  14
HETATM   14  C   UNL     1      -9.958   8.545  70.076  1.00  0.00    -0.188 C  
BRANCH  14  15
HETATM   15  C   UNL     1     -10.657   9.767  69.465  1.00  0.00    -0.253 A  
HETATM   16  F   UNL     1     -10.297   9.009  67.230  1.00  0.00    -0.256 F  
HETATM   17  C   UNL     1     -11.106  10.836  70.263  1.00  0.00    -0.248 A  
HETATM   18  C   UNL     1     -10.759   9.939  68.075  1.00  0.00    -0.248 A  
HETATM   19  C   UNL     1     -11.306  11.088  67.492  1.00  0.00    -0.332 A  
HETATM   20  C   UNL     1     -11.664  11.987  69.692  1.00  0.00    -0.405 A  
HETATM   21  C   UNL     1     -11.765  12.113  68.307  1.00  0.00    -0.401 A  
ENDBRANCH  14  15
BRANCH  14  22
HETATM   22  C   UNL     1     -10.126   8.434  71.619  1.00  0.00    -0.239 C  
HETATM   23  O   UNL     1      -9.373   8.955  72.438  1.00  0.00    -0.342 OA 
BRANCH  22  24
HETATM   24  C   UNL     1     -11.295   7.620  72.097  1.00  0.00    -0.341 C  
HETATM   25  C   UNL     1     -12.710   7.989  71.705  1.00  0.00    -0.352 C  
HETATM   26  C   UNL     1     -12.057   6.788  71.090  1.00  0.00    -0.422 C  
ENDBRANCH  22  24
ENDBRANCH  14  22
ENDBRANCH  12  14
ENDBRANCH   4   5
ENDBRANCH   2   4
TORSDOF 6
ENDMDL
MODEL      201
REMARK 921   NORMALIZED FREE ENERGY PREDICTED BY IDOCK:   -3.69 KCAL/MOL
REMARK 922        TOTAL FREE ENERGY PREDICTED BY IDOCK:   -5.67 KCAL/MOL
REMARK 923 INTER-LIGAND FREE ENERGY PREDICTED BY IDOCK:   -5.36 KCAL/MOL
REMARK 924 INTRA-LIGAND FREE ENERGY PREDICTED BY IDOCK:   -0.32 KCAL/MOL
REMARK 927      BINDING AFFINITY PREDICTED BY RF-SCORE:    0.00 PKD
ROOT
HETATM    1  C   UNL     1      -5.819  18.625  69.727  1.00  0.00    -0.261 C  
HETATM    2  C   UNL     1      -6.801  18.170  68.686  1.00  0.00    -0.250 C  
HETATM    3  O   UNL     1      -7.977  18.511  68.690  1.00  0.00    -0.314 OA 
ENDROOT
BRANCH   2   4
HETATM    4  O   UNL     1      -6.171  17.370  67.797  1.00  0.00    -0.143 OA 
BRANCH   4   5
HETATM    5  C   UNL     1      -6.464  16.077  67.736  1.00  0.00    -0.157 A  
HETATM    6  C   UNL     1      -7.562  15.404  67.224  1.00  0.00    -0.246 A  
HETATM    7  C   UNL     1      -7.512  13.984  67.420  1.00  0.00    -0.147 A  
HETATM    8  C   UNL     1      -6.342  13.630  68.040  1.00  0.00    -0.139 A  
HETATM    9  C   UNL     1      -5.949  12.234  68.325  1.00  0.00    -0.054 C  
HETATM   10  S   UNL     1      -5.374  14.958  68.454  1.00  0.00    -0.118 SA 
HETATM   11  C   UNL     1      -7.168  11.294  68.262  1.00  0.00    -0.080 C  
HETATM   12  N   UNL     1      -8.363  11.622  67.447  1.00  0.00    -0.145 NA 
HETATM   13  C   UNL     1      -8.569  13.014  66.998  1.00  0.00    -0.162 C  
BRANCH  12  14
HETATM   14  C   UNL     1      -9.603  11.020  68.062  1.00  0.00    -0.170 C  
BRANCH  14  15
HETATM   15  C   UNL     1      -9.736   9.495  67.945  1.00  0.00    -0.171 A  
HETATM   16  F   UNL     1      -9.418   9.163  70.287  1.00  0.00    -0.170 F  
HETATM   17  C   UNL     1      -9.857   8.860  66.694  1.00  0.00    -0.332 A  
HETATM   18  C   UNL     1      -9.607   8.656  69.063  1.00  0.00    -0.163 A  
HETATM   19  C   UNL     1      -9.629   7.259  68.968  1.00  0.00    -0.147 A  
HETATM   20  C   UNL     1      -9.890   7.464  66.587  1.00  0.00    -0.263 A  
HETATM   21  C   UNL     1      -9.778   6.663  67.724  1.00  0.00    -0.136 A  
ENDBRANCH  14  15
BRANCH  14  22
HETATM   22  C   UNL     1     -10.859  11.799  67.575  1.00  0.00    -0.239 C  
HETATM   23  O   UNL     1     -10.971  12.308  66.462  1.00  0.00    -0.256 OA 
BRANCH  22  24
HETATM   24  C   UNL     1     -11.984  11.917  68.564  1.00  0.00    -0.273 C  
HETATM   25  C   UNL     1     -11.805  11.480  70.001  1.00  0.00    -0.435 C  
HETATM   26  C   UNL     1     -11.870  12.941  69.670  1.00  0.00    -0.387 C  
ENDBRANCH  22  24
ENDBRANCH  14  22
ENDBRANCH  12  14
ENDBRANCH   4   5
ENDBRANCH   2   4
TORSDOF 6
ENDMDL
MODEL      202
REMARK 921   NORMALIZED FREE ENERGY PREDICTED BY IDOCK:   -3.67 KCAL/MOL
REMARK 922        TOTAL FREE ENERGY PREDICTED BY IDOCK:   -5.64 KCAL/MOL
REMARK 923 INTER-LIGAND FREE ENERGY PREDICTED BY IDOCK:   -6.20 KCAL/MOL
REMARK 924 INTRA-LIGAND FREE ENERGY PREDICTED BY IDOCK:    0.55 KCAL/MOL
REMARK 927      BINDING AFFINITY PREDICTED BY RF-SCORE:    0.00 PKD
ROOT
HETATM    1  C   UNL     1      -5.518   9.514  71.459  1.00  0.00    -0.072 C  
HETATM    2  C   UNL     1      -5.388  10.897  70.889  1.00  0.00    -0.113 C  
HETATM    3  O   UNL     1      -5.455  11.907  71.578  1.00  0.00    -0.369 OA 
ENDROOT
BRANCH   2   4
HETATM    4  O   UNL     1      -5.184  10.814  69.556  1.00  0.00    -0.038 OA 
BRANCH   4   5
HETATM    5  C   UNL     1      -6.116  11.236  68.709  1.00  0.00    -0.044 A  
HETATM    6  C   UNL     1      -6.655  12.493  68.484  1.00  0.00    -0.077 A  
HETATM    7  C   UNL     1      -7.703  12.504  67.506  1.00  0.00    -0.165 A  
HETATM    8  C   UNL     1      -7.887  11.248  66.990  1.00  0.00    -0.150 A  
HETATM    9  C   UNL     1      -8.846  10.931  65.911  1.00  0.00    -0.197 C  
HETATM   10  S   UNL     1      -6.900  10.075  67.714  1.00  0.00    -0.076 SA 
HETATM   11  C   UNL     1      -9.896  12.047  65.762  1.00  0.00    -0.242 C  
HETATM   12  N   UNL     1      -9.616  13.443  66.176  1.00  0.00    -0.244 NA 
HETATM   13  C   UNL     1      -8.482  13.710  67.086  1.00  0.00    -0.174 C  
BRANCH  12  14
HETATM   14  C   UNL     1     -10.886  14.131  66.613  1.00  0.00    -0.299 C  
BRANCH  14  15
HETATM   15  C   UNL     1     -10.741  15.602  67.029  1.00  0.00    -0.314 A  
HETATM   16  F   UNL     1     -10.690  16.365  64.768  1.00  0.00    -0.384 F  
HETATM   17  C   UNL     1     -10.584  15.973  68.378  1.00  0.00    -0.270 A  
HETATM   18  C   UNL     1     -10.624  16.629  66.079  1.00  0.00    -0.233 A  
HETATM   19  C   UNL     1     -10.395  17.964  66.431  1.00  0.00    -0.365 A  
HETATM   20  C   UNL     1     -10.364  17.308  68.744  1.00  0.00    -0.358 A  
HETATM   21  C   UNL     1     -10.272  18.303  67.771  1.00  0.00    -0.400 A  
ENDBRANCH  14  15
BRANCH  14  22
HETATM   22  C   UNL     1     -11.622  13.251  67.663  1.00  0.00    -0.346 C  
HETATM   23  O   UNL     1     -12.338  12.292  67.385  1.00  0.00    -0.344 OA 
BRANCH  22  24
HETATM   24  C   UNL     1     -11.423  13.638  69.102  1.00  0.00    -0.346 C  
HETATM   25  C   UNL     1     -12.604  13.970  69.988  1.00  0.00    -0.250 C  
HETATM   26  C   UNL     1     -11.871  12.676  70.178  1.00  0.00    -0.326 C  
ENDBRANCH  22  24
ENDBRANCH  14  22
ENDBRANCH  12  14
ENDBRANCH   4   5
ENDBRANCH   2   4
TORSDOF 6
ENDMDL
MODEL      203
REMARK 921   NORMALIZED FREE ENERGY PREDICTED BY IDOCK:   -3.61 KCAL/MOL
REMARK 922        TOTAL FREE ENERGY PREDICTED BY IDOCK:   -5.57 KCAL/MOL
REMARK 923 INTER-LIGAND FREE ENERGY PREDICTED BY IDOCK:   -5.85 KCAL/MOL
REMARK 924 INTRA-LIGAND FREE ENERGY PREDICTED BY IDOCK:    0.29 KCAL/MOL
REMARK 927      BINDING AFFINITY PREDICTED BY RF-SCORE:    0.00 PKD
ROOT
HETATM    1  C   UNL     1      -9.691   4.804  71.709  1.00  0.00    -0.225 C  
HETATM    2  C   UNL     1     -10.255   5.896  72.572  1.00  0.00    -0.187 C  
HETATM    3  O   UNL     1      -9.858   6.114  73.709  1.00  0.00    -0.162 OA 
ENDROOT
BRANCH   2   4
HETATM    4  O   UNL     1     -11.216   6.554  71.888  1.00  0.00    -0.247 OA 
BRANCH   4   5
HETATM    5  C   UNL     1     -10.923   7.668  71.225  1.00  0.00    -0.238 A  
HETATM    6  C   UNL     1     -11.700   8.505  70.441  1.00  0.00    -0.003 A  
HETATM    7  C   UNL     1     -10.966   9.584  69.847  1.00  0.00    -0.263 A  
HETATM    8  C   UNL     1      -9.656   9.545  70.245  1.00  0.00    -0.265 A  
HETATM    9  C   UNL     1      -8.647  10.556  69.865  1.00  0.00     0.257 C  
HETATM   10  S   UNL     1      -9.293   8.212  71.228  1.00  0.00    -0.166 SA 
HETATM   11  C   UNL     1      -9.115  11.370  68.644  1.00  0.00    -0.135 C  
HETATM   12  N   UNL     1     -10.553  11.538  68.324  1.00  0.00    -0.191 NA 
HETATM   13  C   UNL     1     -11.538  10.621  68.933  1.00  0.00    -0.249 C  
BRANCH  12  14
HETATM   14  C   UNL     1     -10.749  11.697  66.836  1.00  0.00    -0.257 C  
BRANCH  14  15
HETATM   15  C   UNL     1      -9.976  10.710  65.950  1.00  0.00    -0.312 A  
HETATM   16  F   UNL     1     -10.461  11.929  63.957  1.00  0.00    -0.290 F  
HETATM   17  C   UNL     1      -9.422   9.527  66.474  1.00  0.00    -0.236 A  
HETATM   18  C   UNL     1      -9.903  10.872  64.557  1.00  0.00    -0.300 A  
HETATM   19  C   UNL     1      -9.287   9.936  63.718  1.00  0.00    -0.250 A  
HETATM   20  C   UNL     1      -8.794   8.588  65.646  1.00  0.00    -0.214 A  
HETATM   21  C   UNL     1      -8.725   8.793  64.268  1.00  0.00    -0.038 A  
ENDBRANCH  14  15
BRANCH  14  22
HETATM   22  C   UNL     1     -10.548  13.187  66.438  1.00  0.00    -0.286 C  
HETATM   23  O   UNL     1      -9.455  13.745  66.368  1.00  0.00    -0.278 OA 
BRANCH  22  24
HETATM   24  C   UNL     1     -11.799  13.962  66.133  1.00  0.00    -0.422 C  
HETATM   25  C   UNL     1     -11.994  14.623  64.786  1.00  0.00    -0.439 C  
HETATM   26  C   UNL     1     -12.776  13.391  65.131  1.00  0.00    -0.459 C  
ENDBRANCH  22  24
ENDBRANCH  14  22
ENDBRANCH  12  14
ENDBRANCH   4   5
ENDBRANCH   2   4
TORSDOF 6
ENDMDL
MODEL      204
REMARK 921   NORMALIZED FREE ENERGY PREDICTED BY IDOCK:   -3.54 KCAL/MOL
REMARK 922        TOTAL FREE ENERGY PREDICTED BY IDOCK:   -5.47 KCAL/MOL
REMARK 923 INTER-LIGAND FREE ENERGY PREDICTED BY IDOCK:   -5.62 KCAL/MOL
REMARK 924 INTRA-LIGAND FREE ENERGY PREDICTED BY IDOCK:    0.15 KCAL/MOL
REMARK 927      BINDING AFFINITY PREDICTED BY RF-SCORE:    0.00 PKD
ROOT
HETATM    1  C   UNL     1     -10.606  13.341  65.700  1.00  0.00    -0.291 C  
HETATM    2  C   UNL     1     -12.058  13.039  65.935  1.00  0.00    -0.444 C  
HETATM    3  O   UNL     1     -12.948  13.450  65.201  1.00  0.00    -0.710 OA 
ENDROOT
BRANCH   2   4
HETATM    4  O   UNL     1     -12.181  12.267  67.037  1.00  0.00    -0.522 OA 
BRANCH   4   5
HETATM    5  C   UNL     1     -11.202  11.442  67.389  1.00  0.00    -0.305 A  
HETATM    6  C   UNL     1     -10.840  10.189  66.922  1.00  0.00    -0.176 A  
HETATM    7  C   UNL     1      -9.739   9.604  67.631  1.00  0.00    -0.182 A  
HETATM    8  C   UNL     1      -9.277  10.467  68.589  1.00  0.00    -0.172 A  
HETATM    9  C   UNL     1      -8.107  10.196  69.449  1.00  0.00    -0.163 C  
HETATM   10  S   UNL     1     -10.185  11.896  68.698  1.00  0.00    -0.152 SA 
HETATM   11  C   UNL     1      -7.763   8.695  69.456  1.00  0.00    -0.090 C  
HETATM   12  N   UNL     1      -8.129   7.807  68.327  1.00  0.00    -0.122 NA 
HETATM   13  C   UNL     1      -9.156   8.253  67.363  1.00  0.00    -0.140 C  
BRANCH  12  14
HETATM   14  C   UNL     1      -8.363   6.398  68.815  1.00  0.00    -0.121 C  
BRANCH  14  15
HETATM   15  C   UNL     1      -8.680   5.358  67.732  1.00  0.00    -0.106 A  
HETATM   16  F   UNL     1      -9.456   3.757  69.323  1.00  0.00    -0.201 F  
HETATM   17  C   UNL     1      -8.355   5.579  66.381  1.00  0.00    -0.111 A  
HETATM   18  C   UNL     1      -9.182   4.087  68.056  1.00  0.00    -0.154 A  
HETATM   19  C   UNL     1      -9.388   3.088  67.097  1.00  0.00    -0.178 A  
HETATM   20  C   UNL     1      -8.566   4.590  65.410  1.00  0.00    -0.126 A  
HETATM   21  C   UNL     1      -9.084   3.346  65.768  1.00  0.00    -0.152 A  
ENDBRANCH  14  15
BRANCH  14  22
HETATM   22  C   UNL     1      -9.387   6.415  69.987  1.00  0.00    -0.156 C  
HETATM   23  O   UNL     1      -9.106   6.165  71.157  1.00  0.00    -0.145 OA 
BRANCH  22  24
HETATM   24  C   UNL     1     -10.802   6.759  69.619  1.00  0.00    -0.314 C  
HETATM   25  C   UNL     1     -11.957   6.358  70.512  1.00  0.00    -0.217 C  
HETATM   26  C   UNL     1     -11.532   7.794  70.444  1.00  0.00    -0.171 C  
ENDBRANCH  22  24
ENDBRANCH  14  22
ENDBRANCH  12  14
ENDBRANCH   4   5
ENDBRANCH   2   4
TORSDOF 6
ENDMDL
MODEL      205
REMARK 921   NORMALIZED FREE ENERGY PREDICTED BY IDOCK:   -3.49 KCAL/MOL
REMARK 922        TOTAL FREE ENERGY PREDICTED BY IDOCK:   -5.41 KCAL/MOL
REMARK 923 INTER-LIGAND FREE ENERGY PREDICTED BY IDOCK:   -4.67 KCAL/MOL
REMARK 924 INTRA-LIGAND FREE ENERGY PREDICTED BY IDOCK:   -0.74 KCAL/MOL
REMARK 927      BINDING AFFINITY PREDICTED BY RF-SCORE:    0.00 PKD
ROOT
HETATM    1  C   UNL     1     -10.332   6.316  74.010  1.00  0.00    -0.322 C  
HETATM    2  C   UNL     1     -11.061   5.482  72.996  1.00  0.00    -0.300 C  
HETATM    3  O   UNL     1     -10.863   4.282  72.859  1.00  0.00    -0.189 OA 
ENDROOT
BRANCH   2   4
HETATM    4  O   UNL     1     -11.931   6.263  72.318  1.00  0.00    -0.312 OA 
BRANCH   4   5
HETATM    5  C   UNL     1     -11.576   6.810  71.161  1.00  0.00    -0.329 A  
HETATM    6  C   UNL     1     -11.366   6.260  69.907  1.00  0.00    -0.504 A  
HETATM    7  C   UNL     1     -10.922   7.208  68.927  1.00  0.00    -0.109 A  
HETATM    8  C   UNL     1     -10.856   8.462  69.473  1.00  0.00    -0.117 A  
HETATM    9  C   UNL     1     -10.499   9.677  68.711  1.00  0.00    -0.238 C  
HETATM   10  S   UNL     1     -11.228   8.493  71.127  1.00  0.00    -0.280 SA 
HETATM   11  C   UNL     1      -9.792   9.313  67.393  1.00  0.00    -0.178 C  
HETATM   12  N   UNL     1     -10.008   8.005  66.728  1.00  0.00    -0.256 NA 
HETATM   13  C   UNL     1     -10.591   6.891  67.503  1.00  0.00    -0.281 C  
BRANCH  12  14
HETATM   14  C   UNL     1      -8.777   7.594  65.957  1.00  0.00    -0.156 C  
BRANCH  14  15
HETATM   15  C   UNL     1      -7.593   7.100  66.799  1.00  0.00    -0.093 A  
HETATM   16  F   UNL     1      -7.490   5.010  65.651  1.00  0.00    -0.075 F  
HETATM   17  C   UNL     1      -7.098   7.847  67.885  1.00  0.00    -0.086 A  
HETATM   18  C   UNL     1      -7.039   5.823  66.613  1.00  0.00    -0.069 A  
HETATM   19  C   UNL     1      -6.023   5.312  67.430  1.00  0.00    -0.026 A  
HETATM   20  C   UNL     1      -6.075   7.350  68.704  1.00  0.00    -0.027 A  
HETATM   21  C   UNL     1      -5.537   6.084  68.475  1.00  0.00    -0.012 A  
ENDBRANCH  14  15
BRANCH  14  22
HETATM   22  C   UNL     1      -8.400   8.710  64.940  1.00  0.00    -0.164 C  
HETATM   23  O   UNL     1      -9.202   9.504  64.452  1.00  0.00    -0.231 OA 
BRANCH  22  24
HETATM   24  C   UNL     1      -6.951   8.784  64.551  1.00  0.00    -0.084 C  
HETATM   25  C   UNL     1      -6.511   9.581  63.342  1.00  0.00    -0.102 C  
HETATM   26  C   UNL     1      -6.223  10.098  64.720  1.00  0.00    -0.130 C  
ENDBRANCH  22  24
ENDBRANCH  14  22
ENDBRANCH  12  14
ENDBRANCH   4   5
ENDBRANCH   2   4
TORSDOF 6
ENDMDL
MODEL      206
REMARK 921   NORMALIZED FREE ENERGY PREDICTED BY IDOCK:   -3.49 KCAL/MOL
REMARK 922        TOTAL FREE ENERGY PREDICTED BY IDOCK:   -5.40 KCAL/MOL
REMARK 923 INTER-LIGAND FREE ENERGY PREDICTED BY IDOCK:   -5.06 KCAL/MOL
REMARK 924 INTRA-LIGAND FREE ENERGY PREDICTED BY IDOCK:   -0.35 KCAL/MOL
REMARK 927      BINDING AFFINITY PREDICTED BY RF-SCORE:    0.00 PKD
ROOT
HETATM    1  C   UNL     1     -10.981   3.876  73.571  1.00  0.00    -0.343 C  
HETATM    2  C   UNL     1     -10.466   4.874  72.574  1.00  0.00    -0.205 C  
HETATM    3  O   UNL     1      -9.304   4.888  72.189  1.00  0.00    -0.133 OA 
ENDROOT
BRANCH   2   4
HETATM    4  O   UNL     1     -11.474   5.693  72.201  1.00  0.00    -0.258 OA 
BRANCH   4   5
HETATM    5  C   UNL     1     -11.314   6.529  71.182  1.00  0.00    -0.314 A  
HETATM    6  C   UNL     1     -11.276   6.317  69.813  1.00  0.00    -0.499 A  
HETATM    7  C   UNL     1     -11.015   7.505  69.052  1.00  0.00     0.004 A  
HETATM    8  C   UNL     1     -10.909   8.589  69.883  1.00  0.00    -0.205 A  
HETATM    9  C   UNL     1     -10.711   9.975  69.410  1.00  0.00    -0.258 C  
HETATM   10  S   UNL     1     -11.031   8.189  71.526  1.00  0.00    -0.255 SA 
HETATM   11  C   UNL     1     -10.196   9.993  67.958  1.00  0.00    -0.181 C  
HETATM   12  N   UNL     1     -10.465   8.876  67.022  1.00  0.00    -0.273 NA 
HETATM   13  C   UNL     1     -10.890   7.569  67.563  1.00  0.00    -0.162 C  
BRANCH  12  14
HETATM   14  C   UNL     1      -9.351   8.752  66.011  1.00  0.00    -0.232 C  
BRANCH  14  15
HETATM   15  C   UNL     1      -7.930   8.679  66.588  1.00  0.00    -0.096 A  
HETATM   16  F   UNL     1      -7.667  11.051  66.568  1.00  0.00    -0.131 F  
HETATM   17  C   UNL     1      -7.282   7.447  66.796  1.00  0.00    -0.087 A  
HETATM   18  C   UNL     1      -7.162   9.835  66.805  1.00  0.00    -0.090 A  
HETATM   19  C   UNL     1      -5.832   9.790  67.239  1.00  0.00    -0.051 A  
HETATM   20  C   UNL     1      -5.954   7.389  67.239  1.00  0.00    -0.045 A  
HETATM   21  C   UNL     1      -5.230   8.560  67.462  1.00  0.00    -0.034 A  
ENDBRANCH  14  15
BRANCH  14  22
HETATM   22  C   UNL     1      -9.524   9.834  64.906  1.00  0.00    -0.265 C  
HETATM   23  O   UNL     1     -10.404  10.692  64.907  1.00  0.00    -0.321 OA 
BRANCH  22  24
HETATM   24  C   UNL     1      -8.533   9.787  63.778  1.00  0.00    -0.186 C  
HETATM   25  C   UNL     1      -8.487   8.607  62.833  1.00  0.00    -0.128 C  
HETATM   26  C   UNL     1      -9.043   9.917  62.361  1.00  0.00    -0.308 C  
ENDBRANCH  22  24
ENDBRANCH  14  22
ENDBRANCH  12  14
ENDBRANCH   4   5
ENDBRANCH   2   4
TORSDOF 6
ENDMDL
MODEL      207
REMARK 921   NORMALIZED FREE ENERGY PREDICTED BY IDOCK:   -3.44 KCAL/MOL
REMARK 922        TOTAL FREE ENERGY PREDICTED BY IDOCK:   -5.33 KCAL/MOL
REMARK 923 INTER-LIGAND FREE ENERGY PREDICTED BY IDOCK:   -5.17 KCAL/MOL
REMARK 924 INTRA-LIGAND FREE ENERGY PREDICTED BY IDOCK:   -0.15 KCAL/MOL
REMARK 927      BINDING AFFINITY PREDICTED BY RF-SCORE:    0.00 PKD
ROOT
HETATM    1  C   UNL     1     -12.032  14.207  66.931  1.00  0.00    -0.479 C  
HETATM    2  C   UNL     1     -11.033  14.251  65.811  1.00  0.00    -0.305 C  
HETATM    3  O   UNL     1     -10.640  15.299  65.314  1.00  0.00    -0.355 OA 
ENDROOT
BRANCH   2   4
HETATM    4  O   UNL     1     -10.668  12.991  65.488  1.00  0.00    -0.274 OA 
BRANCH   4   5
HETATM    5  C   UNL     1     -10.064  12.218  66.384  1.00  0.00    -0.226 A  
HETATM    6  C   UNL     1     -10.519  11.143  67.130  1.00  0.00    -0.270 A  
HETATM    7  C   UNL     1      -9.546  10.622  68.045  1.00  0.00    -0.167 A  
HETATM    8  C   UNL     1      -8.364  11.304  67.923  1.00  0.00    -0.131 A  
HETATM    9  C   UNL     1      -7.137  10.970  68.675  1.00  0.00    -0.080 C  
HETATM   10  S   UNL     1      -8.440  12.583  66.812  1.00  0.00     0.001 SA 
HETATM   11  C   UNL     1      -7.462  10.094  69.899  1.00  0.00    -0.170 C  
HETATM   12  N   UNL     1      -8.667   9.232  69.943  1.00  0.00    -0.162 NA 
HETATM   13  C   UNL     1      -9.769   9.486  68.992  1.00  0.00    -0.170 C  
BRANCH  12  14
HETATM   14  C   UNL     1      -9.152   9.072  71.364  1.00  0.00    -0.201 C  
BRANCH  14  15
HETATM   15  C   UNL     1      -8.222   8.292  72.304  1.00  0.00    -0.213 A  
HETATM   16  F   UNL     1      -7.198   7.103  70.505  1.00  0.00    -0.062 F  
HETATM   17  C   UNL     1      -8.326   8.404  73.703  1.00  0.00    -0.175 A  
HETATM   18  C   UNL     1      -7.319   7.332  71.818  1.00  0.00    -0.080 A  
HETATM   19  C   UNL     1      -6.529   6.541  72.661  1.00  0.00    -0.059 A  
HETATM   20  C   UNL     1      -7.534   7.624  74.557  1.00  0.00    -0.180 A  
HETATM   21  C   UNL     1      -6.635   6.695  74.036  1.00  0.00    -0.072 A  
ENDBRANCH  14  15
BRANCH  14  22
HETATM   22  C   UNL     1     -10.618   8.552  71.360  1.00  0.00    -0.245 C  
HETATM   23  O   UNL     1     -11.611   9.277  71.393  1.00  0.00    -0.310 OA 
BRANCH  22  24
HETATM   24  C   UNL     1     -10.788   7.060  71.320  1.00  0.00    -0.260 C  
HETATM   25  C   UNL     1     -11.950   6.430  70.584  1.00  0.00    -0.240 C  
HETATM   26  C   UNL     1     -10.569   6.342  70.008  1.00  0.00    -0.291 C  
ENDBRANCH  22  24
ENDBRANCH  14  22
ENDBRANCH  12  14
ENDBRANCH   4   5
ENDBRANCH   2   4
TORSDOF 6
ENDMDL
MODEL      208
REMARK 921   NORMALIZED FREE ENERGY PREDICTED BY IDOCK:   -3.39 KCAL/MOL
REMARK 922        TOTAL FREE ENERGY PREDICTED BY IDOCK:   -5.27 KCAL/MOL
REMARK 923 INTER-LIGAND FREE ENERGY PREDICTED BY IDOCK:   -5.87 KCAL/MOL
REMARK 924 INTRA-LIGAND FREE ENERGY PREDICTED BY IDOCK:    0.60 KCAL/MOL
REMARK 927      BINDING AFFINITY PREDICTED BY RF-SCORE:    0.00 PKD
ROOT
HETATM    1  C   UNL     1     -10.915   6.391  73.173  1.00  0.00    -0.249 C  
HETATM    2  C   UNL     1     -10.464   6.944  71.852  1.00  0.00    -0.201 C  
HETATM    3  O   UNL     1      -9.285   7.019  71.532  1.00  0.00    -0.153 OA 
ENDROOT
BRANCH   2   4
HETATM    4  O   UNL     1     -11.545   7.309  71.127  1.00  0.00    -0.272 OA 
BRANCH   4   5
HETATM    5  C   UNL     1     -11.669   8.558  70.693  1.00  0.00    -0.144 A  
HETATM    6  C   UNL     1     -11.439   9.129  69.452  1.00  0.00     0.304 A  
HETATM    7  C   UNL     1     -11.638  10.549  69.424  1.00  0.00    -0.318 A  
HETATM    8  C   UNL     1     -12.059  10.995  70.649  1.00  0.00    -0.373 A  
HETATM    9  C   UNL     1     -12.419  12.399  70.937  1.00  0.00    -0.367 C  
HETATM   10  S   UNL     1     -12.131   9.771  71.820  1.00  0.00    -0.262 SA 
HETATM   11  C   UNL     1     -11.848  13.346  69.865  1.00  0.00    -0.315 C  
HETATM   12  N   UNL     1     -11.553  12.878  68.489  1.00  0.00    -0.301 NA 
HETATM   13  C   UNL     1     -11.435  11.428  68.231  1.00  0.00    -0.299 C  
BRANCH  12  14
HETATM   14  C   UNL     1     -10.413  13.669  67.894  1.00  0.00    -0.247 C  
BRANCH  14  15
HETATM   15  C   UNL     1     -10.532  15.196  67.997  1.00  0.00    -0.247 A  
HETATM   16  F   UNL     1      -8.670  15.561  66.549  1.00  0.00    -0.246 F  
HETATM   17  C   UNL     1     -11.459  15.806  68.862  1.00  0.00    -0.381 A  
HETATM   18  C   UNL     1      -9.633  16.051  67.339  1.00  0.00    -0.225 A  
HETATM   19  C   UNL     1      -9.661  17.442  67.493  1.00  0.00    -0.257 A  
HETATM   20  C   UNL     1     -11.503  17.198  69.017  1.00  0.00     0.698 A  
HETATM   21  C   UNL     1     -10.605  18.015  68.332  1.00  0.00    -0.249 A  
ENDBRANCH  14  15
BRANCH  14  22
HETATM   22  C   UNL     1     -10.118  13.158  66.454  1.00  0.00    -0.281 C  
HETATM   23  O   UNL     1      -9.296  12.286  66.182  1.00  0.00    -0.230 OA 
BRANCH  22  24
HETATM   24  C   UNL     1     -10.909  13.805  65.352  1.00  0.00    -0.312 C  
HETATM   25  C   UNL     1     -11.347  13.011  64.141  1.00  0.00    -0.442 C  
HETATM   26  C   UNL     1     -12.357  13.411  65.174  1.00  0.00    -0.501 C  
ENDBRANCH  22  24
ENDBRANCH  14  22
ENDBRANCH  12  14
ENDBRANCH   4   5
ENDBRANCH   2   4
TORSDOF 6
ENDMDL
MODEL      209
REMARK 921   NORMALIZED FREE ENERGY PREDICTED BY IDOCK:   -3.38 KCAL/MOL
REMARK 922        TOTAL FREE ENERGY PREDICTED BY IDOCK:   -5.25 KCAL/MOL
REMARK 923 INTER-LIGAND FREE ENERGY PREDICTED BY IDOCK:   -5.54 KCAL/MOL
REMARK 924 INTRA-LIGAND FREE ENERGY PREDICTED BY IDOCK:    0.28 KCAL/MOL
REMARK 927      BINDING AFFINITY PREDICTED BY RF-SCORE:    0.00 PKD
ROOT
HETATM    1  C   UNL     1      -8.340   6.111  67.595  1.00  0.00    -0.112 C  
HETATM    2  C   UNL     1      -8.365   6.014  66.097  1.00  0.00    -0.126 C  
HETATM    3  O   UNL     1      -7.851   5.087  65.484  1.00  0.00    -0.089 OA 
ENDROOT
BRANCH   2   4
HETATM    4  O   UNL     1      -9.031   7.076  65.592  1.00  0.00    -0.076 OA 
BRANCH   4   5
HETATM    5  C   UNL     1      -8.988   8.250  66.212  1.00  0.00    -0.183 A  
HETATM    6  C   UNL     1      -9.847   8.843  67.123  1.00  0.00    -0.267 A  
HETATM    7  C   UNL     1      -9.458  10.169  67.504  1.00  0.00    -0.172 A  
HETATM    8  C   UNL     1      -8.281  10.515  66.894  1.00  0.00    -0.123 A  
HETATM    9  C   UNL     1      -7.573  11.790  67.128  1.00  0.00    -0.155 C  
HETATM   10  S   UNL     1      -7.704   9.327  65.830  1.00  0.00    -0.099 SA 
HETATM   11  C   UNL     1      -8.512  12.834  67.761  1.00  0.00    -0.177 C  
HETATM   12  N   UNL     1      -9.694  12.435  68.562  1.00  0.00    -0.180 NA 
HETATM   13  C   UNL     1     -10.210  11.055  68.446  1.00  0.00    -0.185 C  
BRANCH  12  14
HETATM   14  C   UNL     1     -10.783  13.473  68.452  1.00  0.00    -0.259 C  
BRANCH  14  15
HETATM   15  C   UNL     1     -10.318  14.900  68.127  1.00  0.00    -0.237 A  
HETATM   16  F   UNL     1      -8.982  15.045  70.100  1.00  0.00    -0.049 F  
HETATM   17  C   UNL     1     -10.830  15.609  67.025  1.00  0.00    -0.294 A  
HETATM   18  C   UNL     1      -9.465  15.611  68.988  1.00  0.00    -0.243 A  
HETATM   19  C   UNL     1      -9.103  16.944  68.763  1.00  0.00    -0.254 A  
HETATM   20  C   UNL     1     -10.467  16.941  66.784  1.00  0.00    -0.260 A  
HETATM   21  C   UNL     1      -9.603  17.608  67.652  1.00  0.00    -0.268 A  
ENDBRANCH  14  15
BRANCH  14  22
HETATM   22  C   UNL     1     -11.716  13.386  69.694  1.00  0.00    -0.310 C  
HETATM   23  O   UNL     1     -12.079  12.335  70.217  1.00  0.00    -0.341 OA 
BRANCH  22  24
HETATM   24  C   UNL     1     -12.188  14.697  70.257  1.00  0.00    -0.389 C  
HETATM   25  C   UNL     1     -13.579  14.840  70.835  1.00  0.00    -0.273 C  
HETATM   26  C   UNL     1     -12.392  14.812  71.750  1.00  0.00    -0.414 C  
ENDBRANCH  22  24
ENDBRANCH  14  22
ENDBRANCH  12  14
ENDBRANCH   4   5
ENDBRANCH   2   4
TORSDOF 6
ENDMDL
MODEL      210
REMARK 921   NORMALIZED FREE ENERGY PREDICTED BY IDOCK:   -3.36 KCAL/MOL
REMARK 922        TOTAL FREE ENERGY PREDICTED BY IDOCK:   -5.22 KCAL/MOL
REMARK 923 INTER-LIGAND FREE ENERGY PREDICTED BY IDOCK:   -4.57 KCAL/MOL
REMARK 924 INTRA-LIGAND FREE ENERGY PREDICTED BY IDOCK:   -0.65 KCAL/MOL
REMARK 927      BINDING AFFINITY PREDICTED BY RF-SCORE:    0.00 PKD
ROOT
HETATM    1  C   UNL     1      -9.618  19.968  66.064  1.00  0.00    -0.420 C  
HETATM    2  C   UNL     1      -8.603  19.154  66.812  1.00  0.00    -0.309 C  
HETATM    3  O   UNL     1      -7.398  19.357  66.730  1.00  0.00    -0.213 OA 
ENDROOT
BRANCH   2   4
HETATM    4  O   UNL     1      -9.238  18.220  67.554  1.00  0.00    -0.253 OA 
BRANCH   4   5
HETATM    5  C   UNL     1      -8.705  17.013  67.711  1.00  0.00    -0.222 A  
HETATM    6  C   UNL     1      -8.732  15.883  66.909  1.00  0.00    -0.272 A  
HETATM    7  C   UNL     1      -8.071  14.750  67.488  1.00  0.00    -0.199 A  
HETATM    8  C   UNL     1      -7.526  15.083  68.699  1.00  0.00    -0.122 A  
HETATM    9  C   UNL     1      -6.718  14.160  69.524  1.00  0.00    -0.112 C  
HETATM   10  S   UNL     1      -7.866  16.676  69.172  1.00  0.00    -0.094 SA 
HETATM   11  C   UNL     1      -6.942  12.698  69.094  1.00  0.00    -0.019 C  
HETATM   12  N   UNL     1      -7.376  12.348  67.720  1.00  0.00    -0.110 NA 
HETATM   13  C   UNL     1      -7.970  13.395  66.863  1.00  0.00     0.181 C  
BRANCH  12  14
HETATM   14  C   UNL     1      -8.187  11.075  67.730  1.00  0.00    -0.117 C  
BRANCH  14  15
HETATM   15  C   UNL     1      -8.355  10.378  66.373  1.00  0.00    -0.139 A  
HETATM   16  F   UNL     1      -6.138   9.493  66.415  1.00  0.00    -0.056 F  
HETATM   17  C   UNL     1      -9.515  10.547  65.595  1.00  0.00    -0.259 A  
HETATM   18  C   UNL     1      -7.307   9.650  65.784  1.00  0.00    -0.100 A  
HETATM   19  C   UNL     1      -7.402   9.086  64.506  1.00  0.00    -0.099 A  
HETATM   20  C   UNL     1      -9.626   9.979  64.319  1.00  0.00    -0.301 A  
HETATM   21  C   UNL     1      -8.571   9.247  63.775  1.00  0.00    -0.206 A  
ENDBRANCH  14  15
BRANCH  14  22
HETATM   22  C   UNL     1      -9.528  11.316  68.481  1.00  0.00    -0.191 C  
HETATM   23  O   UNL     1     -10.304  12.238  68.237  1.00  0.00    -0.209 OA 
BRANCH  22  24
HETATM   24  C   UNL     1      -9.856  10.338  69.572  1.00  0.00    -0.244 C  
HETATM   25  C   UNL     1     -11.122  10.481  70.390  1.00  0.00    -0.321 C  
HETATM   26  C   UNL     1     -11.015   9.388  69.369  1.00  0.00    -0.165 C  
ENDBRANCH  22  24
ENDBRANCH  14  22
ENDBRANCH  12  14
ENDBRANCH   4   5
ENDBRANCH   2   4
TORSDOF 6
ENDMDL
MODEL      211
REMARK 921   NORMALIZED FREE ENERGY PREDICTED BY IDOCK:   -3.32 KCAL/MOL
REMARK 922        TOTAL FREE ENERGY PREDICTED BY IDOCK:   -5.16 KCAL/MOL
REMARK 923 INTER-LIGAND FREE ENERGY PREDICTED BY IDOCK:   -4.80 KCAL/MOL
REMARK 924 INTRA-LIGAND FREE ENERGY PREDICTED BY IDOCK:   -0.36 KCAL/MOL
REMARK 927      BINDING AFFINITY PREDICTED BY RF-SCORE:    0.00 PKD
ROOT
HETATM    1  C   UNL     1     -10.182   3.740  71.758  1.00  0.00    -0.098 C  
HETATM    2  C   UNL     1     -10.529   4.426  73.048  1.00  0.00    -0.183 C  
HETATM    3  O   UNL     1     -10.091   4.061  74.131  1.00  0.00    -0.135 OA 
ENDROOT
BRANCH   2   4
HETATM    4  O   UNL     1     -11.357   5.463  72.794  1.00  0.00    -0.288 OA 
BRANCH   4   5
HETATM    5  C   UNL     1     -10.905   6.542  72.164  1.00  0.00    -0.232 A  
HETATM    6  C   UNL     1     -11.501   7.391  71.246  1.00  0.00    -0.297 A  
HETATM    7  C   UNL     1     -10.627   8.416  70.756  1.00  0.00    -0.240 A  
HETATM    8  C   UNL     1      -9.402   8.329  71.363  1.00  0.00    -0.172 A  
HETATM    9  C   UNL     1      -8.296   9.280  71.130  1.00  0.00    -0.057 C  
HETATM   10  S   UNL     1      -9.271   7.010  72.421  1.00  0.00    -0.131 SA 
HETATM   11  C   UNL     1      -8.519  10.078  69.832  1.00  0.00    -0.150 C  
HETATM   12  N   UNL     1      -9.876  10.303  69.279  1.00  0.00    -0.218 NA 
HETATM   13  C   UNL     1     -10.991   9.450  69.739  1.00  0.00    -0.215 C  
BRANCH  12  14
HETATM   14  C   UNL     1      -9.820  10.426  67.776  1.00  0.00    -0.168 C  
BRANCH  14  15
HETATM   15  C   UNL     1      -8.959   9.383  67.050  1.00  0.00    -0.146 A  
HETATM   16  F   UNL     1     -10.596   7.666  67.318  1.00  0.00    -0.304 F  
HETATM   17  C   UNL     1      -7.647   9.672  66.633  1.00  0.00    -0.098 A  
HETATM   18  C   UNL     1      -9.389   8.056  66.889  1.00  0.00    -0.164 A  
HETATM   19  C   UNL     1      -8.585   7.063  66.317  1.00  0.00    -0.142 A  
HETATM   20  C   UNL     1      -6.835   8.690  66.050  1.00  0.00    -0.065 A  
HETATM   21  C   UNL     1      -7.305   7.386  65.890  1.00  0.00    -0.075 A  
ENDBRANCH  14  15
BRANCH  14  22
HETATM   22  C   UNL     1      -9.489  11.895  67.383  1.00  0.00    -0.175 C  
HETATM   23  O   UNL     1      -8.352  12.353  67.305  1.00  0.00    -0.169 OA 
BRANCH  22  24
HETATM   24  C   UNL     1     -10.668  12.781  67.094  1.00  0.00    -0.264 C  
HETATM   25  C   UNL     1     -11.029  13.155  65.673  1.00  0.00    -0.295 C  
HETATM   26  C   UNL     1     -11.880  12.175  66.424  1.00  0.00    -0.321 C  
ENDBRANCH  22  24
ENDBRANCH  14  22
ENDBRANCH  12  14
ENDBRANCH   4   5
ENDBRANCH   2   4
TORSDOF 6
ENDMDL
MODEL      212
REMARK 921   NORMALIZED FREE ENERGY PREDICTED BY IDOCK:   -3.25 KCAL/MOL
REMARK 922        TOTAL FREE ENERGY PREDICTED BY IDOCK:   -5.07 KCAL/MOL
REMARK 923 INTER-LIGAND FREE ENERGY PREDICTED BY IDOCK:   -4.83 KCAL/MOL
REMARK 924 INTRA-LIGAND FREE ENERGY PREDICTED BY IDOCK:   -0.24 KCAL/MOL
REMARK 927      BINDING AFFINITY PREDICTED BY RF-SCORE:    0.00 PKD
ROOT
HETATM    1  C   UNL     1     -10.515   1.502  63.181  1.00  0.00    -0.133 C  
HETATM    2  C   UNL     1      -9.347   2.362  63.570  1.00  0.00    -0.097 C  
HETATM    3  O   UNL     1      -8.672   2.973  62.751  1.00  0.00    -0.084 OA 
ENDROOT
BRANCH   2   4
HETATM    4  O   UNL     1      -9.204   2.341  64.913  1.00  0.00    -0.135 OA 
BRANCH   4   5
HETATM    5  C   UNL     1      -9.247   3.472  65.609  1.00  0.00    -0.158 A  
HETATM    6  C   UNL     1      -8.367   4.023  66.527  1.00  0.00    -0.104 A  
HETATM    7  C   UNL     1      -8.830   5.251  67.104  1.00  0.00    -0.109 A  
HETATM    8  C   UNL     1     -10.036   5.608  66.561  1.00  0.00    -0.176 A  
HETATM    9  C   UNL     1     -10.752   6.858  66.890  1.00  0.00    -0.386 C  
HETATM   10  S   UNL     1     -10.639   4.469  65.459  1.00  0.00    -0.062 SA 
HETATM   11  C   UNL     1     -10.227   7.464  68.205  1.00  0.00    -0.187 C  
HETATM   12  N   UNL     1      -8.853   7.196  68.693  1.00  0.00    -0.127 NA 
HETATM   13  C   UNL     1      -8.104   6.048  68.140  1.00  0.00    -0.110 C  
BRANCH  12  14
HETATM   14  C   UNL     1      -8.808   7.247  70.201  1.00  0.00    -0.145 C  
BRANCH  14  15
HETATM   15  C   UNL     1      -8.798   5.889  70.917  1.00  0.00    -0.141 A  
HETATM   16  F   UNL     1     -10.783   5.155  69.814  1.00  0.00    -0.362 F  
HETATM   17  C   UNL     1      -7.859   5.593  71.922  1.00  0.00    -0.106 A  
HETATM   18  C   UNL     1      -9.805   4.934  70.700  1.00  0.00    -0.219 A  
HETATM   19  C   UNL     1      -9.872   3.730  71.409  1.00  0.00    -0.226 A  
HETATM   20  C   UNL     1      -7.909   4.386  72.633  1.00  0.00    -0.086 A  
HETATM   21  C   UNL     1      -8.914   3.454  72.375  1.00  0.00    -0.123 A  
ENDBRANCH  14  15
BRANCH  14  22
HETATM   22  C   UNL     1      -9.900   8.224  70.724  1.00  0.00    -0.179 C  
HETATM   23  O   UNL     1      -9.933   9.426  70.473  1.00  0.00    -0.230 OA 
BRANCH  22  24
HETATM   24  C   UNL     1     -10.963   7.616  71.595  1.00  0.00    -0.267 C  
HETATM   25  C   UNL     1     -10.839   7.640  73.103  1.00  0.00    -0.440 C  
HETATM   26  C   UNL     1     -11.831   8.536  72.423  1.00  0.00    -0.437 C  
ENDBRANCH  22  24
ENDBRANCH  14  22
ENDBRANCH  12  14
ENDBRANCH   4   5
ENDBRANCH   2   4
TORSDOF 6
ENDMDL
MODEL      213
REMARK 921   NORMALIZED FREE ENERGY PREDICTED BY IDOCK:   -3.21 KCAL/MOL
REMARK 922        TOTAL FREE ENERGY PREDICTED BY IDOCK:   -5.02 KCAL/MOL
REMARK 923 INTER-LIGAND FREE ENERGY PREDICTED BY IDOCK:   -4.09 KCAL/MOL
REMARK 924 INTRA-LIGAND FREE ENERGY PREDICTED BY IDOCK:   -0.93 KCAL/MOL
REMARK 927      BINDING AFFINITY PREDICTED BY RF-SCORE:    0.00 PKD
ROOT
HETATM    1  C   UNL     1      -6.578  14.782  69.697  1.00  0.00    -0.161 C  
HETATM    2  C   UNL     1      -6.695  13.956  68.449  1.00  0.00    -0.099 C  
HETATM    3  O   UNL     1      -5.921  14.066  67.507  1.00  0.00    -0.334 OA 
ENDROOT
BRANCH   2   4
HETATM    4  O   UNL     1      -7.746  13.115  68.567  1.00  0.00    -0.131 OA 
BRANCH   4   5
HETATM    5  C   UNL     1      -7.579  11.808  68.395  1.00  0.00    -0.123 A  
HETATM    6  C   UNL     1      -8.011  10.948  67.398  1.00  0.00    -0.113 A  
HETATM    7  C   UNL     1      -7.663   9.576  67.630  1.00  0.00    -0.095 A  
HETATM    8  C   UNL     1      -6.934   9.458  68.784  1.00  0.00    -0.064 A  
HETATM    9  C   UNL     1      -6.362   8.186  69.272  1.00  0.00    -0.039 C  
HETATM   10  S   UNL     1      -6.745  10.925  69.611  1.00  0.00    -0.135 SA 
HETATM   11  C   UNL     1      -7.044   6.980  68.599  1.00  0.00    -0.092 C  
HETATM   12  N   UNL     1      -7.687   7.091  67.267  1.00  0.00    -0.107 NA 
HETATM   13  C   UNL     1      -8.023   8.430  66.739  1.00  0.00    -0.098 C  
BRANCH  12  14
HETATM   14  C   UNL     1      -8.832   6.115  67.149  1.00  0.00    -0.108 C  
BRANCH  14  15
HETATM   15  C   UNL     1      -9.673   5.914  68.417  1.00  0.00    -0.151 A  
HETATM   16  F   UNL     1     -10.969   7.878  68.018  1.00  0.00    -0.199 F  
HETATM   17  C   UNL     1      -9.390   4.884  69.334  1.00  0.00    -0.186 A  
HETATM   18  C   UNL     1     -10.675   6.826  68.790  1.00  0.00    -0.239 A  
HETATM   19  C   UNL     1     -11.389   6.717  69.988  1.00  0.00    -0.440 A  
HETATM   20  C   UNL     1     -10.105   4.760  70.532  1.00  0.00    -0.291 A  
HETATM   21  C   UNL     1     -11.106   5.674  70.858  1.00  0.00    -0.200 A  
ENDBRANCH  14  15
BRANCH  14  22
HETATM   22  C   UNL     1      -8.325   4.788  66.516  1.00  0.00    -0.107 C  
HETATM   23  O   UNL     1      -7.144   4.450  66.464  1.00  0.00    -0.067 OA 
BRANCH  22  24
HETATM   24  C   UNL     1      -9.381   3.890  65.935  1.00  0.00    -0.165 C  
HETATM   25  C   UNL     1     -10.641   4.466  65.325  1.00  0.00    -0.181 C  
HETATM   26  C   UNL     1      -9.582   3.886  64.436  1.00  0.00    -0.170 C  
ENDBRANCH  22  24
ENDBRANCH  14  22
ENDBRANCH  12  14
ENDBRANCH   4   5
ENDBRANCH   2   4
TORSDOF 6
ENDMDL
MODEL      214
REMARK 921   NORMALIZED FREE ENERGY PREDICTED BY IDOCK:   -3.20 KCAL/MOL
REMARK 922        TOTAL FREE ENERGY PREDICTED BY IDOCK:   -5.01 KCAL/MOL
REMARK 923 INTER-LIGAND FREE ENERGY PREDICTED BY IDOCK:   -4.29 KCAL/MOL
REMARK 924 INTRA-LIGAND FREE ENERGY PREDICTED BY IDOCK:   -0.72 KCAL/MOL
REMARK 927      BINDING AFFINITY PREDICTED BY RF-SCORE:    0.00 PKD
ROOT
HETATM    1  C   UNL     1     -10.601   2.302  63.522  1.00  0.00    -0.161 C  
HETATM    2  C   UNL     1      -9.368   2.896  64.139  1.00  0.00    -0.126 C  
HETATM    3  O   UNL     1      -8.472   3.401  63.476  1.00  0.00    -0.089 OA 
ENDROOT
BRANCH   2   4
HETATM    4  O   UNL     1      -9.442   2.780  65.484  1.00  0.00    -0.103 OA 
BRANCH   4   5
HETATM    5  C   UNL     1      -9.444   3.866  66.249  1.00  0.00    -0.188 A  
HETATM    6  C   UNL     1      -8.747   4.180  67.405  1.00  0.00    -0.115 A  
HETATM    7  C   UNL     1      -9.095   5.455  67.961  1.00  0.00    -0.114 A  
HETATM    8  C   UNL     1     -10.021   6.082  67.170  1.00  0.00    -0.156 A  
HETATM    9  C   UNL     1     -10.539   7.442  67.425  1.00  0.00    -0.371 C  
HETATM   10  S   UNL     1     -10.524   5.142  65.851  1.00  0.00    -0.054 SA 
HETATM   11  C   UNL     1     -10.271   7.870  68.881  1.00  0.00    -0.205 C  
HETATM   12  N   UNL     1      -9.154   7.295  69.669  1.00  0.00    -0.141 NA 
HETATM   13  C   UNL     1      -8.526   6.037  69.215  1.00  0.00    -0.115 C  
BRANCH  12  14
HETATM   14  C   UNL     1      -9.499   7.276  71.138  1.00  0.00    -0.156 C  
BRANCH  14  15
HETATM   15  C   UNL     1      -8.360   7.648  72.098  1.00  0.00    -0.134 A  
HETATM   16  F   UNL     1      -9.823   7.782  73.978  1.00  0.00    -0.309 F  
HETATM   17  C   UNL     1      -7.052   7.880  71.633  1.00  0.00    -0.067 A  
HETATM   18  C   UNL     1      -8.597   7.906  73.457  1.00  0.00    -0.243 A  
HETATM   19  C   UNL     1      -7.594   8.340  74.332  1.00  0.00    -0.275 A  
HETATM   20  C   UNL     1      -6.037   8.305  72.501  1.00  0.00    -0.066 A  
HETATM   21  C   UNL     1      -6.307   8.533  73.850  1.00  0.00    -0.134 A  
ENDBRANCH  14  15
BRANCH  14  22
HETATM   22  C   UNL     1     -10.204   5.934  71.492  1.00  0.00    -0.205 C  
HETATM   23  O   UNL     1     -11.408   5.728  71.360  1.00  0.00    -0.225 OA 
BRANCH  22  24
HETATM   24  C   UNL     1      -9.318   4.848  72.034  1.00  0.00    -0.175 C  
HETATM   25  C   UNL     1      -9.491   4.337  73.447  1.00  0.00    -0.125 C  
HETATM   26  C   UNL     1      -9.919   3.485  72.290  1.00  0.00    -0.236 C  
ENDBRANCH  22  24
ENDBRANCH  14  22
ENDBRANCH  12  14
ENDBRANCH   4   5
ENDBRANCH   2   4
TORSDOF 6
ENDMDL
MODEL      215
REMARK 921   NORMALIZED FREE ENERGY PREDICTED BY IDOCK:   -3.17 KCAL/MOL
REMARK 922        TOTAL FREE ENERGY PREDICTED BY IDOCK:   -4.97 KCAL/MOL
REMARK 923 INTER-LIGAND FREE ENERGY PREDICTED BY IDOCK:   -3.92 KCAL/MOL
REMARK 924 INTRA-LIGAND FREE ENERGY PREDICTED BY IDOCK:   -1.05 KCAL/MOL
REMARK 927      BINDING AFFINITY PREDICTED BY RF-SCORE:    0.00 PKD
ROOT
HETATM    1  C   UNL     1      -8.608  13.788  67.084  1.00  0.00    -0.210 C  
HETATM    2  C   UNL     1      -9.657  12.751  66.808  1.00  0.00    -0.244 C  
HETATM    3  O   UNL     1      -9.772  12.195  65.723  1.00  0.00    -0.245 OA 
ENDROOT
BRANCH   2   4
HETATM    4  O   UNL     1     -10.396  12.555  67.923  1.00  0.00    -0.206 OA 
BRANCH   4   5
HETATM    5  C   UNL     1     -10.182  11.491  68.689  1.00  0.00    -0.208 A  
HETATM    6  C   UNL     1      -9.017  10.947  69.207  1.00  0.00     0.012 A  
HETATM    7  C   UNL     1      -9.224   9.735  69.945  1.00  0.00    -0.263 A  
HETATM    8  C   UNL     1     -10.558   9.429  69.994  1.00  0.00    -0.235 A  
HETATM    9  C   UNL     1     -11.115   8.279  70.735  1.00  0.00    -0.280 C  
HETATM   10  S   UNL     1     -11.526  10.508  69.113  1.00  0.00    -0.222 SA 
HETATM   11  C   UNL     1     -10.019   7.244  71.052  1.00  0.00    -0.187 C  
HETATM   12  N   UNL     1      -8.591   7.630  71.158  1.00  0.00    -0.129 NA 
HETATM   13  C   UNL     1      -8.149   8.919  70.588  1.00  0.00    -0.144 C  
BRANCH  12  14
HETATM   14  C   UNL     1      -7.701   6.480  70.754  1.00  0.00    -0.101 C  
BRANCH  14  15
HETATM   15  C   UNL     1      -8.250   5.564  69.651  1.00  0.00    -0.101 A  
HETATM   16  F   UNL     1      -7.887   7.194  67.946  1.00  0.00    -0.105 F  
HETATM   17  C   UNL     1      -8.817   4.310  69.949  1.00  0.00    -0.130 A  
HETATM   18  C   UNL     1      -8.336   5.988  68.316  1.00  0.00    -0.113 A  
HETATM   19  C   UNL     1      -8.920   5.210  67.309  1.00  0.00    -0.112 A  
HETATM   20  C   UNL     1      -9.396   3.518  68.949  1.00  0.00    -0.236 A  
HETATM   21  C   UNL     1      -9.445   3.966  67.630  1.00  0.00    -0.233 A  
ENDBRANCH  14  15
BRANCH  14  22
HETATM   22  C   UNL     1      -7.224   5.716  72.023  1.00  0.00    -0.088 C  
HETATM   23  O   UNL     1      -7.864   5.641  73.069  1.00  0.00    -0.100 OA 
BRANCH  22  24
HETATM   24  C   UNL     1      -5.883   5.046  71.923  1.00  0.00    -0.020 C  
HETATM   25  C   UNL     1      -5.187   4.511  73.156  1.00  0.00    -0.008 C  
HETATM   26  C   UNL     1      -5.798   3.558  72.173  1.00  0.00    -0.009 C  
ENDBRANCH  22  24
ENDBRANCH  14  22
ENDBRANCH  12  14
ENDBRANCH   4   5
ENDBRANCH   2   4
TORSDOF 6
ENDMDL
MODEL      216
REMARK 921   NORMALIZED FREE ENERGY PREDICTED BY IDOCK:   -3.14 KCAL/MOL
REMARK 922        TOTAL FREE ENERGY PREDICTED BY IDOCK:   -4.93 KCAL/MOL
REMARK 923 INTER-LIGAND FREE ENERGY PREDICTED BY IDOCK:   -4.91 KCAL/MOL
REMARK 924 INTRA-LIGAND FREE ENERGY PREDICTED BY IDOCK:   -0.02 KCAL/MOL
REMARK 927      BINDING AFFINITY PREDICTED BY RF-SCORE:    0.00 PKD
ROOT
HETATM    1  C   UNL     1     -12.331  16.208  73.625  1.00  0.00    -0.667 C  
HETATM    2  C   UNL     1     -12.488  15.068  72.661  1.00  0.00    -0.364 C  
HETATM    3  O   UNL     1     -12.320  13.899  72.983  1.00  0.00     0.074 OA 
ENDROOT
BRANCH   2   4
HETATM    4  O   UNL     1     -12.839  15.553  71.449  1.00  0.00    -0.403 OA 
BRANCH   4   5
HETATM    5  C   UNL     1     -12.256  15.091  70.349  1.00  0.00    -0.341 A  
HETATM    6  C   UNL     1     -12.063  13.802  69.879  1.00  0.00    -0.412 A  
HETATM    7  C   UNL     1     -11.316  13.739  68.657  1.00  0.00    -0.321 A  
HETATM    8  C   UNL     1     -11.008  15.000  68.221  1.00  0.00    -0.271 A  
HETATM    9  C   UNL     1     -10.302  15.286  66.955  1.00  0.00    -0.278 C  
HETATM   10  S   UNL     1     -11.518  16.220  69.282  1.00  0.00    -0.182 SA 
HETATM   11  C   UNL     1      -9.578  14.032  66.431  1.00  0.00    -0.283 C  
HETATM   12  N   UNL     1     -10.032  12.666  66.784  1.00  0.00    -0.229 NA 
HETATM   13  C   UNL     1     -10.934  12.483  67.940  1.00  0.00    -0.227 C  
BRANCH  12  14
HETATM   14  C   UNL     1      -8.865  11.708  66.801  1.00  0.00    -0.184 C  
BRANCH  14  15
HETATM   15  C   UNL     1      -9.203  10.237  66.521  1.00  0.00    -0.179 A  
HETATM   16  F   UNL     1      -7.955  10.210  64.486  1.00  0.00    -0.134 F  
HETATM   17  C   UNL     1     -10.092   9.516  67.340  1.00  0.00    -0.262 A  
HETATM   18  C   UNL     1      -8.749   9.584  65.364  1.00  0.00    -0.164 A  
HETATM   19  C   UNL     1      -9.121   8.274  65.038  1.00  0.00     0.252 A  
HETATM   20  C   UNL     1     -10.464   8.202  67.030  1.00  0.00    -0.396 A  
HETATM   21  C   UNL     1      -9.977   7.580  65.880  1.00  0.00     0.563 A  
ENDBRANCH  14  15
BRANCH  14  22
HETATM   22  C   UNL     1      -8.029  11.925  68.095  1.00  0.00    -0.151 C  
HETATM   23  O   UNL     1      -7.970  12.985  68.714  1.00  0.00    -0.069 OA 
BRANCH  22  24
HETATM   24  C   UNL     1      -7.254  10.734  68.584  1.00  0.00    -0.089 C  
HETATM   25  C   UNL     1      -5.978  10.912  69.380  1.00  0.00    -0.048 C  
HETATM   26  C   UNL     1      -7.227  10.449  70.068  1.00  0.00    -0.143 C  
ENDBRANCH  22  24
ENDBRANCH  14  22
ENDBRANCH  12  14
ENDBRANCH   4   5
ENDBRANCH   2   4
TORSDOF 6
ENDMDL
MODEL      217
REMARK 921   NORMALIZED FREE ENERGY PREDICTED BY IDOCK:   -3.14 KCAL/MOL
REMARK 922        TOTAL FREE ENERGY PREDICTED BY IDOCK:   -4.93 KCAL/MOL
REMARK 923 INTER-LIGAND FREE ENERGY PREDICTED BY IDOCK:   -4.95 KCAL/MOL
REMARK 924 INTRA-LIGAND FREE ENERGY PREDICTED BY IDOCK:    0.02 KCAL/MOL
REMARK 927      BINDING AFFINITY PREDICTED BY RF-SCORE:    0.00 PKD
ROOT
HETATM    1  C   UNL     1      -9.005  18.398  68.221  1.00  0.00    -0.330 C  
HETATM    2  C   UNL     1      -8.134  17.673  67.236  1.00  0.00    -0.209 C  
HETATM    3  O   UNL     1      -6.915  17.620  67.343  1.00  0.00    -0.163 OA 
ENDROOT
BRANCH   2   4
HETATM    4  O   UNL     1      -8.908  17.118  66.278  1.00  0.00    -0.323 OA 
BRANCH   4   5
HETATM    5  C   UNL     1      -9.295  15.852  66.380  1.00  0.00    -0.297 A  
HETATM    6  C   UNL     1      -9.099  14.906  67.374  1.00  0.00    -0.196 A  
HETATM    7  C   UNL     1      -9.638  13.616  67.056  1.00  0.00    -0.251 A  
HETATM    8  C   UNL     1     -10.267  13.648  65.840  1.00  0.00    -0.311 A  
HETATM    9  C   UNL     1     -10.987  12.500  65.252  1.00  0.00    -0.329 C  
HETATM   10  S   UNL     1     -10.143  15.149  65.061  1.00  0.00    -0.103 SA 
HETATM   11  C   UNL     1     -10.569  11.182  65.930  1.00  0.00    -0.234 C  
HETATM   12  N   UNL     1     -10.042  11.151  67.316  1.00  0.00    -0.184 NA 
HETATM   13  C   UNL     1      -9.548  12.402  67.926  1.00  0.00    -0.205 C  
BRANCH  12  14
HETATM   14  C   UNL     1      -9.082  10.000  67.491  1.00  0.00    -0.134 C  
BRANCH  14  15
HETATM   15  C   UNL     1      -9.247   9.181  68.779  1.00  0.00    -0.136 A  
HETATM   16  F   UNL     1     -11.156  10.433  69.477  1.00  0.00    -0.217 F  
HETATM   17  C   UNL     1      -8.311   8.198  69.153  1.00  0.00    -0.131 A  
HETATM   18  C   UNL     1     -10.259   9.467  69.710  1.00  0.00    -0.220 A  
HETATM   19  C   UNL     1     -10.372   8.799  70.935  1.00  0.00    -0.281 A  
HETATM   20  C   UNL     1      -8.419   7.516  70.372  1.00  0.00    -0.141 A  
HETATM   21  C   UNL     1      -9.450   7.815  71.262  1.00  0.00    -0.173 A  
ENDBRANCH  14  15
BRANCH  14  22
HETATM   22  C   UNL     1      -7.627  10.490  67.241  1.00  0.00    -0.096 C  
HETATM   23  O   UNL     1      -7.135  10.666  66.129  1.00  0.00    -0.128 OA 
BRANCH  22  24
HETATM   24  C   UNL     1      -6.800  10.748  68.469  1.00  0.00    -0.062 C  
HETATM   25  C   UNL     1      -5.296  10.890  68.377  1.00  0.00    -0.043 C  
HETATM   26  C   UNL     1      -6.143  12.101  68.627  1.00  0.00    -0.057 C  
ENDBRANCH  22  24
ENDBRANCH  14  22
ENDBRANCH  12  14
ENDBRANCH   4   5
ENDBRANCH   2   4
TORSDOF 6
ENDMDL
MODEL      218
REMARK 921   NORMALIZED FREE ENERGY PREDICTED BY IDOCK:   -3.14 KCAL/MOL
REMARK 922        TOTAL FREE ENERGY PREDICTED BY IDOCK:   -4.92 KCAL/MOL
REMARK 923 INTER-LIGAND FREE ENERGY PREDICTED BY IDOCK:   -4.79 KCAL/MOL
REMARK 924 INTRA-LIGAND FREE ENERGY PREDICTED BY IDOCK:   -0.14 KCAL/MOL
REMARK 927      BINDING AFFINITY PREDICTED BY RF-SCORE:    0.00 PKD
ROOT
HETATM    1  C   UNL     1     -11.530  14.449  68.580  1.00  0.00    -0.316 C  
HETATM    2  C   UNL     1     -10.376  15.194  67.975  1.00  0.00    -0.240 C  
HETATM    3  O   UNL     1      -9.754  16.058  68.580  1.00  0.00    -0.203 OA 
ENDROOT
BRANCH   2   4
HETATM    4  O   UNL     1     -10.165  14.747  66.718  1.00  0.00    -0.259 OA 
BRANCH   4   5
HETATM    5  C   UNL     1      -9.616  13.554  66.515  1.00  0.00    -0.277 A  
HETATM    6  C   UNL     1     -10.074  12.431  65.846  1.00  0.00    -0.272 A  
HETATM    7  C   UNL     1      -9.181  11.311  65.920  1.00  0.00    -0.229 A  
HETATM    8  C   UNL     1      -8.050  11.649  66.613  1.00  0.00    -0.121 A  
HETATM    9  C   UNL     1      -6.901  10.741  66.810  1.00  0.00    -0.115 C  
HETATM   10  S   UNL     1      -8.088  13.227  67.232  1.00  0.00    -0.099 SA 
HETATM   11  C   UNL     1      -7.303   9.278  66.550  1.00  0.00    -0.092 C  
HETATM   12  N   UNL     1      -8.435   8.927  65.659  1.00  0.00    -0.147 NA 
HETATM   13  C   UNL     1      -9.430   9.965  65.317  1.00  0.00    -0.268 C  
BRANCH  12  14
HETATM   14  C   UNL     1      -9.074   7.633  66.099  1.00  0.00    -0.144 C  
BRANCH  14  15
HETATM   15  C   UNL     1      -9.522   7.572  67.566  1.00  0.00    -0.165 A  
HETATM   16  F   UNL     1     -11.254   5.997  67.100  1.00  0.00    -0.357 F  
HETATM   17  C   UNL     1      -8.958   8.412  68.545  1.00  0.00    -0.136 A  
HETATM   18  C   UNL     1     -10.606   6.777  67.974  1.00  0.00    -0.231 A  
HETATM   19  C   UNL     1     -11.095   6.778  69.285  1.00  0.00    -0.289 A  
HETATM   20  C   UNL     1      -9.432   8.415  69.863  1.00  0.00    -0.166 A  
HETATM   21  C   UNL     1     -10.498   7.596  70.234  1.00  0.00    -0.224 A  
ENDBRANCH  14  15
BRANCH  14  22
HETATM   22  C   UNL     1      -8.180   6.435  65.667  1.00  0.00    -0.140 C  
HETATM   23  O   UNL     1      -8.416   5.703  64.709  1.00  0.00    -0.141 OA 
BRANCH  22  24
HETATM   24  C   UNL     1      -6.959   6.188  66.508  1.00  0.00    -0.067 C  
HETATM   25  C   UNL     1      -6.904   5.026  67.475  1.00  0.00    -0.060 C  
HETATM   26  C   UNL     1      -6.106   4.977  66.206  1.00  0.00    -0.027 C  
ENDBRANCH  22  24
ENDBRANCH  14  22
ENDBRANCH  12  14
ENDBRANCH   4   5
ENDBRANCH   2   4
TORSDOF 6
ENDMDL
MODEL      219
REMARK 921   NORMALIZED FREE ENERGY PREDICTED BY IDOCK:   -3.13 KCAL/MOL
REMARK 922        TOTAL FREE ENERGY PREDICTED BY IDOCK:   -4.92 KCAL/MOL
REMARK 923 INTER-LIGAND FREE ENERGY PREDICTED BY IDOCK:   -5.15 KCAL/MOL
REMARK 924 INTRA-LIGAND FREE ENERGY PREDICTED BY IDOCK:    0.23 KCAL/MOL
REMARK 927      BINDING AFFINITY PREDICTED BY RF-SCORE:    0.00 PKD
ROOT
HETATM    1  C   UNL     1     -13.430   6.816  72.354  1.00  0.00     0.321 C  
HETATM    2  C   UNL     1     -12.437   7.932  72.507  1.00  0.00    -0.090 C  
HETATM    3  O   UNL     1     -12.753   9.053  72.884  1.00  0.00    -0.276 OA 
ENDROOT
BRANCH   2   4
HETATM    4  O   UNL     1     -11.206   7.482  72.180  1.00  0.00    -0.246 OA 
BRANCH   4   5
HETATM    5  C   UNL     1     -10.504   8.087  71.228  1.00  0.00    -0.200 A  
HETATM    6  C   UNL     1     -10.499   9.398  70.779  1.00  0.00    -0.372 A  
HETATM    7  C   UNL     1      -9.620   9.624  69.669  1.00  0.00    -0.225 A  
HETATM    8  C   UNL     1      -8.953   8.472  69.347  1.00  0.00    -0.149 A  
HETATM    9  C   UNL     1      -7.921   8.383  68.293  1.00  0.00    -0.119 C  
HETATM   10  S   UNL     1      -9.424   7.140  70.284  1.00  0.00    -0.161 SA 
HETATM   11  C   UNL     1      -8.013   9.580  67.328  1.00  0.00    -0.106 C  
HETATM   12  N   UNL     1      -8.592  10.878  67.751  1.00  0.00    -0.127 NA 
HETATM   13  C   UNL     1      -9.435  10.930  68.963  1.00  0.00    -0.146 C  
BRANCH  12  14
HETATM   14  C   UNL     1      -9.221  11.585  66.575  1.00  0.00    -0.194 C  
BRANCH  14  15
HETATM   15  C   UNL     1      -9.604  13.054  66.803  1.00  0.00    -0.248 A  
HETATM   16  F   UNL     1     -11.926  12.633  66.443  1.00  0.00    -0.424 F  
HETATM   17  C   UNL     1      -8.626  14.048  66.995  1.00  0.00    -0.193 A  
HETATM   18  C   UNL     1     -10.933  13.495  66.695  1.00  0.00    -0.288 A  
HETATM   19  C   UNL     1     -11.295  14.843  66.804  1.00  0.00    -0.328 A  
HETATM   20  C   UNL     1      -8.977  15.400  67.115  1.00  0.00    -0.236 A  
HETATM   21  C   UNL     1     -10.311  15.796  67.021  1.00  0.00    -0.292 A  
ENDBRANCH  14  15
BRANCH  14  22
HETATM   22  C   UNL     1     -10.379  10.717  66.002  1.00  0.00    -0.238 C  
HETATM   23  O   UNL     1     -11.294  10.248  66.676  1.00  0.00     0.040 OA 
BRANCH  22  24
HETATM   24  C   UNL     1     -10.335  10.454  64.524  1.00  0.00    -0.155 C  
HETATM   25  C   UNL     1     -10.790  11.503  63.533  1.00  0.00    -0.473 C  
HETATM   26  C   UNL     1      -9.328  11.208  63.685  1.00  0.00    -0.226 C  
ENDBRANCH  22  24
ENDBRANCH  14  22
ENDBRANCH  12  14
ENDBRANCH   4   5
ENDBRANCH   2   4
TORSDOF 6
ENDMDL
MODEL      220
REMARK 921   NORMALIZED FREE ENERGY PREDICTED BY IDOCK:   -3.13 KCAL/MOL
REMARK 922        TOTAL FREE ENERGY PREDICTED BY IDOCK:   -4.91 KCAL/MOL
REMARK 923 INTER-LIGAND FREE ENERGY PREDICTED BY IDOCK:   -4.46 KCAL/MOL
REMARK 924 INTRA-LIGAND FREE ENERGY PREDICTED BY IDOCK:   -0.45 KCAL/MOL
REMARK 927      BINDING AFFINITY PREDICTED BY RF-SCORE:    0.00 PKD
ROOT
HETATM    1  C   UNL     1     -11.870  14.266  68.468  1.00  0.00    -0.382 C  
HETATM    2  C   UNL     1     -11.056  14.871  67.361  1.00  0.00    -0.325 C  
HETATM    3  O   UNL     1     -10.723  16.050  67.351  1.00  0.00    -0.313 OA 
ENDROOT
BRANCH   2   4
HETATM    4  O   UNL     1     -10.772  13.921  66.443  1.00  0.00    -0.279 OA 
BRANCH   4   5
HETATM    5  C   UNL     1      -9.896  12.962  66.722  1.00  0.00    -0.241 A  
HETATM    6  C   UNL     1      -9.995  11.581  66.675  1.00  0.00    -0.236 A  
HETATM    7  C   UNL     1      -8.816  10.902  67.127  1.00  0.00    -0.135 A  
HETATM    8  C   UNL     1      -7.843  11.807  67.460  1.00  0.00    -0.148 A  
HETATM    9  C   UNL     1      -6.482  11.433  67.898  1.00  0.00    -0.058 C  
HETATM   10  S   UNL     1      -8.351  13.419  67.321  1.00  0.00    -0.146 SA 
HETATM   11  C   UNL     1      -6.436   9.964  68.358  1.00  0.00    -0.054 C  
HETATM   12  N   UNL     1      -7.402   8.958  67.855  1.00  0.00    -0.084 NA 
HETATM   13  C   UNL     1      -8.651   9.418  67.212  1.00  0.00    -0.128 C  
BRANCH  12  14
HETATM   14  C   UNL     1      -7.642   7.889  68.892  1.00  0.00    -0.100 C  
BRANCH  14  15
HETATM   15  C   UNL     1      -8.166   6.547  68.362  1.00  0.00    -0.114 A  
HETATM   16  F   UNL     1      -8.136   5.540  70.526  1.00  0.00    -0.094 F  
HETATM   17  C   UNL     1      -8.351   6.320  66.985  1.00  0.00    -0.109 A  
HETATM   18  C   UNL     1      -8.355   5.443  69.209  1.00  0.00    -0.096 A  
HETATM   19  C   UNL     1      -8.740   4.183  68.736  1.00  0.00    -0.128 A  
HETATM   20  C   UNL     1      -8.745   5.066  66.501  1.00  0.00    -0.109 A  
HETATM   21  C   UNL     1      -8.941   3.998  67.376  1.00  0.00    -0.146 A  
ENDBRANCH  14  15
BRANCH  14  22
HETATM   22  C   UNL     1      -8.486   8.474  70.061  1.00  0.00    -0.125 C  
HETATM   23  O   UNL     1      -8.011   9.019  71.054  1.00  0.00    -0.143 OA 
BRANCH  22  24
HETATM   24  C   UNL     1      -9.977   8.337  69.928  1.00  0.00    -0.190 C  
HETATM   25  C   UNL     1     -10.760   7.439  70.861  1.00  0.00    -0.248 C  
HETATM   26  C   UNL     1     -10.856   8.928  71.007  1.00  0.00    -0.326 C  
ENDBRANCH  22  24
ENDBRANCH  14  22
ENDBRANCH  12  14
ENDBRANCH   4   5
ENDBRANCH   2   4
TORSDOF 6
ENDMDL
MODEL      221
REMARK 921   NORMALIZED FREE ENERGY PREDICTED BY IDOCK:   -3.08 KCAL/MOL
REMARK 922        TOTAL FREE ENERGY PREDICTED BY IDOCK:   -4.85 KCAL/MOL
REMARK 923 INTER-LIGAND FREE ENERGY PREDICTED BY IDOCK:   -4.86 KCAL/MOL
REMARK 924 INTRA-LIGAND FREE ENERGY PREDICTED BY IDOCK:    0.01 KCAL/MOL
REMARK 927      BINDING AFFINITY PREDICTED BY RF-SCORE:    0.00 PKD
ROOT
HETATM    1  C   UNL     1     -10.329   3.648  72.338  1.00  0.00    -0.170 C  
HETATM    2  C   UNL     1     -10.014   4.082  73.740  1.00  0.00    -0.128 C  
HETATM    3  O   UNL     1      -9.416   3.370  74.536  1.00  0.00    -0.094 OA 
ENDROOT
BRANCH   2   4
HETATM    4  O   UNL     1     -10.480   5.336  73.935  1.00  0.00    -0.235 OA 
BRANCH   4   5
HETATM    5  C   UNL     1     -10.000   6.347  73.221  1.00  0.00    -0.183 A  
HETATM    6  C   UNL     1     -10.631   7.363  72.522  1.00  0.00    -0.304 A  
HETATM    7  C   UNL     1      -9.728   8.229  71.821  1.00  0.00    -0.278 A  
HETATM    8  C   UNL     1      -8.431   7.856  72.057  1.00  0.00    -0.132 A  
HETATM    9  C   UNL     1      -7.255   8.584  71.538  1.00  0.00    -0.104 C  
HETATM   10  S   UNL     1      -8.297   6.463  73.015  1.00  0.00    -0.115 SA 
HETATM   11  C   UNL     1      -7.649   9.505  70.368  1.00  0.00    -0.159 C  
HETATM   12  N   UNL     1      -9.027  10.034  70.222  1.00  0.00    -0.027 NA 
HETATM   13  C   UNL     1     -10.129   9.387  70.964  1.00  0.00    -0.283 C  
BRANCH  12  14
HETATM   14  C   UNL     1      -9.358  10.255  68.767  1.00  0.00    -0.166 C  
BRANCH  14  15
HETATM   15  C   UNL     1     -10.090  11.563  68.438  1.00  0.00    -0.207 A  
HETATM   16  F   UNL     1     -11.490  11.408  70.365  1.00  0.00    -0.366 F  
HETATM   17  C   UNL     1      -9.844  12.266  67.243  1.00  0.00    -0.208 A  
HETATM   18  C   UNL     1     -11.134  12.046  69.244  1.00  0.00    -0.185 A  
HETATM   19  C   UNL     1     -11.880  13.184  68.915  1.00  0.00    -0.361 A  
HETATM   20  C   UNL     1     -10.578  13.411  66.908  1.00  0.00    -0.273 A  
HETATM   21  C   UNL     1     -11.594  13.871  67.744  1.00  0.00    -0.381 A  
ENDBRANCH  14  15
BRANCH  14  22
HETATM   22  C   UNL     1     -10.050   8.987  68.189  1.00  0.00    -0.191 C  
HETATM   23  O   UNL     1     -11.245   8.915  67.909  1.00  0.00     0.138 OA 
BRANCH  22  24
HETATM   24  C   UNL     1      -9.165   7.791  67.982  1.00  0.00    -0.140 C  
HETATM   25  C   UNL     1      -9.598   6.414  68.438  1.00  0.00    -0.125 C  
HETATM   26  C   UNL     1      -9.587   6.744  66.976  1.00  0.00    -0.188 C  
ENDBRANCH  22  24
ENDBRANCH  14  22
ENDBRANCH  12  14
ENDBRANCH   4   5
ENDBRANCH   2   4
TORSDOF 6
ENDMDL
MODEL      222
REMARK 921   NORMALIZED FREE ENERGY PREDICTED BY IDOCK:   -3.07 KCAL/MOL
REMARK 922        TOTAL FREE ENERGY PREDICTED BY IDOCK:   -4.83 KCAL/MOL
REMARK 923 INTER-LIGAND FREE ENERGY PREDICTED BY IDOCK:   -4.60 KCAL/MOL
REMARK 924 INTRA-LIGAND FREE ENERGY PREDICTED BY IDOCK:   -0.23 KCAL/MOL
REMARK 927      BINDING AFFINITY PREDICTED BY RF-SCORE:    0.00 PKD
ROOT
HETATM    1  C   UNL     1     -14.406   6.732  71.867  1.00  0.00    -0.275 C  
HETATM    2  C   UNL     1     -13.072   7.411  71.974  1.00  0.00    -0.149 C  
HETATM    3  O   UNL     1     -12.953   8.604  72.227  1.00  0.00    -0.363 OA 
ENDROOT
BRANCH   2   4
HETATM    4  O   UNL     1     -12.091   6.506  71.763  1.00  0.00    -0.338 OA 
BRANCH   4   5
HETATM    5  C   UNL     1     -11.039   6.821  71.015  1.00  0.00    -0.273 A  
HETATM    6  C   UNL     1     -10.726   7.966  70.301  1.00  0.00    -0.236 A  
HETATM    7  C   UNL     1      -9.500   7.870  69.563  1.00  0.00    -0.160 A  
HETATM    8  C   UNL     1      -8.904   6.657  69.787  1.00  0.00    -0.144 A  
HETATM    9  C   UNL     1      -7.593   6.266  69.230  1.00  0.00    -0.099 C  
HETATM   10  S   UNL     1      -9.822   5.631  70.777  1.00  0.00    -0.192 SA 
HETATM   11  C   UNL     1      -7.207   7.170  68.043  1.00  0.00    -0.091 C  
HETATM   12  N   UNL     1      -7.738   8.547  67.908  1.00  0.00    -0.102 NA 
HETATM   13  C   UNL     1      -8.932   8.938  68.685  1.00  0.00    -0.137 C  
BRANCH  12  14
HETATM   14  C   UNL     1      -7.838   8.935  66.453  1.00  0.00    -0.103 C  
BRANCH  14  15
HETATM   15  C   UNL     1      -8.633  10.214  66.154  1.00  0.00    -0.147 A  
HETATM   16  F   UNL     1      -7.146  11.582  67.425  1.00  0.00    -0.088 F  
HETATM   17  C   UNL     1      -9.852  10.177  65.451  1.00  0.00    -0.375 A  
HETATM   18  C   UNL     1      -8.253  11.458  66.683  1.00  0.00    -0.163 A  
HETATM   19  C   UNL     1      -9.013  12.620  66.505  1.00  0.00    -0.115 A  
HETATM   20  C   UNL     1     -10.616  11.335  65.258  1.00  0.00    -0.323 A  
HETATM   21  C   UNL     1     -10.196  12.557  65.783  1.00  0.00    -0.289 A  
ENDBRANCH  14  15
BRANCH  14  22
HETATM   22  C   UNL     1      -8.291   7.705  65.614  1.00  0.00    -0.140 C  
HETATM   23  O   UNL     1      -9.184   6.929  65.947  1.00  0.00    -0.086 OA 
BRANCH  22  24
HETATM   24  C   UNL     1      -7.558   7.484  64.321  1.00  0.00    -0.105 C  
HETATM   25  C   UNL     1      -6.246   6.731  64.291  1.00  0.00    -0.035 C  
HETATM   26  C   UNL     1      -7.489   6.082  63.760  1.00  0.00    -0.073 C  
ENDBRANCH  22  24
ENDBRANCH  14  22
ENDBRANCH  12  14
ENDBRANCH   4   5
ENDBRANCH   2   4
TORSDOF 6
ENDMDL
MODEL      223
REMARK 921   NORMALIZED FREE ENERGY PREDICTED BY IDOCK:   -3.05 KCAL/MOL
REMARK 922        TOTAL FREE ENERGY PREDICTED BY IDOCK:   -4.81 KCAL/MOL
REMARK 923 INTER-LIGAND FREE ENERGY PREDICTED BY IDOCK:   -6.30 KCAL/MOL
REMARK 924 INTRA-LIGAND FREE ENERGY PREDICTED BY IDOCK:    1.50 KCAL/MOL
REMARK 927      BINDING AFFINITY PREDICTED BY RF-SCORE:    0.00 PKD
ROOT
HETATM    1  C   UNL     1      -8.738   6.721  67.558  1.00  0.00    -0.119 C  
HETATM    2  C   UNL     1      -8.863   6.514  66.077  1.00  0.00    -0.143 C  
HETATM    3  O   UNL     1      -8.745   5.416  65.548  1.00  0.00    -0.147 OA 
ENDROOT
BRANCH   2   4
HETATM    4  O   UNL     1      -9.126   7.698  65.481  1.00  0.00    -0.006 OA 
BRANCH   4   5
HETATM    5  C   UNL     1      -8.894   8.837  66.124  1.00  0.00    -0.168 A  
HETATM    6  C   UNL     1      -9.704   9.620  66.931  1.00  0.00    -0.240 A  
HETATM    7  C   UNL     1      -9.073  10.826  67.384  1.00  0.00    -0.148 A  
HETATM    8  C   UNL     1      -7.781  10.886  66.933  1.00  0.00    -0.135 A  
HETATM    9  C   UNL     1      -6.836  11.968  67.279  1.00  0.00    -0.150 C  
HETATM   10  S   UNL     1      -7.361   9.587  65.927  1.00  0.00    -0.099 SA 
HETATM   11  C   UNL     1      -7.583  13.205  67.809  1.00  0.00    -0.155 C  
HETATM   12  N   UNL     1      -8.917  13.095  68.448  1.00  0.00    -0.167 NA 
HETATM   13  C   UNL     1      -9.716  11.869  68.241  1.00  0.00    -0.200 C  
BRANCH  12  14
HETATM   14  C   UNL     1      -9.717  14.355  68.223  1.00  0.00    -0.222 C  
BRANCH  14  15
HETATM   15  C   UNL     1     -10.753  14.693  69.304  1.00  0.00    -0.254 A  
HETATM   16  F   UNL     1     -11.959  12.663  68.957  1.00  0.00    -0.309 F  
HETATM   17  C   UNL     1     -10.749  15.935  69.966  1.00  0.00    -0.343 A  
HETATM   18  C   UNL     1     -11.830  13.837  69.586  1.00  0.00    -0.333 A  
HETATM   19  C   UNL     1     -12.839  14.165  70.499  1.00  0.00    -0.310 A  
HETATM   20  C   UNL     1     -11.748  16.272  70.888  1.00  0.00    -0.270 A  
HETATM   21  C   UNL     1     -12.792  15.386  71.156  1.00  0.00    -0.520 A  
ENDBRANCH  14  15
BRANCH  14  22
HETATM   22  C   UNL     1     -10.296  14.355  66.778  1.00  0.00    -0.273 C  
HETATM   23  O   UNL     1      -9.836  15.011  65.847  1.00  0.00    -0.297 OA 
BRANCH  22  24
HETATM   24  C   UNL     1     -11.501  13.486  66.552  1.00  0.00    -0.365 C  
HETATM   25  C   UNL     1     -12.589  13.902  65.586  1.00  0.00    -0.553 C  
HETATM   26  C   UNL     1     -11.652  12.792  65.218  1.00  0.00    -0.379 C  
ENDBRANCH  22  24
ENDBRANCH  14  22
ENDBRANCH  12  14
ENDBRANCH   4   5
ENDBRANCH   2   4
TORSDOF 6
ENDMDL
MODEL      224
REMARK 921   NORMALIZED FREE ENERGY PREDICTED BY IDOCK:   -3.01 KCAL/MOL
REMARK 922        TOTAL FREE ENERGY PREDICTED BY IDOCK:   -4.75 KCAL/MOL
REMARK 923 INTER-LIGAND FREE ENERGY PREDICTED BY IDOCK:   -4.15 KCAL/MOL
REMARK 924 INTRA-LIGAND FREE ENERGY PREDICTED BY IDOCK:   -0.60 KCAL/MOL
REMARK 927      BINDING AFFINITY PREDICTED BY RF-SCORE:    0.00 PKD
ROOT
HETATM    1  C   UNL     1     -13.101   9.442  72.293  1.00  0.00    -0.509 C  
HETATM    2  C   UNL     1     -13.261   8.053  71.745  1.00  0.00    -0.341 C  
HETATM    3  O   UNL     1     -14.297   7.660  71.224  1.00  0.00    -0.397 OA 
ENDROOT
BRANCH   2   4
HETATM    4  O   UNL     1     -12.108   7.369  71.917  1.00  0.00    -0.290 OA 
BRANCH   4   5
HETATM    5  C   UNL     1     -11.125   7.480  71.030  1.00  0.00    -0.257 A  
HETATM    6  C   UNL     1     -11.032   8.185  69.841  1.00  0.00    -0.168 A  
HETATM    7  C   UNL     1      -9.796   7.979  69.143  1.00  0.00    -0.178 A  
HETATM    8  C   UNL     1      -8.975   7.152  69.863  1.00  0.00    -0.142 A  
HETATM    9  C   UNL     1      -7.601   6.794  69.454  1.00  0.00    -0.096 C  
HETATM   10  S   UNL     1      -9.690   6.569  71.285  1.00  0.00    -0.173 SA 
HETATM   11  C   UNL     1      -7.379   7.080  67.957  1.00  0.00    -0.097 C  
HETATM   12  N   UNL     1      -8.171   8.103  67.233  1.00  0.00    -0.120 NA 
HETATM   13  C   UNL     1      -9.435   8.586  67.825  1.00  0.00    -0.145 C  
BRANCH  12  14
HETATM   14  C   UNL     1      -8.317   7.727  65.778  1.00  0.00    -0.137 C  
BRANCH  14  15
HETATM   15  C   UNL     1      -8.033   6.258  65.435  1.00  0.00    -0.118 A  
HETATM   16  F   UNL     1      -5.720   6.673  65.020  1.00  0.00    -0.027 F  
HETATM   17  C   UNL     1      -9.067   5.306  65.360  1.00  0.00    -0.124 A  
HETATM   18  C   UNL     1      -6.755   5.825  65.048  1.00  0.00    -0.047 A  
HETATM   19  C   UNL     1      -6.491   4.513  64.638  1.00  0.00    -0.039 A  
HETATM   20  C   UNL     1      -8.815   3.987  64.960  1.00  0.00    -0.128 A  
HETATM   21  C   UNL     1      -7.527   3.590  64.601  1.00  0.00    -0.072 A  
ENDBRANCH  14  15
BRANCH  14  22
HETATM   22  C   UNL     1      -7.533   8.740  64.895  1.00  0.00    -0.095 C  
HETATM   23  O   UNL     1      -6.614   9.447  65.301  1.00  0.00    -0.074 OA 
BRANCH  22  24
HETATM   24  C   UNL     1      -7.964   8.832  63.459  1.00  0.00    -0.158 C  
HETATM   25  C   UNL     1      -7.409   9.906  62.549  1.00  0.00    -0.127 C  
HETATM   26  C   UNL     1      -6.963   8.485  62.380  1.00  0.00    -0.094 C  
ENDBRANCH  22  24
ENDBRANCH  14  22
ENDBRANCH  12  14
ENDBRANCH   4   5
ENDBRANCH   2   4
TORSDOF 6
ENDMDL
MODEL      225
REMARK 921   NORMALIZED FREE ENERGY PREDICTED BY IDOCK:   -2.89 KCAL/MOL
REMARK 922        TOTAL FREE ENERGY PREDICTED BY IDOCK:   -4.58 KCAL/MOL
REMARK 923 INTER-LIGAND FREE ENERGY PREDICTED BY IDOCK:   -5.13 KCAL/MOL
REMARK 924 INTRA-LIGAND FREE ENERGY PREDICTED BY IDOCK:    0.55 KCAL/MOL
REMARK 927      BINDING AFFINITY PREDICTED BY RF-SCORE:    0.00 PKD
ROOT
HETATM    1  C   UNL     1     -13.236  10.479  71.585  1.00  0.00    -0.493 C  
HETATM    2  C   UNL     1     -12.911  11.945  71.598  1.00  0.00    -0.342 C  
HETATM    3  O   UNL     1     -13.574  12.766  72.219  1.00  0.00    -0.556 OA 
ENDROOT
BRANCH   2   4
HETATM    4  O   UNL     1     -11.809  12.165  70.848  1.00  0.00    -0.065 OA 
BRANCH   4   5
HETATM    5  C   UNL     1     -11.465  11.305  69.895  1.00  0.00    -0.293 A  
HETATM    6  C   UNL     1     -11.262   9.935  69.920  1.00  0.00    -0.298 A  
HETATM    7  C   UNL     1     -10.830   9.392  68.665  1.00  0.00    -0.149 A  
HETATM    8  C   UNL     1     -10.767  10.378  67.717  1.00  0.00    -0.279 A  
HETATM    9  C   UNL     1     -10.422  10.140  66.300  1.00  0.00    -0.192 C  
HETATM   10  S   UNL     1     -11.126  11.919  68.326  1.00  0.00    -0.262 SA 
HETATM   11  C   UNL     1      -9.722   8.779  66.124  1.00  0.00    -0.250 C  
HETATM   12  N   UNL     1      -9.936   7.664  67.078  1.00  0.00    -0.215 NA 
HETATM   13  C   UNL     1     -10.508   7.954  68.409  1.00  0.00    -0.166 C  
BRANCH  12  14
HETATM   14  C   UNL     1      -8.709   6.788  67.151  1.00  0.00    -0.119 C  
BRANCH  14  15
HETATM   15  C   UNL     1      -8.457   5.885  65.936  1.00  0.00    -0.141 A  
HETATM   16  F   UNL     1      -6.193   6.606  65.714  1.00  0.00    -0.033 F  
HETATM   17  C   UNL     1      -9.493   5.134  65.349  1.00  0.00    -0.055 A  
HETATM   18  C   UNL     1      -7.220   5.870  65.273  1.00  0.00    -0.073 A  
HETATM   19  C   UNL     1      -6.994   5.129  64.107  1.00  0.00    -0.049 A  
HETATM   20  C   UNL     1      -9.277   4.380  64.187  1.00  0.00    -0.140 A  
HETATM   21  C   UNL     1      -8.028   4.376  63.567  1.00  0.00    -0.086 A  
ENDBRANCH  14  15
BRANCH  14  22
HETATM   22  C   UNL     1      -8.688   6.030  68.510  1.00  0.00    -0.110 C  
HETATM   23  O   UNL     1      -8.044   6.388  69.494  1.00  0.00    -0.114 OA 
BRANCH  22  24
HETATM   24  C   UNL     1      -9.520   4.781  68.580  1.00  0.00    -0.208 C  
HETATM   25  C   UNL     1      -8.869   3.418  68.677  1.00  0.00    -0.162 C  
HETATM   26  C   UNL     1      -9.551   4.005  69.877  1.00  0.00    -0.281 C  
ENDBRANCH  22  24
ENDBRANCH  14  22
ENDBRANCH  12  14
ENDBRANCH   4   5
ENDBRANCH   2   4
TORSDOF 6
ENDMDL
MODEL      226
REMARK 921   NORMALIZED FREE ENERGY PREDICTED BY IDOCK:   -2.86 KCAL/MOL
REMARK 922        TOTAL FREE ENERGY PREDICTED BY IDOCK:   -4.54 KCAL/MOL
REMARK 923 INTER-LIGAND FREE ENERGY PREDICTED BY IDOCK:   -4.56 KCAL/MOL
REMARK 924 INTRA-LIGAND FREE ENERGY PREDICTED BY IDOCK:    0.02 KCAL/MOL
REMARK 927      BINDING AFFINITY PREDICTED BY RF-SCORE:    0.00 PKD
ROOT
HETATM    1  C   UNL     1     -11.198   8.429  71.228  1.00  0.00    -0.309 C  
HETATM    2  C   UNL     1     -12.428   8.739  72.030  1.00  0.00    -0.386 C  
HETATM    3  O   UNL     1     -12.567   8.387  73.194  1.00  0.00    -0.084 OA 
ENDROOT
BRANCH   2   4
HETATM    4  O   UNL     1     -13.292   9.446  71.268  1.00  0.00    -0.347 OA 
BRANCH   4   5
HETATM    5  C   UNL     1     -12.854  10.451  70.518  1.00  0.00    -0.254 A  
HETATM    6  C   UNL     1     -12.532  10.524  69.172  1.00  0.00     0.412 A  
HETATM    7  C   UNL     1     -12.028  11.805  68.768  1.00  0.00    -0.317 A  
HETATM    8  C   UNL     1     -12.032  12.674  69.827  1.00  0.00    -0.295 A  
HETATM    9  C   UNL     1     -11.638  14.094  69.730  1.00  0.00    -0.351 C  
HETATM   10  S   UNL     1     -12.538  11.959  71.279  1.00  0.00    -0.184 SA 
HETATM   11  C   UNL     1     -10.818  14.353  68.453  1.00  0.00    -0.248 C  
HETATM   12  N   UNL     1     -10.953  13.493  67.253  1.00  0.00    -0.276 NA 
HETATM   13  C   UNL     1     -11.575  12.160  67.388  1.00  0.00    -0.340 C  
BRANCH  12  14
HETATM   14  C   UNL     1      -9.655  13.453  66.483  1.00  0.00    -0.272 C  
BRANCH  14  15
HETATM   15  C   UNL     1      -8.898  12.118  66.516  1.00  0.00    -0.151 A  
HETATM   16  F   UNL     1      -8.737  12.128  68.897  1.00  0.00    -0.079 F  
HETATM   17  C   UNL     1      -8.491  11.472  65.334  1.00  0.00     0.326 A  
HETATM   18  C   UNL     1      -8.460  11.549  67.723  1.00  0.00    -0.137 A  
HETATM   19  C   UNL     1      -7.686  10.384  67.774  1.00  0.00    -0.089 A  
HETATM   20  C   UNL     1      -7.724  10.300  65.372  1.00  0.00    -0.146 A  
HETATM   21  C   UNL     1      -7.324   9.755  66.591  1.00  0.00    -0.094 A  
ENDBRANCH  14  15
BRANCH  14  22
HETATM   22  C   UNL     1      -8.779  14.680  66.868  1.00  0.00    -0.224 C  
HETATM   23  O   UNL     1      -9.115  15.850  66.704  1.00  0.00    -0.215 OA 
BRANCH  22  24
HETATM   24  C   UNL     1      -7.440  14.368  67.474  1.00  0.00    -0.206 C  
HETATM   25  C   UNL     1      -6.374  15.435  67.593  1.00  0.00    -0.177 C  
HETATM   26  C   UNL     1      -7.098  14.966  68.820  1.00  0.00    -0.115 C  
ENDBRANCH  22  24
ENDBRANCH  14  22
ENDBRANCH  12  14
ENDBRANCH   4   5
ENDBRANCH   2   4
TORSDOF 6
ENDMDL
MODEL      227
REMARK 921   NORMALIZED FREE ENERGY PREDICTED BY IDOCK:   -2.84 KCAL/MOL
REMARK 922        TOTAL FREE ENERGY PREDICTED BY IDOCK:   -4.53 KCAL/MOL
REMARK 923 INTER-LIGAND FREE ENERGY PREDICTED BY IDOCK:   -4.51 KCAL/MOL
REMARK 924 INTRA-LIGAND FREE ENERGY PREDICTED BY IDOCK:   -0.02 KCAL/MOL
REMARK 927      BINDING AFFINITY PREDICTED BY RF-SCORE:    0.00 PKD
ROOT
HETATM    1  C   UNL     1      -9.573   6.790  74.560  1.00  0.00    -0.269 C  
HETATM    2  C   UNL     1      -9.037   7.891  73.692  1.00  0.00    -0.273 C  
HETATM    3  O   UNL     1      -8.071   8.574  74.008  1.00  0.00    -0.366 OA 
ENDROOT
BRANCH   2   4
HETATM    4  O   UNL     1      -9.775   7.969  72.563  1.00  0.00    -0.206 OA 
BRANCH   4   5
HETATM    5  C   UNL     1      -9.453   7.239  71.501  1.00  0.00    -0.152 A  
HETATM    6  C   UNL     1      -8.539   7.448  70.482  1.00  0.00    -0.139 A  
HETATM    7  C   UNL     1      -8.549   6.425  69.478  1.00  0.00    -0.133 A  
HETATM    8  C   UNL     1      -9.452   5.447  69.804  1.00  0.00    -0.151 A  
HETATM    9  C   UNL     1      -9.658   4.217  69.012  1.00  0.00    -0.232 C  
HETATM   10  S   UNL     1     -10.322   5.783  71.220  1.00  0.00    -0.232 SA 
HETATM   11  C   UNL     1      -9.091   4.375  67.589  1.00  0.00    -0.126 C  
HETATM   12  N   UNL     1      -7.994   5.327  67.289  1.00  0.00    -0.100 NA 
HETATM   13  C   UNL     1      -7.693   6.406  68.252  1.00  0.00    -0.104 C  
BRANCH  12  14
HETATM   14  C   UNL     1      -8.103   5.829  65.870  1.00  0.00    -0.113 C  
BRANCH  14  15
HETATM   15  C   UNL     1      -8.391   7.329  65.711  1.00  0.00    -0.140 A  
HETATM   16  F   UNL     1     -10.489   7.171  66.838  1.00  0.00    -0.294 F  
HETATM   17  C   UNL     1      -7.539   8.168  64.968  1.00  0.00    -0.096 A  
HETATM   18  C   UNL     1      -9.582   7.904  66.181  1.00  0.00    -0.057 A  
HETATM   19  C   UNL     1      -9.911   9.248  65.964  1.00  0.00    -0.363 A  
HETATM   20  C   UNL     1      -7.852   9.516  64.753  1.00  0.00    -0.120 A  
HETATM   21  C   UNL     1      -9.037  10.057  65.252  1.00  0.00    -0.243 A  
ENDBRANCH  14  15
BRANCH  14  22
HETATM   22  C   UNL     1      -9.072   4.916  65.065  1.00  0.00    -0.131 C  
HETATM   23  O   UNL     1     -10.230   4.672  65.395  1.00  0.00    -0.197 OA 
BRANCH  22  24
HETATM   24  C   UNL     1      -8.513   4.308  63.810  1.00  0.00    -0.105 C  
HETATM   25  C   UNL     1      -8.710   4.978  62.467  1.00  0.00    -0.115 C  
HETATM   26  C   UNL     1      -7.361   5.003  63.120  1.00  0.00    -0.049 C  
ENDBRANCH  22  24
ENDBRANCH  14  22
ENDBRANCH  12  14
ENDBRANCH   4   5
ENDBRANCH   2   4
TORSDOF 6
ENDMDL
MODEL      228
REMARK 921   NORMALIZED FREE ENERGY PREDICTED BY IDOCK:   -2.74 KCAL/MOL
REMARK 922        TOTAL FREE ENERGY PREDICTED BY IDOCK:   -4.39 KCAL/MOL
REMARK 923 INTER-LIGAND FREE ENERGY PREDICTED BY IDOCK:   -7.72 KCAL/MOL
REMARK 924 INTRA-LIGAND FREE ENERGY PREDICTED BY IDOCK:    3.33 KCAL/MOL
REMARK 927      BINDING AFFINITY PREDICTED BY RF-SCORE:    0.00 PKD
ROOT
HETATM    1  C   UNL     1     -12.303  15.473  74.462  1.00  0.00    -0.756 C  
HETATM    2  C   UNL     1     -12.661  15.438  73.005  1.00  0.00    -0.451 C  
HETATM    3  O   UNL     1     -12.268  16.276  72.204  1.00  0.00    -0.476 OA 
ENDROOT
BRANCH   2   4
HETATM    4  O   UNL     1     -13.443  14.362  72.763  1.00  0.00    -0.486 OA 
BRANCH   4   5
HETATM    5  C   UNL     1     -13.037  13.416  71.923  1.00  0.00    -0.383 A  
HETATM    6  C   UNL     1     -12.913  12.044  72.072  1.00  0.00    -0.374 A  
HETATM    7  C   UNL     1     -12.368  11.386  70.920  1.00  0.00    -0.483 A  
HETATM    8  C   UNL     1     -12.141  12.291  69.917  1.00  0.00    -0.249 A  
HETATM    9  C   UNL     1     -11.646  11.927  68.574  1.00  0.00    -0.375 C  
HETATM   10  S   UNL     1     -12.484  13.889  70.366  1.00  0.00    -0.307 SA 
HETATM   11  C   UNL     1     -11.006  10.526  68.582  1.00  0.00    -0.248 C  
HETATM   12  N   UNL     1     -11.390   9.500  69.581  1.00  0.00    -0.107 NA 
HETATM   13  C   UNL     1     -12.097   9.919  70.809  1.00  0.00    -0.308 C  
BRANCH  12  14
HETATM   14  C   UNL     1     -10.230   8.577  69.865  1.00  0.00    -0.204 C  
BRANCH  14  15
HETATM   15  C   UNL     1     -10.002   8.223  71.341  1.00  0.00    -0.250 A  
HETATM   16  F   UNL     1      -7.855   9.266  71.387  1.00  0.00    -0.150 F  
HETATM   17  C   UNL     1     -10.912   7.423  72.056  1.00  0.00    -0.273 A  
HETATM   18  C   UNL     1      -8.813   8.566  72.006  1.00  0.00    -0.216 A  
HETATM   19  C   UNL     1      -8.541   8.172  73.321  1.00  0.00    -0.308 A  
HETATM   20  C   UNL     1     -10.656   7.030  73.376  1.00  0.00    -0.399 A  
HETATM   21  C   UNL     1      -9.471   7.406  74.010  1.00  0.00    -0.264 A  
ENDBRANCH  14  15
BRANCH  14  22
HETATM   22  C   UNL     1      -8.956   9.102  69.142  1.00  0.00    -0.144 C  
HETATM   23  O   UNL     1      -8.342   8.479  68.278  1.00  0.00    -0.122 OA 
BRANCH  22  24
HETATM   24  C   UNL     1      -8.474  10.461  69.562  1.00  0.00    -0.115 C  
HETATM   25  C   UNL     1      -7.011  10.834  69.456  1.00  0.00    -0.130 C  
HETATM   26  C   UNL     1      -8.000  11.422  68.495  1.00  0.00    -0.143 C  
ENDBRANCH  22  24
ENDBRANCH  14  22
ENDBRANCH  12  14
ENDBRANCH   4   5
ENDBRANCH   2   4
TORSDOF 6
ENDMDL
MODEL      229
REMARK 921   NORMALIZED FREE ENERGY PREDICTED BY IDOCK:   -2.70 KCAL/MOL
REMARK 922        TOTAL FREE ENERGY PREDICTED BY IDOCK:   -4.33 KCAL/MOL
REMARK 923 INTER-LIGAND FREE ENERGY PREDICTED BY IDOCK:   -5.54 KCAL/MOL
REMARK 924 INTRA-LIGAND FREE ENERGY PREDICTED BY IDOCK:    1.21 KCAL/MOL
REMARK 927      BINDING AFFINITY PREDICTED BY RF-SCORE:    0.00 PKD
ROOT
HETATM    1  C   UNL     1     -12.917  11.011  71.426  1.00  0.00    -0.517 C  
HETATM    2  C   UNL     1     -12.694  12.493  71.507  1.00  0.00    -0.220 C  
HETATM    3  O   UNL     1     -13.047  13.166  72.468  1.00  0.00    -0.384 OA 
ENDROOT
BRANCH   2   4
HETATM    4  O   UNL     1     -12.059  12.911  70.390  1.00  0.00    -0.361 OA 
BRANCH   4   5
HETATM    5  C   UNL     1     -11.662  12.032  69.477  1.00  0.00    -0.342 A  
HETATM    6  C   UNL     1     -11.285  10.702  69.581  1.00  0.00    -0.351 A  
HETATM    7  C   UNL     1     -10.859  10.125  68.340  1.00  0.00    -0.284 A  
HETATM    8  C   UNL     1     -10.973  11.038  67.325  1.00  0.00    -0.297 A  
HETATM    9  C   UNL     1     -10.680  10.738  65.908  1.00  0.00    -0.143 C  
HETATM   10  S   UNL     1     -11.491  12.564  67.852  1.00  0.00    -0.335 SA 
HETATM   11  C   UNL     1      -9.824   9.465  65.780  1.00  0.00    -0.275 C  
HETATM   12  N   UNL     1      -9.841   8.406  66.818  1.00  0.00    -0.235 NA 
HETATM   13  C   UNL     1     -10.371   8.722  68.160  1.00  0.00    -0.216 C  
BRANCH  12  14
HETATM   14  C   UNL     1      -8.511   7.695  66.871  1.00  0.00    -0.126 C  
BRANCH  14  15
HETATM   15  C   UNL     1      -8.572   6.161  66.894  1.00  0.00    -0.109 A  
HETATM   16  F   UNL     1     -10.905   6.124  66.394  1.00  0.00    -0.295 F  
HETATM   17  C   UNL     1      -7.457   5.385  67.263  1.00  0.00    -0.084 A  
HETATM   18  C   UNL     1      -9.775   5.468  66.681  1.00  0.00    -0.159 A  
HETATM   19  C   UNL     1      -9.876   4.076  66.791  1.00  0.00    -0.163 A  
HETATM   20  C   UNL     1      -7.544   3.990  67.367  1.00  0.00    -0.072 A  
HETATM   21  C   UNL     1      -8.753   3.336  67.129  1.00  0.00    -0.134 A  
ENDBRANCH  14  15
BRANCH  14  22
HETATM   22  C   UNL     1      -7.637   8.305  68.005  1.00  0.00    -0.102 C  
HETATM   23  O   UNL     1      -7.759   8.032  69.197  1.00  0.00    -0.096 OA 
BRANCH  22  24
HETATM   24  C   UNL     1      -6.592   9.293  67.571  1.00  0.00    -0.064 C  
HETATM   25  C   UNL     1      -6.775  10.117  66.315  1.00  0.00    -0.102 C  
HETATM   26  C   UNL     1      -6.909  10.768  67.659  1.00  0.00    -0.073 C  
ENDBRANCH  22  24
ENDBRANCH  14  22
ENDBRANCH  12  14
ENDBRANCH   4   5
ENDBRANCH   2   4
TORSDOF 6
ENDMDL
MODEL      230
REMARK 921   NORMALIZED FREE ENERGY PREDICTED BY IDOCK:   -2.69 KCAL/MOL
REMARK 922        TOTAL FREE ENERGY PREDICTED BY IDOCK:   -4.32 KCAL/MOL
REMARK 923 INTER-LIGAND FREE ENERGY PREDICTED BY IDOCK:   -5.31 KCAL/MOL
REMARK 924 INTRA-LIGAND FREE ENERGY PREDICTED BY IDOCK:    0.99 KCAL/MOL
REMARK 927      BINDING AFFINITY PREDICTED BY RF-SCORE:    0.00 PKD
ROOT
HETATM    1  C   UNL     1     -13.735  15.867  72.713  1.00  0.00    -0.571 C  
HETATM    2  C   UNL     1     -13.519  15.087  71.448  1.00  0.00    -0.446 C  
HETATM    3  O   UNL     1     -14.403  14.430  70.915  1.00  0.00     0.031 OA 
ENDROOT
BRANCH   2   4
HETATM    4  O   UNL     1     -12.242  15.251  71.035  1.00  0.00    -0.294 OA 
BRANCH   4   5
HETATM    5  C   UNL     1     -11.615  14.270  70.396  1.00  0.00    -0.200 A  
HETATM    6  C   UNL     1     -10.610  14.287  69.442  1.00  0.00    -0.103 A  
HETATM    7  C   UNL     1     -10.255  12.985  68.956  1.00  0.00     0.097 A  
HETATM    8  C   UNL     1     -10.982  12.020  69.602  1.00  0.00     0.098 A  
HETATM    9  C   UNL     1     -10.806  10.570  69.382  1.00  0.00    -0.291 C  
HETATM   10  S   UNL     1     -12.116  12.653  70.692  1.00  0.00    -0.075 SA 
HETATM   11  C   UNL     1     -10.064  10.298  68.061  1.00  0.00    -0.162 C  
HETATM   12  N   UNL     1      -9.148  11.298  67.462  1.00  0.00    -0.150 NA 
HETATM   13  C   UNL     1      -9.227  12.704  67.906  1.00  0.00    -0.201 C  
BRANCH  12  14
HETATM   14  C   UNL     1      -9.128  11.163  65.958  1.00  0.00    -0.203 C  
BRANCH  14  15
HETATM   15  C   UNL     1     -10.226  11.927  65.204  1.00  0.00    -0.314 A  
HETATM   16  F   UNL     1      -9.447  11.186  63.073  1.00  0.00    -0.245 F  
HETATM   17  C   UNL     1     -11.121  12.782  65.873  1.00  0.00    -0.318 A  
HETATM   18  C   UNL     1     -10.301  11.914  63.802  1.00  0.00    -0.415 A  
HETATM   19  C   UNL     1     -11.232  12.677  63.086  1.00  0.00    -0.029 A  
HETATM   20  C   UNL     1     -12.064  13.543  65.169  1.00  0.00    -0.432 A  
HETATM   21  C   UNL     1     -12.120  13.489  63.776  1.00  0.00    -0.482 A  
ENDBRANCH  14  15
BRANCH  14  22
HETATM   22  C   UNL     1      -9.029   9.660  65.569  1.00  0.00    -0.183 C  
HETATM   23  O   UNL     1      -9.964   8.865  65.627  1.00  0.00    -0.108 OA 
BRANCH  22  24
HETATM   24  C   UNL     1      -7.680   9.189  65.102  1.00  0.00    -0.104 C  
HETATM   25  C   UNL     1      -7.369   9.065  63.626  1.00  0.00    -0.100 C  
HETATM   26  C   UNL     1      -6.764  10.181  64.423  1.00  0.00    -0.110 C  
ENDBRANCH  22  24
ENDBRANCH  14  22
ENDBRANCH  12  14
ENDBRANCH   4   5
ENDBRANCH   2   4
TORSDOF 6
ENDMDL
MODEL      231
REMARK 921   NORMALIZED FREE ENERGY PREDICTED BY IDOCK:   -2.68 KCAL/MOL
REMARK 922        TOTAL FREE ENERGY PREDICTED BY IDOCK:   -4.31 KCAL/MOL
REMARK 923 INTER-LIGAND FREE ENERGY PREDICTED BY IDOCK:   -3.47 KCAL/MOL
REMARK 924 INTRA-LIGAND FREE ENERGY PREDICTED BY IDOCK:   -0.84 KCAL/MOL
REMARK 927      BINDING AFFINITY PREDICTED BY RF-SCORE:    0.00 PKD
ROOT
HETATM    1  C   UNL     1      -8.477  13.866  67.151  1.00  0.00    -0.196 C  
HETATM    2  C   UNL     1      -9.724  13.031  67.193  1.00  0.00    -0.230 C  
HETATM    3  O   UNL     1     -10.356  12.732  66.188  1.00  0.00    -0.259 OA 
ENDROOT
BRANCH   2   4
HETATM    4  O   UNL     1      -9.989  12.688  68.473  1.00  0.00    -0.219 OA 
BRANCH   4   5
HETATM    5  C   UNL     1      -9.906  11.419  68.856  1.00  0.00    -0.112 A  
HETATM    6  C   UNL     1      -8.816  10.608  69.127  1.00  0.00    -0.133 A  
HETATM    7  C   UNL     1      -9.170   9.257  69.455  1.00  0.00    -0.159 A  
HETATM    8  C   UNL     1     -10.531   9.109  69.462  1.00  0.00    -0.219 A  
HETATM    9  C   UNL     1     -11.224   7.856  69.828  1.00  0.00     0.003 C  
HETATM   10  S   UNL     1     -11.361  10.516  69.006  1.00  0.00    -0.240 SA 
HETATM   11  C   UNL     1     -10.264   6.654  69.756  1.00  0.00    -0.187 C  
HETATM   12  N   UNL     1      -8.799   6.817  69.918  1.00  0.00    -0.141 NA 
HETATM   13  C   UNL     1      -8.202   8.160  69.763  1.00  0.00    -0.122 C  
BRANCH  12  14
HETATM   14  C   UNL     1      -8.059   5.759  69.135  1.00  0.00    -0.101 C  
BRANCH  14  15
HETATM   15  C   UNL     1      -7.827   6.065  67.649  1.00  0.00    -0.101 A  
HETATM   16  F   UNL     1      -5.556   5.334  67.728  1.00  0.00    -0.010 F  
HETATM   17  C   UNL     1      -8.812   6.692  66.863  1.00  0.00    -0.118 A  
HETATM   18  C   UNL     1      -6.578   5.859  67.041  1.00  0.00    -0.056 A  
HETATM   19  C   UNL     1      -6.313   6.219  65.715  1.00  0.00    -0.038 A  
HETATM   20  C   UNL     1      -8.562   7.048  65.531  1.00  0.00    -0.091 A  
HETATM   21  C   UNL     1      -7.314   6.810  64.957  1.00  0.00    -0.082 A  
ENDBRANCH  14  15
BRANCH  14  22
HETATM   22  C   UNL     1      -8.708   4.368  69.395  1.00  0.00    -0.086 C  
HETATM   23  O   UNL     1      -8.978   3.926  70.510  1.00  0.00    -0.082 OA 
BRANCH  22  24
HETATM   24  C   UNL     1      -9.002   3.541  68.176  1.00  0.00    -0.176 C  
HETATM   25  C   UNL     1      -8.028   2.485  67.700  1.00  0.00    -0.064 C  
HETATM   26  C   UNL     1      -9.312   2.073  68.356  1.00  0.00    -0.250 C  
ENDBRANCH  22  24
ENDBRANCH  14  22
ENDBRANCH  12  14
ENDBRANCH   4   5
ENDBRANCH   2   4
TORSDOF 6
ENDMDL
MODEL      232
REMARK 921   NORMALIZED FREE ENERGY PREDICTED BY IDOCK:   -2.62 KCAL/MOL
REMARK 922        TOTAL FREE ENERGY PREDICTED BY IDOCK:   -4.22 KCAL/MOL
REMARK 923 INTER-LIGAND FREE ENERGY PREDICTED BY IDOCK:   -3.89 KCAL/MOL
REMARK 924 INTRA-LIGAND FREE ENERGY PREDICTED BY IDOCK:   -0.33 KCAL/MOL
REMARK 927      BINDING AFFINITY PREDICTED BY RF-SCORE:    0.00 PKD
ROOT
HETATM    1  C   UNL     1      -7.814   2.448  71.428  1.00  0.00    -0.040 C  
HETATM    2  C   UNL     1      -7.336   3.664  72.167  1.00  0.00    -0.056 C  
HETATM    3  O   UNL     1      -7.813   4.021  73.237  1.00  0.00    -0.081 OA 
ENDROOT
BRANCH   2   4
HETATM    4  O   UNL     1      -6.334   4.245  71.471  1.00  0.00    -0.017 OA 
BRANCH   4   5
HETATM    5  C   UNL     1      -6.596   5.220  70.608  1.00  0.00    -0.038 A  
HETATM    6  C   UNL     1      -6.914   6.555  70.795  1.00  0.00    -0.068 A  
HETATM    7  C   UNL     1      -7.189   7.259  69.576  1.00  0.00    -0.080 A  
HETATM    8  C   UNL     1      -7.022   6.430  68.499  1.00  0.00    -0.080 A  
HETATM    9  C   UNL     1      -7.162   6.864  67.093  1.00  0.00    -0.085 C  
HETATM   10  S   UNL     1      -6.635   4.837  68.932  1.00  0.00    -0.046 SA 
HETATM   11  C   UNL     1      -7.937   8.192  67.001  1.00  0.00    -0.104 C  
HETATM   12  N   UNL     1      -7.967   9.157  68.126  1.00  0.00    -0.100 NA 
HETATM   13  C   UNL     1      -7.586   8.698  69.478  1.00  0.00    -0.088 C  
BRANCH  12  14
HETATM   14  C   UNL     1      -9.259   9.937  68.120  1.00  0.00    -0.128 C  
BRANCH  14  15
HETATM   15  C   UNL     1     -10.229   9.636  69.272  1.00  0.00    -0.215 A  
HETATM   16  F   UNL     1     -10.288   7.302  68.775  1.00  0.00    -0.178 F  
HETATM   17  C   UNL     1     -10.787  10.665  70.053  1.00  0.00    -0.280 A  
HETATM   18  C   UNL     1     -10.707   8.337  69.512  1.00  0.00    -0.174 A  
HETATM   19  C   UNL     1     -11.664   8.053  70.493  1.00  0.00    -0.080 A  
HETATM   20  C   UNL     1     -11.738  10.391  71.045  1.00  0.00    -0.430 A  
HETATM   21  C   UNL     1     -12.175   9.085  71.266  1.00  0.00    -0.373 A  
ENDBRANCH  14  15
BRANCH  14  22
HETATM   22  C   UNL     1      -9.914   9.852  66.711  1.00  0.00    -0.214 C  
HETATM   23  O   UNL     1     -10.654   8.943  66.344  1.00  0.00    -0.139 OA 
BRANCH  22  24
HETATM   24  C   UNL     1      -9.589  10.974  65.766  1.00  0.00    -0.260 C  
HETATM   25  C   UNL     1     -10.629  12.012  65.405  1.00  0.00    -0.319 C  
HETATM   26  C   UNL     1      -9.497  12.379  66.316  1.00  0.00    -0.220 C  
ENDBRANCH  22  24
ENDBRANCH  14  22
ENDBRANCH  12  14
ENDBRANCH   4   5
ENDBRANCH   2   4
TORSDOF 6
ENDMDL
MODEL      233
REMARK 921   NORMALIZED FREE ENERGY PREDICTED BY IDOCK:   -2.61 KCAL/MOL
REMARK 922        TOTAL FREE ENERGY PREDICTED BY IDOCK:   -4.21 KCAL/MOL
REMARK 923 INTER-LIGAND FREE ENERGY PREDICTED BY IDOCK:   -3.98 KCAL/MOL
REMARK 924 INTRA-LIGAND FREE ENERGY PREDICTED BY IDOCK:   -0.23 KCAL/MOL
REMARK 927      BINDING AFFINITY PREDICTED BY RF-SCORE:    0.00 PKD
ROOT
HETATM    1  C   UNL     1      -9.738  12.963  66.843  1.00  0.00    -0.240 C  
HETATM    2  C   UNL     1     -10.943  12.941  67.738  1.00  0.00    -0.243 C  
HETATM    3  O   UNL     1     -11.633  13.931  67.945  1.00  0.00    -0.302 OA 
ENDROOT
BRANCH   2   4
HETATM    4  O   UNL     1     -11.113  11.694  68.229  1.00  0.00    -0.201 OA 
BRANCH   4   5
HETATM    5  C   UNL     1     -10.262  10.726  67.905  1.00  0.00    -0.176 A  
HETATM    6  C   UNL     1     -10.346   9.696  66.982  1.00  0.00    -0.315 A  
HETATM    7  C   UNL     1      -9.214   8.817  66.993  1.00  0.00    -0.177 A  
HETATM    8  C   UNL     1      -8.286   9.247  67.905  1.00  0.00    -0.116 A  
HETATM    9  C   UNL     1      -6.974   8.601  68.115  1.00  0.00    -0.074 C  
HETATM   10  S   UNL     1      -8.789  10.608  68.783  1.00  0.00    -0.164 SA 
HETATM   11  C   UNL     1      -6.963   7.173  67.537  1.00  0.00    -0.079 C  
HETATM   12  N   UNL     1      -7.867   6.774  66.431  1.00  0.00    -0.101 NA 
HETATM   13  C   UNL     1      -9.047   7.609  66.128  1.00  0.00    -0.144 C  
BRANCH  12  14
HETATM   14  C   UNL     1      -8.202   5.305  66.527  1.00  0.00    -0.108 C  
BRANCH  14  15
HETATM   15  C   UNL     1      -8.935   4.706  65.318  1.00  0.00    -0.148 A  
HETATM   16  F   UNL     1      -7.199   5.326  63.802  1.00  0.00    -0.045 F  
HETATM   17  C   UNL     1     -10.236   4.180  65.432  1.00  0.00    -0.190 A  
HETATM   18  C   UNL     1      -8.400   4.778  64.022  1.00  0.00    -0.124 A  
HETATM   19  C   UNL     1      -9.091   4.326  62.891  1.00  0.00    -0.126 A  
HETATM   20  C   UNL     1     -10.934   3.715  64.309  1.00  0.00     0.018 A  
HETATM   21  C   UNL     1     -10.361   3.786  63.040  1.00  0.00    -0.203 A  
ENDBRANCH  14  15
BRANCH  14  22
HETATM   22  C   UNL     1      -8.897   5.015  67.888  1.00  0.00    -0.103 C  
HETATM   23  O   UNL     1      -9.800   5.698  68.366  1.00  0.00    -0.125 OA 
BRANCH  22  24
HETATM   24  C   UNL     1      -8.396   3.815  68.640  1.00  0.00    -0.088 C  
HETATM   25  C   UNL     1      -9.002   3.422  69.970  1.00  0.00    -0.170 C  
HETATM   26  C   UNL     1      -9.293   2.603  68.749  1.00  0.00    -0.230 C  
ENDBRANCH  22  24
ENDBRANCH  14  22
ENDBRANCH  12  14
ENDBRANCH   4   5
ENDBRANCH   2   4
TORSDOF 6
ENDMDL
MODEL      234
REMARK 921   NORMALIZED FREE ENERGY PREDICTED BY IDOCK:   -2.59 KCAL/MOL
REMARK 922        TOTAL FREE ENERGY PREDICTED BY IDOCK:   -4.19 KCAL/MOL
REMARK 923 INTER-LIGAND FREE ENERGY PREDICTED BY IDOCK:   -3.82 KCAL/MOL
REMARK 924 INTRA-LIGAND FREE ENERGY PREDICTED BY IDOCK:   -0.36 KCAL/MOL
REMARK 927      BINDING AFFINITY PREDICTED BY RF-SCORE:    0.00 PKD
ROOT
HETATM    1  C   UNL     1      -8.376   5.634  74.378  1.00  0.00    -0.105 C  
HETATM    2  C   UNL     1      -7.367   4.669  73.827  1.00  0.00    -0.081 C  
HETATM    3  O   UNL     1      -6.204   4.637  74.206  1.00  0.00    -0.046 OA 
ENDROOT
BRANCH   2   4
HETATM    4  O   UNL     1      -7.960   3.884  72.900  1.00  0.00    -0.077 OA 
BRANCH   4   5
HETATM    5  C   UNL     1      -8.287   4.382  71.713  1.00  0.00    -0.106 A  
HETATM    6  C   UNL     1      -7.952   5.572  71.088  1.00  0.00    -0.111 A  
HETATM    7  C   UNL     1      -8.581   5.752  69.812  1.00  0.00    -0.127 A  
HETATM    8  C   UNL     1      -9.342   4.657  69.498  1.00  0.00    -0.141 A  
HETATM    9  C   UNL     1     -10.067   4.495  68.220  1.00  0.00    -0.030 C  
HETATM   10  S   UNL     1      -9.375   3.488  70.726  1.00  0.00    -0.169 SA 
HETATM   11  C   UNL     1     -10.233   5.848  67.505  1.00  0.00    -0.190 C  
HETATM   12  N   UNL     1      -9.294   6.973  67.737  1.00  0.00    -0.126 NA 
HETATM   13  C   UNL     1      -8.425   6.950  68.931  1.00  0.00    -0.125 C  
BRANCH  12  14
HETATM   14  C   UNL     1      -9.998   8.295  67.555  1.00  0.00    -0.193 C  
BRANCH  14  15
HETATM   15  C   UNL     1      -9.481   9.177  66.410  1.00  0.00    -0.288 A  
HETATM   16  F   UNL     1      -7.195   8.762  66.959  1.00  0.00    -0.075 F  
HETATM   17  C   UNL     1     -10.357   9.930  65.606  1.00  0.00    -0.115 A  
HETATM   18  C   UNL     1      -8.107   9.380  66.199  1.00  0.00    -0.111 A  
HETATM   19  C   UNL     1      -7.612  10.253  65.223  1.00  0.00    -0.143 A  
HETATM   20  C   UNL     1      -9.874  10.800  64.620  1.00  0.00    -0.366 A  
HETATM   21  C   UNL     1      -8.502  10.960  64.427  1.00  0.00     0.101 A  
ENDBRANCH  14  15
BRANCH  14  22
HETATM   22  C   UNL     1     -10.087   9.032  68.923  1.00  0.00    -0.196 C  
HETATM   23  O   UNL     1      -9.459  10.050  69.205  1.00  0.00    -0.183 OA 
BRANCH  22  24
HETATM   24  C   UNL     1     -11.010   8.422  69.940  1.00  0.00    -0.166 C  
HETATM   25  C   UNL     1     -10.637   8.389  71.406  1.00  0.00    -0.296 C  
HETATM   26  C   UNL     1     -11.700   9.333  70.929  1.00  0.00    -0.360 C  
ENDBRANCH  22  24
ENDBRANCH  14  22
ENDBRANCH  12  14
ENDBRANCH   4   5
ENDBRANCH   2   4
TORSDOF 6
ENDMDL
MODEL      235
REMARK 921   NORMALIZED FREE ENERGY PREDICTED BY IDOCK:   -2.54 KCAL/MOL
REMARK 922        TOTAL FREE ENERGY PREDICTED BY IDOCK:   -4.11 KCAL/MOL
REMARK 923 INTER-LIGAND FREE ENERGY PREDICTED BY IDOCK:   -4.76 KCAL/MOL
REMARK 924 INTRA-LIGAND FREE ENERGY PREDICTED BY IDOCK:    0.65 KCAL/MOL
REMARK 927      BINDING AFFINITY PREDICTED BY RF-SCORE:    0.00 PKD
ROOT
HETATM    1  C   UNL     1     -10.747  18.043  65.815  1.00  0.00    -0.091 C  
HETATM    2  C   UNL     1      -9.913  19.232  66.196  1.00  0.00    -0.397 C  
HETATM    3  O   UNL     1     -10.399  20.313  66.501  1.00  0.00    -0.418 OA 
ENDROOT
BRANCH   2   4
HETATM    4  O   UNL     1      -8.605  18.893  66.149  1.00  0.00    -0.423 OA 
BRANCH   4   5
HETATM    5  C   UNL     1      -8.186  17.766  66.713  1.00  0.00    -0.250 A  
HETATM    6  C   UNL     1      -8.331  16.440  66.340  1.00  0.00    -0.363 A  
HETATM    7  C   UNL     1      -7.770  15.512  67.279  1.00  0.00    -0.244 A  
HETATM    8  C   UNL     1      -7.177  16.183  68.316  1.00  0.00    -0.135 A  
HETATM    9  C   UNL     1      -6.447  15.521  69.417  1.00  0.00    -0.151 C  
HETATM   10  S   UNL     1      -7.359  17.866  68.217  1.00  0.00    -0.258 SA 
HETATM   11  C   UNL     1      -6.813  14.028  69.503  1.00  0.00    -0.052 C  
HETATM   12  N   UNL     1      -7.299  13.276  68.321  1.00  0.00    -0.102 NA 
HETATM   13  C   UNL     1      -7.806  14.022  67.151  1.00  0.00    -0.024 C  
BRANCH  12  14
HETATM   14  C   UNL     1      -8.226  12.163  68.746  1.00  0.00     0.055 C  
BRANCH  14  15
HETATM   15  C   UNL     1      -7.807  10.746  68.330  1.00  0.00    -0.115 A  
HETATM   16  F   UNL     1      -7.504  11.374  66.047  1.00  0.00    -0.089 F  
HETATM   17  C   UNL     1      -7.844   9.671  69.237  1.00  0.00    -0.098 A  
HETATM   18  C   UNL     1      -7.497  10.431  66.997  1.00  0.00    -0.097 A  
HETATM   19  C   UNL     1      -7.205   9.128  66.575  1.00  0.00    -0.085 A  
HETATM   20  C   UNL     1      -7.544   8.364  68.829  1.00  0.00    -0.101 A  
HETATM   21  C   UNL     1      -7.223   8.093  67.499  1.00  0.00    -0.091 A  
ENDBRANCH  14  15
BRANCH  14  22
HETATM   22  C   UNL     1      -9.689  12.524  68.356  1.00  0.00    -0.189 C  
HETATM   23  O   UNL     1     -10.451  13.184  69.058  1.00  0.00    -0.142 OA 
BRANCH  22  24
HETATM   24  C   UNL     1     -10.163  12.005  67.028  1.00  0.00    -0.224 C  
HETATM   25  C   UNL     1     -11.633  12.014  66.670  1.00  0.00    -0.389 C  
HETATM   26  C   UNL     1     -10.702  12.992  66.017  1.00  0.00    -0.290 C  
ENDBRANCH  22  24
ENDBRANCH  14  22
ENDBRANCH  12  14
ENDBRANCH   4   5
ENDBRANCH   2   4
TORSDOF 6
ENDMDL
MODEL      236
REMARK 921   NORMALIZED FREE ENERGY PREDICTED BY IDOCK:   -2.44 KCAL/MOL
REMARK 922        TOTAL FREE ENERGY PREDICTED BY IDOCK:   -3.98 KCAL/MOL
REMARK 923 INTER-LIGAND FREE ENERGY PREDICTED BY IDOCK:   -3.93 KCAL/MOL
REMARK 924 INTRA-LIGAND FREE ENERGY PREDICTED BY IDOCK:   -0.05 KCAL/MOL
REMARK 927      BINDING AFFINITY PREDICTED BY RF-SCORE:    0.00 PKD
ROOT
HETATM    1  C   UNL     1      -7.515   5.393  68.446  1.00  0.00    -0.073 C  
HETATM    2  C   UNL     1      -8.575   5.032  67.445  1.00  0.00    -0.104 C  
HETATM    3  O   UNL     1      -9.027   3.899  67.338  1.00  0.00    -0.115 OA 
ENDROOT
BRANCH   2   4
HETATM    4  O   UNL     1      -8.916   6.133  66.740  1.00  0.00    -0.118 OA 
BRANCH   4   5
HETATM    5  C   UNL     1      -8.426   7.321  67.075  1.00  0.00    -0.118 A  
HETATM    6  C   UNL     1      -8.845   8.262  68.002  1.00  0.00    -0.135 A  
HETATM    7  C   UNL     1      -8.057   9.460  68.004  1.00  0.00    -0.106 A  
HETATM    8  C   UNL     1      -7.034   9.359  67.098  1.00  0.00    -0.085 A  
HETATM    9  C   UNL     1      -6.000  10.396  66.903  1.00  0.00    -0.057 C  
HETATM   10  S   UNL     1      -7.064   7.915  66.211  1.00  0.00    -0.064 SA 
HETATM   11  C   UNL     1      -6.455  11.746  67.487  1.00  0.00    -0.095 C  
HETATM   12  N   UNL     1      -7.447  11.825  68.586  1.00  0.00    -0.116 NA 
HETATM   13  C   UNL     1      -8.296  10.652  68.875  1.00  0.00    -0.150 C  
BRANCH  12  14
HETATM   14  C   UNL     1      -8.238  13.107  68.494  1.00  0.00    -0.076 C  
BRANCH  14  15
HETATM   15  C   UNL     1      -9.557  13.025  67.713  1.00  0.00    -0.208 A  
HETATM   16  F   UNL     1     -10.870  13.573  69.629  1.00  0.00    -0.164 F  
HETATM   17  C   UNL     1      -9.593  12.601  66.371  1.00  0.00    -0.248 A  
HETATM   18  C   UNL     1     -10.798  13.236  68.336  1.00  0.00    -0.258 A  
HETATM   19  C   UNL     1     -12.018  13.073  67.670  1.00  0.00    -0.353 A  
HETATM   20  C   UNL     1     -10.808  12.443  65.690  1.00  0.00    -0.312 A  
HETATM   21  C   UNL     1     -12.019  12.681  66.338  1.00  0.00    -0.425 A  
ENDBRANCH  14  15
BRANCH  14  22
HETATM   22  C   UNL     1      -7.307  14.265  68.032  1.00  0.00    -0.142 C  
HETATM   23  O   UNL     1      -7.225  14.669  66.874  1.00  0.00    -0.001 OA 
BRANCH  22  24
HETATM   24  C   UNL     1      -6.464  14.899  69.102  1.00  0.00    -0.112 C  
HETATM   25  C   UNL     1      -5.523  16.038  68.777  1.00  0.00    -0.111 C  
HETATM   26  C   UNL     1      -6.787  16.310  69.536  1.00  0.00    -0.188 C  
ENDBRANCH  22  24
ENDBRANCH  14  22
ENDBRANCH  12  14
ENDBRANCH   4   5
ENDBRANCH   2   4
TORSDOF 6
ENDMDL
MODEL      237
REMARK 921   NORMALIZED FREE ENERGY PREDICTED BY IDOCK:   -2.24 KCAL/MOL
REMARK 922        TOTAL FREE ENERGY PREDICTED BY IDOCK:   -3.71 KCAL/MOL
REMARK 923 INTER-LIGAND FREE ENERGY PREDICTED BY IDOCK:   -3.96 KCAL/MOL
REMARK 924 INTRA-LIGAND FREE ENERGY PREDICTED BY IDOCK:    0.25 KCAL/MOL
REMARK 927      BINDING AFFINITY PREDICTED BY RF-SCORE:    0.00 PKD
ROOT
HETATM    1  C   UNL     1      -9.811   4.411  67.366  1.00  0.00    -0.193 C  
HETATM    2  C   UNL     1     -10.335   5.710  66.825  1.00  0.00    -0.262 C  
HETATM    3  O   UNL     1     -11.507   5.872  66.511  1.00  0.00     0.148 OA 
ENDROOT
BRANCH   2   4
HETATM    4  O   UNL     1      -9.328   6.609  66.768  1.00  0.00    -0.147 OA 
BRANCH   4   5
HETATM    5  C   UNL     1      -9.576   7.903  66.935  1.00  0.00    -0.203 A  
HETATM    6  C   UNL     1      -8.976   9.033  66.402  1.00  0.00    -0.189 A  
HETATM    7  C   UNL     1      -9.518  10.263  66.901  1.00  0.00    -0.200 A  
HETATM    8  C   UNL     1     -10.548  10.013  67.769  1.00  0.00    -0.261 A  
HETATM    9  C   UNL     1     -11.365  11.067  68.406  1.00  0.00    -0.363 C  
HETATM   10  S   UNL     1     -10.805   8.360  68.046  1.00  0.00     0.159 SA 
HETATM   11  C   UNL     1     -10.652  12.431  68.342  1.00  0.00    -0.236 C  
HETATM   12  N   UNL     1      -9.655  12.741  67.289  1.00  0.00    -0.203 NA 
HETATM   13  C   UNL     1      -9.046  11.632  66.526  1.00  0.00    -0.197 C  
BRANCH  12  14
HETATM   14  C   UNL     1      -8.632  13.724  67.802  1.00  0.00    -0.184 C  
BRANCH  14  15
HETATM   15  C   UNL     1      -7.441  13.118  68.558  1.00  0.00    -0.117 A  
HETATM   16  F   UNL     1      -6.188  15.147  68.460  1.00  0.00    -0.084 F  
HETATM   17  C   UNL     1      -7.406  11.755  68.906  1.00  0.00    -0.093 A  
HETATM   18  C   UNL     1      -6.278  13.860  68.817  1.00  0.00    -0.088 A  
HETATM   19  C   UNL     1      -5.143  13.304  69.419  1.00  0.00    -0.075 A  
HETATM   20  C   UNL     1      -6.280  11.188  69.517  1.00  0.00    -0.091 A  
HETATM   21  C   UNL     1      -5.150  11.963  69.776  1.00  0.00    -0.072 A  
ENDBRANCH  14  15
BRANCH  14  22
HETATM   22  C   UNL     1      -9.348  14.869  68.575  1.00  0.00    -0.196 C  
HETATM   23  O   UNL     1      -9.458  14.918  69.798  1.00  0.00    -0.015 OA 
BRANCH  22  24
HETATM   24  C   UNL     1      -9.937  15.965  67.731  1.00  0.00    -0.229 C  
HETATM   25  C   UNL     1      -9.122  17.187  67.367  1.00  0.00    -0.226 C  
HETATM   26  C   UNL     1      -9.417  16.152  66.324  1.00  0.00    -0.347 C  
ENDBRANCH  22  24
ENDBRANCH  14  22
ENDBRANCH  12  14
ENDBRANCH   4   5
ENDBRANCH   2   4
TORSDOF 6
ENDMDL
MODEL      238
REMARK 921   NORMALIZED FREE ENERGY PREDICTED BY IDOCK:   -2.12 KCAL/MOL
REMARK 922        TOTAL FREE ENERGY PREDICTED BY IDOCK:   -3.55 KCAL/MOL
REMARK 923 INTER-LIGAND FREE ENERGY PREDICTED BY IDOCK:   -3.78 KCAL/MOL
REMARK 924 INTRA-LIGAND FREE ENERGY PREDICTED BY IDOCK:    0.23 KCAL/MOL
REMARK 927      BINDING AFFINITY PREDICTED BY RF-SCORE:    0.00 PKD
ROOT
HETATM    1  C   UNL     1      -9.730  12.967  67.123  1.00  0.00    -0.230 C  
HETATM    2  C   UNL     1     -10.838  13.093  68.128  1.00  0.00    -0.251 C  
HETATM    3  O   UNL     1     -11.495  14.117  68.267  1.00  0.00    -0.270 OA 
ENDROOT
BRANCH   2   4
HETATM    4  O   UNL     1     -10.968  11.926  68.799  1.00  0.00    -0.213 OA 
BRANCH   4   5
HETATM    5  C   UNL     1     -10.360  10.830  68.358  1.00  0.00    -0.180 A  
HETATM    6  C   UNL     1     -10.733   9.887  67.413  1.00  0.00    -0.323 A  
HETATM    7  C   UNL     1      -9.801   8.805  67.281  1.00  0.00    -0.260 A  
HETATM    8  C   UNL     1      -8.726   8.997  68.108  1.00  0.00    -0.130 A  
HETATM    9  C   UNL     1      -7.555   8.098  68.162  1.00  0.00    -0.105 C  
HETATM   10  S   UNL     1      -8.865  10.381  69.077  1.00  0.00    -0.171 SA 
HETATM   11  C   UNL     1      -7.882   6.728  67.538  1.00  0.00    -0.111 C  
HETATM   12  N   UNL     1      -8.945   6.571  66.516  1.00  0.00    -0.139 NA 
HETATM   13  C   UNL     1      -9.959   7.635  66.363  1.00  0.00    -0.072 C  
BRANCH  12  14
HETATM   14  C   UNL     1      -9.556   5.194  66.595  1.00  0.00    -0.154 C  
BRANCH  14  15
HETATM   15  C   UNL     1      -8.759   4.153  67.394  1.00  0.00    -0.115 A  
HETATM   16  F   UNL     1     -10.142   4.395  69.324  1.00  0.00    -0.265 F  
HETATM   17  C   UNL     1      -7.586   3.569  66.880  1.00  0.00    -0.079 A  
HETATM   18  C   UNL     1      -9.085   3.837  68.723  1.00  0.00    -0.142 A  
HETATM   19  C   UNL     1      -8.317   2.964  69.504  1.00  0.00    -0.086 A  
HETATM   20  C   UNL     1      -6.815   2.687  67.648  1.00  0.00    -0.044 A  
HETATM   21  C   UNL     1      -7.182   2.383  68.959  1.00  0.00    -0.044 A  
ENDBRANCH  14  15
BRANCH  14  22
HETATM   22  C   UNL     1      -9.957   4.717  65.169  1.00  0.00    -0.067 C  
HETATM   23  O   UNL     1     -11.116   4.596  64.778  1.00  0.00    -0.017 OA 
BRANCH  22  24
HETATM   24  C   UNL     1      -8.821   4.386  64.243  1.00  0.00    -0.149 C  
HETATM   25  C   UNL     1      -9.080   3.760  62.889  1.00  0.00    -0.103 C  
HETATM   26  C   UNL     1      -8.661   5.197  62.977  1.00  0.00    -0.059 C  
ENDBRANCH  22  24
ENDBRANCH  14  22
ENDBRANCH  12  14
ENDBRANCH   4   5
ENDBRANCH   2   4
TORSDOF 6
ENDMDL
MODEL      239
REMARK 921   NORMALIZED FREE ENERGY PREDICTED BY IDOCK:   -1.95 KCAL/MOL
REMARK 922        TOTAL FREE ENERGY PREDICTED BY IDOCK:   -3.32 KCAL/MOL
REMARK 923 INTER-LIGAND FREE ENERGY PREDICTED BY IDOCK:   -3.11 KCAL/MOL
REMARK 924 INTRA-LIGAND FREE ENERGY PREDICTED BY IDOCK:   -0.21 KCAL/MOL
REMARK 927      BINDING AFFINITY PREDICTED BY RF-SCORE:    0.00 PKD
ROOT
HETATM    1  C   UNL     1      -6.597  12.336  69.774  1.00  0.00     0.032 C  
HETATM    2  C   UNL     1      -7.576  11.984  68.692  1.00  0.00    -0.112 C  
HETATM    3  O   UNL     1      -7.779  12.701  67.721  1.00  0.00    -0.120 OA 
ENDROOT
BRANCH   2   4
HETATM    4  O   UNL     1      -8.145  10.791  68.976  1.00  0.00    -0.136 OA 
BRANCH   4   5
HETATM    5  C   UNL     1      -8.254   9.861  68.035  1.00  0.00    -0.113 A  
HETATM    6  C   UNL     1      -8.939   8.656  68.004  1.00  0.00    -0.141 A  
HETATM    7  C   UNL     1      -8.738   7.909  66.797  1.00  0.00    -0.143 A  
HETATM    8  C   UNL     1      -7.935   8.606  65.933  1.00  0.00    -0.105 A  
HETATM    9  C   UNL     1      -7.590   8.144  64.572  1.00  0.00    -0.113 C  
HETATM   10  S   UNL     1      -7.368  10.068  66.577  1.00  0.00    -0.105 SA 
HETATM   11  C   UNL     1      -7.852   6.634  64.419  1.00  0.00    -0.114 C  
HETATM   12  N   UNL     1      -8.850   5.928  65.257  1.00  0.00    -0.080 NA 
HETATM   13  C   UNL     1      -9.327   6.566  66.502  1.00  0.00    -0.159 C  
BRANCH  12  14
HETATM   14  C   UNL     1      -8.447   4.488  65.461  1.00  0.00    -0.121 C  
BRANCH  14  15
HETATM   15  C   UNL     1      -9.034   3.481  64.462  1.00  0.00    -0.121 A  
HETATM   16  F   UNL     1     -11.235   4.383  64.658  1.00  0.00    -0.313 F  
HETATM   17  C   UNL     1      -8.257   2.436  63.926  1.00  0.00    -0.082 A  
HETATM   18  C   UNL     1     -10.401   3.472  64.142  1.00  0.00    -0.220 A  
HETATM   19  C   UNL     1     -10.978   2.505  63.309  1.00  0.00    -0.215 A  
HETATM   20  C   UNL     1      -8.821   1.468  63.084  1.00  0.00    -0.085 A  
HETATM   21  C   UNL     1     -10.180   1.504  62.774  1.00  0.00    -0.101 A  
ENDBRANCH  14  15
BRANCH  14  22
HETATM   22  C   UNL     1      -8.659   4.090  66.950  1.00  0.00    -0.105 C  
HETATM   23  O   UNL     1      -9.753   3.849  67.454  1.00  0.00    -0.198 OA 
BRANCH  22  24
HETATM   24  C   UNL     1      -7.418   4.014  67.794  1.00  0.00    -0.068 C  
HETATM   25  C   UNL     1      -6.177   3.312  67.289  1.00  0.00    -0.032 C  
HETATM   26  C   UNL     1      -6.205   4.809  67.369  1.00  0.00    -0.039 C  
ENDBRANCH  22  24
ENDBRANCH  14  22
ENDBRANCH  12  14
ENDBRANCH   4   5
ENDBRANCH   2   4
TORSDOF 6
ENDMDL
MODEL      240
REMARK 921   NORMALIZED FREE ENERGY PREDICTED BY IDOCK:   -1.48 KCAL/MOL
REMARK 922        TOTAL FREE ENERGY PREDICTED BY IDOCK:   -2.69 KCAL/MOL
REMARK 923 INTER-LIGAND FREE ENERGY PREDICTED BY IDOCK:   -2.25 KCAL/MOL
REMARK 924 INTRA-LIGAND FREE ENERGY PREDICTED BY IDOCK:   -0.44 KCAL/MOL
REMARK 927      BINDING AFFINITY PREDICTED BY RF-SCORE:    0.00 PKD
ROOT
HETATM    1  C   UNL     1      -6.369  12.572  69.678  1.00  0.00    -0.100 C  
HETATM    2  C   UNL     1      -7.042  12.264  68.372  1.00  0.00    -0.094 C  
HETATM    3  O   UNL     1      -6.917  12.969  67.379  1.00  0.00    -0.159 OA 
ENDROOT
BRANCH   2   4
HETATM    4  O   UNL     1      -7.757  11.124  68.495  1.00  0.00    -0.112 OA 
BRANCH   4   5
HETATM    5  C   UNL     1      -7.590  10.132  67.628  1.00  0.00    -0.090 A  
HETATM    6  C   UNL     1      -8.492   9.256  67.045  1.00  0.00    -0.124 A  
HETATM    7  C   UNL     1      -7.879   8.277  66.196  1.00  0.00    -0.098 A  
HETATM    8  C   UNL     1      -6.525   8.480  66.135  1.00  0.00    -0.053 A  
HETATM    9  C   UNL     1      -5.609   7.684  65.292  1.00  0.00    -0.033 C  
HETATM   10  S   UNL     1      -5.992   9.746  67.127  1.00  0.00    -0.052 SA 
HETATM   11  C   UNL     1      -6.265   6.358  64.863  1.00  0.00    -0.030 C  
HETATM   12  N   UNL     1      -7.738   6.210  64.776  1.00  0.00    -0.092 NA 
HETATM   13  C   UNL     1      -8.602   7.192  65.463  1.00  0.00    -0.080 C  
BRANCH  12  14
HETATM   14  C   UNL     1      -8.143   4.783  65.056  1.00  0.00    -0.104 C  
BRANCH  14  15
HETATM   15  C   UNL     1      -7.777   4.243  66.445  1.00  0.00    -0.094 A  
HETATM   16  F   UNL     1     -10.006   4.488  67.263  1.00  0.00    -0.197 F  
HETATM   17  C   UNL     1      -6.446   3.941  66.791  1.00  0.00    -0.041 A  
HETATM   18  C   UNL     1      -8.727   4.155  67.475  1.00  0.00    -0.107 A  
HETATM   19  C   UNL     1      -8.398   3.757  68.777  1.00  0.00    -0.088 A  
HETATM   20  C   UNL     1      -6.106   3.533  68.087  1.00  0.00    -0.031 A  
HETATM   21  C   UNL     1      -7.082   3.438  69.079  1.00  0.00    -0.049 A  
ENDBRANCH  14  15
BRANCH  14  22
HETATM   22  C   UNL     1      -7.679   3.869  63.885  1.00  0.00    -0.082 C  
HETATM   23  O   UNL     1      -6.896   4.214  63.004  1.00  0.00    -0.034 OA 
BRANCH  22  24
HETATM   24  C   UNL     1      -8.256   2.482  63.866  1.00  0.00    -0.082 C  
HETATM   25  C   UNL     1      -9.728   2.248  64.126  1.00  0.00    -0.127 C  
HETATM   26  C   UNL     1      -9.186   2.101  62.736  1.00  0.00    -0.090 C  
ENDBRANCH  22  24
ENDBRANCH  14  22
ENDBRANCH  12  14
ENDBRANCH   4   5
ENDBRANCH   2   4
TORSDOF 6
ENDMDL
MODEL      241
REMARK 921   NORMALIZED FREE ENERGY PREDICTED BY IDOCK:   -0.26 KCAL/MOL
REMARK 922        TOTAL FREE ENERGY PREDICTED BY IDOCK:   -1.04 KCAL/MOL
REMARK 923 INTER-LIGAND FREE ENERGY PREDICTED BY IDOCK:   -1.37 KCAL/MOL
REMARK 924 INTRA-LIGAND FREE ENERGY PREDICTED BY IDOCK:    0.33 KCAL/MOL
REMARK 927      BINDING AFFINITY PREDICTED BY RF-SCORE:    0.00 PKD
ROOT
HETATM    1  C   UNL     1     -10.783  10.298  71.754  1.00  0.00     1.975 C  
HETATM    2  C   UNL     1     -12.158   9.845  71.357  1.00  0.00    -0.413 C  
HETATM    3  O   UNL     1     -13.176  10.273  71.884  1.00  0.00    -0.437 OA 
ENDROOT
BRANCH   2   4
HETATM    4  O   UNL     1     -12.058   8.938  70.359  1.00  0.00    -0.013 OA 
BRANCH   4   5
HETATM    5  C   UNL     1     -11.570   9.296  69.176  1.00  0.00     0.557 A  
HETATM    6  C   UNL     1     -10.757   8.628  68.275  1.00  0.00    -0.107 A  
HETATM    7  C   UNL     1     -10.405   9.411  67.126  1.00  0.00    -0.326 A  
HETATM    8  C   UNL     1     -11.010  10.639  67.182  1.00  0.00    -0.247 A  
HETATM    9  C   UNL     1     -10.908  11.659  66.118  1.00  0.00    -0.343 C  
HETATM   10  S   UNL     1     -11.900  10.883  68.605  1.00  0.00    -0.094 SA 
HETATM   11  C   UNL     1      -9.715  11.368  65.189  1.00  0.00    -0.244 C  
HETATM   12  N   UNL     1      -9.179   9.996  65.014  1.00  0.00    -0.205 NA 
HETATM   13  C   UNL     1      -9.519   8.959  66.010  1.00  0.00    -0.252 C  
BRANCH  12  14
HETATM   14  C   UNL     1      -7.702  10.041  64.703  1.00  0.00    -0.146 C  
BRANCH  14  15
HETATM   15  C   UNL     1      -7.135   8.815  63.974  1.00  0.00    -0.094 A  
HETATM   16  F   UNL     1      -5.253  10.027  63.144  1.00  0.00    -0.076 F  
HETATM   17  C   UNL     1      -7.839   7.598  63.921  1.00  0.00    -0.122 A  
HETATM   18  C   UNL     1      -5.956   8.890  63.214  1.00  0.00    -0.085 A  
HETATM   19  C   UNL     1      -5.470   7.814  62.462  1.00  0.00    -0.055 A  
HETATM   20  C   UNL     1      -7.357   6.510  63.181  1.00  0.00    -0.066 A  
HETATM   21  C   UNL     1      -6.172   6.617  62.453  1.00  0.00    -0.035 A  
ENDBRANCH  14  15
BRANCH  14  22
HETATM   22  C   UNL     1      -6.909  10.432  65.984  1.00  0.00    -0.128 C  
HETATM   23  O   UNL     1      -5.892   9.862  66.370  1.00  0.00    -0.055 OA 
BRANCH  22  24
HETATM   24  C   UNL     1      -7.463  11.583  66.774  1.00  0.00    -0.118 C  
HETATM   25  C   UNL     1      -7.587  11.504  68.280  1.00  0.00    -0.115 C  
HETATM   26  C   UNL     1      -6.525  12.365  67.666  1.00  0.00    -0.130 C  
ENDBRANCH  22  24
ENDBRANCH  14  22
ENDBRANCH  12  14
ENDBRANCH   4   5
ENDBRANCH   2   4
TORSDOF 6
ENDMDL
MODEL      242
REMARK 921   NORMALIZED FREE ENERGY PREDICTED BY IDOCK:    1.28 KCAL/MOL
REMARK 922        TOTAL FREE ENERGY PREDICTED BY IDOCK:    1.04 KCAL/MOL
REMARK 923 INTER-LIGAND FREE ENERGY PREDICTED BY IDOCK:    1.35 KCAL/MOL
REMARK 924 INTRA-LIGAND FREE ENERGY PREDICTED BY IDOCK:   -0.30 KCAL/MOL
REMARK 927      BINDING AFFINITY PREDICTED BY RF-SCORE:    0.00 PKD
ROOT
HETATM    1  C   UNL     1      -6.393  19.644  70.491  1.00  0.00    -0.127 C  
HETATM    2  C   UNL     1      -6.826  18.903  69.260  1.00  0.00    -0.266 C  
HETATM    3  O   UNL     1      -7.923  19.064  68.740  1.00  0.00    -0.339 OA 
ENDROOT
BRANCH   2   4
HETATM    4  O   UNL     1      -5.830  18.084  68.857  1.00  0.00    -0.189 OA 
BRANCH   4   5
HETATM    5  C   UNL     1      -5.871  16.788  69.144  1.00  0.00    -0.155 A  
HETATM    6  C   UNL     1      -5.623  15.664  68.372  1.00  0.00    -0.109 A  
HETATM    7  C   UNL     1      -5.848  14.428  69.063  1.00  0.00    -0.088 A  
HETATM    8  C   UNL     1      -6.219  14.667  70.360  1.00  0.00    -0.168 A  
HETATM    9  C   UNL     1      -6.458  13.606  71.359  1.00  0.00     1.138 C  
HETATM   10  S   UNL     1      -6.379  16.317  70.718  1.00  0.00     1.171 SA 
HETATM   11  C   UNL     1      -6.682  12.244  70.675  1.00  0.00     1.553 C  
HETATM   12  N   UNL     1      -6.128  11.947  69.332  1.00  0.00    -0.086 NA 
HETATM   13  C   UNL     1      -5.689  13.064  68.471  1.00  0.00    -0.068 C  
BRANCH  12  14
HETATM   14  C   UNL     1      -7.008  10.961  68.603  1.00  0.00    -0.073 C  
BRANCH  14  15
HETATM   15  C   UNL     1      -6.951   9.512  69.107  1.00  0.00    -0.057 A  
HETATM   16  F   UNL     1      -8.976   8.916  67.992  1.00  0.00    -0.136 F  
HETATM   17  C   UNL     1      -5.965   9.086  70.016  1.00  0.00    -0.031 A  
HETATM   18  C   UNL     1      -7.956   8.583  68.793  1.00  0.00    -0.119 A  
HETATM   19  C   UNL     1      -7.978   7.285  69.317  1.00  0.00    -0.118 A  
HETATM   20  C   UNL     1      -5.970   7.787  70.539  1.00  0.00    -0.030 A  
HETATM   21  C   UNL     1      -6.975   6.886  70.189  1.00  0.00    -0.066 A  
ENDBRANCH  14  15
BRANCH  14  22
HETATM   22  C   UNL     1      -6.789  11.101  67.069  1.00  0.00    -0.119 C  
HETATM   23  O   UNL     1      -7.391  11.898  66.352  1.00  0.00     0.083 OA 
BRANCH  22  24
HETATM   24  C   UNL     1      -5.771  10.177  66.463  1.00  0.00    -0.059 C  
HETATM   25  C   UNL     1      -6.163   9.187  65.387  1.00  0.00    -0.063 C  
HETATM   26  C   UNL     1      -5.358  10.400  65.025  1.00  0.00    -0.133 C  
ENDBRANCH  22  24
ENDBRANCH  14  22
ENDBRANCH  12  14
ENDBRANCH   4   5
ENDBRANCH   2   4
TORSDOF 6
ENDMDL
MODEL      243
REMARK 921   NORMALIZED FREE ENERGY PREDICTED BY IDOCK:    1.30 KCAL/MOL
REMARK 922        TOTAL FREE ENERGY PREDICTED BY IDOCK:    1.07 KCAL/MOL
REMARK 923 INTER-LIGAND FREE ENERGY PREDICTED BY IDOCK:   -4.18 KCAL/MOL
REMARK 924 INTRA-LIGAND FREE ENERGY PREDICTED BY IDOCK:    5.24 KCAL/MOL
REMARK 927      BINDING AFFINITY PREDICTED BY RF-SCORE:    0.00 PKD
ROOT
HETATM    1  C   UNL     1     -11.637  17.680  73.605  1.00  0.00     0.876 C  
HETATM    2  C   UNL     1     -11.811  16.934  72.313  1.00  0.00     0.373 C  
HETATM    3  O   UNL     1     -11.117  17.145  71.327  1.00  0.00     0.447 OA 
ENDROOT
BRANCH   2   4
HETATM    4  O   UNL     1     -12.811  16.035  72.448  1.00  0.00    -0.448 OA 
BRANCH   4   5
HETATM    5  C   UNL     1     -12.718  14.841  71.875  1.00  0.00    -0.328 A  
HETATM    6  C   UNL     1     -12.907  13.562  72.374  1.00  0.00    -0.292 A  
HETATM    7  C   UNL     1     -12.640  12.525  71.420  1.00  0.00    -0.297 A  
HETATM    8  C   UNL     1     -12.299  13.068  70.209  1.00  0.00    -0.241 A  
HETATM    9  C   UNL     1     -12.029  12.271  68.994  1.00  0.00    -0.300 C  
HETATM   10  S   UNL     1     -12.215  14.761  70.233  1.00  0.00    -0.355 SA 
HETATM   11  C   UNL     1     -11.738  10.802  69.352  1.00  0.00    -0.306 C  
HETATM   12  N   UNL     1     -12.260  10.184  70.595  1.00  0.00    -0.299 NA 
HETATM   13  C   UNL     1     -12.733  11.057  71.689  1.00  0.00    -0.378 C  
BRANCH  12  14
HETATM   14  C   UNL     1     -11.328   9.100  71.078  1.00  0.00    -0.309 C  
BRANCH  14  15
HETATM   15  C   UNL     1     -10.774   8.161  69.997  1.00  0.00    -0.243 A  
HETATM   16  F   UNL     1     -11.505   9.578  68.220  1.00  0.00    -0.096 F  
HETATM   17  C   UNL     1     -10.215   6.911  70.321  1.00  0.00    -0.208 A  
HETATM   18  C   UNL     1     -10.922   8.445  68.629  1.00  0.00     0.203 A  
HETATM   19  C   UNL     1     -10.512   7.561  67.624  1.00  0.00    -0.319 A  
HETATM   20  C   UNL     1      -9.792   6.022  69.325  1.00  0.00    -0.191 A  
HETATM   21  C   UNL     1      -9.939   6.348  67.976  1.00  0.00    -0.144 A  
ENDBRANCH  14  15
BRANCH  14  22
HETATM   22  C   UNL     1     -11.971   8.356  72.284  1.00  0.00    -0.389 C  
HETATM   23  O   UNL     1     -11.337   7.869  73.217  1.00  0.00    -0.312 OA 
BRANCH  22  24
HETATM   24  C   UNL     1     -13.469   8.243  72.264  1.00  0.00    -0.239 C  
HETATM   25  C   UNL     1     -14.229   8.217  70.955  1.00  0.00    -0.079 C  
HETATM   26  C   UNL     1     -14.091   6.961  71.761  1.00  0.00    -0.299 C  
ENDBRANCH  22  24
ENDBRANCH  14  22
ENDBRANCH  12  14
ENDBRANCH   4   5
ENDBRANCH   2   4
TORSDOF 6
ENDMDL
MODEL      244
REMARK 921   NORMALIZED FREE ENERGY PREDICTED BY IDOCK:    2.52 KCAL/MOL
REMARK 922        TOTAL FREE ENERGY PREDICTED BY IDOCK:    2.72 KCAL/MOL
REMARK 923 INTER-LIGAND FREE ENERGY PREDICTED BY IDOCK:    0.64 KCAL/MOL
REMARK 924 INTRA-LIGAND FREE ENERGY PREDICTED BY IDOCK:    2.08 KCAL/MOL
REMARK 927      BINDING AFFINITY PREDICTED BY RF-SCORE:    0.00 PKD
ROOT
HETATM    1  C   UNL     1     -10.601  16.290  72.305  1.00  0.00     2.632 C  
HETATM    2  C   UNL     1     -11.954  16.435  72.940  1.00  0.00    -0.474 C  
HETATM    3  O   UNL     1     -12.109  16.835  74.086  1.00  0.00    -0.400 OA 
ENDROOT
BRANCH   2   4
HETATM    4  O   UNL     1     -12.906  16.069  72.052  1.00  0.00    -0.451 OA 
BRANCH   4   5
HETATM    5  C   UNL     1     -12.615  15.222  71.071  1.00  0.00    -0.406 A  
HETATM    6  C   UNL     1     -11.679  14.205  70.978  1.00  0.00    -0.145 A  
HETATM    7  C   UNL     1     -11.650  13.563  69.697  1.00  0.00    -0.340 A  
HETATM    8  C   UNL     1     -12.608  14.095  68.875  1.00  0.00     0.376 A  
HETATM    9  C   UNL     1     -12.887  13.608  67.508  1.00  0.00     1.229 C  
HETATM   10  S   UNL     1     -13.457  15.382  69.581  1.00  0.00     1.831 SA 
HETATM   11  C   UNL     1     -11.711  12.771  66.971  1.00  0.00    -0.374 C  
HETATM   12  N   UNL     1     -10.779  12.063  67.881  1.00  0.00    -0.203 NA 
HETATM   13  C   UNL     1     -10.724  12.456  69.304  1.00  0.00     0.055 C  
BRANCH  12  14
HETATM   14  C   UNL     1      -9.410  11.953  67.255  1.00  0.00    -0.177 C  
BRANCH  14  15
HETATM   15  C   UNL     1      -8.515  13.194  67.380  1.00  0.00    -0.201 A  
HETATM   16  F   UNL     1      -6.509  11.901  67.359  1.00  0.00    -0.075 F  
HETATM   17  C   UNL     1      -9.059  14.479  67.563  1.00  0.00    -0.193 A  
HETATM   18  C   UNL     1      -7.117  13.090  67.453  1.00  0.00    -0.117 A  
HETATM   19  C   UNL     1      -6.285  14.196  67.662  1.00  0.00    -0.102 A  
HETATM   20  C   UNL     1      -8.237  15.595  67.764  1.00  0.00    -0.155 A  
HETATM   21  C   UNL     1      -6.850  15.454  67.812  1.00  0.00    -0.188 A  
ENDBRANCH  14  15
BRANCH  14  22
HETATM   22  C   UNL     1      -9.542  11.418  65.800  1.00  0.00    -0.233 C  
HETATM   23  O   UNL     1      -8.832  10.539  65.316  1.00  0.00    -0.175 OA 
BRANCH  22  24
HETATM   24  C   UNL     1     -10.617  12.050  64.962  1.00  0.00    -0.332 C  
HETATM   25  C   UNL     1     -10.390  13.383  64.281  1.00  0.00    -0.249 C  
HETATM   26  C   UNL     1     -10.417  12.125  63.465  1.00  0.00    -0.490 C  
ENDBRANCH  22  24
ENDBRANCH  14  22
ENDBRANCH  12  14
ENDBRANCH   4   5
ENDBRANCH   2   4
TORSDOF 6
ENDMDL
MODEL      245
REMARK 921   NORMALIZED FREE ENERGY PREDICTED BY IDOCK:    2.73 KCAL/MOL
REMARK 922        TOTAL FREE ENERGY PREDICTED BY IDOCK:    3.00 KCAL/MOL
REMARK 923 INTER-LIGAND FREE ENERGY PREDICTED BY IDOCK:    3.09 KCAL/MOL
REMARK 924 INTRA-LIGAND FREE ENERGY PREDICTED BY IDOCK:   -0.09 KCAL/MOL
REMARK 927      BINDING AFFINITY PREDICTED BY RF-SCORE:    0.00 PKD
ROOT
HETATM    1  C   UNL     1      -6.758  12.025  70.821  1.00  0.00     1.787 C  
HETATM    2  C   UNL     1      -7.706  11.758  69.688  1.00  0.00     0.740 C  
HETATM    3  O   UNL     1      -7.942  12.581  68.812  1.00  0.00    -0.065 OA 
ENDROOT
BRANCH   2   4
HETATM    4  O   UNL     1      -8.206  10.508  69.808  1.00  0.00    -0.101 OA 
BRANCH   4   5
HETATM    5  C   UNL     1      -8.415   9.764  68.728  1.00  0.00    -0.122 A  
HETATM    6  C   UNL     1      -7.855   8.567  68.311  1.00  0.00    -0.106 A  
HETATM    7  C   UNL     1      -8.322   8.127  67.029  1.00  0.00    -0.116 A  
HETATM    8  C   UNL     1      -9.262   8.995  66.541  1.00  0.00    -0.179 A  
HETATM    9  C   UNL     1      -9.992   8.794  65.272  1.00  0.00     0.864 C  
HETATM   10  S   UNL     1      -9.515  10.341  67.541  1.00  0.00    -0.153 SA 
HETATM   11  C   UNL     1      -9.268   7.772  64.376  1.00  0.00     1.489 C  
HETATM   12  N   UNL     1      -8.380   6.729  64.944  1.00  0.00    -0.075 NA 
HETATM   13  C   UNL     1      -7.870   6.889  66.321  1.00  0.00    -0.101 C  
BRANCH  12  14
HETATM   14  C   UNL     1      -7.294   6.366  63.961  1.00  0.00    -0.073 C  
BRANCH  14  15
HETATM   15  C   UNL     1      -7.293   4.912  63.470  1.00  0.00    -0.050 A  
HETATM   16  F   UNL     1      -9.508   4.513  64.266  1.00  0.00    -0.156 F  
HETATM   17  C   UNL     1      -6.143   4.323  62.912  1.00  0.00    -0.018 A  
HETATM   18  C   UNL     1      -8.393   4.064  63.678  1.00  0.00    -0.094 A  
HETATM   19  C   UNL     1      -8.381   2.709  63.326  1.00  0.00    -0.085 A  
HETATM   20  C   UNL     1      -6.122   2.970  62.547  1.00  0.00    -0.013 A  
HETATM   21  C   UNL     1      -7.241   2.164  62.752  1.00  0.00    -0.036 A  
ENDBRANCH  14  15
BRANCH  14  22
HETATM   22  C   UNL     1      -5.916   6.845  64.503  1.00  0.00    -0.036 C  
HETATM   23  O   UNL     1      -5.274   6.265  65.375  1.00  0.00    -0.013 OA 
BRANCH  22  24
HETATM   24  C   UNL     1      -5.374   8.110  63.898  1.00  0.00    -0.041 C  
HETATM   25  C   UNL     1      -6.262   9.022  63.080  1.00  0.00    -0.090 C  
HETATM   26  C   UNL     1      -5.838   9.435  64.457  1.00  0.00    -0.071 C  
ENDBRANCH  22  24
ENDBRANCH  14  22
ENDBRANCH  12  14
ENDBRANCH   4   5
ENDBRANCH   2   4
TORSDOF 6
ENDMDL
MODEL      246
REMARK 921   NORMALIZED FREE ENERGY PREDICTED BY IDOCK:    4.04 KCAL/MOL
REMARK 922        TOTAL FREE ENERGY PREDICTED BY IDOCK:    4.78 KCAL/MOL
REMARK 923 INTER-LIGAND FREE ENERGY PREDICTED BY IDOCK:    0.51 KCAL/MOL
REMARK 924 INTRA-LIGAND FREE ENERGY PREDICTED BY IDOCK:    4.27 KCAL/MOL
REMARK 927      BINDING AFFINITY PREDICTED BY RF-SCORE:    0.00 PKD
ROOT
HETATM    1  C   UNL     1     -11.742  19.584  68.486  1.00  0.00     2.847 C  
HETATM    2  C   UNL     1     -10.488  19.905  69.245  1.00  0.00     0.174 C  
HETATM    3  O   UNL     1     -10.435  20.782  70.098  1.00  0.00     0.517 OA 
ENDROOT
BRANCH   2   4
HETATM    4  O   UNL     1      -9.496  19.083  68.837  1.00  0.00    -0.367 OA 
BRANCH   4   5
HETATM    5  C   UNL     1      -9.700  17.773  68.766  1.00  0.00    -0.314 A  
HETATM    6  C   UNL     1      -9.019  16.702  69.323  1.00  0.00    -0.052 A  
HETATM    7  C   UNL     1      -9.540  15.423  68.938  1.00  0.00    -0.220 A  
HETATM    8  C   UNL     1     -10.636  15.579  68.131  1.00  0.00    -0.266 A  
HETATM    9  C   UNL     1     -11.448  14.457  67.617  1.00  0.00    -0.369 C  
HETATM   10  S   UNL     1     -10.980  17.200  67.773  1.00  0.00    -0.063 SA 
HETATM   11  C   UNL     1     -10.677  13.127  67.714  1.00  0.00    -0.240 C  
HETATM   12  N   UNL     1      -9.599  12.923  68.711  1.00  0.00     0.009 NA 
HETATM   13  C   UNL     1      -8.987  14.100  69.362  1.00  0.00     0.524 C  
BRANCH  12  14
HETATM   14  C   UNL     1      -8.572  11.948  68.189  1.00  0.00    -0.165 C  
BRANCH  14  15
HETATM   15  C   UNL     1      -9.056  10.504  67.996  1.00  0.00    -0.138 A  
HETATM   16  F   UNL     1     -11.341  11.166  67.803  1.00  0.00    -0.289 F  
HETATM   17  C   UNL     1      -8.175   9.412  68.101  1.00  0.00    -0.118 A  
HETATM   18  C   UNL     1     -10.418  10.198  67.843  1.00  0.00    -0.222 A  
HETATM   19  C   UNL     1     -10.894   8.884  67.762  1.00  0.00    -0.106 A  
HETATM   20  C   UNL     1      -8.638   8.092  68.012  1.00  0.00    -0.129 A  
HETATM   21  C   UNL     1      -9.997   7.828  67.841  1.00  0.00    -0.212 A  
ENDBRANCH  14  15
BRANCH  14  22
HETATM   22  C   UNL     1      -7.266  12.065  69.026  1.00  0.00    -0.053 C  
HETATM   23  O   UNL     1      -6.894  11.234  69.851  1.00  0.00    -0.120 OA 
BRANCH  22  24
HETATM   24  C   UNL     1      -6.438  13.296  68.785  1.00  0.00    -0.099 C  
HETATM   25  C   UNL     1      -5.187  13.236  67.935  1.00  0.00    -0.103 C  
HETATM   26  C   UNL     1      -6.421  13.895  67.397  1.00  0.00     0.082 C  
ENDBRANCH  22  24
ENDBRANCH  14  22
ENDBRANCH  12  14
ENDBRANCH   4   5
ENDBRANCH   2   4
TORSDOF 6
ENDMDL
MODEL      247
REMARK 921   NORMALIZED FREE ENERGY PREDICTED BY IDOCK:    5.02 KCAL/MOL
REMARK 922        TOTAL FREE ENERGY PREDICTED BY IDOCK:    6.09 KCAL/MOL
REMARK 923 INTER-LIGAND FREE ENERGY PREDICTED BY IDOCK:    4.94 KCAL/MOL
REMARK 924 INTRA-LIGAND FREE ENERGY PREDICTED BY IDOCK:    1.15 KCAL/MOL
REMARK 927      BINDING AFFINITY PREDICTED BY RF-SCORE:    0.00 PKD
ROOT
HETATM    1  C   UNL     1      -6.407  19.655  70.506  1.00  0.00    -0.127 C  
HETATM    2  C   UNL     1      -6.857  18.970  69.248  1.00  0.00    -0.283 C  
HETATM    3  O   UNL     1      -7.921  19.225  68.699  1.00  0.00    -0.348 OA 
ENDROOT
BRANCH   2   4
HETATM    4  O   UNL     1      -5.914  18.083  68.861  1.00  0.00    -0.192 OA 
BRANCH   4   5
HETATM    5  C   UNL     1      -6.096  16.783  69.062  1.00  0.00    -0.169 A  
HETATM    6  C   UNL     1      -5.872  15.684  68.249  1.00  0.00    -0.118 A  
HETATM    7  C   UNL     1      -6.269  14.438  68.839  1.00  0.00    -0.088 A  
HETATM    8  C   UNL     1      -6.742  14.642  70.108  1.00  0.00    -0.106 A  
HETATM    9  C   UNL     1      -7.169  13.555  71.014  1.00  0.00     3.042 C  
HETATM   10  S   UNL     1      -6.793  16.278  70.550  1.00  0.00     1.504 SA 
HETATM   11  C   UNL     1      -7.442  12.259  70.229  1.00  0.00     2.445 C  
HETATM   12  N   UNL     1      -6.787  11.983  68.928  1.00  0.00    -0.098 NA 
HETATM   13  C   UNL     1      -6.172  13.099  68.181  1.00  0.00    -0.106 C  
BRANCH  12  14
HETATM   14  C   UNL     1      -7.674  11.123  68.061  1.00  0.00    -0.107 C  
BRANCH  14  15
HETATM   15  C   UNL     1      -7.152   9.710  67.762  1.00  0.00    -0.081 A  
HETATM   16  F   UNL     1      -9.295   8.936  67.050  1.00  0.00    -0.150 F  
HETATM   17  C   UNL     1      -5.830   9.334  68.066  1.00  0.00    -0.038 A  
HETATM   18  C   UNL     1      -8.003   8.693  67.300  1.00  0.00    -0.101 A  
HETATM   19  C   UNL     1      -7.573   7.374  67.112  1.00  0.00    -0.107 A  
HETATM   20  C   UNL     1      -5.386   8.019  67.873  1.00  0.00    -0.033 A  
HETATM   21  C   UNL     1      -6.256   7.040  67.394  1.00  0.00    -0.041 A  
ENDBRANCH  14  15
BRANCH  14  22
HETATM   22  C   UNL     1      -8.093  11.918  66.791  1.00  0.00    -0.108 C  
HETATM   23  O   UNL     1      -7.872  11.552  65.639  1.00  0.00     0.260 OA 
BRANCH  22  24
HETATM   24  C   UNL     1      -8.809  13.216  67.034  1.00  0.00    -0.212 C  
HETATM   25  C   UNL     1      -8.241  14.524  66.526  1.00  0.00     0.389 C  
HETATM   26  C   UNL     1      -9.442  13.924  65.857  1.00  0.00    -0.085 C  
ENDBRANCH  22  24
ENDBRANCH  14  22
ENDBRANCH  12  14
ENDBRANCH   4   5
ENDBRANCH   2   4
TORSDOF 6
ENDMDL
MODEL      248
REMARK 921   NORMALIZED FREE ENERGY PREDICTED BY IDOCK:    5.75 KCAL/MOL
REMARK 922        TOTAL FREE ENERGY PREDICTED BY IDOCK:    7.09 KCAL/MOL
REMARK 923 INTER-LIGAND FREE ENERGY PREDICTED BY IDOCK:   -1.10 KCAL/MOL
REMARK 924 INTRA-LIGAND FREE ENERGY PREDICTED BY IDOCK:    8.19 KCAL/MOL
REMARK 927      BINDING AFFINITY PREDICTED BY RF-SCORE:    0.00 PKD
ROOT
HETATM    1  C   UNL     1      -9.873  12.611  68.886  1.00  0.00     0.138 C  
HETATM    2  C   UNL     1      -8.872  13.403  68.096  1.00  0.00    -0.180 C  
HETATM    3  O   UNL     1      -8.528  14.536  68.408  1.00  0.00    -0.150 OA 
ENDROOT
BRANCH   2   4
HETATM    4  O   UNL     1      -8.444  12.666  67.048  1.00  0.00    -0.182 OA 
BRANCH   4   5
HETATM    5  C   UNL     1      -8.117  11.390  67.217  1.00  0.00    -0.148 A  
HETATM    6  C   UNL     1      -8.408  10.257  66.474  1.00  0.00    -0.126 A  
HETATM    7  C   UNL     1      -7.905   9.044  67.050  1.00  0.00    -0.098 A  
HETATM    8  C   UNL     1      -7.208   9.314  68.197  1.00  0.00    -0.078 A  
HETATM    9  C   UNL     1      -6.505   8.290  68.997  1.00  0.00    -0.047 C  
HETATM   10  S   UNL     1      -7.225  10.956  68.621  1.00  0.00    -0.096 SA 
HETATM   11  C   UNL     1      -7.014   6.877  68.654  1.00  0.00    -0.076 C  
HETATM   12  N   UNL     1      -7.619   6.565  67.336  1.00  0.00    -0.098 NA 
HETATM   13  C   UNL     1      -8.094   7.673  66.482  1.00  0.00    -0.119 C  
BRANCH  12  14
HETATM   14  C   UNL     1      -8.634   5.457  67.469  1.00  0.00    -0.108 C  
BRANCH  14  15
HETATM   15  C   UNL     1      -9.404   5.410  68.797  1.00  0.00    -0.159 A  
HETATM   16  F   UNL     1      -8.601   7.551  69.480  1.00  0.00    -0.128 F  
HETATM   17  C   UNL     1     -10.121   4.265  69.193  1.00  0.00     0.080 A  
HETATM   18  C   UNL     1      -9.318   6.450  69.736  1.00  0.00    -0.146 A  
HETATM   19  C   UNL     1      -9.932   6.389  70.992  1.00  0.00    -0.205 A  
HETATM   20  C   UNL     1     -10.748   4.196  70.444  1.00  0.00     1.366 A  
HETATM   21  C   UNL     1     -10.655   5.258  71.342  1.00  0.00    -0.247 A  
ENDBRANCH  14  15
BRANCH  14  22
HETATM   22  C   UNL     1      -7.982   4.100  67.074  1.00  0.00    -0.097 C  
HETATM   23  O   UNL     1      -8.437   3.332  66.230  1.00  0.00    -0.101 OA 
BRANCH  22  24
HETATM   24  C   UNL     1      -6.717   3.742  67.802  1.00  0.00    -0.046 C  
HETATM   25  C   UNL     1      -5.602   4.751  67.966  1.00  0.00    -0.016 C  
HETATM   26  C   UNL     1      -6.450   4.380  69.146  1.00  0.00    -0.036 C  
ENDBRANCH  22  24
ENDBRANCH  14  22
ENDBRANCH  12  14
ENDBRANCH   4   5
ENDBRANCH   2   4
TORSDOF 6
ENDMDL
MODEL      249
REMARK 921   NORMALIZED FREE ENERGY PREDICTED BY IDOCK:    6.22 KCAL/MOL
REMARK 922        TOTAL FREE ENERGY PREDICTED BY IDOCK:    7.71 KCAL/MOL
REMARK 923 INTER-LIGAND FREE ENERGY PREDICTED BY IDOCK:   -2.02 KCAL/MOL
REMARK 924 INTRA-LIGAND FREE ENERGY PREDICTED BY IDOCK:    9.73 KCAL/MOL
REMARK 927      BINDING AFFINITY PREDICTED BY RF-SCORE:    0.00 PKD
ROOT
HETATM    1  C   UNL     1      -9.873  12.610  68.886  1.00  0.00     0.138 C  
HETATM    2  C   UNL     1      -8.868  13.400  68.098  1.00  0.00    -0.180 C  
HETATM    3  O   UNL     1      -8.520  14.531  68.412  1.00  0.00    -0.150 OA 
ENDROOT
BRANCH   2   4
HETATM    4  O   UNL     1      -8.443  12.662  67.049  1.00  0.00    -0.182 OA 
BRANCH   4   5
HETATM    5  C   UNL     1      -8.126  11.383  67.216  1.00  0.00    -0.148 A  
HETATM    6  C   UNL     1      -7.261  10.551  66.525  1.00  0.00    -0.124 A  
HETATM    7  C   UNL     1      -7.260   9.197  66.999  1.00  0.00    -0.090 A  
HETATM    8  C   UNL     1      -8.101   9.068  68.072  1.00  0.00    -0.105 A  
HETATM    9  C   UNL     1      -8.277   7.816  68.836  1.00  0.00    -0.127 C  
HETATM   10  S   UNL     1      -8.934  10.497  68.447  1.00  0.00    -0.147 SA 
HETATM   11  C   UNL     1      -7.772   6.603  68.033  1.00  0.00    -0.108 C  
HETATM   12  N   UNL     1      -6.734   6.742  66.983  1.00  0.00    -0.057 NA 
HETATM   13  C   UNL     1      -6.449   8.080  66.425  1.00  0.00    -0.047 C  
BRANCH  12  14
HETATM   14  C   UNL     1      -6.919   5.693  65.914  1.00  0.00    -0.066 C  
BRANCH  14  15
HETATM   15  C   UNL     1      -8.368   5.272  65.633  1.00  0.00    -0.126 A  
HETATM   16  F   UNL     1      -9.269   7.058  66.935  1.00  0.00    -0.130 F  
HETATM   17  C   UNL     1      -8.670   4.095  64.922  1.00  0.00    -0.125 A  
HETATM   18  C   UNL     1      -9.457   5.966  66.185  1.00  0.00    -0.106 A  
HETATM   19  C   UNL     1     -10.783   5.547  66.023  1.00  0.00     0.009 A  
HETATM   20  C   UNL     1      -9.993   3.671  64.745  1.00  0.00    -0.160 A  
HETATM   21  C   UNL     1     -11.050   4.398  65.293  1.00  0.00     0.159 A  
ENDBRANCH  14  15
BRANCH  14  22
HETATM   22  C   UNL     1      -5.960   4.497  66.182  1.00  0.00    -0.023 C  
HETATM   23  O   UNL     1      -5.164   4.049  65.361  1.00  0.00    -0.008 OA 
BRANCH  22  24
HETATM   24  C   UNL     1      -6.050   3.875  67.547  1.00  0.00    -0.028 C  
HETATM   25  C   UNL     1      -6.066   4.734  68.793  1.00  0.00    -0.030 C  
HETATM   26  C   UNL     1      -7.324   4.055  68.341  1.00  0.00    -0.059 C  
ENDBRANCH  22  24
ENDBRANCH  14  22
ENDBRANCH  12  14
ENDBRANCH   4   5
ENDBRANCH   2   4
TORSDOF 6
ENDMDL
MODEL      250
REMARK 921   NORMALIZED FREE ENERGY PREDICTED BY IDOCK:    6.99 KCAL/MOL
REMARK 922        TOTAL FREE ENERGY PREDICTED BY IDOCK:    8.76 KCAL/MOL
REMARK 923 INTER-LIGAND FREE ENERGY PREDICTED BY IDOCK:    5.04 KCAL/MOL
REMARK 924 INTRA-LIGAND FREE ENERGY PREDICTED BY IDOCK:    3.72 KCAL/MOL
REMARK 927      BINDING AFFINITY PREDICTED BY RF-SCORE:    0.00 PKD
ROOT
HETATM    1  C   UNL     1     -12.468   3.207  71.601  1.00  0.00     7.831 C  
HETATM    2  C   UNL     1     -11.865   3.448  72.955  1.00  0.00     0.713 C  
HETATM    3  O   UNL     1     -11.435   2.544  73.660  1.00  0.00    -0.227 OA 
ENDROOT
BRANCH   2   4
HETATM    4  O   UNL     1     -11.878   4.773  73.221  1.00  0.00    -0.261 OA 
BRANCH   4   5
HETATM    5  C   UNL     1     -10.928   5.563  72.733  1.00  0.00    -0.278 A  
HETATM    6  C   UNL     1     -10.990   6.781  72.075  1.00  0.00    -0.269 A  
HETATM    7  C   UNL     1      -9.711   7.274  71.653  1.00  0.00    -0.166 A  
HETATM    8  C   UNL     1      -8.716   6.422  72.052  1.00  0.00    -0.133 A  
HETATM    9  C   UNL     1      -7.277   6.674  71.835  1.00  0.00    -0.085 C  
HETATM   10  S   UNL     1      -9.297   5.032  72.831  1.00  0.00    -0.133 SA 
HETATM   11  C   UNL     1      -7.062   7.740  70.744  1.00  0.00    -0.053 C  
HETATM   12  N   UNL     1      -8.092   8.762  70.440  1.00  0.00    -0.103 NA 
HETATM   13  C   UNL     1      -9.480   8.544  70.898  1.00  0.00    -0.180 C  
BRANCH  12  14
HETATM   14  C   UNL     1      -8.017   9.175  68.990  1.00  0.00    -0.101 C  
BRANCH  14  15
HETATM   15  C   UNL     1      -8.946  10.323  68.572  1.00  0.00    -0.134 A  
HETATM   16  F   UNL     1     -10.162   8.947  67.048  1.00  0.00    -0.250 F  
HETATM   17  C   UNL     1      -8.750  11.637  69.038  1.00  0.00     0.189 A  
HETATM   18  C   UNL     1      -9.946  10.146  67.603  1.00  0.00    -0.181 A  
HETATM   19  C   UNL     1     -10.742  11.198  67.134  1.00  0.00    -0.305 A  
HETATM   20  C   UNL     1      -9.546  12.696  68.584  1.00  0.00    -0.028 A  
HETATM   21  C   UNL     1     -10.543  12.477  67.634  1.00  0.00    -0.234 A  
ENDBRANCH  14  15
BRANCH  14  22
HETATM   22  C   UNL     1      -8.127   7.916  68.082  1.00  0.00    -0.123 C  
HETATM   23  O   UNL     1      -8.337   7.950  66.872  1.00  0.00    -0.113 OA 
BRANCH  22  24
HETATM   24  C   UNL     1      -7.967   6.591  68.772  1.00  0.00    -0.111 C  
HETATM   25  C   UNL     1      -9.143   5.653  68.936  1.00  0.00    -0.125 C  
HETATM   26  C   UNL     1      -8.065   5.329  67.946  1.00  0.00    -0.099 C  
ENDBRANCH  22  24
ENDBRANCH  14  22
ENDBRANCH  12  14
ENDBRANCH   4   5
ENDBRANCH   2   4
TORSDOF 6
ENDMDL
MODEL      251
REMARK 921   NORMALIZED FREE ENERGY PREDICTED BY IDOCK:   28.87 KCAL/MOL
REMARK 922        TOTAL FREE ENERGY PREDICTED BY IDOCK:   38.31 KCAL/MOL
REMARK 923 INTER-LIGAND FREE ENERGY PREDICTED BY IDOCK:   35.65 KCAL/MOL
REMARK 924 INTRA-LIGAND FREE ENERGY PREDICTED BY IDOCK:    2.66 KCAL/MOL
REMARK 927      BINDING AFFINITY PREDICTED BY RF-SCORE:    0.00 PKD
ROOT
HETATM    1  C   UNL     1     -13.284   2.372  70.154  1.00  0.00    21.355 C  
HETATM    2  C   UNL     1     -13.015   2.483  71.627  1.00  0.00     8.612 C  
HETATM    3  O   UNL     1     -12.868   1.506  72.349  1.00  0.00     1.184 OA 
ENDROOT
BRANCH   2   4
HETATM    4  O   UNL     1     -12.958   3.788  71.974  1.00  0.00     4.768 OA 
BRANCH   4   5
HETATM    5  C   UNL     1     -11.801   4.438  71.946  1.00  0.00     2.209 A  
HETATM    6  C   UNL     1     -11.451   5.676  71.430  1.00  0.00     0.019 A  
HETATM    7  C   UNL     1     -10.055   5.980  71.556  1.00  0.00    -0.232 A  
HETATM    8  C   UNL     1      -9.404   4.967  72.210  1.00  0.00    -0.138 A  
HETATM    9  C   UNL     1      -7.969   5.000  72.561  1.00  0.00    -0.101 C  
HETATM   10  S   UNL     1     -10.410   3.655  72.585  1.00  0.00    -0.112 SA 
HETATM   11  C   UNL     1      -7.223   6.062  71.731  1.00  0.00    -0.088 C  
HETATM   12  N   UNL     1      -7.920   7.243  71.169  1.00  0.00    -0.100 NA 
HETATM   13  C   UNL     1      -9.393   7.227  71.063  1.00  0.00    -0.158 C  
BRANCH  12  14
HETATM   14  C   UNL     1      -7.250   7.696  69.894  1.00  0.00    -0.072 C  
BRANCH  14  15
HETATM   15  C   UNL     1      -7.901   8.891  69.184  1.00  0.00    -0.093 A  
HETATM   16  F   UNL     1      -9.592   9.119  70.853  1.00  0.00    -0.238 F  
HETATM   17  C   UNL     1      -7.456   9.331  67.924  1.00  0.00    -0.084 A  
HETATM   18  C   UNL     1      -9.052   9.514  69.694  1.00  0.00    -0.196 A  
HETATM   19  C   UNL     1      -9.719  10.542  69.018  1.00  0.00    -0.221 A  
HETATM   20  C   UNL     1      -8.109  10.365  67.241  1.00  0.00    -0.114 A  
HETATM   21  C   UNL     1      -9.239  10.972  67.789  1.00  0.00    -0.155 A  
ENDBRANCH  14  15
BRANCH  14  22
HETATM   22  C   UNL     1      -7.010   6.470  68.966  1.00  0.00    -0.075 C  
HETATM   23  O   UNL     1      -5.951   6.232  68.391  1.00  0.00    -0.015 OA 
BRANCH  22  24
HETATM   24  C   UNL     1      -8.179   5.544  68.784  1.00  0.00    -0.102 C  
HETATM   25  C   UNL     1      -9.209   5.796  67.703  1.00  0.00    -0.105 C  
HETATM   26  C   UNL     1      -8.227   4.674  67.549  1.00  0.00    -0.101 C  
ENDBRANCH  22  24
ENDBRANCH  14  22
ENDBRANCH  12  14
ENDBRANCH   4   5
ENDBRANCH   2   4
TORSDOF 6
ENDMDL
