MODEL        1
REMARK 921   NORMALIZED FREE ENERGY PREDICTED BY IDOCK:   -7.66 KCAL/MOL
REMARK 922        TOTAL FREE ENERGY PREDICTED BY IDOCK:  -12.70 KCAL/MOL
REMARK 923 INTER-LIGAND FREE ENERGY PREDICTED BY IDOCK:  -11.24 KCAL/MOL
REMARK 924 INTRA-LIGAND FREE ENERGY PREDICTED BY IDOCK:   -1.46 KCAL/MOL
REMARK 927      BINDING AFFINITY PREDICTED BY RF-SCORE:    0.00 PKD
ROOT
HETATM    1  C   UNL     1     -11.844  13.030  70.602  1.00  0.00    -0.069 C  
HETATM    2  C   UNL     1     -11.837  14.516  70.072  1.00  0.00    -0.313 C  
HETATM    3  C   UNL     1     -12.925  12.825  71.672  1.00  0.00    -0.402 C  
HETATM    4  C   UNL     1     -12.814  15.510  70.738  1.00  0.00    -0.513 C  
HETATM    5  C   UNL     1     -13.016  15.258  72.220  1.00  0.00    -0.369 C  
HETATM    6  C   UNL     1     -10.784   9.781  70.691  1.00  0.00    -0.394 C  
HETATM    7  C   UNL     1     -11.793  11.894  69.515  1.00  0.00    -0.395 C  
HETATM    8  C   UNL     1     -13.379  13.831  72.447  1.00  0.00    -0.635 C  
HETATM    9  O   UNL     1     -11.851  15.600  72.949  1.00  0.00    -0.428 OA 
HETATM   10  C   UNL     1     -12.032  10.469  70.124  1.00  0.00    -0.398 C  
HETATM   11  C   UNL     1     -13.091  10.440  71.180  1.00  0.00    -0.474 C  
HETATM   12  H   UNL     1     -11.977  15.442  73.877  1.00  0.00     0.000 HD 
HETATM   13  C   UNL     1     -13.476  11.505  71.880  1.00  0.00    -0.275 C  
ENDROOT
BRANCH   2  14
HETATM   14  O   UNL     1     -11.877  14.684  68.633  1.00  0.00    -0.319 OA 
BRANCH  14  15
HETATM   15  C   UNL     1     -11.251  15.740  68.040  1.00  0.00    -0.338 C  
HETATM   16  C   UNL     1     -10.676  15.964  65.633  1.00  0.00    -0.350 C  
HETATM   17  C   UNL     1      -8.874  15.442  67.317  1.00  0.00    -0.212 C  
HETATM   18  O   UNL     1     -11.378  16.916  68.358  1.00  0.00    -0.230 OA 
HETATM   19  C   UNL     1     -10.345  15.237  66.934  1.00  0.00    -0.278 C  
HETATM   20  C   UNL     1      -8.448  14.582  68.499  1.00  0.00    -0.166 C  
ENDBRANCH  14  15
ENDBRANCH   2  14
BRANCH   7  21
HETATM   21  C   UNL     1     -10.517  11.905  68.603  1.00  0.00    -0.231 C  
BRANCH  21  22
HETATM   22  C   UNL     1     -10.774  11.084  67.320  1.00  0.00    -0.312 C  
BRANCH  22  23
HETATM   23  C   UNL     1      -9.659  11.006  66.269  1.00  0.00    -0.201 C  
HETATM   24  O   UNL     1      -8.641  10.088  66.670  1.00  0.00    -0.125 OA 
HETATM   25  H   UNL     1      -7.951  10.039  66.019  1.00  0.00     0.000 HD 
BRANCH  23  26
HETATM   26  C   UNL     1     -10.279  10.474  64.956  1.00  0.00    -0.365 C  
BRANCH  26  27
HETATM   27  C   UNL     1     -10.145  11.415  63.753  1.00  0.00    -0.362 C  
HETATM   28  O   UNL     1     -10.893  10.921  62.631  1.00  0.00    -0.667 OA 
HETATM   29  H   UNL     1     -10.810  11.504  61.886  1.00  0.00     0.000 HD 
BRANCH  27  30
HETATM   30  C   UNL     1     -10.705  12.801  64.090  1.00  0.00    -0.441 C  
HETATM   31  C   UNL     1     -12.125  13.000  63.612  1.00  0.00    -0.531 C  
HETATM   32  O   UNL     1     -12.921  11.918  63.751  1.00  0.00    -0.644 OA 
HETATM   33  O   UNL     1     -12.547  14.074  63.207  1.00  0.00    -0.801 OA 
ENDBRANCH  27  30
ENDBRANCH  26  27
ENDBRANCH  23  26
ENDBRANCH  22  23
ENDBRANCH  21  22
ENDBRANCH   7  21
TORSDOF 8
ENDMDL
MODEL        2
REMARK 921   NORMALIZED FREE ENERGY PREDICTED BY IDOCK:   -7.61 KCAL/MOL
REMARK 922        TOTAL FREE ENERGY PREDICTED BY IDOCK:  -12.62 KCAL/MOL
REMARK 923 INTER-LIGAND FREE ENERGY PREDICTED BY IDOCK:  -10.96 KCAL/MOL
REMARK 924 INTRA-LIGAND FREE ENERGY PREDICTED BY IDOCK:   -1.66 KCAL/MOL
REMARK 927      BINDING AFFINITY PREDICTED BY RF-SCORE:    0.00 PKD
ROOT
HETATM    1  C   UNL     1     -10.380  11.776  65.818  1.00  0.00    -0.293 C  
HETATM    2  C   UNL     1      -9.716  10.769  66.836  1.00  0.00    -0.178 C  
HETATM    3  C   UNL     1     -10.166  11.324  64.368  1.00  0.00    -0.377 C  
HETATM    4  C   UNL     1      -8.919   9.586  66.243  1.00  0.00    -0.188 C  
HETATM    5  C   UNL     1      -8.182   9.934  64.965  1.00  0.00    -0.143 C  
HETATM    6  C   UNL     1     -12.186  14.547  64.955  1.00  0.00    -0.409 C  
HETATM    7  C   UNL     1     -11.851  12.234  66.139  1.00  0.00    -0.398 C  
HETATM    8  C   UNL     1      -9.120  10.561  63.992  1.00  0.00    -0.256 C  
HETATM    9  O   UNL     1      -7.092  10.798  65.236  1.00  0.00    -0.341 OA 
HETATM   10  C   UNL     1     -12.497  13.046  64.962  1.00  0.00    -0.534 C  
HETATM   11  C   UNL     1     -12.166  12.502  63.609  1.00  0.00    -0.642 C  
HETATM   12  H   UNL     1      -6.629  11.016  64.435  1.00  0.00     0.000 HD 
HETATM   13  C   UNL     1     -11.106  11.738  63.350  1.00  0.00    -0.448 C  
ENDROOT
BRANCH   2  14
HETATM   14  O   UNL     1     -10.561  10.296  67.914  1.00  0.00    -0.203 OA 
BRANCH  14  15
HETATM   15  C   UNL     1     -10.022   9.950  69.117  1.00  0.00    -0.198 C  
HETATM   16  C   UNL     1     -10.347   7.803  70.326  1.00  0.00    -0.215 C  
HETATM   17  C   UNL     1     -11.538   9.883  71.107  1.00  0.00    -0.468 C  
HETATM   18  O   UNL     1      -8.917  10.281  69.527  1.00  0.00    -0.197 OA 
HETATM   19  C   UNL     1     -11.015   9.106  69.893  1.00  0.00    -0.218 C  
HETATM   20  C   UNL     1     -12.379  11.091  70.715  1.00  0.00    -0.496 C  
ENDBRANCH  14  15
ENDBRANCH   2  14
BRANCH   7  21
HETATM   21  C   UNL     1     -12.030  12.988  67.502  1.00  0.00    -0.360 C  
BRANCH  21  22
HETATM   22  C   UNL     1     -10.772  13.829  67.814  1.00  0.00    -0.254 C  
BRANCH  22  23
HETATM   23  C   UNL     1     -10.960  15.213  68.449  1.00  0.00    -0.271 C  
HETATM   24  O   UNL     1     -12.276  15.712  68.210  1.00  0.00    -0.424 OA 
HETATM   25  H   UNL     1     -12.392  16.569  68.603  1.00  0.00     0.000 HD 
BRANCH  23  26
HETATM   26  C   UNL     1     -10.787  15.062  69.978  1.00  0.00    -0.243 C  
BRANCH  26  27
HETATM   27  C   UNL     1     -12.025  15.430  70.806  1.00  0.00    -0.359 C  
HETATM   28  O   UNL     1     -13.121  14.554  70.504  1.00  0.00    -0.489 OA 
HETATM   29  H   UNL     1     -13.887  14.783  71.016  1.00  0.00     0.000 HD 
BRANCH  27  30
HETATM   30  C   UNL     1     -11.733  15.285  72.302  1.00  0.00    -0.539 C  
HETATM   31  C   UNL     1     -12.794  15.910  73.178  1.00  0.00    -0.537 C  
HETATM   32  O   UNL     1     -14.059  15.739  72.736  1.00  0.00    -0.576 OA 
HETATM   33  O   UNL     1     -12.542  16.457  74.243  1.00  0.00    -0.706 OA 
ENDBRANCH  27  30
ENDBRANCH  26  27
ENDBRANCH  23  26
ENDBRANCH  22  23
ENDBRANCH  21  22
ENDBRANCH   7  21
TORSDOF 8
ENDMDL
MODEL        3
REMARK 921   NORMALIZED FREE ENERGY PREDICTED BY IDOCK:   -7.56 KCAL/MOL
REMARK 922        TOTAL FREE ENERGY PREDICTED BY IDOCK:  -12.55 KCAL/MOL
REMARK 923 INTER-LIGAND FREE ENERGY PREDICTED BY IDOCK:  -10.66 KCAL/MOL
REMARK 924 INTRA-LIGAND FREE ENERGY PREDICTED BY IDOCK:   -1.89 KCAL/MOL
REMARK 927      BINDING AFFINITY PREDICTED BY RF-SCORE:    0.00 PKD
ROOT
HETATM    1  C   UNL     1     -10.355  12.097  65.743  1.00  0.00    -0.289 C  
HETATM    2  C   UNL     1      -9.683  10.674  65.852  1.00  0.00    -0.223 C  
HETATM    3  C   UNL     1     -10.920  12.340  64.338  1.00  0.00    -0.374 C  
HETATM    4  C   UNL     1      -9.624   9.818  64.567  1.00  0.00    -0.201 C  
HETATM    5  C   UNL     1      -9.420  10.635  63.306  1.00  0.00    -0.329 C  
HETATM    6  C   UNL     1     -11.379  15.126  66.954  1.00  0.00    -0.264 C  
HETATM    7  C   UNL     1     -11.330  12.506  66.908  1.00  0.00    -0.383 C  
HETATM    8  C   UNL     1     -10.427  11.731  63.241  1.00  0.00    -0.439 C  
HETATM    9  O   UNL     1      -8.104  11.161  63.259  1.00  0.00    -0.363 OA 
HETATM   10  C   UNL     1     -12.115  13.829  66.598  1.00  0.00    -0.471 C  
HETATM   11  C   UNL     1     -12.569  13.934  65.176  1.00  0.00    -0.466 C  
HETATM   12  H   UNL     1      -7.976  11.672  62.469  1.00  0.00     0.000 HD 
HETATM   13  C   UNL     1     -12.015  13.269  64.164  1.00  0.00    -0.505 C  
ENDROOT
BRANCH   2  14
HETATM   14  O   UNL     1     -10.103   9.849  66.967  1.00  0.00    -0.195 OA 
BRANCH  14  15
HETATM   15  C   UNL     1      -9.429   8.706  67.279  1.00  0.00    -0.156 C  
HETATM   16  C   UNL     1     -10.102   6.383  66.709  1.00  0.00    -0.239 C  
HETATM   17  C   UNL     1     -10.376   7.234  69.066  1.00  0.00    -0.208 C  
HETATM   18  O   UNL     1      -8.211   8.588  67.333  1.00  0.00    -0.108 OA 
HETATM   19  C   UNL     1     -10.419   7.598  67.577  1.00  0.00    -0.336 C  
HETATM   20  C   UNL     1     -10.873   8.360  69.962  1.00  0.00    -0.225 C  
ENDBRANCH  14  15
ENDBRANCH   2  14
BRANCH   7  21
HETATM   21  C   UNL     1     -10.676  12.567  68.332  1.00  0.00    -0.259 C  
BRANCH  21  22
HETATM   22  C   UNL     1     -11.639  11.975  69.385  1.00  0.00    -0.393 C  
BRANCH  22  23
HETATM   23  C   UNL     1     -12.494  12.941  70.216  1.00  0.00    -0.127 C  
HETATM   24  O   UNL     1     -12.883  12.345  71.454  1.00  0.00    -0.367 OA 
HETATM   25  H   UNL     1     -13.412  12.943  71.968  1.00  0.00     0.000 HD 
BRANCH  23  26
HETATM   26  C   UNL     1     -11.629  14.179  70.544  1.00  0.00    -0.205 C  
BRANCH  26  27
HETATM   27  C   UNL     1     -12.418  15.474  70.774  1.00  0.00    -0.440 C  
HETATM   28  O   UNL     1     -13.826  15.205  70.865  1.00  0.00    -0.679 OA 
HETATM   29  H   UNL     1     -14.314  16.008  71.007  1.00  0.00     0.000 HD 
BRANCH  27  30
HETATM   30  C   UNL     1     -12.001  16.130  72.094  1.00  0.00    -0.623 C  
HETATM   31  C   UNL     1     -12.877  15.732  73.259  1.00  0.00    -0.542 C  
HETATM   32  O   UNL     1     -13.253  14.434  73.260  1.00  0.00    -0.622 OA 
HETATM   33  O   UNL     1     -13.160  16.495  74.171  1.00  0.00    -0.621 OA 
ENDBRANCH  27  30
ENDBRANCH  26  27
ENDBRANCH  23  26
ENDBRANCH  22  23
ENDBRANCH  21  22
ENDBRANCH   7  21
TORSDOF 8
ENDMDL
MODEL        4
REMARK 921   NORMALIZED FREE ENERGY PREDICTED BY IDOCK:   -7.35 KCAL/MOL
REMARK 922        TOTAL FREE ENERGY PREDICTED BY IDOCK:  -12.25 KCAL/MOL
REMARK 923 INTER-LIGAND FREE ENERGY PREDICTED BY IDOCK:  -10.49 KCAL/MOL
REMARK 924 INTRA-LIGAND FREE ENERGY PREDICTED BY IDOCK:   -1.77 KCAL/MOL
REMARK 927      BINDING AFFINITY PREDICTED BY RF-SCORE:    0.00 PKD
ROOT
HETATM    1  C   UNL     1     -11.138  11.165  66.428  1.00  0.00    -0.204 C  
HETATM    2  C   UNL     1     -11.843  12.487  65.934  1.00  0.00    -0.430 C  
HETATM    3  C   UNL     1      -9.941  10.806  65.539  1.00  0.00    -0.321 C  
HETATM    4  C   UNL     1     -11.299  13.140  64.644  1.00  0.00    -0.363 C  
HETATM    5  C   UNL     1     -10.815  12.135  63.617  1.00  0.00    -0.464 C  
HETATM    6  C   UNL     1     -10.704   8.498  68.523  1.00  0.00    -0.080 C  
HETATM    7  C   UNL     1     -10.848  11.056  67.971  1.00  0.00    -0.278 C  
HETATM    8  C   UNL     1      -9.856  11.185  64.248  1.00  0.00    -0.335 C  
HETATM    9  O   UNL     1     -11.908  11.438  63.046  1.00  0.00    -0.903 OA 
HETATM   10  C   UNL     1      -9.951   9.820  68.327  1.00  0.00    -0.175 C  
HETATM   11  C   UNL     1      -8.849   9.578  67.345  1.00  0.00    -0.134 C  
HETATM   12  H   UNL     1     -11.605  10.808  62.402  1.00  0.00     0.000 HD 
HETATM   13  C   UNL     1      -8.861  10.016  66.088  1.00  0.00    -0.165 C  
ENDROOT
BRANCH   2  14
HETATM   14  O   UNL     1     -12.069  13.508  66.938  1.00  0.00    -0.390 OA 
BRANCH  14  15
HETATM   15  C   UNL     1     -11.270  14.610  67.000  1.00  0.00    -0.344 C  
HETATM   16  C   UNL     1      -8.920  14.697  67.805  1.00  0.00    -0.181 C  
HETATM   17  C   UNL     1     -10.783  15.582  69.254  1.00  0.00    -0.245 C  
HETATM   18  O   UNL     1     -11.277  15.543  66.208  1.00  0.00    -0.239 OA 
HETATM   19  C   UNL     1     -10.378  14.522  68.223  1.00  0.00    -0.236 C  
HETATM   20  C   UNL     1     -12.164  15.333  69.843  1.00  0.00    -0.357 C  
ENDBRANCH  14  15
ENDBRANCH   2  14
BRANCH   7  21
HETATM   21  C   UNL     1     -12.117  11.108  68.891  1.00  0.00    -0.276 C  
BRANCH  21  22
HETATM   22  C   UNL     1     -11.799  11.875  70.193  1.00  0.00    -0.390 C  
BRANCH  22  23
HETATM   23  C   UNL     1     -12.441  11.392  71.500  1.00  0.00    -0.200 C  
HETATM   24  O   UNL     1     -13.378  12.349  71.995  1.00  0.00    -0.507 OA 
HETATM   25  H   UNL     1     -13.776  12.049  72.804  1.00  0.00     0.000 HD 
BRANCH  23  26
HETATM   26  C   UNL     1     -13.219  10.091  71.194  1.00  0.00    -0.441 C  
BRANCH  26  27
HETATM   27  C   UNL     1     -12.965   8.942  72.179  1.00  0.00    -0.416 C  
HETATM   28  O   UNL     1     -13.960   8.927  73.214  1.00  0.00    -1.203 OA 
HETATM   29  H   UNL     1     -13.803   8.216  73.824  1.00  0.00     0.000 HD 
BRANCH  27  30
HETATM   30  C   UNL     1     -13.044   7.592  71.461  1.00  0.00    -0.402 C  
HETATM   31  C   UNL     1     -11.838   6.716  71.708  1.00  0.00    -0.335 C  
HETATM   32  O   UNL     1     -11.360   6.762  72.971  1.00  0.00    -0.200 OA 
HETATM   33  O   UNL     1     -11.375   5.964  70.862  1.00  0.00    -0.270 OA 
ENDBRANCH  27  30
ENDBRANCH  26  27
ENDBRANCH  23  26
ENDBRANCH  22  23
ENDBRANCH  21  22
ENDBRANCH   7  21
TORSDOF 8
ENDMDL
MODEL        5
REMARK 921   NORMALIZED FREE ENERGY PREDICTED BY IDOCK:   -7.31 KCAL/MOL
REMARK 922        TOTAL FREE ENERGY PREDICTED BY IDOCK:  -12.19 KCAL/MOL
REMARK 923 INTER-LIGAND FREE ENERGY PREDICTED BY IDOCK:  -10.93 KCAL/MOL
REMARK 924 INTRA-LIGAND FREE ENERGY PREDICTED BY IDOCK:   -1.26 KCAL/MOL
REMARK 927      BINDING AFFINITY PREDICTED BY RF-SCORE:    0.00 PKD
ROOT
HETATM    1  C   UNL     1     -10.266  12.402  66.153  1.00  0.00    -0.262 C  
HETATM    2  C   UNL     1      -9.544  11.898  67.462  1.00  0.00    -0.175 C  
HETATM    3  C   UNL     1     -10.023  11.445  64.979  1.00  0.00    -0.312 C  
HETATM    4  C   UNL     1      -8.675  10.626  67.347  1.00  0.00    -0.125 C  
HETATM    5  C   UNL     1      -7.959  10.502  66.016  1.00  0.00    -0.149 C  
HETATM    6  C   UNL     1     -12.236  14.529  64.341  1.00  0.00    -0.480 C  
HETATM    7  C   UNL     1     -11.763  12.863  66.308  1.00  0.00    -0.457 C  
HETATM    8  C   UNL     1      -8.932  10.657  64.898  1.00  0.00    -0.218 C  
HETATM    9  O   UNL     1      -6.923  11.464  65.915  1.00  0.00    -0.368 OA 
HETATM   10  C   UNL     1     -12.455  13.128  64.926  1.00  0.00    -0.490 C  
HETATM   11  C   UNL     1     -12.089  12.130  63.873  1.00  0.00    -0.584 C  
HETATM   12  H   UNL     1      -6.474  11.387  65.081  1.00  0.00     0.000 HD 
HETATM   13  C   UNL     1     -10.985  11.387  63.901  1.00  0.00    -0.442 C  
ENDROOT
BRANCH   2  14
HETATM   14  O   UNL     1     -10.360  11.823  68.657  1.00  0.00    -0.215 OA 
BRANCH  14  15
HETATM   15  C   UNL     1     -11.141  10.732  68.898  1.00  0.00    -0.253 C  
HETATM   16  C   UNL     1     -12.771  10.452  70.752  1.00  0.00    -0.460 C  
HETATM   17  C   UNL     1     -10.548   9.268  70.839  1.00  0.00    -0.366 C  
HETATM   18  O   UNL     1     -11.633  10.004  68.045  1.00  0.00    -0.166 OA 
HETATM   19  C   UNL     1     -11.289  10.534  70.394  1.00  0.00    -0.411 C  
HETATM   20  C   UNL     1      -9.038   9.383  70.678  1.00  0.00    -0.292 C  
ENDBRANCH  14  15
ENDBRANCH   2  14
BRANCH   7  21
HETATM   21  C   UNL     1     -11.990  14.067  67.286  1.00  0.00    -0.448 C  
BRANCH  21  22
HETATM   22  C   UNL     1     -10.673  14.852  67.478  1.00  0.00    -0.276 C  
BRANCH  22  23
HETATM   23  C   UNL     1     -10.357  15.416  68.870  1.00  0.00    -0.233 C  
HETATM   24  O   UNL     1      -9.422  16.492  68.786  1.00  0.00    -0.229 OA 
HETATM   25  H   UNL     1      -9.227  16.841  69.647  1.00  0.00     0.000 HD 
BRANCH  23  26
HETATM   26  C   UNL     1     -11.668  15.979  69.464  1.00  0.00    -0.275 C  
BRANCH  26  27
HETATM   27  C   UNL     1     -12.225  15.191  70.656  1.00  0.00    -0.351 C  
HETATM   28  O   UNL     1     -11.633  13.885  70.728  1.00  0.00    -0.514 OA 
HETATM   29  H   UNL     1     -11.979  13.397  71.466  1.00  0.00     0.000 HD 
BRANCH  27  30
HETATM   30  C   UNL     1     -11.899  15.905  71.971  1.00  0.00    -0.609 C  
HETATM   31  C   UNL     1     -12.834  15.533  73.098  1.00  0.00    -0.497 C  
HETATM   32  O   UNL     1     -13.186  14.228  73.128  1.00  0.00    -0.616 OA 
HETATM   33  O   UNL     1     -13.185  16.324  73.963  1.00  0.00    -0.651 OA 
ENDBRANCH  27  30
ENDBRANCH  26  27
ENDBRANCH  23  26
ENDBRANCH  22  23
ENDBRANCH  21  22
ENDBRANCH   7  21
TORSDOF 8
ENDMDL
MODEL        6
REMARK 921   NORMALIZED FREE ENERGY PREDICTED BY IDOCK:   -7.24 KCAL/MOL
REMARK 922        TOTAL FREE ENERGY PREDICTED BY IDOCK:  -12.09 KCAL/MOL
REMARK 923 INTER-LIGAND FREE ENERGY PREDICTED BY IDOCK:  -10.56 KCAL/MOL
REMARK 924 INTRA-LIGAND FREE ENERGY PREDICTED BY IDOCK:   -1.53 KCAL/MOL
REMARK 927      BINDING AFFINITY PREDICTED BY RF-SCORE:    0.00 PKD
ROOT
HETATM    1  C   UNL     1     -10.887  12.119  66.377  1.00  0.00    -0.306 C  
HETATM    2  C   UNL     1     -10.825  11.090  67.571  1.00  0.00    -0.263 C  
HETATM    3  C   UNL     1     -10.782  11.407  65.022  1.00  0.00    -0.340 C  
HETATM    4  C   UNL     1     -10.592   9.605  67.216  1.00  0.00    -0.315 C  
HETATM    5  C   UNL     1      -9.678   9.405  66.023  1.00  0.00    -0.275 C  
HETATM    6  C   UNL     1     -11.196  15.233  65.000  1.00  0.00    -0.409 C  
HETATM    7  C   UNL     1     -12.021  13.208  66.444  1.00  0.00    -0.462 C  
HETATM    8  C   UNL     1     -10.158  10.221  64.872  1.00  0.00    -0.346 C  
HETATM    9  O   UNL     1      -8.343   9.745  66.355  1.00  0.00    -0.119 OA 
HETATM   10  C   UNL     1     -12.142  14.032  65.115  1.00  0.00    -0.418 C  
HETATM   11  C   UNL     1     -11.980  13.201  63.881  1.00  0.00    -0.550 C  
HETATM   12  H   UNL     1      -7.770   9.620  65.607  1.00  0.00     0.000 HD 
HETATM   13  C   UNL     1     -11.354  12.027  63.848  1.00  0.00    -0.503 C  
ENDROOT
BRANCH   2  14
HETATM   14  O   UNL     1     -11.875  11.195  68.564  1.00  0.00    -0.452 OA 
BRANCH  14  15
HETATM   15  C   UNL     1     -11.667  10.770  69.843  1.00  0.00    -0.333 C  
HETATM   16  C   UNL     1     -13.254   9.482  71.255  1.00  0.00    -0.400 C  
HETATM   17  C   UNL     1     -12.895  11.939  71.683  1.00  0.00    -0.417 C  
HETATM   18  O   UNL     1     -10.595  10.407  70.309  1.00  0.00    -0.262 OA 
HETATM   19  C   UNL     1     -12.968  10.839  70.618  1.00  0.00    -0.313 C  
HETATM   20  C   UNL     1     -12.803  13.335  71.082  1.00  0.00    -0.363 C  
ENDBRANCH  14  15
ENDBRANCH   2  14
BRANCH   7  21
HETATM   21  C   UNL     1     -11.954  14.161  67.687  1.00  0.00    -0.405 C  
BRANCH  21  22
HETATM   22  C   UNL     1     -10.528  14.164  68.279  1.00  0.00    -0.249 C  
BRANCH  22  23
HETATM   23  C   UNL     1      -9.812  15.511  68.450  1.00  0.00    -0.210 C  
HETATM   24  O   UNL     1      -8.736  15.641  67.520  1.00  0.00    -0.170 OA 
HETATM   25  H   UNL     1      -8.294  16.475  67.625  1.00  0.00     0.000 HD 
BRANCH  23  26
HETATM   26  C   UNL     1     -10.832  16.633  68.146  1.00  0.00    -0.348 C  
BRANCH  26  27
HETATM   27  C   UNL     1     -10.360  18.047  68.507  1.00  0.00    -0.349 C  
HETATM   28  O   UNL     1      -8.928  18.105  68.582  1.00  0.00    -0.311 OA 
HETATM   29  H   UNL     1      -8.636  18.981  68.806  1.00  0.00     0.000 HD 
BRANCH  27  30
HETATM   30  C   UNL     1     -10.794  19.049  67.433  1.00  0.00    -0.496 C  
HETATM   31  C   UNL     1      -9.790  19.192  66.314  1.00  0.00    -0.383 C  
HETATM   32  O   UNL     1      -9.202  18.036  65.935  1.00  0.00    -0.520 OA 
HETATM   33  O   UNL     1      -9.579  20.251  65.738  1.00  0.00    -0.276 OA 
ENDBRANCH  27  30
ENDBRANCH  26  27
ENDBRANCH  23  26
ENDBRANCH  22  23
ENDBRANCH  21  22
ENDBRANCH   7  21
TORSDOF 8
ENDMDL
MODEL        7
REMARK 921   NORMALIZED FREE ENERGY PREDICTED BY IDOCK:   -7.22 KCAL/MOL
REMARK 922        TOTAL FREE ENERGY PREDICTED BY IDOCK:  -12.05 KCAL/MOL
REMARK 923 INTER-LIGAND FREE ENERGY PREDICTED BY IDOCK:  -10.58 KCAL/MOL
REMARK 924 INTRA-LIGAND FREE ENERGY PREDICTED BY IDOCK:   -1.48 KCAL/MOL
REMARK 927      BINDING AFFINITY PREDICTED BY RF-SCORE:    0.00 PKD
ROOT
HETATM    1  C   UNL     1     -10.633  11.591  66.032  1.00  0.00    -0.310 C  
HETATM    2  C   UNL     1     -10.966  13.131  65.956  1.00  0.00    -0.279 C  
HETATM    3  C   UNL     1     -10.343  11.015  64.640  1.00  0.00    -0.410 C  
HETATM    4  C   UNL     1     -11.031  13.774  64.553  1.00  0.00    -0.399 C  
HETATM    5  C   UNL     1     -11.585  12.847  63.489  1.00  0.00    -0.468 C  
HETATM    6  C   UNL     1     -10.105   8.624  67.646  1.00  0.00    -0.271 C  
HETATM    7  C   UNL     1      -9.606  11.146  67.137  1.00  0.00    -0.192 C  
HETATM    8  C   UNL     1     -10.852  11.551  63.512  1.00  0.00    -0.473 C  
HETATM    9  O   UNL     1     -12.974  12.641  63.681  1.00  0.00    -0.704 OA 
HETATM   10  C   UNL     1      -9.172   9.646  66.986  1.00  0.00    -0.167 C  
HETATM   11  C   UNL     1      -8.964   9.226  65.565  1.00  0.00    -0.251 C  
HETATM   12  H   UNL     1     -13.322  12.061  63.014  1.00  0.00     0.000 HD 
HETATM   13  C   UNL     1      -9.507   9.842  64.517  1.00  0.00    -0.328 C  
ENDROOT
BRANCH   2  14
HETATM   14  O   UNL     1     -10.224  13.993  66.854  1.00  0.00    -0.255 OA 
BRANCH  14  15
HETATM   15  C   UNL     1     -10.827  15.061  67.449  1.00  0.00    -0.305 C  
HETATM   16  C   UNL     1     -10.637  17.443  66.768  1.00  0.00    -0.194 C  
HETATM   17  C   UNL     1      -9.403  16.610  68.802  1.00  0.00    -0.256 C  
HETATM   18  O   UNL     1     -11.935  15.056  67.969  1.00  0.00    -0.296 OA 
HETATM   19  C   UNL     1      -9.902  16.261  67.396  1.00  0.00    -0.242 C  
HETATM   20  C   UNL     1      -8.500  15.534  69.391  1.00  0.00    -0.256 C  
ENDBRANCH  14  15
ENDBRANCH   2  14
BRANCH   7  21
HETATM   21  C   UNL     1     -10.043  11.453  68.612  1.00  0.00    -0.217 C  
BRANCH  21  22
HETATM   22  C   UNL     1     -11.574  11.306  68.756  1.00  0.00    -0.383 C  
BRANCH  22  23
HETATM   23  C   UNL     1     -12.175  11.282  70.167  1.00  0.00    -0.330 C  
HETATM   24  O   UNL     1     -11.336  10.558  71.069  1.00  0.00    -0.312 OA 
HETATM   25  H   UNL     1     -11.709  10.544  71.943  1.00  0.00     0.000 HD 
BRANCH  23  26
HETATM   26  C   UNL     1     -12.257  12.741  70.673  1.00  0.00    -0.374 C  
BRANCH  26  27
HETATM   27  C   UNL     1     -13.347  12.999  71.721  1.00  0.00    -0.378 C  
HETATM   28  O   UNL     1     -13.556  11.838  72.539  1.00  0.00    -0.521 OA 
HETATM   29  H   UNL     1     -14.232  11.998  73.187  1.00  0.00     0.000 HD 
BRANCH  27  30
HETATM   30  C   UNL     1     -12.934  14.139  72.657  1.00  0.00    -0.505 C  
HETATM   31  C   UNL     1     -12.945  15.493  71.985  1.00  0.00    -0.434 C  
HETATM   32  O   UNL     1     -13.971  15.686  71.127  1.00  0.00    -0.564 OA 
HETATM   33  O   UNL     1     -12.141  16.375  72.251  1.00  0.00    -0.501 OA 
ENDBRANCH  27  30
ENDBRANCH  26  27
ENDBRANCH  23  26
ENDBRANCH  22  23
ENDBRANCH  21  22
ENDBRANCH   7  21
TORSDOF 8
ENDMDL
MODEL        8
REMARK 921   NORMALIZED FREE ENERGY PREDICTED BY IDOCK:   -7.20 KCAL/MOL
REMARK 922        TOTAL FREE ENERGY PREDICTED BY IDOCK:  -12.03 KCAL/MOL
REMARK 923 INTER-LIGAND FREE ENERGY PREDICTED BY IDOCK:   -9.96 KCAL/MOL
REMARK 924 INTRA-LIGAND FREE ENERGY PREDICTED BY IDOCK:   -2.07 KCAL/MOL
REMARK 927      BINDING AFFINITY PREDICTED BY RF-SCORE:    0.00 PKD
ROOT
HETATM    1  C   UNL     1     -11.571  12.302  70.087  1.00  0.00    -0.177 C  
HETATM    2  C   UNL     1     -11.431  13.379  68.943  1.00  0.00    -0.304 C  
HETATM    3  C   UNL     1     -12.580  12.749  71.152  1.00  0.00    -0.365 C  
HETATM    4  C   UNL     1     -12.227  14.693  69.105  1.00  0.00    -0.223 C  
HETATM    5  C   UNL     1     -12.340  15.157  70.544  1.00  0.00    -0.358 C  
HETATM    6  C   UNL     1     -10.899   9.318  71.615  1.00  0.00    -0.418 C  
HETATM    7  C   UNL     1     -11.741  10.806  69.629  1.00  0.00    -0.395 C  
HETATM    8  C   UNL     1     -12.850  14.048  71.398  1.00  0.00    -0.434 C  
HETATM    9  O   UNL     1     -11.087  15.620  71.020  1.00  0.00    -0.340 OA 
HETATM   10  C   UNL     1     -12.098   9.850  70.820  1.00  0.00    -0.396 C  
HETATM   11  C   UNL     1     -13.066  10.444  71.793  1.00  0.00    -0.567 C  
HETATM   12  H   UNL     1     -11.158  15.911  71.921  1.00  0.00     0.000 HD 
HETATM   13  C   UNL     1     -13.266  11.752  71.943  1.00  0.00    -0.468 C  
ENDROOT
BRANCH   2  14
HETATM   14  O   UNL     1     -11.564  12.893  67.584  1.00  0.00    -0.312 OA 
BRANCH  14  15
HETATM   15  C   UNL     1     -10.623  13.193  66.644  1.00  0.00    -0.279 C  
HETATM   16  C   UNL     1     -10.291  15.384  65.521  1.00  0.00    -0.412 C  
HETATM   17  C   UNL     1     -11.379  13.481  64.276  1.00  0.00    -0.402 C  
HETATM   18  O   UNL     1      -9.488  12.736  66.599  1.00  0.00    -0.239 OA 
HETATM   19  C   UNL     1     -11.204  14.166  65.637  1.00  0.00    -0.308 C  
HETATM   20  C   UNL     1     -12.429  12.380  64.302  1.00  0.00    -0.529 C  
ENDBRANCH  14  15
ENDBRANCH   2  14
BRANCH   7  21
HETATM   21  C   UNL     1     -10.550  10.230  68.788  1.00  0.00    -0.231 C  
BRANCH  21  22
HETATM   22  C   UNL     1     -11.087   9.353  67.635  1.00  0.00     0.047 C  
BRANCH  22  23
HETATM   23  C   UNL     1     -10.142   9.014  66.475  1.00  0.00    -0.283 C  
HETATM   24  O   UNL     1      -8.992   9.861  66.487  1.00  0.00    -0.143 OA 
HETATM   25  H   UNL     1      -8.406   9.651  65.769  1.00  0.00     0.000 HD 
BRANCH  23  26
HETATM   26  C   UNL     1      -9.654   7.560  66.669  1.00  0.00    -0.263 C  
BRANCH  26  27
HETATM   27  C   UNL     1     -10.683   6.615  67.303  1.00  0.00    -0.357 C  
HETATM   28  O   UNL     1     -11.247   5.737  66.316  1.00  0.00    -0.756 OA 
HETATM   29  H   UNL     1     -11.884   5.152  66.709  1.00  0.00     0.000 HD 
BRANCH  27  30
HETATM   30  C   UNL     1     -10.019   5.730  68.362  1.00  0.00    -0.193 C  
HETATM   31  C   UNL     1     -10.442   6.072  69.772  1.00  0.00    -0.255 C  
HETATM   32  O   UNL     1     -11.749   6.389  69.905  1.00  0.00    -0.426 OA 
HETATM   33  O   UNL     1      -9.688   5.994  70.732  1.00  0.00    -0.170 OA 
ENDBRANCH  27  30
ENDBRANCH  26  27
ENDBRANCH  23  26
ENDBRANCH  22  23
ENDBRANCH  21  22
ENDBRANCH   7  21
TORSDOF 8
ENDMDL
MODEL        9
REMARK 921   NORMALIZED FREE ENERGY PREDICTED BY IDOCK:   -7.20 KCAL/MOL
REMARK 922        TOTAL FREE ENERGY PREDICTED BY IDOCK:  -12.03 KCAL/MOL
REMARK 923 INTER-LIGAND FREE ENERGY PREDICTED BY IDOCK:  -10.12 KCAL/MOL
REMARK 924 INTRA-LIGAND FREE ENERGY PREDICTED BY IDOCK:   -1.91 KCAL/MOL
REMARK 927      BINDING AFFINITY PREDICTED BY RF-SCORE:    0.00 PKD
ROOT
HETATM    1  C   UNL     1     -11.953  12.899  70.692  1.00  0.00    -0.207 C  
HETATM    2  C   UNL     1     -11.927  14.350  70.073  1.00  0.00    -0.334 C  
HETATM    3  C   UNL     1     -13.032  12.775  71.775  1.00  0.00    -0.416 C  
HETATM    4  C   UNL     1     -12.888  15.397  70.680  1.00  0.00    -0.484 C  
HETATM    5  C   UNL     1     -13.089  15.237  72.174  1.00  0.00    -0.381 C  
HETATM    6  C   UNL     1     -10.936   9.648  70.975  1.00  0.00    -0.431 C  
HETATM    7  C   UNL     1     -11.921  11.699  69.676  1.00  0.00    -0.390 C  
HETATM    8  C   UNL     1     -13.470  13.832  72.489  1.00  0.00    -0.682 C  
HETATM    9  O   UNL     1     -11.916  15.607  72.878  1.00  0.00    -0.413 OA 
HETATM   10  C   UNL     1     -12.177  10.316  70.371  1.00  0.00    -0.346 C  
HETATM   11  C   UNL     1     -13.233  10.367  71.429  1.00  0.00    -0.459 C  
HETATM   12  H   UNL     1     -12.041  15.508  73.814  1.00  0.00     0.000 HD 
HETATM   13  C   UNL     1     -13.601  11.478  72.064  1.00  0.00    -0.138 C  
ENDROOT
BRANCH   2  14
HETATM   14  O   UNL     1     -11.970  14.431  68.626  1.00  0.00    -0.326 OA 
BRANCH  14  15
HETATM   15  C   UNL     1     -11.301  15.419  67.966  1.00  0.00    -0.341 C  
HETATM   16  C   UNL     1     -10.764  15.484  65.541  1.00  0.00    -0.395 C  
HETATM   17  C   UNL     1      -8.959  14.954  67.218  1.00  0.00    -0.212 C  
HETATM   18  O   UNL     1     -11.358  16.615  68.223  1.00  0.00    -0.309 OA 
HETATM   19  C   UNL     1     -10.445  14.810  66.873  1.00  0.00    -0.277 C  
HETATM   20  C   UNL     1      -8.555  14.136  68.437  1.00  0.00    -0.176 C  
ENDBRANCH  14  15
ENDBRANCH   2  14
BRANCH   7  21
HETATM   21  C   UNL     1     -10.649  11.636  68.761  1.00  0.00    -0.241 C  
BRANCH  21  22
HETATM   22  C   UNL     1     -11.041  11.196  67.333  1.00  0.00    -0.370 C  
BRANCH  22  23
HETATM   23  C   UNL     1      -9.920  10.881  66.334  1.00  0.00    -0.221 C  
HETATM   24  O   UNL     1      -9.954   9.508  65.943  1.00  0.00    -0.291 OA 
HETATM   25  H   UNL     1      -9.260   9.313  65.324  1.00  0.00     0.000 HD 
BRANCH  23  26
HETATM   26  C   UNL     1     -10.159  11.735  65.067  1.00  0.00    -0.302 C  
BRANCH  26  27
HETATM   27  C   UNL     1     -10.439  10.930  63.792  1.00  0.00    -0.259 C  
HETATM   28  O   UNL     1     -11.643  11.385  63.155  1.00  0.00    -0.862 OA 
HETATM   29  H   UNL     1     -11.816  10.886  62.365  1.00  0.00     0.000 HD 
BRANCH  27  30
HETATM   30  C   UNL     1      -9.302  11.110  62.782  1.00  0.00    -0.377 C  
HETATM   31  C   UNL     1      -8.157  10.148  62.999  1.00  0.00    -0.152 C  
HETATM   32  O   UNL     1      -8.532   8.899  63.351  1.00  0.00    -0.190 OA 
HETATM   33  O   UNL     1      -6.988  10.447  62.797  1.00  0.00    -0.137 OA 
ENDBRANCH  27  30
ENDBRANCH  26  27
ENDBRANCH  23  26
ENDBRANCH  22  23
ENDBRANCH  21  22
ENDBRANCH   7  21
TORSDOF 8
ENDMDL
MODEL       10
REMARK 921   NORMALIZED FREE ENERGY PREDICTED BY IDOCK:   -7.19 KCAL/MOL
REMARK 922        TOTAL FREE ENERGY PREDICTED BY IDOCK:  -12.01 KCAL/MOL
REMARK 923 INTER-LIGAND FREE ENERGY PREDICTED BY IDOCK:  -10.30 KCAL/MOL
REMARK 924 INTRA-LIGAND FREE ENERGY PREDICTED BY IDOCK:   -1.71 KCAL/MOL
REMARK 927      BINDING AFFINITY PREDICTED BY RF-SCORE:    0.00 PKD
ROOT
HETATM    1  C   UNL     1     -11.155  11.307  66.239  1.00  0.00    -0.229 C  
HETATM    2  C   UNL     1     -11.910  12.626  65.816  1.00  0.00    -0.444 C  
HETATM    3  C   UNL     1      -9.987  11.005  65.291  1.00  0.00    -0.320 C  
HETATM    4  C   UNL     1     -11.435  13.331  64.526  1.00  0.00    -0.399 C  
HETATM    5  C   UNL     1     -10.969  12.371  63.449  1.00  0.00    -0.386 C  
HETATM    6  C   UNL     1     -10.574   8.589  68.229  1.00  0.00    -0.173 C  
HETATM    7  C   UNL     1     -10.799  11.158  67.764  1.00  0.00    -0.288 C  
HETATM    8  C   UNL     1      -9.964  11.426  64.010  1.00  0.00    -0.341 C  
HETATM    9  O   UNL     1     -12.069  11.665  62.900  1.00  0.00    -0.876 OA 
HETATM   10  C   UNL     1      -9.860   9.933  68.045  1.00  0.00    -0.170 C  
HETATM   11  C   UNL     1      -8.794   9.750  67.012  1.00  0.00    -0.145 C  
HETATM   12  H   UNL     1     -11.778  11.063  62.225  1.00  0.00     0.000 HD 
HETATM   13  C   UNL     1      -8.868  10.225  65.770  1.00  0.00    -0.179 C  
ENDROOT
BRANCH   2  14
HETATM   14  O   UNL     1     -12.118  13.609  66.860  1.00  0.00    -0.397 OA 
BRANCH  14  15
HETATM   15  C   UNL     1     -11.251  14.650  67.017  1.00  0.00    -0.344 C  
HETATM   16  C   UNL     1      -8.847  14.500  67.624  1.00  0.00    -0.189 C  
HETATM   17  C   UNL     1     -10.536  15.241  69.341  1.00  0.00    -0.257 C  
HETATM   18  O   UNL     1     -11.263  15.693  66.376  1.00  0.00    -0.201 OA 
HETATM   19  C   UNL     1     -10.276  14.333  68.134  1.00  0.00    -0.231 C  
HETATM   20  C   UNL     1     -11.881  14.971  70.002  1.00  0.00    -0.360 C  
ENDBRANCH  14  15
ENDBRANCH   2  14
BRANCH   7  21
HETATM   21  C   UNL     1     -12.030  11.150  68.736  1.00  0.00    -0.337 C  
BRANCH  21  22
HETATM   22  C   UNL     1     -11.551  11.212  70.203  1.00  0.00    -0.410 C  
BRANCH  22  23
HETATM   23  C   UNL     1     -12.188  10.255  71.219  1.00  0.00    -0.395 C  
HETATM   24  O   UNL     1     -13.411   9.716  70.717  1.00  0.00    -0.606 OA 
HETATM   25  H   UNL     1     -13.805   9.123  71.346  1.00  0.00     0.000 HD 
BRANCH  23  26
HETATM   26  C   UNL     1     -11.212   9.076  71.438  1.00  0.00    -0.394 C  
BRANCH  26  27
HETATM   27  C   UNL     1     -11.733   7.972  72.367  1.00  0.00    -0.386 C  
HETATM   28  O   UNL     1     -12.952   8.377  73.008  1.00  0.00    -0.704 OA 
HETATM   29  H   UNL     1     -13.275   7.693  73.583  1.00  0.00     0.000 HD 
BRANCH  27  30
HETATM   30  C   UNL     1     -12.046   6.702  71.569  1.00  0.00    -0.406 C  
HETATM   31  C   UNL     1     -10.808   5.966  71.113  1.00  0.00    -0.269 C  
HETATM   32  O   UNL     1      -9.804   5.943  72.017  1.00  0.00    -0.157 OA 
HETATM   33  O   UNL     1     -10.741   5.369  70.048  1.00  0.00    -0.308 OA 
ENDBRANCH  27  30
ENDBRANCH  26  27
ENDBRANCH  23  26
ENDBRANCH  22  23
ENDBRANCH  21  22
ENDBRANCH   7  21
TORSDOF 8
ENDMDL
MODEL       11
REMARK 921   NORMALIZED FREE ENERGY PREDICTED BY IDOCK:   -7.11 KCAL/MOL
REMARK 922        TOTAL FREE ENERGY PREDICTED BY IDOCK:  -11.89 KCAL/MOL
REMARK 923 INTER-LIGAND FREE ENERGY PREDICTED BY IDOCK:   -9.56 KCAL/MOL
REMARK 924 INTRA-LIGAND FREE ENERGY PREDICTED BY IDOCK:   -2.33 KCAL/MOL
REMARK 927      BINDING AFFINITY PREDICTED BY RF-SCORE:    0.00 PKD
ROOT
HETATM    1  C   UNL     1     -10.206  10.207  68.006  1.00  0.00    -0.205 C  
HETATM    2  C   UNL     1     -11.129  11.045  68.973  1.00  0.00    -0.244 C  
HETATM    3  C   UNL     1     -10.183   8.726  68.402  1.00  0.00    -0.228 C  
HETATM    4  C   UNL     1     -11.769  10.299  70.164  1.00  0.00    -0.364 C  
HETATM    5  C   UNL     1     -10.882   9.216  70.747  1.00  0.00    -0.268 C  
HETATM    6  C   UNL     1      -8.132   9.781  65.322  1.00  0.00    -0.126 C  
HETATM    7  C   UNL     1     -10.391  10.457  66.464  1.00  0.00    -0.287 C  
HETATM    8  C   UNL     1     -10.410   8.308  69.664  1.00  0.00    -0.218 C  
HETATM    9  O   UNL     1      -9.783   9.789  71.435  1.00  0.00    -0.217 OA 
HETATM   10  C   UNL     1      -9.599   9.424  65.588  1.00  0.00    -0.345 C  
HETATM   11  C   UNL     1      -9.642   8.029  66.126  1.00  0.00    -0.159 C  
HETATM   12  H   UNL     1      -9.226   9.111  71.800  1.00  0.00     0.000 HD 
HETATM   13  C   UNL     1      -9.893   7.727  67.398  1.00  0.00    -0.230 C  
ENDROOT
BRANCH   2  14
HETATM   14  O   UNL     1     -12.118  11.893  68.340  1.00  0.00    -0.448 OA 
BRANCH  14  15
HETATM   15  C   UNL     1     -11.974  13.249  68.341  1.00  0.00    -0.301 C  
HETATM   16  C   UNL     1      -9.925  14.523  68.934  1.00  0.00    -0.206 C  
HETATM   17  C   UNL     1     -11.854  14.415  70.552  1.00  0.00    -0.367 C  
HETATM   18  O   UNL     1     -12.512  14.025  67.563  1.00  0.00    -0.181 OA 
HETATM   19  C   UNL     1     -11.060  13.661  69.479  1.00  0.00    -0.127 C  
HETATM   20  C   UNL     1     -12.872  13.532  71.261  1.00  0.00    -0.420 C  
ENDBRANCH  14  15
ENDBRANCH   2  14
BRANCH   7  21
HETATM   21  C   UNL     1     -10.107  11.924  65.989  1.00  0.00    -0.261 C  
BRANCH  21  22
HETATM   22  C   UNL     1     -10.897  12.228  64.697  1.00  0.00    -0.349 C  
BRANCH  22  23
HETATM   23  C   UNL     1     -11.271  13.686  64.396  1.00  0.00    -0.367 C  
HETATM   24  O   UNL     1     -12.616  13.961  64.791  1.00  0.00    -0.603 OA 
HETATM   25  H   UNL     1     -12.847  14.864  64.605  1.00  0.00     0.000 HD 
BRANCH  23  26
HETATM   26  C   UNL     1     -10.342  14.596  65.231  1.00  0.00    -0.425 C  
BRANCH  26  27
HETATM   27  C   UNL     1     -10.477  16.096  64.939  1.00  0.00    -0.044 C  
HETATM   28  O   UNL     1     -11.580  16.347  64.055  1.00  0.00    -1.447 OA 
HETATM   29  H   UNL     1     -11.663  17.276  63.873  1.00  0.00     0.000 HD 
BRANCH  27  30
HETATM   30  C   UNL     1     -10.753  16.872  66.231  1.00  0.00    -0.096 C  
HETATM   31  C   UNL     1     -10.562  18.363  66.081  1.00  0.00    -0.315 C  
HETATM   32  O   UNL     1     -10.994  18.869  64.905  1.00  0.00    -0.389 OA 
HETATM   33  O   UNL     1     -10.126  19.073  66.977  1.00  0.00    -0.324 OA 
ENDBRANCH  27  30
ENDBRANCH  26  27
ENDBRANCH  23  26
ENDBRANCH  22  23
ENDBRANCH  21  22
ENDBRANCH   7  21
TORSDOF 8
ENDMDL
MODEL       12
REMARK 921   NORMALIZED FREE ENERGY PREDICTED BY IDOCK:   -7.11 KCAL/MOL
REMARK 922        TOTAL FREE ENERGY PREDICTED BY IDOCK:  -11.89 KCAL/MOL
REMARK 923 INTER-LIGAND FREE ENERGY PREDICTED BY IDOCK:   -9.73 KCAL/MOL
REMARK 924 INTRA-LIGAND FREE ENERGY PREDICTED BY IDOCK:   -2.15 KCAL/MOL
REMARK 927      BINDING AFFINITY PREDICTED BY RF-SCORE:    0.00 PKD
ROOT
HETATM    1  C   UNL     1     -11.706  10.879  69.683  1.00  0.00    -0.403 C  
HETATM    2  C   UNL     1     -11.191   9.487  70.219  1.00  0.00    -0.261 C  
HETATM    3  C   UNL     1     -12.455  11.654  70.774  1.00  0.00    -0.425 C  
HETATM    4  C   UNL     1     -11.575   9.099  71.664  1.00  0.00    -0.449 C  
HETATM    5  C   UNL     1     -12.952   9.583  72.074  1.00  0.00    -0.426 C  
HETATM    6  C   UNL     1     -12.080  13.332  67.331  1.00  0.00    -0.327 C  
HETATM    7  C   UNL     1     -10.673  11.746  68.872  1.00  0.00    -0.241 C  
HETATM    8  C   UNL     1     -13.081  11.041  71.800  1.00  0.00    -0.554 C  
HETATM    9  O   UNL     1     -13.960   8.855  71.395  1.00  0.00    -0.490 OA 
HETATM   10  C   UNL     1     -11.203  13.194  68.581  1.00  0.00    -0.314 C  
HETATM   11  C   UNL     1     -11.944  13.801  69.731  1.00  0.00    -0.406 C  
HETATM   12  H   UNL     1     -14.823   9.158  71.652  1.00  0.00     0.000 HD 
HETATM   13  C   UNL     1     -12.515  13.097  70.706  1.00  0.00    -0.389 C  
ENDROOT
BRANCH   2  14
HETATM   14  O   UNL     1      -9.792   9.188  69.989  1.00  0.00    -0.174 OA 
BRANCH  14  15
HETATM   15  C   UNL     1      -9.422   8.284  69.038  1.00  0.00    -0.155 C  
HETATM   16  C   UNL     1     -10.745   7.595  67.051  1.00  0.00    -0.340 C  
HETATM   17  C   UNL     1     -10.554   6.053  69.035  1.00  0.00    -0.357 C  
HETATM   18  O   UNL     1      -8.282   8.102  68.631  1.00  0.00    -0.122 OA 
HETATM   19  C   UNL     1     -10.640   7.511  68.571  1.00  0.00    -0.172 C  
HETATM   20  C   UNL     1     -10.641   5.910  70.548  1.00  0.00    -0.342 C  
ENDBRANCH  14  15
ENDBRANCH   2  14
BRANCH   7  21
HETATM   21  C   UNL     1     -10.127  11.078  67.562  1.00  0.00    -0.208 C  
BRANCH  21  22
HETATM   22  C   UNL     1      -8.711  11.607  67.246  1.00  0.00    -0.159 C  
BRANCH  22  23
HETATM   23  C   UNL     1      -7.976  11.038  66.025  1.00  0.00    -0.094 C  
HETATM   24  O   UNL     1      -7.158   9.927  66.393  1.00  0.00    -0.091 OA 
HETATM   25  H   UNL     1      -6.703   9.574  65.637  1.00  0.00     0.000 HD 
BRANCH  23  26
HETATM   26  C   UNL     1      -9.040  10.526  65.026  1.00  0.00    -0.231 C  
BRANCH  26  27
HETATM   27  C   UNL     1      -9.772  11.626  64.247  1.00  0.00    -0.173 C  
HETATM   28  O   UNL     1      -9.055  11.970  63.052  1.00  0.00    -0.639 OA 
HETATM   29  H   UNL     1      -9.509  12.651  62.570  1.00  0.00     0.000 HD 
BRANCH  27  30
HETATM   30  C   UNL     1     -11.160  11.143  63.813  1.00  0.00    -0.157 C  
HETATM   31  C   UNL     1     -12.197  12.242  63.807  1.00  0.00    -0.546 C  
HETATM   32  O   UNL     1     -11.747  13.435  63.360  1.00  0.00    -0.361 OA 
HETATM   33  O   UNL     1     -13.368  12.055  64.103  1.00  0.00    -0.725 OA 
ENDBRANCH  27  30
ENDBRANCH  26  27
ENDBRANCH  23  26
ENDBRANCH  22  23
ENDBRANCH  21  22
ENDBRANCH   7  21
TORSDOF 8
ENDMDL
MODEL       13
REMARK 921   NORMALIZED FREE ENERGY PREDICTED BY IDOCK:   -7.10 KCAL/MOL
REMARK 922        TOTAL FREE ENERGY PREDICTED BY IDOCK:  -11.88 KCAL/MOL
REMARK 923 INTER-LIGAND FREE ENERGY PREDICTED BY IDOCK:  -10.63 KCAL/MOL
REMARK 924 INTRA-LIGAND FREE ENERGY PREDICTED BY IDOCK:   -1.25 KCAL/MOL
REMARK 927      BINDING AFFINITY PREDICTED BY RF-SCORE:    0.00 PKD
ROOT
HETATM    1  C   UNL     1     -10.462   9.576  68.613  1.00  0.00    -0.237 C  
HETATM    2  C   UNL     1     -10.507  10.441  67.294  1.00  0.00    -0.252 C  
HETATM    3  C   UNL     1      -9.155   8.781  68.713  1.00  0.00    -0.138 C  
HETATM    4  C   UNL     1      -9.324  10.297  66.311  1.00  0.00    -0.206 C  
HETATM    5  C   UNL     1      -8.755   8.893  66.253  1.00  0.00    -0.141 C  
HETATM    6  C   UNL     1     -11.682   8.432  71.594  1.00  0.00    -0.354 C  
HETATM    7  C   UNL     1     -10.877  10.303  69.945  1.00  0.00    -0.355 C  
HETATM    8  C   UNL     1      -8.444   8.412  67.628  1.00  0.00    -0.130 C  
HETATM    9  O   UNL     1      -9.661   8.014  65.608  1.00  0.00    -0.412 OA 
HETATM   10  C   UNL     1     -10.584   9.434  71.218  1.00  0.00    -0.400 C  
HETATM   11  C   UNL     1      -9.288   8.690  71.149  1.00  0.00    -0.274 C  
HETATM   12  H   UNL     1      -9.305   7.134  65.571  1.00  0.00     0.000 HD 
HETATM   13  C   UNL     1      -8.660   8.390  70.014  1.00  0.00    -0.131 C  
ENDROOT
BRANCH   2  14
HETATM   14  O   UNL     1     -10.838  11.843  67.457  1.00  0.00    -0.219 OA 
BRANCH  14  15
HETATM   15  C   UNL     1     -11.405  12.545  66.435  1.00  0.00    -0.329 C  
HETATM   16  C   UNL     1     -10.214  13.705  64.589  1.00  0.00    -0.338 C  
HETATM   17  C   UNL     1     -11.214  15.040  66.478  1.00  0.00    -0.312 C  
HETATM   18  O   UNL     1     -12.472  12.283  65.894  1.00  0.00    -0.535 OA 
HETATM   19  C   UNL     1     -10.525  13.729  66.083  1.00  0.00    -0.297 C  
HETATM   20  C   UNL     1     -11.370  15.192  67.985  1.00  0.00    -0.346 C  
ENDBRANCH  14  15
ENDBRANCH   2  14
BRANCH   7  21
HETATM   21  C   UNL     1     -12.344  10.856  69.973  1.00  0.00    -0.385 C  
BRANCH  21  22
HETATM   22  C   UNL     1     -12.663  11.450  71.362  1.00  0.00    -0.489 C  
BRANCH  22  23
HETATM   23  C   UNL     1     -13.377  12.807  71.428  1.00  0.00    -0.031 C  
HETATM   24  O   UNL     1     -14.103  12.944  72.650  1.00  0.00    -0.709 OA 
HETATM   25  H   UNL     1     -14.545  13.785  72.691  1.00  0.00     0.000 HD 
BRANCH  23  26
HETATM   26  C   UNL     1     -12.297  13.914  71.398  1.00  0.00    -0.383 C  
BRANCH  26  27
HETATM   27  C   UNL     1     -12.844  15.347  71.396  1.00  0.00    -0.439 C  
HETATM   28  O   UNL     1     -14.199  15.377  71.868  1.00  0.00    -0.505 OA 
HETATM   29  H   UNL     1     -14.538  16.265  71.866  1.00  0.00     0.000 HD 
BRANCH  27  30
HETATM   30  C   UNL     1     -12.022  16.236  72.334  1.00  0.00    -0.630 C  
HETATM   31  C   UNL     1     -12.435  16.113  73.783  1.00  0.00    -0.587 C  
HETATM   32  O   UNL     1     -12.746  14.857  74.173  1.00  0.00    -0.457 OA 
HETATM   33  O   UNL     1     -12.414  17.053  74.565  1.00  0.00    -0.611 OA 
ENDBRANCH  27  30
ENDBRANCH  26  27
ENDBRANCH  23  26
ENDBRANCH  22  23
ENDBRANCH  21  22
ENDBRANCH   7  21
TORSDOF 8
ENDMDL
MODEL       14
REMARK 921   NORMALIZED FREE ENERGY PREDICTED BY IDOCK:   -7.03 KCAL/MOL
REMARK 922        TOTAL FREE ENERGY PREDICTED BY IDOCK:  -11.78 KCAL/MOL
REMARK 923 INTER-LIGAND FREE ENERGY PREDICTED BY IDOCK:   -9.77 KCAL/MOL
REMARK 924 INTRA-LIGAND FREE ENERGY PREDICTED BY IDOCK:   -2.00 KCAL/MOL
REMARK 927      BINDING AFFINITY PREDICTED BY RF-SCORE:    0.00 PKD
ROOT
HETATM    1  C   UNL     1     -10.217  12.210  65.830  1.00  0.00    -0.272 C  
HETATM    2  C   UNL     1      -9.881  10.943  66.709  1.00  0.00    -0.195 C  
HETATM    3  C   UNL     1     -10.607  11.809  64.402  1.00  0.00    -0.368 C  
HETATM    4  C   UNL     1      -9.911   9.567  66.008  1.00  0.00    -0.348 C  
HETATM    5  C   UNL     1      -9.439   9.611  64.568  1.00  0.00    -0.113 C  
HETATM    6  C   UNL     1     -10.646  15.556  65.280  1.00  0.00    -0.446 C  
HETATM    7  C   UNL     1     -11.165  13.284  66.478  1.00  0.00    -0.329 C  
HETATM    8  C   UNL     1     -10.176  10.670  63.824  1.00  0.00    -0.266 C  
HETATM    9  O   UNL     1      -8.041   9.837  64.508  1.00  0.00    -0.130 OA 
HETATM   10  C   UNL     1     -11.618  14.382  65.454  1.00  0.00    -0.347 C  
HETATM   11  C   UNL     1     -11.928  13.839  64.095  1.00  0.00    -0.473 C  
HETATM   12  H   UNL     1      -7.744   9.865  63.606  1.00  0.00     0.000 HD 
HETATM   13  C   UNL     1     -11.457  12.685  63.627  1.00  0.00    -0.563 C  
ENDROOT
BRANCH   2  14
HETATM   14  O   UNL     1     -10.553  10.853  67.989  1.00  0.00    -0.179 OA 
BRANCH  14  15
HETATM   15  C   UNL     1      -9.945  10.257  69.053  1.00  0.00    -0.213 C  
HETATM   16  C   UNL     1     -10.018   7.845  69.645  1.00  0.00    -0.191 C  
HETATM   17  C   UNL     1     -11.382   9.507  70.960  1.00  0.00    -0.423 C  
HETATM   18  O   UNL     1      -8.865  10.579  69.531  1.00  0.00    -0.134 OA 
HETATM   19  C   UNL     1     -10.824   9.140  69.580  1.00  0.00    -0.194 C  
HETATM   20  C   UNL     1     -12.349  10.682  70.910  1.00  0.00    -0.502 C  
ENDBRANCH  14  15
ENDBRANCH   2  14
BRANCH   7  21
HETATM   21  C   UNL     1     -10.624  13.941  67.796  1.00  0.00    -0.248 C  
BRANCH  21  22
HETATM   22  C   UNL     1     -11.801  14.351  68.708  1.00  0.00    -0.360 C  
BRANCH  22  23
HETATM   23  C   UNL     1     -11.982  15.839  69.039  1.00  0.00    -0.278 C  
HETATM   24  O   UNL     1     -12.786  16.009  70.207  1.00  0.00    -0.622 OA 
HETATM   25  H   UNL     1     -12.898  16.930  70.412  1.00  0.00     0.000 HD 
BRANCH  23  26
HETATM   26  C   UNL     1     -10.586  16.432  69.341  1.00  0.00    -0.317 C  
BRANCH  26  27
HETATM   27  C   UNL     1     -10.191  17.627  68.465  1.00  0.00    -0.386 C  
HETATM   28  O   UNL     1     -10.230  18.848  69.218  1.00  0.00    -0.510 OA 
HETATM   29  H   UNL     1      -9.986  19.588  68.675  1.00  0.00     0.000 HD 
BRANCH  27  30
HETATM   30  C   UNL     1      -8.758  17.464  67.948  1.00  0.00    -0.237 C  
HETATM   31  C   UNL     1      -8.516  18.169  66.634  1.00  0.00    -0.264 C  
HETATM   32  O   UNL     1      -9.122  19.372  66.523  1.00  0.00    -0.324 OA 
HETATM   33  O   UNL     1      -7.769  17.732  65.770  1.00  0.00    -0.541 OA 
ENDBRANCH  27  30
ENDBRANCH  26  27
ENDBRANCH  23  26
ENDBRANCH  22  23
ENDBRANCH  21  22
ENDBRANCH   7  21
TORSDOF 8
ENDMDL
MODEL       15
REMARK 921   NORMALIZED FREE ENERGY PREDICTED BY IDOCK:   -6.99 KCAL/MOL
REMARK 922        TOTAL FREE ENERGY PREDICTED BY IDOCK:  -11.71 KCAL/MOL
REMARK 923 INTER-LIGAND FREE ENERGY PREDICTED BY IDOCK:   -9.57 KCAL/MOL
REMARK 924 INTRA-LIGAND FREE ENERGY PREDICTED BY IDOCK:   -2.14 KCAL/MOL
REMARK 927      BINDING AFFINITY PREDICTED BY RF-SCORE:    0.00 PKD
ROOT
HETATM    1  C   UNL     1     -11.004   9.343  67.991  1.00  0.00    -0.119 C  
HETATM    2  C   UNL     1     -10.394   9.214  66.542  1.00  0.00    -0.199 C  
HETATM    3  C   UNL     1     -10.531   8.201  68.899  1.00  0.00    -0.202 C  
HETATM    4  C   UNL     1      -9.524   7.971  66.248  1.00  0.00    -0.241 C  
HETATM    5  C   UNL     1      -9.996   6.720  66.964  1.00  0.00    -0.177 C  
HETATM    6  C   UNL     1     -12.864  10.851  70.432  1.00  0.00    -0.257 C  
HETATM    7  C   UNL     1     -10.935  10.766  68.660  1.00  0.00    -0.285 C  
HETATM    8  C   UNL     1     -10.160   6.997  68.418  1.00  0.00    -0.176 C  
HETATM    9  O   UNL     1     -11.211   6.254  66.404  1.00  0.00    -0.688 OA 
HETATM   10  C   UNL     1     -11.357  10.741  70.170  1.00  0.00    -0.390 C  
HETATM   11  C   UNL     1     -10.848   9.546  70.912  1.00  0.00    -0.407 C  
HETATM   12  H   UNL     1     -11.508   5.470  66.851  1.00  0.00     0.000 HD 
HETATM   13  C   UNL     1     -10.491   8.402  70.331  1.00  0.00    -0.228 C  
ENDROOT
BRANCH   2  14
HETATM   14  O   UNL     1      -9.749  10.397  66.009  1.00  0.00    -0.189 OA 
BRANCH  14  15
HETATM   15  C   UNL     1      -8.400  10.423  65.810  1.00  0.00    -0.158 C  
HETATM   16  C   UNL     1      -6.660   9.483  67.314  1.00  0.00    -0.071 C  
HETATM   17  C   UNL     1      -7.035  11.974  67.221  1.00  0.00    -0.146 C  
HETATM   18  O   UNL     1      -7.837  10.344  64.726  1.00  0.00    -0.146 OA 
HETATM   19  C   UNL     1      -7.694  10.592  67.141  1.00  0.00    -0.110 C  
HETATM   20  C   UNL     1      -8.048  13.110  67.247  1.00  0.00    -0.151 C  
ENDBRANCH  14  15
ENDBRANCH   2  14
BRANCH   7  21
HETATM   21  C   UNL     1     -11.694  11.900  67.887  1.00  0.00    -0.368 C  
BRANCH  21  22
HETATM   22  C   UNL     1     -11.273  13.285  68.426  1.00  0.00    -0.314 C  
BRANCH  22  23
HETATM   23  C   UNL     1     -11.884  14.536  67.781  1.00  0.00    -0.357 C  
HETATM   24  O   UNL     1     -12.056  15.577  68.744  1.00  0.00    -0.558 OA 
HETATM   25  H   UNL     1     -12.434  16.351  68.344  1.00  0.00     0.000 HD 
BRANCH  23  26
HETATM   26  C   UNL     1     -10.897  15.048  66.708  1.00  0.00    -0.318 C  
BRANCH  26  27
HETATM   27  C   UNL     1     -11.371  14.874  65.260  1.00  0.00    -0.358 C  
HETATM   28  O   UNL     1     -10.956  15.983  64.448  1.00  0.00    -0.893 OA 
HETATM   29  H   UNL     1     -11.251  15.875  63.552  1.00  0.00     0.000 HD 
BRANCH  27  30
HETATM   30  C   UNL     1     -10.760  13.613  64.642  1.00  0.00    -0.433 C  
HETATM   31  C   UNL     1     -11.711  12.878  63.726  1.00  0.00    -0.492 C  
HETATM   32  O   UNL     1     -12.482  13.679  62.958  1.00  0.00    -0.719 OA 
HETATM   33  O   UNL     1     -11.732  11.660  63.625  1.00  0.00    -0.420 OA 
ENDBRANCH  27  30
ENDBRANCH  26  27
ENDBRANCH  23  26
ENDBRANCH  22  23
ENDBRANCH  21  22
ENDBRANCH   7  21
TORSDOF 8
ENDMDL
MODEL       16
REMARK 921   NORMALIZED FREE ENERGY PREDICTED BY IDOCK:   -6.94 KCAL/MOL
REMARK 922        TOTAL FREE ENERGY PREDICTED BY IDOCK:  -11.65 KCAL/MOL
REMARK 923 INTER-LIGAND FREE ENERGY PREDICTED BY IDOCK:   -9.60 KCAL/MOL
REMARK 924 INTRA-LIGAND FREE ENERGY PREDICTED BY IDOCK:   -2.05 KCAL/MOL
REMARK 927      BINDING AFFINITY PREDICTED BY RF-SCORE:    0.00 PKD
ROOT
HETATM    1  C   UNL     1     -11.873  13.069  70.369  1.00  0.00    -0.245 C  
HETATM    2  C   UNL     1     -11.852  14.506  69.719  1.00  0.00    -0.315 C  
HETATM    3  C   UNL     1     -12.901  12.986  71.505  1.00  0.00    -0.386 C  
HETATM    4  C   UNL     1     -12.763  15.582  70.350  1.00  0.00    -0.382 C  
HETATM    5  C   UNL     1     -12.894  15.456  71.856  1.00  0.00    -0.396 C  
HETATM    6  C   UNL     1     -10.902   9.805  70.670  1.00  0.00    -0.396 C  
HETATM    7  C   UNL     1     -11.912  11.848  69.377  1.00  0.00    -0.350 C  
HETATM    8  C   UNL     1     -13.285  14.064  72.217  1.00  0.00    -0.558 C  
HETATM    9  O   UNL     1     -11.682  15.818  72.494  1.00  0.00    -0.435 OA 
HETATM   10  C   UNL     1     -12.158  10.484  70.112  1.00  0.00    -0.380 C  
HETATM   11  C   UNL     1     -13.161  10.575  71.219  1.00  0.00    -0.478 C  
HETATM   12  H   UNL     1     -11.764  15.739  73.438  1.00  0.00     0.000 HD 
HETATM   13  C   UNL     1     -13.478  11.705  71.848  1.00  0.00    -0.269 C  
ENDROOT
BRANCH   2  14
HETATM   14  O   UNL     1     -11.963  14.559  68.275  1.00  0.00    -0.320 OA 
BRANCH  14  15
HETATM   15  C   UNL     1     -11.273  15.492  67.560  1.00  0.00    -0.272 C  
HETATM   16  C   UNL     1     -10.682  15.376  65.149  1.00  0.00    -0.460 C  
HETATM   17  C   UNL     1      -8.918  14.961  66.901  1.00  0.00    -0.277 C  
HETATM   18  O   UNL     1     -11.328  16.704  67.727  1.00  0.00    -0.144 OA 
HETATM   19  C   UNL     1     -10.398  14.799  66.534  1.00  0.00    -0.287 C  
HETATM   20  C   UNL     1      -8.548  14.232  68.185  1.00  0.00    -0.172 C  
ENDBRANCH  14  15
ENDBRANCH   2  14
BRANCH   7  21
HETATM   21  C   UNL     1     -10.687  11.744  68.404  1.00  0.00    -0.249 C  
BRANCH  21  22
HETATM   22  C   UNL     1     -11.168  11.397  66.978  1.00  0.00    -0.350 C  
BRANCH  22  23
HETATM   23  C   UNL     1     -10.171  10.747  66.009  1.00  0.00    -0.251 C  
HETATM   24  O   UNL     1      -9.267  11.717  65.478  1.00  0.00    -0.333 OA 
HETATM   25  H   UNL     1      -8.649  11.314  64.879  1.00  0.00     0.000 HD 
BRANCH  23  26
HETATM   26  C   UNL     1      -9.338   9.716  66.806  1.00  0.00    -0.193 C  
BRANCH  26  27
HETATM   27  C   UNL     1      -9.878   8.281  66.762  1.00  0.00    -0.263 C  
HETATM   28  O   UNL     1      -9.154   7.492  65.806  1.00  0.00    -0.352 OA 
HETATM   29  H   UNL     1      -9.489   6.603  65.779  1.00  0.00     0.000 HD 
BRANCH  27  30
HETATM   30  C   UNL     1      -9.708   7.602  68.125  1.00  0.00    -0.168 C  
HETATM   31  C   UNL     1     -10.731   6.521  68.382  1.00  0.00    -0.279 C  
HETATM   32  O   UNL     1     -11.031   5.764  67.303  1.00  0.00    -0.255 OA 
HETATM   33  O   UNL     1     -11.195   6.291  69.490  1.00  0.00    -0.380 OA 
ENDBRANCH  27  30
ENDBRANCH  26  27
ENDBRANCH  23  26
ENDBRANCH  22  23
ENDBRANCH  21  22
ENDBRANCH   7  21
TORSDOF 8
ENDMDL
MODEL       17
REMARK 921   NORMALIZED FREE ENERGY PREDICTED BY IDOCK:   -6.92 KCAL/MOL
REMARK 922        TOTAL FREE ENERGY PREDICTED BY IDOCK:  -11.62 KCAL/MOL
REMARK 923 INTER-LIGAND FREE ENERGY PREDICTED BY IDOCK:  -10.00 KCAL/MOL
REMARK 924 INTRA-LIGAND FREE ENERGY PREDICTED BY IDOCK:   -1.62 KCAL/MOL
REMARK 927      BINDING AFFINITY PREDICTED BY RF-SCORE:    0.00 PKD
ROOT
HETATM    1  C   UNL     1     -10.489  11.943  65.763  1.00  0.00    -0.295 C  
HETATM    2  C   UNL     1      -9.802  10.548  65.495  1.00  0.00    -0.265 C  
HETATM    3  C   UNL     1     -11.102  12.518  64.480  1.00  0.00    -0.357 C  
HETATM    4  C   UNL     1      -9.779  10.039  64.036  1.00  0.00    -0.157 C  
HETATM    5  C   UNL     1      -9.622  11.146  63.012  1.00  0.00    -0.369 C  
HETATM    6  C   UNL     1     -11.497  14.560  67.718  1.00  0.00    -0.362 C  
HETATM    7  C   UNL     1     -11.429  12.035  67.021  1.00  0.00    -0.402 C  
HETATM    8  C   UNL     1     -10.640  12.207  63.252  1.00  0.00    -0.367 C  
HETATM    9  O   UNL     1      -8.314  11.688  63.059  1.00  0.00    -0.332 OA 
HETATM   10  C   UNL     1     -12.234  13.380  67.073  1.00  0.00    -0.321 C  
HETATM   11  C   UNL     1     -12.735  13.827  65.736  1.00  0.00    -0.494 C  
HETATM   12  H   UNL     1      -8.215  12.381  62.417  1.00  0.00     0.000 HD 
HETATM   13  C   UNL     1     -12.209  13.443  64.575  1.00  0.00    -0.450 C  
ENDROOT
BRANCH   2  14
HETATM   14  O   UNL     1     -10.179   9.466  66.382  1.00  0.00    -0.268 OA 
BRANCH  14  15
HETATM   15  C   UNL     1      -9.228   8.672  66.952  1.00  0.00    -0.159 C  
HETATM   16  C   UNL     1      -7.867   6.935  65.811  1.00  0.00    -0.106 C  
HETATM   17  C   UNL     1      -9.776   6.257  67.311  1.00  0.00    -0.150 C  
HETATM   18  O   UNL     1      -8.472   9.000  67.857  1.00  0.00    -0.120 OA 
HETATM   19  C   UNL     1      -9.263   7.299  66.310  1.00  0.00    -0.175 C  
HETATM   20  C   UNL     1     -11.235   6.473  67.689  1.00  0.00    -0.274 C  
ENDBRANCH  14  15
ENDBRANCH   2  14
BRANCH   7  21
HETATM   21  C   UNL     1     -10.729  11.750  68.396  1.00  0.00    -0.249 C  
BRANCH  21  22
HETATM   22  C   UNL     1     -11.546  10.720  69.206  1.00  0.00    -0.376 C  
BRANCH  22  23
HETATM   23  C   UNL     1     -11.854  11.027  70.677  1.00  0.00    -0.333 C  
HETATM   24  O   UNL     1     -12.138  12.415  70.862  1.00  0.00    -0.443 OA 
HETATM   25  H   UNL     1     -12.328  12.605  71.773  1.00  0.00     0.000 HD 
BRANCH  23  26
HETATM   26  C   UNL     1     -13.119  10.233  71.074  1.00  0.00    -0.458 C  
BRANCH  26  27
HETATM   27  C   UNL     1     -12.912   9.211  72.199  1.00  0.00    -0.425 C  
HETATM   28  O   UNL     1     -14.083   9.113  73.024  1.00  0.00    -1.068 OA 
HETATM   29  H   UNL     1     -13.954   8.481  73.721  1.00  0.00     0.000 HD 
BRANCH  27  30
HETATM   30  C   UNL     1     -12.654   7.817  71.619  1.00  0.00    -0.357 C  
HETATM   31  C   UNL     1     -11.317   7.243  72.023  1.00  0.00    -0.260 C  
HETATM   32  O   UNL     1     -10.959   7.499  73.300  1.00  0.00    -0.393 OA 
HETATM   33  O   UNL     1     -10.645   6.535  71.285  1.00  0.00    -0.219 OA 
ENDBRANCH  27  30
ENDBRANCH  26  27
ENDBRANCH  23  26
ENDBRANCH  22  23
ENDBRANCH  21  22
ENDBRANCH   7  21
TORSDOF 8
ENDMDL
MODEL       18
REMARK 921   NORMALIZED FREE ENERGY PREDICTED BY IDOCK:   -6.86 KCAL/MOL
REMARK 922        TOTAL FREE ENERGY PREDICTED BY IDOCK:  -11.52 KCAL/MOL
REMARK 923 INTER-LIGAND FREE ENERGY PREDICTED BY IDOCK:  -10.11 KCAL/MOL
REMARK 924 INTRA-LIGAND FREE ENERGY PREDICTED BY IDOCK:   -1.41 KCAL/MOL
REMARK 927      BINDING AFFINITY PREDICTED BY RF-SCORE:    0.00 PKD
ROOT
HETATM    1  C   UNL     1     -10.902   9.069  68.270  1.00  0.00    -0.072 C  
HETATM    2  C   UNL     1     -10.255   9.015  66.831  1.00  0.00    -0.269 C  
HETATM    3  C   UNL     1     -10.504   7.846  69.105  1.00  0.00    -0.218 C  
HETATM    4  C   UNL     1      -9.431   7.759  66.472  1.00  0.00    -0.262 C  
HETATM    5  C   UNL     1      -9.976   6.483  67.083  1.00  0.00    -0.157 C  
HETATM    6  C   UNL     1     -12.766  10.481  70.763  1.00  0.00    -0.471 C  
HETATM    7  C   UNL     1     -10.792  10.436  69.040  1.00  0.00    -0.273 C  
HETATM    8  C   UNL     1     -10.169   6.664  68.549  1.00  0.00    -0.185 C  
HETATM    9  O   UNL     1     -11.193   6.111  66.459  1.00  0.00    -0.741 OA 
HETATM   10  C   UNL     1     -11.258  10.323  70.533  1.00  0.00    -0.408 C  
HETATM   11  C   UNL     1     -10.822   9.057  71.200  1.00  0.00    -0.364 C  
HETATM   12  H   UNL     1     -11.534   5.311  66.842  1.00  0.00     0.000 HD 
HETATM   13  C   UNL     1     -10.497   7.944  70.548  1.00  0.00    -0.214 C  
ENDROOT
BRANCH   2  14
HETATM   14  O   UNL     1      -9.546  10.203  66.401  1.00  0.00    -0.175 OA 
BRANCH  14  15
HETATM   15  C   UNL     1      -8.201  10.168  66.181  1.00  0.00    -0.125 C  
HETATM   16  C   UNL     1      -6.463   9.321  67.743  1.00  0.00    -0.059 C  
HETATM   17  C   UNL     1      -6.765  11.803  67.417  1.00  0.00    -0.120 C  
HETATM   18  O   UNL     1      -7.659   9.968  65.102  1.00  0.00    -0.127 OA 
HETATM   19  C   UNL     1      -7.467  10.441  67.479  1.00  0.00    -0.093 C  
HETATM   20  C   UNL     1      -7.744  12.967  67.349  1.00  0.00    -0.160 C  
ENDBRANCH  14  15
ENDBRANCH   2  14
BRANCH   7  21
HETATM   21  C   UNL     1     -11.481  11.655  68.332  1.00  0.00    -0.360 C  
BRANCH  21  22
HETATM   22  C   UNL     1     -10.697  12.953  68.624  1.00  0.00    -0.273 C  
BRANCH  22  23
HETATM   23  C   UNL     1     -11.485  14.258  68.797  1.00  0.00    -0.296 C  
HETATM   24  O   UNL     1     -12.511  14.370  67.809  1.00  0.00    -0.588 OA 
HETATM   25  H   UNL     1     -12.999  15.178  67.916  1.00  0.00     0.000 HD 
BRANCH  23  26
HETATM   26  C   UNL     1     -12.171  14.220  70.182  1.00  0.00    -0.407 C  
BRANCH  26  27
HETATM   27  C   UNL     1     -12.723  15.567  70.664  1.00  0.00    -0.436 C  
HETATM   28  O   UNL     1     -14.143  15.496  70.862  1.00  0.00    -0.855 OA 
HETATM   29  H   UNL     1     -14.485  16.331  71.160  1.00  0.00     0.000 HD 
BRANCH  27  30
HETATM   30  C   UNL     1     -12.102  15.951  72.011  1.00  0.00    -0.591 C  
HETATM   31  C   UNL     1     -12.918  15.491  73.195  1.00  0.00    -0.521 C  
HETATM   32  O   UNL     1     -13.473  14.267  73.053  1.00  0.00    -0.644 OA 
HETATM   33  O   UNL     1     -13.008  16.132  74.233  1.00  0.00    -0.646 OA 
ENDBRANCH  27  30
ENDBRANCH  26  27
ENDBRANCH  23  26
ENDBRANCH  22  23
ENDBRANCH  21  22
ENDBRANCH   7  21
TORSDOF 8
ENDMDL
MODEL       19
REMARK 921   NORMALIZED FREE ENERGY PREDICTED BY IDOCK:   -6.80 KCAL/MOL
REMARK 922        TOTAL FREE ENERGY PREDICTED BY IDOCK:  -11.44 KCAL/MOL
REMARK 923 INTER-LIGAND FREE ENERGY PREDICTED BY IDOCK:   -9.95 KCAL/MOL
REMARK 924 INTRA-LIGAND FREE ENERGY PREDICTED BY IDOCK:   -1.49 KCAL/MOL
REMARK 927      BINDING AFFINITY PREDICTED BY RF-SCORE:    0.00 PKD
ROOT
HETATM    1  C   UNL     1      -9.335   9.280  67.447  1.00  0.00    -0.153 C  
HETATM    2  C   UNL     1      -9.591   8.143  68.510  1.00  0.00    -0.148 C  
HETATM    3  C   UNL     1      -9.054   8.693  66.059  1.00  0.00    -0.255 C  
HETATM    4  C   UNL     1      -9.443   6.681  68.033  1.00  0.00    -0.118 C  
HETATM    5  C   UNL     1      -8.350   6.491  66.999  1.00  0.00    -0.113 C  
HETATM    6  C   UNL     1      -9.085  12.526  66.402  1.00  0.00    -0.129 C  
HETATM    7  C   UNL     1     -10.352  10.481  67.443  1.00  0.00    -0.269 C  
HETATM    8  C   UNL     1      -8.531   7.462  65.883  1.00  0.00    -0.155 C  
HETATM    9  O   UNL     1      -7.071   6.641  67.591  1.00  0.00    -0.079 OA 
HETATM   10  C   UNL     1     -10.148  11.436  66.215  1.00  0.00    -0.263 C  
HETATM   11  C   UNL     1      -9.845  10.713  64.941  1.00  0.00    -0.363 C  
HETATM   12  H   UNL     1      -6.386   6.522  66.943  1.00  0.00     0.000 HD 
HETATM   13  C   UNL     1      -9.340   9.483  64.882  1.00  0.00    -0.264 C  
ENDROOT
BRANCH   2  14
HETATM   14  O   UNL     1     -10.790   8.273  69.314  1.00  0.00    -0.171 OA 
BRANCH  14  15
HETATM   15  C   UNL     1     -10.734   8.144  70.670  1.00  0.00    -0.224 C  
HETATM   16  C   UNL     1     -11.856   6.403  72.042  1.00  0.00    -0.382 C  
HETATM   17  C   UNL     1     -12.770   8.752  71.992  1.00  0.00    -0.444 C  
HETATM   18  O   UNL     1      -9.767   8.405  71.373  1.00  0.00    -0.169 OA 
HETATM   19  C   UNL     1     -12.071   7.650  71.187  1.00  0.00    -0.322 C  
HETATM   20  C   UNL     1     -13.178   9.940  71.131  1.00  0.00    -0.424 C  
ENDBRANCH  14  15
ENDBRANCH   2  14
BRANCH   7  21
HETATM   21  C   UNL     1     -10.421  11.299  68.779  1.00  0.00    -0.232 C  
BRANCH  21  22
HETATM   22  C   UNL     1     -11.729  12.117  68.835  1.00  0.00    -0.381 C  
BRANCH  22  23
HETATM   23  C   UNL     1     -11.631  13.640  68.996  1.00  0.00    -0.312 C  
HETATM   24  O   UNL     1     -12.601  14.304  68.185  1.00  0.00    -0.490 OA 
HETATM   25  H   UNL     1     -12.540  15.247  68.285  1.00  0.00     0.000 HD 
BRANCH  23  26
HETATM   26  C   UNL     1     -11.939  13.984  70.471  1.00  0.00    -0.390 C  
BRANCH  26  27
HETATM   27  C   UNL     1     -12.372  15.434  70.718  1.00  0.00    -0.396 C  
HETATM   28  O   UNL     1     -13.803  15.552  70.690  1.00  0.00    -0.864 OA 
HETATM   29  H   UNL     1     -14.071  16.450  70.842  1.00  0.00     0.000 HD 
BRANCH  27  30
HETATM   30  C   UNL     1     -11.911  15.905  72.100  1.00  0.00    -0.615 C  
HETATM   31  C   UNL     1     -12.865  15.524  73.208  1.00  0.00    -0.517 C  
HETATM   32  O   UNL     1     -13.410  14.294  73.080  1.00  0.00    -0.643 OA 
HETATM   33  O   UNL     1     -13.071  16.232  74.183  1.00  0.00    -0.661 OA 
ENDBRANCH  27  30
ENDBRANCH  26  27
ENDBRANCH  23  26
ENDBRANCH  22  23
ENDBRANCH  21  22
ENDBRANCH   7  21
TORSDOF 8
ENDMDL
MODEL       20
REMARK 921   NORMALIZED FREE ENERGY PREDICTED BY IDOCK:   -6.79 KCAL/MOL
REMARK 922        TOTAL FREE ENERGY PREDICTED BY IDOCK:  -11.42 KCAL/MOL
REMARK 923 INTER-LIGAND FREE ENERGY PREDICTED BY IDOCK:   -9.56 KCAL/MOL
REMARK 924 INTRA-LIGAND FREE ENERGY PREDICTED BY IDOCK:   -1.86 KCAL/MOL
REMARK 927      BINDING AFFINITY PREDICTED BY RF-SCORE:    0.00 PKD
ROOT
HETATM    1  C   UNL     1     -10.487   8.270  68.825  1.00  0.00    -0.200 C  
HETATM    2  C   UNL     1      -9.634   8.168  67.502  1.00  0.00    -0.157 C  
HETATM    3  C   UNL     1     -10.719   6.887  69.447  1.00  0.00    -0.275 C  
HETATM    4  C   UNL     1      -9.254   6.753  67.011  1.00  0.00    -0.152 C  
HETATM    5  C   UNL     1     -10.324   5.712  67.281  1.00  0.00    -0.241 C  
HETATM    6  C   UNL     1     -12.179   9.937  71.284  1.00  0.00    -0.480 C  
HETATM    7  C   UNL     1     -10.053   9.374  69.859  1.00  0.00    -0.243 C  
HETATM    8  C   UNL     1     -10.723   5.754  68.716  1.00  0.00    -0.318 C  
HETATM    9  O   UNL     1     -11.447   5.922  66.443  1.00  0.00    -0.661 OA 
HETATM   10  C   UNL     1     -10.811   9.247  71.226  1.00  0.00    -0.417 C  
HETATM   11  C   UNL     1     -10.990   7.833  71.680  1.00  0.00    -0.272 C  
HETATM   12  H   UNL     1     -12.117   5.270  66.611  1.00  0.00     0.000 HD 
HETATM   13  C   UNL     1     -10.960   6.779  70.868  1.00  0.00    -0.303 C  
ENDROOT
BRANCH   2  14
HETATM   14  O   UNL     1      -8.481   9.040  67.412  1.00  0.00    -0.115 OA 
BRANCH  14  15
HETATM   15  C   UNL     1      -8.389   9.970  66.419  1.00  0.00    -0.126 C  
HETATM   16  C   UNL     1      -9.975  10.290  64.534  1.00  0.00    -0.359 C  
HETATM   17  C   UNL     1      -7.745   9.185  64.132  1.00  0.00    -0.121 C  
HETATM   18  O   UNL     1      -7.943  11.104  66.542  1.00  0.00    -0.153 OA 
HETATM   19  C   UNL     1      -8.901   9.378  65.121  1.00  0.00    -0.233 C  
HETATM   20  C   UNL     1      -6.745   8.134  64.593  1.00  0.00    -0.067 C  
ENDBRANCH  14  15
ENDBRANCH   2  14
BRANCH   7  21
HETATM   21  C   UNL     1     -10.113  10.847  69.322  1.00  0.00    -0.164 C  
BRANCH  21  22
HETATM   22  C   UNL     1     -11.341  11.029  68.403  1.00  0.00    -0.363 C  
BRANCH  22  23
HETATM   23  C   UNL     1     -11.794  12.455  68.066  1.00  0.00    -0.316 C  
HETATM   24  O   UNL     1     -11.027  13.420  68.787  1.00  0.00    -0.246 OA 
HETATM   25  H   UNL     1     -11.308  14.303  68.578  1.00  0.00     0.000 HD 
BRANCH  23  26
HETATM   26  C   UNL     1     -11.544  12.690  66.558  1.00  0.00    -0.441 C  
BRANCH  26  27
HETATM   27  C   UNL     1     -10.749  13.959  66.227  1.00  0.00    -0.285 C  
HETATM   28  O   UNL     1      -9.337  13.718  66.328  1.00  0.00    -0.423 OA 
HETATM   29  H   UNL     1      -8.845  14.504  66.123  1.00  0.00     0.000 HD 
BRANCH  27  30
HETATM   30  C   UNL     1     -11.026  14.406  64.789  1.00  0.00    -0.409 C  
HETATM   31  C   UNL     1     -11.003  15.907  64.618  1.00  0.00    -0.305 C  
HETATM   32  O   UNL     1     -10.042  16.538  65.329  1.00  0.00    -0.564 OA 
HETATM   33  O   UNL     1     -11.737  16.501  63.841  1.00  0.00    -1.148 OA 
ENDBRANCH  27  30
ENDBRANCH  26  27
ENDBRANCH  23  26
ENDBRANCH  22  23
ENDBRANCH  21  22
ENDBRANCH   7  21
TORSDOF 8
ENDMDL
MODEL       21
REMARK 921   NORMALIZED FREE ENERGY PREDICTED BY IDOCK:   -6.79 KCAL/MOL
REMARK 922        TOTAL FREE ENERGY PREDICTED BY IDOCK:  -11.42 KCAL/MOL
REMARK 923 INTER-LIGAND FREE ENERGY PREDICTED BY IDOCK:   -9.38 KCAL/MOL
REMARK 924 INTRA-LIGAND FREE ENERGY PREDICTED BY IDOCK:   -2.04 KCAL/MOL
REMARK 927      BINDING AFFINITY PREDICTED BY RF-SCORE:    0.00 PKD
ROOT
HETATM    1  C   UNL     1      -9.591   7.605  69.400  1.00  0.00    -0.159 C  
HETATM    2  C   UNL     1      -9.492   7.669  70.974  1.00  0.00    -0.159 C  
HETATM    3  C   UNL     1      -9.797   6.165  68.913  1.00  0.00    -0.167 C  
HETATM    4  C   UNL     1      -9.531   6.329  71.741  1.00  0.00    -0.158 C  
HETATM    5  C   UNL     1      -8.848   5.192  71.005  1.00  0.00    -0.133 C  
HETATM    6  C   UNL     1      -9.662   8.947  66.257  1.00  0.00    -0.345 C  
HETATM    7  C   UNL     1     -10.535   8.658  68.710  1.00  0.00    -0.209 C  
HETATM    8  C   UNL     1      -9.378   5.094  69.617  1.00  0.00    -0.182 C  
HETATM    9  O   UNL     1      -7.443   5.378  70.993  1.00  0.00    -0.082 OA 
HETATM   10  C   UNL     1     -10.740   8.370  67.182  1.00  0.00    -0.222 C  
HETATM   11  C   UNL     1     -10.889   6.916  66.863  1.00  0.00    -0.380 C  
HETATM   12  H   UNL     1      -7.015   4.665  70.532  1.00  0.00     0.000 HD 
HETATM   13  C   UNL     1     -10.449   5.932  67.644  1.00  0.00    -0.301 C  
ENDROOT
BRANCH   2  14
HETATM   14  O   UNL     1     -10.352   8.632  71.632  1.00  0.00    -0.241 OA 
BRANCH  14  15
HETATM   15  C   UNL     1     -11.427   8.218  72.362  1.00  0.00    -0.394 C  
HETATM   16  C   UNL     1     -13.400   6.964  71.519  1.00  0.00    -0.303 C  
HETATM   17  C   UNL     1     -13.597   9.422  72.041  1.00  0.00    -0.505 C  
HETATM   18  O   UNL     1     -11.398   7.848  73.528  1.00  0.00    -0.130 OA 
HETATM   19  C   UNL     1     -12.681   8.312  71.515  1.00  0.00    -0.326 C  
HETATM   20  C   UNL     1     -12.994  10.810  71.877  1.00  0.00    -0.524 C  
ENDBRANCH  14  15
ENDBRANCH   2  14
BRANCH   7  21
HETATM   21  C   UNL     1     -10.144  10.158  68.948  1.00  0.00    -0.211 C  
BRANCH  21  22
HETATM   22  C   UNL     1     -11.400  11.053  68.878  1.00  0.00    -0.346 C  
BRANCH  22  23
HETATM   23  C   UNL     1     -11.218  12.540  68.542  1.00  0.00    -0.283 C  
HETATM   24  O   UNL     1     -10.720  13.262  69.669  1.00  0.00    -0.430 OA 
HETATM   25  H   UNL     1     -10.607  14.182  69.461  1.00  0.00     0.000 HD 
BRANCH  23  26
HETATM   26  C   UNL     1     -10.166  12.647  67.414  1.00  0.00    -0.219 C  
BRANCH  26  27
HETATM   27  C   UNL     1     -10.673  13.296  66.120  1.00  0.00    -0.279 C  
HETATM   28  O   UNL     1      -9.600  13.939  65.416  1.00  0.00    -0.536 OA 
HETATM   29  H   UNL     1      -9.914  14.342  64.616  1.00  0.00     0.000 HD 
BRANCH  27  30
HETATM   30  C   UNL     1     -11.255  12.237  65.180  1.00  0.00    -0.369 C  
HETATM   31  C   UNL     1     -12.478  12.714  64.431  1.00  0.00    -0.428 C  
HETATM   32  O   UNL     1     -12.416  13.998  64.016  1.00  0.00    -0.682 OA 
HETATM   33  O   UNL     1     -13.415  11.981  64.150  1.00  0.00    -0.672 OA 
ENDBRANCH  27  30
ENDBRANCH  26  27
ENDBRANCH  23  26
ENDBRANCH  22  23
ENDBRANCH  21  22
ENDBRANCH   7  21
TORSDOF 8
ENDMDL
MODEL       22
REMARK 921   NORMALIZED FREE ENERGY PREDICTED BY IDOCK:   -6.78 KCAL/MOL
REMARK 922        TOTAL FREE ENERGY PREDICTED BY IDOCK:  -11.41 KCAL/MOL
REMARK 923 INTER-LIGAND FREE ENERGY PREDICTED BY IDOCK:   -9.55 KCAL/MOL
REMARK 924 INTRA-LIGAND FREE ENERGY PREDICTED BY IDOCK:   -1.86 KCAL/MOL
REMARK 927      BINDING AFFINITY PREDICTED BY RF-SCORE:    0.00 PKD
ROOT
HETATM    1  C   UNL     1     -10.406  12.200  65.778  1.00  0.00    -0.289 C  
HETATM    2  C   UNL     1      -9.708  10.786  65.827  1.00  0.00    -0.228 C  
HETATM    3  C   UNL     1     -11.055  12.453  64.411  1.00  0.00    -0.381 C  
HETATM    4  C   UNL     1      -9.710   9.949  64.529  1.00  0.00    -0.223 C  
HETATM    5  C   UNL     1      -9.590  10.786  63.270  1.00  0.00    -0.350 C  
HETATM    6  C   UNL     1     -11.405  15.195  67.088  1.00  0.00    -0.291 C  
HETATM    7  C   UNL     1     -11.319  12.578  67.002  1.00  0.00    -0.386 C  
HETATM    8  C   UNL     1     -10.616  11.866  63.279  1.00  0.00    -0.420 C  
HETATM    9  O   UNL     1      -8.288  11.332  63.156  1.00  0.00    -0.409 OA 
HETATM   10  C   UNL     1     -12.140  13.891  66.756  1.00  0.00    -0.476 C  
HETATM   11  C   UNL     1     -12.677  14.009  65.364  1.00  0.00    -0.499 C  
HETATM   12  H   UNL     1      -8.213  11.857  62.367  1.00  0.00     0.000 HD 
HETATM   13  C   UNL     1     -12.172  13.366  64.313  1.00  0.00    -0.450 C  
ENDROOT
BRANCH   2  14
HETATM   14  O   UNL     1     -10.051   9.940  66.953  1.00  0.00    -0.202 OA 
BRANCH  14  15
HETATM   15  C   UNL     1      -9.078   9.296  67.659  1.00  0.00    -0.125 C  
HETATM   16  C   UNL     1      -8.694   9.423  70.111  1.00  0.00    -0.245 C  
HETATM   17  C   UNL     1      -7.165  10.654  68.530  1.00  0.00    -0.086 C  
HETATM   18  O   UNL     1      -8.636   8.182  67.413  1.00  0.00    -0.124 OA 
HETATM   19  C   UNL     1      -8.601  10.185  68.791  1.00  0.00    -0.133 C  
HETATM   20  C   UNL     1      -7.059  11.581  67.326  1.00  0.00    -0.128 C  
ENDBRANCH  14  15
ENDBRANCH   2  14
BRANCH   7  21
HETATM   21  C   UNL     1     -10.586  12.629  68.387  1.00  0.00    -0.258 C  
BRANCH  21  22
HETATM   22  C   UNL     1     -11.617  12.614  69.536  1.00  0.00    -0.348 C  
BRANCH  22  23
HETATM   23  C   UNL     1     -12.440  11.339  69.761  1.00  0.00    -0.126 C  
HETATM   24  O   UNL     1     -12.149  10.359  68.764  1.00  0.00    -0.723 OA 
HETATM   25  H   UNL     1     -12.658   9.570  68.903  1.00  0.00     0.000 HD 
BRANCH  23  26
HETATM   26  C   UNL     1     -12.036  10.748  71.131  1.00  0.00    -0.415 C  
BRANCH  26  27
HETATM   27  C   UNL     1     -13.060   9.784  71.744  1.00  0.00    -0.431 C  
HETATM   28  O   UNL     1     -13.873   9.184  70.723  1.00  0.00    -0.570 OA 
HETATM   29  H   UNL     1     -14.507   8.588  71.103  1.00  0.00     0.000 HD 
BRANCH  27  30
HETATM   30  C   UNL     1     -12.351   8.643  72.480  1.00  0.00    -0.378 C  
HETATM   31  C   UNL     1     -12.000   7.482  71.579  1.00  0.00    -0.307 C  
HETATM   32  O   UNL     1     -11.572   7.836  70.348  1.00  0.00    -0.220 OA 
HETATM   33  O   UNL     1     -12.022   6.318  71.953  1.00  0.00    -0.328 OA 
ENDBRANCH  27  30
ENDBRANCH  26  27
ENDBRANCH  23  26
ENDBRANCH  22  23
ENDBRANCH  21  22
ENDBRANCH   7  21
TORSDOF 8
ENDMDL
MODEL       23
REMARK 921   NORMALIZED FREE ENERGY PREDICTED BY IDOCK:   -6.78 KCAL/MOL
REMARK 922        TOTAL FREE ENERGY PREDICTED BY IDOCK:  -11.40 KCAL/MOL
REMARK 923 INTER-LIGAND FREE ENERGY PREDICTED BY IDOCK:   -9.29 KCAL/MOL
REMARK 924 INTRA-LIGAND FREE ENERGY PREDICTED BY IDOCK:   -2.11 KCAL/MOL
REMARK 927      BINDING AFFINITY PREDICTED BY RF-SCORE:    0.00 PKD
ROOT
HETATM    1  C   UNL     1     -10.838   9.012  68.247  1.00  0.00    -0.072 C  
HETATM    2  C   UNL     1     -10.200   8.930  66.807  1.00  0.00    -0.278 C  
HETATM    3  C   UNL     1     -10.397   7.830  69.120  1.00  0.00    -0.219 C  
HETATM    4  C   UNL     1      -9.339   7.689  66.483  1.00  0.00    -0.241 C  
HETATM    5  C   UNL     1      -9.840   6.418  67.140  1.00  0.00    -0.146 C  
HETATM    6  C   UNL     1     -12.730  10.447  70.707  1.00  0.00    -0.460 C  
HETATM    7  C   UNL     1     -10.767  10.407  68.971  1.00  0.00    -0.260 C  
HETATM    8  C   UNL     1     -10.030   6.641  68.600  1.00  0.00    -0.151 C  
HETATM    9  O   UNL     1     -11.049   5.988  66.538  1.00  0.00    -0.702 OA 
HETATM   10  C   UNL     1     -11.219  10.329  70.471  1.00  0.00    -0.408 C  
HETATM   11  C   UNL     1     -10.740   9.100  71.176  1.00  0.00    -0.380 C  
HETATM   12  H   UNL     1     -11.363   5.191  66.949  1.00  0.00     0.000 HD 
HETATM   13  C   UNL     1     -10.385   7.975  70.558  1.00  0.00    -0.205 C  
ENDROOT
BRANCH   2  14
HETATM   14  O   UNL     1      -9.531  10.125  66.333  1.00  0.00    -0.164 OA 
BRANCH  14  15
HETATM   15  C   UNL     1      -8.171  10.169  66.243  1.00  0.00    -0.127 C  
HETATM   16  C   UNL     1      -6.545   9.539  68.012  1.00  0.00    -0.062 C  
HETATM   17  C   UNL     1      -6.970  11.970  67.499  1.00  0.00    -0.130 C  
HETATM   18  O   UNL     1      -7.515   9.945  65.234  1.00  0.00    -0.118 OA 
HETATM   19  C   UNL     1      -7.587  10.569  67.584  1.00  0.00    -0.093 C  
HETATM   20  C   UNL     1      -8.009  13.057  67.264  1.00  0.00    -0.143 C  
ENDBRANCH  14  15
ENDBRANCH   2  14
BRANCH   7  21
HETATM   21  C   UNL     1     -11.497  11.579  68.229  1.00  0.00    -0.368 C  
BRANCH  21  22
HETATM   22  C   UNL     1     -11.125  12.932  68.875  1.00  0.00    -0.301 C  
BRANCH  22  23
HETATM   23  C   UNL     1     -11.889  14.186  68.430  1.00  0.00    -0.353 C  
HETATM   24  O   UNL     1     -12.688  14.704  69.495  1.00  0.00    -0.576 OA 
HETATM   25  H   UNL     1     -13.160  15.481  69.220  1.00  0.00     0.000 HD 
BRANCH  23  26
HETATM   26  C   UNL     1     -10.849  15.268  68.057  1.00  0.00    -0.288 C  
BRANCH  26  27
HETATM   27  C   UNL     1     -10.996  15.841  66.641  1.00  0.00    -0.179 C  
HETATM   28  O   UNL     1      -9.866  16.657  66.301  1.00  0.00    -0.276 OA 
HETATM   29  H   UNL     1      -9.957  17.012  65.424  1.00  0.00     0.000 HD 
BRANCH  27  30
HETATM   30  C   UNL     1     -11.061  14.711  65.609  1.00  0.00    -0.338 C  
HETATM   31  C   UNL     1     -11.818  15.092  64.358  1.00  0.00    -0.339 C  
HETATM   32  O   UNL     1     -11.604  16.357  63.935  1.00  0.00    -1.100 OA 
HETATM   33  O   UNL     1     -12.507  14.301  63.729  1.00  0.00    -0.810 OA 
ENDBRANCH  27  30
ENDBRANCH  26  27
ENDBRANCH  23  26
ENDBRANCH  22  23
ENDBRANCH  21  22
ENDBRANCH   7  21
TORSDOF 8
ENDMDL
MODEL       24
REMARK 921   NORMALIZED FREE ENERGY PREDICTED BY IDOCK:   -6.78 KCAL/MOL
REMARK 922        TOTAL FREE ENERGY PREDICTED BY IDOCK:  -11.40 KCAL/MOL
REMARK 923 INTER-LIGAND FREE ENERGY PREDICTED BY IDOCK:   -9.62 KCAL/MOL
REMARK 924 INTRA-LIGAND FREE ENERGY PREDICTED BY IDOCK:   -1.78 KCAL/MOL
REMARK 927      BINDING AFFINITY PREDICTED BY RF-SCORE:    0.00 PKD
ROOT
HETATM    1  C   UNL     1     -11.665  12.391  70.112  1.00  0.00    -0.266 C  
HETATM    2  C   UNL     1     -11.584  13.530  69.023  1.00  0.00    -0.311 C  
HETATM    3  C   UNL     1     -12.707  12.723  71.188  1.00  0.00    -0.355 C  
HETATM    4  C   UNL     1     -12.461  14.783  69.241  1.00  0.00    -0.045 C  
HETATM    5  C   UNL     1     -12.612  15.168  70.700  1.00  0.00    -0.395 C  
HETATM    6  C   UNL     1     -10.820   9.383  71.499  1.00  0.00    -0.398 C  
HETATM    7  C   UNL     1     -11.740  10.912  69.580  1.00  0.00    -0.400 C  
HETATM    8  C   UNL     1     -13.057  13.989  71.494  1.00  0.00    -0.436 C  
HETATM    9  O   UNL     1     -11.393  15.682  71.209  1.00  0.00    -0.350 OA 
HETATM   10  C   UNL     1     -12.044   9.879  70.720  1.00  0.00    -0.396 C  
HETATM   11  C   UNL     1     -13.053  10.364  71.711  1.00  0.00    -0.567 C  
HETATM   12  H   UNL     1     -11.487  15.924  72.123  1.00  0.00     0.000 HD 
HETATM   13  C   UNL     1     -13.335  11.648  71.923  1.00  0.00    -0.403 C  
ENDROOT
BRANCH   2  14
HETATM   14  O   UNL     1     -11.679  13.104  67.641  1.00  0.00    -0.331 OA 
BRANCH  14  15
HETATM   15  C   UNL     1     -10.748  13.501  66.727  1.00  0.00    -0.278 C  
HETATM   16  C   UNL     1     -10.630  15.707  65.590  1.00  0.00    -0.393 C  
HETATM   17  C   UNL     1     -11.456  13.684  64.334  1.00  0.00    -0.410 C  
HETATM   18  O   UNL     1      -9.568  13.174  66.721  1.00  0.00    -0.236 OA 
HETATM   19  C   UNL     1     -11.402  14.394  65.691  1.00  0.00    -0.330 C  
HETATM   20  C   UNL     1     -12.376  12.471  64.340  1.00  0.00    -0.537 C  
ENDBRANCH  14  15
ENDBRANCH   2  14
BRANCH   7  21
HETATM   21  C   UNL     1     -10.509  10.452  68.723  1.00  0.00    -0.219 C  
BRANCH  21  22
HETATM   22  C   UNL     1     -10.991   9.759  67.429  1.00  0.00    -0.176 C  
BRANCH  22  23
HETATM   23  C   UNL     1     -10.214   8.536  66.924  1.00  0.00    -0.305 C  
HETATM   24  O   UNL     1      -9.065   8.934  66.174  1.00  0.00    -0.174 OA 
HETATM   25  H   UNL     1      -8.584   8.177  65.862  1.00  0.00     0.000 HD 
BRANCH  23  26
HETATM   26  C   UNL     1      -9.718   7.745  68.156  1.00  0.00    -0.171 C  
BRANCH  26  27
HETATM   27  C   UNL     1     -10.416   6.398  68.380  1.00  0.00    -0.222 C  
HETATM   28  O   UNL     1     -11.603   6.561  69.170  1.00  0.00    -0.629 OA 
HETATM   29  H   UNL     1     -12.034   5.726  69.309  1.00  0.00     0.000 HD 
BRANCH  27  30
HETATM   30  C   UNL     1     -10.848   5.788  67.042  1.00  0.00    -0.328 C  
HETATM   31  C   UNL     1     -10.058   4.556  66.668  1.00  0.00    -0.209 C  
HETATM   32  O   UNL     1      -9.774   3.735  67.703  1.00  0.00    -0.178 OA 
HETATM   33  O   UNL     1      -9.765   4.276  65.514  1.00  0.00    -0.173 OA 
ENDBRANCH  27  30
ENDBRANCH  26  27
ENDBRANCH  23  26
ENDBRANCH  22  23
ENDBRANCH  21  22
ENDBRANCH   7  21
TORSDOF 8
ENDMDL
MODEL       25
REMARK 921   NORMALIZED FREE ENERGY PREDICTED BY IDOCK:   -6.77 KCAL/MOL
REMARK 922        TOTAL FREE ENERGY PREDICTED BY IDOCK:  -11.40 KCAL/MOL
REMARK 923 INTER-LIGAND FREE ENERGY PREDICTED BY IDOCK:  -10.48 KCAL/MOL
REMARK 924 INTRA-LIGAND FREE ENERGY PREDICTED BY IDOCK:   -0.92 KCAL/MOL
REMARK 927      BINDING AFFINITY PREDICTED BY RF-SCORE:    0.00 PKD
ROOT
HETATM    1  C   UNL     1     -10.364  12.505  66.177  1.00  0.00    -0.274 C  
HETATM    2  C   UNL     1      -9.646  11.987  67.483  1.00  0.00    -0.177 C  
HETATM    3  C   UNL     1     -10.221  11.499  65.028  1.00  0.00    -0.328 C  
HETATM    4  C   UNL     1      -8.874  10.653  67.386  1.00  0.00    -0.132 C  
HETATM    5  C   UNL     1      -8.204  10.439  66.043  1.00  0.00    -0.144 C  
HETATM    6  C   UNL     1     -12.222  14.716  64.348  1.00  0.00    -0.473 C  
HETATM    7  C   UNL     1     -11.818  13.078  66.353  1.00  0.00    -0.465 C  
HETATM    8  C   UNL     1      -9.192  10.632  64.945  1.00  0.00    -0.252 C  
HETATM    9  O   UNL     1      -7.105  11.319  65.888  1.00  0.00    -0.369 OA 
HETATM   10  C   UNL     1     -12.526  13.353  64.980  1.00  0.00    -0.479 C  
HETATM   11  C   UNL     1     -12.260  12.300  63.951  1.00  0.00    -0.608 C  
HETATM   12  H   UNL     1      -6.684  11.185  65.046  1.00  0.00     0.000 HD 
HETATM   13  C   UNL     1     -11.212  11.480  63.975  1.00  0.00    -0.414 C  
ENDROOT
BRANCH   2  14
HETATM   14  O   UNL     1     -10.434  12.007  68.699  1.00  0.00    -0.223 OA 
BRANCH  14  15
HETATM   15  C   UNL     1     -11.299  10.993  68.983  1.00  0.00    -0.277 C  
HETATM   16  C   UNL     1     -12.767  10.808  70.979  1.00  0.00    -0.513 C  
HETATM   17  C   UNL     1     -10.683   9.401  70.812  1.00  0.00    -0.373 C  
HETATM   18  O   UNL     1     -11.944  10.353  68.161  1.00  0.00    -0.263 OA 
HETATM   19  C   UNL     1     -11.326  10.752  70.479  1.00  0.00    -0.289 C  
HETATM   20  C   UNL     1      -9.191   9.367  70.507  1.00  0.00    -0.314 C  
ENDBRANCH  14  15
ENDBRANCH   2  14
BRANCH   7  21
HETATM   21  C   UNL     1     -11.932  14.324  67.298  1.00  0.00    -0.439 C  
BRANCH  21  22
HETATM   22  C   UNL     1     -10.638  15.164  67.229  1.00  0.00    -0.286 C  
BRANCH  22  23
HETATM   23  C   UNL     1     -10.602  16.510  67.966  1.00  0.00    -0.328 C  
HETATM   24  O   UNL     1      -9.505  16.564  68.879  1.00  0.00    -0.245 OA 
HETATM   25  H   UNL     1      -9.483  17.397  69.335  1.00  0.00     0.000 HD 
BRANCH  23  26
HETATM   26  C   UNL     1     -10.391  17.623  66.914  1.00  0.00    -0.329 C  
BRANCH  26  27
HETATM   27  C   UNL     1     -10.614  19.049  67.432  1.00  0.00    -0.474 C  
HETATM   28  O   UNL     1     -10.322  19.135  68.835  1.00  0.00    -0.507 OA 
HETATM   29  H   UNL     1     -10.460  20.018  69.155  1.00  0.00     0.000 HD 
BRANCH  27  30
HETATM   30  C   UNL     1      -9.679  20.031  66.719  1.00  0.00    -0.563 C  
HETATM   31  C   UNL     1      -8.326  20.150  67.380  1.00  0.00    -0.338 C  
HETATM   32  O   UNL     1      -7.824  18.985  67.845  1.00  0.00    -0.260 OA 
HETATM   33  O   UNL     1      -7.694  21.197  67.423  1.00  0.00    -0.341 OA 
ENDBRANCH  27  30
ENDBRANCH  26  27
ENDBRANCH  23  26
ENDBRANCH  22  23
ENDBRANCH  21  22
ENDBRANCH   7  21
TORSDOF 8
ENDMDL
MODEL       26
REMARK 921   NORMALIZED FREE ENERGY PREDICTED BY IDOCK:   -6.76 KCAL/MOL
REMARK 922        TOTAL FREE ENERGY PREDICTED BY IDOCK:  -11.39 KCAL/MOL
REMARK 923 INTER-LIGAND FREE ENERGY PREDICTED BY IDOCK:   -9.29 KCAL/MOL
REMARK 924 INTRA-LIGAND FREE ENERGY PREDICTED BY IDOCK:   -2.09 KCAL/MOL
REMARK 927      BINDING AFFINITY PREDICTED BY RF-SCORE:    0.00 PKD
ROOT
HETATM    1  C   UNL     1     -10.380   9.513  68.391  1.00  0.00    -0.237 C  
HETATM    2  C   UNL     1     -10.258  10.153  66.954  1.00  0.00    -0.236 C  
HETATM    3  C   UNL     1      -9.185   8.601  68.697  1.00  0.00    -0.138 C  
HETATM    4  C   UNL     1      -9.057   9.719  66.084  1.00  0.00    -0.198 C  
HETATM    5  C   UNL     1      -8.663   8.268  66.280  1.00  0.00    -0.151 C  
HETATM    6  C   UNL     1     -11.866   9.011  71.428  1.00  0.00    -0.395 C  
HETATM    7  C   UNL     1     -10.762  10.487  69.565  1.00  0.00    -0.291 C  
HETATM    8  C   UNL     1      -8.476   7.983  67.731  1.00  0.00    -0.128 C  
HETATM    9  O   UNL     1      -9.639   7.406  65.722  1.00  0.00    -0.388 OA 
HETATM   10  C   UNL     1     -10.637   9.808  70.974  1.00  0.00    -0.295 C  
HETATM   11  C   UNL     1      -9.441   8.920  71.104  1.00  0.00    -0.335 C  
HETATM   12  H   UNL     1      -9.392   6.496  65.845  1.00  0.00     0.000 HD 
HETATM   13  C   UNL     1      -8.803   8.371  70.072  1.00  0.00    -0.137 C  
ENDROOT
BRANCH   2  14
HETATM   14  O   UNL     1     -10.420  11.591  66.876  1.00  0.00    -0.219 OA 
BRANCH  14  15
HETATM   15  C   UNL     1     -11.247  12.147  65.945  1.00  0.00    -0.339 C  
HETATM   16  C   UNL     1     -10.999  12.023  63.476  1.00  0.00    -0.514 C  
HETATM   17  C   UNL     1     -10.427  14.154  64.695  1.00  0.00    -0.366 C  
HETATM   18  O   UNL     1     -12.461  12.269  66.050  1.00  0.00    -0.503 OA 
HETATM   19  C   UNL     1     -10.430  12.622  64.760  1.00  0.00    -0.343 C  
HETATM   20  C   UNL     1      -9.694  14.791  65.867  1.00  0.00    -0.355 C  
ENDBRANCH  14  15
ENDBRANCH   2  14
BRANCH   7  21
HETATM   21  C   UNL     1     -12.150  11.201  69.411  1.00  0.00    -0.396 C  
BRANCH  21  22
HETATM   22  C   UNL     1     -12.141  12.551  70.162  1.00  0.00    -0.368 C  
BRANCH  22  23
HETATM   23  C   UNL     1     -12.169  13.844  69.336  1.00  0.00    -0.292 C  
HETATM   24  O   UNL     1     -13.125  14.766  69.862  1.00  0.00    -0.561 OA 
HETATM   25  H   UNL     1     -13.142  15.567  69.351  1.00  0.00     0.000 HD 
BRANCH  23  26
HETATM   26  C   UNL     1     -10.775  14.504  69.439  1.00  0.00    -0.213 C  
BRANCH  26  27
HETATM   27  C   UNL     1     -10.779  16.036  69.348  1.00  0.00    -0.294 C  
HETATM   28  O   UNL     1     -11.269  16.618  70.565  1.00  0.00    -0.485 OA 
HETATM   29  H   UNL     1     -11.272  17.567  70.509  1.00  0.00     0.000 HD 
BRANCH  27  30
HETATM   30  C   UNL     1      -9.357  16.565  69.138  1.00  0.00    -0.207 C  
HETATM   31  C   UNL     1      -9.320  17.926  68.484  1.00  0.00    -0.296 C  
HETATM   32  O   UNL     1     -10.283  18.777  68.903  1.00  0.00    -0.360 OA 
HETATM   33  O   UNL     1      -8.446  18.265  67.698  1.00  0.00    -0.250 OA 
ENDBRANCH  27  30
ENDBRANCH  26  27
ENDBRANCH  23  26
ENDBRANCH  22  23
ENDBRANCH  21  22
ENDBRANCH   7  21
TORSDOF 8
ENDMDL
MODEL       27
REMARK 921   NORMALIZED FREE ENERGY PREDICTED BY IDOCK:   -6.74 KCAL/MOL
REMARK 922        TOTAL FREE ENERGY PREDICTED BY IDOCK:  -11.35 KCAL/MOL
REMARK 923 INTER-LIGAND FREE ENERGY PREDICTED BY IDOCK:   -9.79 KCAL/MOL
REMARK 924 INTRA-LIGAND FREE ENERGY PREDICTED BY IDOCK:   -1.56 KCAL/MOL
REMARK 927      BINDING AFFINITY PREDICTED BY RF-SCORE:    0.00 PKD
ROOT
HETATM    1  C   UNL     1     -11.097  12.210  69.137  1.00  0.00    -0.263 C  
HETATM    2  C   UNL     1     -11.054  13.108  67.840  1.00  0.00    -0.262 C  
HETATM    3  C   UNL     1     -12.061  12.787  70.182  1.00  0.00    -0.370 C  
HETATM    4  C   UNL     1     -11.883  14.411  67.853  1.00  0.00    -0.384 C  
HETATM    5  C   UNL     1     -11.933  15.082  69.211  1.00  0.00    -0.289 C  
HETATM    6  C   UNL     1     -10.244   9.506  71.047  1.00  0.00    -0.332 C  
HETATM    7  C   UNL     1     -11.242  10.659  68.916  1.00  0.00    -0.333 C  
HETATM    8  C   UNL     1     -12.359  14.100  70.248  1.00  0.00    -0.421 C  
HETATM    9  O   UNL     1     -10.673  15.641  69.539  1.00  0.00    -0.229 OA 
HETATM   10  C   UNL     1     -11.501   9.884  70.254  1.00  0.00    -0.349 C  
HETATM   11  C   UNL     1     -12.435  10.593  71.184  1.00  0.00    -0.523 C  
HETATM   12  H   UNL     1     -10.704  16.062  70.390  1.00  0.00     0.000 HD 
HETATM   13  C   UNL     1     -12.669  11.903  71.151  1.00  0.00    -0.384 C  
ENDROOT
BRANCH   2  14
HETATM   14  O   UNL     1     -11.245  12.421  66.578  1.00  0.00    -0.285 OA 
BRANCH  14  15
HETATM   15  C   UNL     1     -10.865  13.004  65.406  1.00  0.00    -0.284 C  
HETATM   16  C   UNL     1     -12.221  13.188  63.332  1.00  0.00    -0.521 C  
HETATM   17  C   UNL     1     -10.344  11.511  63.467  1.00  0.00    -0.484 C  
HETATM   18  O   UNL     1     -10.143  13.987  65.298  1.00  0.00    -0.343 OA 
HETATM   19  C   UNL     1     -11.453  12.232  64.241  1.00  0.00    -0.429 C  
HETATM   20  C   UNL     1      -9.678  10.409  64.280  1.00  0.00    -0.389 C  
ENDBRANCH  14  15
ENDBRANCH   2  14
BRANCH   7  21
HETATM   21  C   UNL     1     -10.079   9.993  68.101  1.00  0.00    -0.186 C  
BRANCH  21  22
HETATM   22  C   UNL     1     -10.643   8.896  67.171  1.00  0.00    -0.301 C  
BRANCH  22  23
HETATM   23  C   UNL     1      -9.826   7.610  66.983  1.00  0.00    -0.215 C  
HETATM   24  O   UNL     1      -8.559   7.708  67.634  1.00  0.00    -0.116 OA 
HETATM   25  H   UNL     1      -8.054   6.912  67.518  1.00  0.00     0.000 HD 
BRANCH  23  26
HETATM   26  C   UNL     1     -10.606   6.451  67.645  1.00  0.00    -0.340 C  
BRANCH  26  27
HETATM   27  C   UNL     1     -10.652   6.499  69.178  1.00  0.00    -0.243 C  
HETATM   28  O   UNL     1     -11.988   6.751  69.641  1.00  0.00    -0.650 OA 
HETATM   29  H   UNL     1     -12.016   6.781  70.590  1.00  0.00     0.000 HD 
BRANCH  27  30
HETATM   30  C   UNL     1     -10.218   5.155  69.771  1.00  0.00    -0.357 C  
HETATM   31  C   UNL     1      -9.895   5.233  71.245  1.00  0.00    -0.173 C  
HETATM   32  O   UNL     1     -10.720   6.031  71.959  1.00  0.00    -0.218 OA 
HETATM   33  O   UNL     1      -9.013   4.569  71.770  1.00  0.00    -0.121 OA 
ENDBRANCH  27  30
ENDBRANCH  26  27
ENDBRANCH  23  26
ENDBRANCH  22  23
ENDBRANCH  21  22
ENDBRANCH   7  21
TORSDOF 8
ENDMDL
MODEL       28
REMARK 921   NORMALIZED FREE ENERGY PREDICTED BY IDOCK:   -6.74 KCAL/MOL
REMARK 922        TOTAL FREE ENERGY PREDICTED BY IDOCK:  -11.35 KCAL/MOL
REMARK 923 INTER-LIGAND FREE ENERGY PREDICTED BY IDOCK:   -9.92 KCAL/MOL
REMARK 924 INTRA-LIGAND FREE ENERGY PREDICTED BY IDOCK:   -1.43 KCAL/MOL
REMARK 927      BINDING AFFINITY PREDICTED BY RF-SCORE:    0.00 PKD
ROOT
HETATM    1  C   UNL     1      -8.806   9.156  68.739  1.00  0.00    -0.132 C  
HETATM    2  C   UNL     1      -8.809   8.893  70.295  1.00  0.00    -0.175 C  
HETATM    3  C   UNL     1      -8.637   7.849  67.953  1.00  0.00    -0.125 C  
HETATM    4  C   UNL     1      -8.568   7.442  70.768  1.00  0.00    -0.137 C  
HETATM    5  C   UNL     1      -7.596   6.674  69.893  1.00  0.00    -0.100 C  
HETATM    6  C   UNL     1      -9.027  11.106  65.940  1.00  0.00    -0.210 C  
HETATM    7  C   UNL     1      -9.935  10.099  68.182  1.00  0.00    -0.170 C  
HETATM    8  C   UNL     1      -8.014   6.769  68.466  1.00  0.00    -0.119 C  
HETATM    9  O   UNL     1      -6.278   7.164  70.062  1.00  0.00    -0.027 OA 
HETATM   10  C   UNL     1      -9.985  10.116  66.615  1.00  0.00    -0.272 C  
HETATM   11  C   UNL     1      -9.767   8.772  65.996  1.00  0.00    -0.276 C  
HETATM   12  H   UNL     1      -5.668   6.683  69.514  1.00  0.00     0.000 HD 
HETATM   13  C   UNL     1      -9.147   7.762  66.603  1.00  0.00    -0.195 C  
ENDROOT
BRANCH   2  14
HETATM   14  O   UNL     1      -9.906   9.473  71.042  1.00  0.00    -0.268 OA 
BRANCH  14  15
HETATM   15  C   UNL     1     -10.736   8.685  71.783  1.00  0.00    -0.321 C  
HETATM   16  C   UNL     1     -12.334   6.989  70.920  1.00  0.00    -0.361 C  
HETATM   17  C   UNL     1     -13.183   9.208  71.762  1.00  0.00    -0.459 C  
HETATM   18  O   UNL     1     -10.483   8.224  72.888  1.00  0.00    -0.314 OA 
HETATM   19  C   UNL     1     -12.042   8.483  71.039  1.00  0.00    -0.231 C  
HETATM   20  C   UNL     1     -13.028  10.723  71.734  1.00  0.00    -0.568 C  
ENDBRANCH  14  15
ENDBRANCH   2  14
BRANCH   7  21
HETATM   21  C   UNL     1      -9.925  11.559  68.756  1.00  0.00    -0.169 C  
BRANCH  21  22
HETATM   22  C   UNL     1     -11.337  12.177  68.663  1.00  0.00    -0.330 C  
BRANCH  22  23
HETATM   23  C   UNL     1     -11.486  13.690  68.874  1.00  0.00    -0.303 C  
HETATM   24  O   UNL     1     -12.421  14.246  67.950  1.00  0.00    -0.556 OA 
HETATM   25  H   UNL     1     -12.514  15.182  68.081  1.00  0.00     0.000 HD 
BRANCH  23  26
HETATM   26  C   UNL     1     -12.042  13.919  70.299  1.00  0.00    -0.423 C  
BRANCH  26  27
HETATM   27  C   UNL     1     -12.405  15.373  70.622  1.00  0.00    -0.403 C  
HETATM   28  O   UNL     1     -13.829  15.556  70.627  1.00  0.00    -0.864 OA 
HETATM   29  H   UNL     1     -14.053  16.458  70.827  1.00  0.00     0.000 HD 
BRANCH  27  30
HETATM   30  C   UNL     1     -11.899  15.755  72.017  1.00  0.00    -0.582 C  
HETATM   31  C   UNL     1     -12.917  15.508  73.106  1.00  0.00    -0.521 C  
HETATM   32  O   UNL     1     -13.636  14.374  72.956  1.00  0.00    -0.619 OA 
HETATM   33  O   UNL     1     -13.030  16.227  74.089  1.00  0.00    -0.688 OA 
ENDBRANCH  27  30
ENDBRANCH  26  27
ENDBRANCH  23  26
ENDBRANCH  22  23
ENDBRANCH  21  22
ENDBRANCH   7  21
TORSDOF 8
ENDMDL
MODEL       29
REMARK 921   NORMALIZED FREE ENERGY PREDICTED BY IDOCK:   -6.73 KCAL/MOL
REMARK 922        TOTAL FREE ENERGY PREDICTED BY IDOCK:  -11.33 KCAL/MOL
REMARK 923 INTER-LIGAND FREE ENERGY PREDICTED BY IDOCK:   -9.31 KCAL/MOL
REMARK 924 INTRA-LIGAND FREE ENERGY PREDICTED BY IDOCK:   -2.02 KCAL/MOL
REMARK 927      BINDING AFFINITY PREDICTED BY RF-SCORE:    0.00 PKD
ROOT
HETATM    1  C   UNL     1      -9.213   8.479  69.466  1.00  0.00    -0.150 C  
HETATM    2  C   UNL     1      -9.089   8.390  71.037  1.00  0.00    -0.165 C  
HETATM    3  C   UNL     1      -9.080   7.095  68.818  1.00  0.00    -0.134 C  
HETATM    4  C   UNL     1      -8.782   7.004  71.646  1.00  0.00    -0.116 C  
HETATM    5  C   UNL     1      -7.867   6.155  70.785  1.00  0.00    -0.103 C  
HETATM    6  C   UNL     1      -9.694  10.103  66.497  1.00  0.00    -0.252 C  
HETATM    7  C   UNL     1     -10.402   9.341  68.902  1.00  0.00    -0.231 C  
HETATM    8  C   UNL     1      -8.396   6.086  69.394  1.00  0.00    -0.115 C  
HETATM    9  O   UNL     1      -6.549   6.676  70.793  1.00  0.00    -0.050 OA 
HETATM   10  C   UNL     1     -10.575   9.184  67.351  1.00  0.00    -0.315 C  
HETATM   11  C   UNL     1     -10.378   7.782  66.868  1.00  0.00    -0.396 C  
HETATM   12  H   UNL     1      -5.975   6.144  70.254  1.00  0.00     0.000 HD 
HETATM   13  C   UNL     1      -9.692   6.853  67.531  1.00  0.00    -0.162 C  
ENDROOT
BRANCH   2  14
HETATM   14  O   UNL     1     -10.136   9.037  71.801  1.00  0.00    -0.326 OA 
BRANCH  14  15
HETATM   15  C   UNL     1     -11.136   8.304  72.368  1.00  0.00    -0.377 C  
HETATM   16  C   UNL     1     -12.763   6.845  71.184  1.00  0.00    -0.331 C  
HETATM   17  C   UNL     1     -13.491   9.093  72.062  1.00  0.00    -0.510 C  
HETATM   18  O   UNL     1     -11.088   7.756  73.462  1.00  0.00    -0.279 OA 
HETATM   19  C   UNL     1     -12.340   8.289  71.447  1.00  0.00    -0.326 C  
HETATM   20  C   UNL     1     -13.181  10.580  72.163  1.00  0.00    -0.398 C  
ENDBRANCH  14  15
ENDBRANCH   2  14
BRANCH   7  21
HETATM   21  C   UNL     1     -10.377  10.856  69.309  1.00  0.00    -0.211 C  
BRANCH  21  22
HETATM   22  C   UNL     1     -11.745  11.509  69.016  1.00  0.00    -0.400 C  
BRANCH  22  23
HETATM   23  C   UNL     1     -11.780  13.001  68.659  1.00  0.00    -0.323 C  
HETATM   24  O   UNL     1     -10.591  13.659  69.097  1.00  0.00    -0.399 OA 
HETATM   25  H   UNL     1     -10.612  14.583  68.875  1.00  0.00     0.000 HD 
BRANCH  23  26
HETATM   26  C   UNL     1     -11.842  13.119  67.119  1.00  0.00    -0.424 C  
BRANCH  26  27
HETATM   27  C   UNL     1     -10.858  14.126  66.511  1.00  0.00    -0.298 C  
HETATM   28  O   UNL     1      -9.508  13.649  66.616  1.00  0.00    -0.267 OA 
HETATM   29  H   UNL     1      -8.898  14.273  66.239  1.00  0.00     0.000 HD 
BRANCH  27  30
HETATM   30  C   UNL     1     -11.148  14.327  65.020  1.00  0.00    -0.377 C  
HETATM   31  C   UNL     1     -11.195  15.781  64.614  1.00  0.00    -0.363 C  
HETATM   32  O   UNL     1     -10.270  16.562  65.215  1.00  0.00    -0.588 OA 
HETATM   33  O   UNL     1     -11.952  16.210  63.754  1.00  0.00    -0.926 OA 
ENDBRANCH  27  30
ENDBRANCH  26  27
ENDBRANCH  23  26
ENDBRANCH  22  23
ENDBRANCH  21  22
ENDBRANCH   7  21
TORSDOF 8
ENDMDL
MODEL       30
REMARK 921   NORMALIZED FREE ENERGY PREDICTED BY IDOCK:   -6.70 KCAL/MOL
REMARK 922        TOTAL FREE ENERGY PREDICTED BY IDOCK:  -11.28 KCAL/MOL
REMARK 923 INTER-LIGAND FREE ENERGY PREDICTED BY IDOCK:   -9.98 KCAL/MOL
REMARK 924 INTRA-LIGAND FREE ENERGY PREDICTED BY IDOCK:   -1.30 KCAL/MOL
REMARK 927      BINDING AFFINITY PREDICTED BY RF-SCORE:    0.00 PKD
ROOT
HETATM    1  C   UNL     1     -11.177  11.716  69.670  1.00  0.00    -0.249 C  
HETATM    2  C   UNL     1     -10.987  12.654  68.415  1.00  0.00    -0.257 C  
HETATM    3  C   UNL     1     -12.227  12.283  70.635  1.00  0.00    -0.378 C  
HETATM    4  C   UNL     1     -11.785  13.976  68.392  1.00  0.00    -0.389 C  
HETATM    5  C   UNL     1     -11.955  14.604  69.762  1.00  0.00    -0.329 C  
HETATM    6  C   UNL     1     -10.575   8.932  71.559  1.00  0.00    -0.399 C  
HETATM    7  C   UNL     1     -11.333  10.178  69.382  1.00  0.00    -0.233 C  
HETATM    8  C   UNL     1     -12.502  13.600  70.717  1.00  0.00    -0.432 C  
HETATM    9  O   UNL     1     -10.721  15.121  70.230  1.00  0.00    -0.391 OA 
HETATM   10  C   UNL     1     -11.740   9.366  70.661  1.00  0.00    -0.302 C  
HETATM   11  C   UNL     1     -12.744  10.067  71.519  1.00  0.00    -0.532 C  
HETATM   12  H   UNL     1     -10.827  15.515  71.088  1.00  0.00     0.000 HD 
HETATM   13  C   UNL     1     -12.946  11.383  71.508  1.00  0.00    -0.505 C  
ENDROOT
BRANCH   2  14
HETATM   14  O   UNL     1     -11.068  12.013  67.118  1.00  0.00    -0.257 OA 
BRANCH  14  15
HETATM   15  C   UNL     1     -10.681  12.676  65.991  1.00  0.00    -0.269 C  
HETATM   16  C   UNL     1     -12.072  13.124  63.981  1.00  0.00    -0.511 C  
HETATM   17  C   UNL     1     -10.297  11.336  63.913  1.00  0.00    -0.439 C  
HETATM   18  O   UNL     1      -9.904  13.622  65.949  1.00  0.00    -0.289 OA 
HETATM   19  C   UNL     1     -11.342  12.047  64.780  1.00  0.00    -0.369 C  
HETATM   20  C   UNL     1      -9.679  10.129  64.607  1.00  0.00    -0.377 C  
ENDBRANCH  14  15
ENDBRANCH   2  14
BRANCH   7  21
HETATM   21  C   UNL     1     -10.110   9.509  68.662  1.00  0.00    -0.198 C  
BRANCH  21  22
HETATM   22  C   UNL     1     -10.604   8.513  67.590  1.00  0.00    -0.268 C  
BRANCH  22  23
HETATM   23  C   UNL     1     -10.427   7.011  67.854  1.00  0.00    -0.214 C  
HETATM   24  O   UNL     1     -11.584   6.462  68.484  1.00  0.00    -0.499 OA 
HETATM   25  H   UNL     1     -11.474   5.532  68.647  1.00  0.00     0.000 HD 
BRANCH  23  26
HETATM   26  C   UNL     1     -10.258   6.306  66.488  1.00  0.00    -0.163 C  
BRANCH  26  27
HETATM   27  C   UNL     1     -10.770   4.861  66.442  1.00  0.00    -0.109 C  
HETATM   28  O   UNL     1     -11.575   4.641  65.274  1.00  0.00    -1.093 OA 
HETATM   29  H   UNL     1     -11.892   3.746  65.246  1.00  0.00     0.000 HD 
BRANCH  27  30
HETATM   30  C   UNL     1      -9.598   3.878  66.371  1.00  0.00    -0.204 C  
HETATM   31  C   UNL     1      -8.749   3.873  67.621  1.00  0.00    -0.106 C  
HETATM   32  O   UNL     1      -9.446   3.983  68.773  1.00  0.00    -0.153 OA 
HETATM   33  O   UNL     1      -7.538   3.704  67.604  1.00  0.00    -0.069 OA 
ENDBRANCH  27  30
ENDBRANCH  26  27
ENDBRANCH  23  26
ENDBRANCH  22  23
ENDBRANCH  21  22
ENDBRANCH   7  21
TORSDOF 8
ENDMDL
MODEL       31
REMARK 921   NORMALIZED FREE ENERGY PREDICTED BY IDOCK:   -6.69 KCAL/MOL
REMARK 922        TOTAL FREE ENERGY PREDICTED BY IDOCK:  -11.27 KCAL/MOL
REMARK 923 INTER-LIGAND FREE ENERGY PREDICTED BY IDOCK:   -9.98 KCAL/MOL
REMARK 924 INTRA-LIGAND FREE ENERGY PREDICTED BY IDOCK:   -1.30 KCAL/MOL
REMARK 927      BINDING AFFINITY PREDICTED BY RF-SCORE:    0.00 PKD
ROOT
HETATM    1  C   UNL     1     -11.803  10.520  69.800  1.00  0.00    -0.329 C  
HETATM    2  C   UNL     1     -11.435   9.093  70.362  1.00  0.00    -0.194 C  
HETATM    3  C   UNL     1     -12.439  11.399  70.885  1.00  0.00    -0.478 C  
HETATM    4  C   UNL     1     -11.828   8.783  71.823  1.00  0.00    -0.414 C  
HETATM    5  C   UNL     1     -13.135   9.427  72.246  1.00  0.00    -0.428 C  
HETATM    6  C   UNL     1     -11.954  12.944  67.393  1.00  0.00    -0.360 C  
HETATM    7  C   UNL     1     -10.699  11.249  68.949  1.00  0.00    -0.246 C  
HETATM    8  C   UNL     1     -13.107  10.884  71.937  1.00  0.00    -0.537 C  
HETATM    9  O   UNL     1     -14.231   8.799  71.604  1.00  0.00    -0.393 OA 
HETATM   10  C   UNL     1     -11.071  12.739  68.631  1.00  0.00    -0.304 C  
HETATM   11  C   UNL     1     -11.716  13.451  69.778  1.00  0.00    -0.355 C  
HETATM   12  H   UNL     1     -15.050   9.202  71.869  1.00  0.00     0.000 HD 
HETATM   13  C   UNL     1     -12.341  12.837  70.781  1.00  0.00    -0.375 C  
ENDROOT
BRANCH   2  14
HETATM   14  O   UNL     1     -10.082   8.636  70.114  1.00  0.00    -0.179 OA 
BRANCH  14  15
HETATM   15  C   UNL     1      -9.841   7.344  69.749  1.00  0.00    -0.171 C  
HETATM   16  C   UNL     1     -10.068   5.329  71.185  1.00  0.00    -0.284 C  
HETATM   17  C   UNL     1      -7.781   6.237  70.639  1.00  0.00    -0.105 C  
HETATM   18  O   UNL     1     -10.049   6.864  68.642  1.00  0.00    -0.152 OA 
HETATM   19  C   UNL     1      -9.246   6.588  70.921  1.00  0.00    -0.155 C  
HETATM   20  C   UNL     1      -6.886   7.466  70.560  1.00  0.00    -0.052 C  
ENDBRANCH  14  15
ENDBRANCH   2  14
BRANCH   7  21
HETATM   21  C   UNL     1     -10.257  10.494  67.647  1.00  0.00    -0.234 C  
BRANCH  21  22
HETATM   22  C   UNL     1      -8.899  11.036  67.152  1.00  0.00    -0.140 C  
BRANCH  22  23
HETATM   23  C   UNL     1      -8.636  11.076  65.641  1.00  0.00    -0.130 C  
HETATM   24  O   UNL     1      -7.707  10.061  65.256  1.00  0.00    -0.127 OA 
HETATM   25  H   UNL     1      -7.545  10.085  64.320  1.00  0.00     0.000 HD 
BRANCH  23  26
HETATM   26  C   UNL     1      -9.972  10.786  64.918  1.00  0.00    -0.374 C  
BRANCH  26  27
HETATM   27  C   UNL     1     -10.219  11.627  63.660  1.00  0.00    -0.412 C  
HETATM   28  O   UNL     1     -11.230  11.028  62.835  1.00  0.00    -0.751 OA 
HETATM   29  H   UNL     1     -11.382  11.549  62.055  1.00  0.00     0.000 HD 
BRANCH  27  30
HETATM   30  C   UNL     1     -10.719  13.025  64.038  1.00  0.00    -0.387 C  
HETATM   31  C   UNL     1     -12.189  13.228  63.751  1.00  0.00    -0.439 C  
HETATM   32  O   UNL     1     -12.967  12.157  64.021  1.00  0.00    -0.696 OA 
HETATM   33  O   UNL     1     -12.654  14.297  63.382  1.00  0.00    -0.777 OA 
ENDBRANCH  27  30
ENDBRANCH  26  27
ENDBRANCH  23  26
ENDBRANCH  22  23
ENDBRANCH  21  22
ENDBRANCH   7  21
TORSDOF 8
ENDMDL
MODEL       32
REMARK 921   NORMALIZED FREE ENERGY PREDICTED BY IDOCK:   -6.66 KCAL/MOL
REMARK 922        TOTAL FREE ENERGY PREDICTED BY IDOCK:  -11.23 KCAL/MOL
REMARK 923 INTER-LIGAND FREE ENERGY PREDICTED BY IDOCK:   -9.42 KCAL/MOL
REMARK 924 INTRA-LIGAND FREE ENERGY PREDICTED BY IDOCK:   -1.81 KCAL/MOL
REMARK 927      BINDING AFFINITY PREDICTED BY RF-SCORE:    0.00 PKD
ROOT
HETATM    1  C   UNL     1     -10.937  10.036  68.562  1.00  0.00    -0.255 C  
HETATM    2  C   UNL     1     -10.142  10.329  67.231  1.00  0.00    -0.203 C  
HETATM    3  C   UNL     1     -10.465   8.733  69.218  1.00  0.00    -0.228 C  
HETATM    4  C   UNL     1      -9.118   9.268  66.770  1.00  0.00    -0.170 C  
HETATM    5  C   UNL     1      -9.544   7.845  67.076  1.00  0.00    -0.192 C  
HETATM    6  C   UNL     1     -13.231  10.728  71.001  1.00  0.00    -0.211 C  
HETATM    7  C   UNL     1     -11.099  11.238  69.564  1.00  0.00    -0.299 C  
HETATM    8  C   UNL     1      -9.914   7.723  68.514  1.00  0.00    -0.193 C  
HETATM    9  O   UNL     1     -10.625   7.457  66.246  1.00  0.00    -0.364 OA 
HETATM   10  C   UNL     1     -11.700  10.793  70.943  1.00  0.00    -0.334 C  
HETATM   11  C   UNL     1     -11.167   9.484  71.432  1.00  0.00    -0.452 C  
HETATM   12  H   UNL     1     -10.892   6.566  66.438  1.00  0.00     0.000 HD 
HETATM   13  C   UNL     1     -10.624   8.558  70.645  1.00  0.00    -0.241 C  
ENDROOT
BRANCH   2  14
HETATM   14  O   UNL     1      -9.561  11.651  67.108  1.00  0.00    -0.174 OA 
BRANCH  14  15
HETATM   15  C   UNL     1     -10.058  12.546  66.208  1.00  0.00    -0.250 C  
HETATM   16  C   UNL     1     -12.393  12.665  65.367  1.00  0.00    -0.499 C  
HETATM   17  C   UNL     1     -10.571  11.729  63.899  1.00  0.00    -0.445 C  
HETATM   18  O   UNL     1      -9.714  13.716  66.100  1.00  0.00    -0.285 OA 
HETATM   19  C   UNL     1     -11.093  11.865  65.334  1.00  0.00    -0.360 C  
HETATM   20  C   UNL     1      -9.384  10.780  63.793  1.00  0.00    -0.295 C  
ENDBRANCH  14  15
ENDBRANCH   2  14
BRANCH   7  21
HETATM   21  C   UNL     1     -11.870  12.479  68.994  1.00  0.00    -0.344 C  
BRANCH  21  22
HETATM   22  C   UNL     1     -11.205  13.787  69.478  1.00  0.00    -0.221 C  
BRANCH  22  23
HETATM   23  C   UNL     1     -11.902  15.118  69.166  1.00  0.00    -0.313 C  
HETATM   24  O   UNL     1     -12.966  15.367  70.085  1.00  0.00    -0.649 OA 
HETATM   25  H   UNL     1     -13.397  16.191  69.891  1.00  0.00     0.000 HD 
BRANCH  23  26
HETATM   26  C   UNL     1     -10.862  16.249  69.335  1.00  0.00    -0.331 C  
BRANCH  26  27
HETATM   27  C   UNL     1     -10.369  16.873  68.024  1.00  0.00    -0.334 C  
HETATM   28  O   UNL     1     -10.850  16.132  66.892  1.00  0.00    -0.282 OA 
HETATM   29  H   UNL     1     -10.544  16.518  66.080  1.00  0.00     0.000 HD 
BRANCH  27  30
HETATM   30  C   UNL     1     -10.894  18.305  67.879  1.00  0.00    -0.232 C  
HETATM   31  C   UNL     1     -10.186  19.091  66.801  1.00  0.00    -0.396 C  
HETATM   32  O   UNL     1      -9.895  18.382  65.688  1.00  0.00    -0.440 OA 
HETATM   33  O   UNL     1      -9.963  20.291  66.888  1.00  0.00    -0.431 OA 
ENDBRANCH  27  30
ENDBRANCH  26  27
ENDBRANCH  23  26
ENDBRANCH  22  23
ENDBRANCH  21  22
ENDBRANCH   7  21
TORSDOF 8
ENDMDL
MODEL       33
REMARK 921   NORMALIZED FREE ENERGY PREDICTED BY IDOCK:   -6.65 KCAL/MOL
REMARK 922        TOTAL FREE ENERGY PREDICTED BY IDOCK:  -11.21 KCAL/MOL
REMARK 923 INTER-LIGAND FREE ENERGY PREDICTED BY IDOCK:   -9.69 KCAL/MOL
REMARK 924 INTRA-LIGAND FREE ENERGY PREDICTED BY IDOCK:   -1.52 KCAL/MOL
REMARK 927      BINDING AFFINITY PREDICTED BY RF-SCORE:    0.00 PKD
ROOT
HETATM    1  C   UNL     1     -11.930  12.695  70.622  1.00  0.00    -0.196 C  
HETATM    2  C   UNL     1     -11.854  14.051  69.819  1.00  0.00    -0.324 C  
HETATM    3  C   UNL     1     -13.044  12.733  71.676  1.00  0.00    -0.428 C  
HETATM    4  C   UNL     1     -12.810  15.185  70.252  1.00  0.00    -0.284 C  
HETATM    5  C   UNL     1     -13.059  15.227  71.747  1.00  0.00    -0.403 C  
HETATM    6  C   UNL     1     -10.992   9.491  71.362  1.00  0.00    -0.415 C  
HETATM    7  C   UNL     1     -11.893  11.371  69.773  1.00  0.00    -0.435 C  
HETATM    8  C   UNL     1     -13.480  13.882  72.230  1.00  0.00    -0.623 C  
HETATM    9  O   UNL     1     -11.900  15.666  72.434  1.00  0.00    -0.401 OA 
HETATM   10  C   UNL     1     -12.199  10.096  70.635  1.00  0.00    -0.394 C  
HETATM   11  C   UNL     1     -13.286  10.304  71.642  1.00  0.00    -0.509 C  
HETATM   12  H   UNL     1     -12.056  15.692  73.371  1.00  0.00     0.000 HD 
HETATM   13  C   UNL     1     -13.649  11.495  72.113  1.00  0.00    -0.105 C  
ENDROOT
BRANCH   2  14
HETATM   14  O   UNL     1     -11.851  13.942  68.374  1.00  0.00    -0.340 OA 
BRANCH  14  15
HETATM   15  C   UNL     1     -10.782  14.376  67.647  1.00  0.00    -0.263 C  
HETATM   16  C   UNL     1     -10.171  16.736  67.171  1.00  0.00    -0.295 C  
HETATM   17  C   UNL     1     -11.215  15.316  65.369  1.00  0.00    -0.307 C  
HETATM   18  O   UNL     1      -9.683  13.839  67.604  1.00  0.00    -0.217 OA 
HETATM   19  C   UNL     1     -11.168  15.620  66.871  1.00  0.00    -0.106 C  
HETATM   20  C   UNL     1     -12.330  14.347  65.000  1.00  0.00    -0.401 C  
ENDBRANCH  14  15
ENDBRANCH   2  14
BRANCH   7  21
HETATM   21  C   UNL     1     -10.595  11.166  68.917  1.00  0.00    -0.239 C  
BRANCH  21  22
HETATM   22  C   UNL     1     -10.905  10.294  67.680  1.00  0.00    -0.363 C  
BRANCH  22  23
HETATM   23  C   UNL     1     -10.148   8.970  67.514  1.00  0.00    -0.228 C  
HETATM   24  O   UNL     1     -11.026   7.928  67.085  1.00  0.00    -0.503 OA 
HETATM   25  H   UNL     1     -10.557   7.109  66.982  1.00  0.00     0.000 HD 
BRANCH  23  26
HETATM   26  C   UNL     1      -9.082   9.167  66.411  1.00  0.00    -0.211 C  
BRANCH  26  27
HETATM   27  C   UNL     1      -9.210  10.474  65.618  1.00  0.00    -0.186 C  
HETATM   28  O   UNL     1      -7.917  10.983  65.260  1.00  0.00    -0.359 OA 
HETATM   29  H   UNL     1      -7.997  11.793  64.769  1.00  0.00     0.000 HD 
BRANCH  27  30
HETATM   30  C   UNL     1      -9.976  10.237  64.313  1.00  0.00    -0.293 C  
HETATM   31  C   UNL     1     -10.505  11.510  63.695  1.00  0.00    -0.427 C  
HETATM   32  O   UNL     1      -9.668  12.567  63.783  1.00  0.00    -0.225 OA 
HETATM   33  O   UNL     1     -11.568  11.567  63.092  1.00  0.00    -0.207 OA 
ENDBRANCH  27  30
ENDBRANCH  26  27
ENDBRANCH  23  26
ENDBRANCH  22  23
ENDBRANCH  21  22
ENDBRANCH   7  21
TORSDOF 8
ENDMDL
MODEL       34
REMARK 921   NORMALIZED FREE ENERGY PREDICTED BY IDOCK:   -6.60 KCAL/MOL
REMARK 922        TOTAL FREE ENERGY PREDICTED BY IDOCK:  -11.14 KCAL/MOL
REMARK 923 INTER-LIGAND FREE ENERGY PREDICTED BY IDOCK:   -9.40 KCAL/MOL
REMARK 924 INTRA-LIGAND FREE ENERGY PREDICTED BY IDOCK:   -1.74 KCAL/MOL
REMARK 927      BINDING AFFINITY PREDICTED BY RF-SCORE:    0.00 PKD
ROOT
HETATM    1  C   UNL     1     -11.507  12.723  69.496  1.00  0.00    -0.293 C  
HETATM    2  C   UNL     1     -11.438  13.861  68.405  1.00  0.00    -0.311 C  
HETATM    3  C   UNL     1     -12.328  13.167  70.713  1.00  0.00    -0.404 C  
HETATM    4  C   UNL     1     -12.103  15.213  68.749  1.00  0.00    -0.199 C  
HETATM    5  C   UNL     1     -11.988  15.588  70.213  1.00  0.00    -0.374 C  
HETATM    6  C   UNL     1     -10.866   9.607  70.747  1.00  0.00    -0.400 C  
HETATM    7  C   UNL     1     -11.850  11.276  68.982  1.00  0.00    -0.421 C  
HETATM    8  C   UNL     1     -12.462  14.462  71.065  1.00  0.00    -0.425 C  
HETATM    9  O   UNL     1     -10.652  15.932  70.537  1.00  0.00    -0.257 OA 
HETATM   10  C   UNL     1     -12.116  10.270  70.156  1.00  0.00    -0.279 C  
HETATM   11  C   UNL     1     -12.898  10.863  71.285  1.00  0.00    -0.536 C  
HETATM   12  H   UNL     1     -10.579  16.167  71.455  1.00  0.00     0.000 HD 
HETATM   13  C   UNL     1     -12.976  12.169  71.534  1.00  0.00    -0.398 C  
ENDROOT
BRANCH   2  14
HETATM   14  O   UNL     1     -11.787  13.476  67.053  1.00  0.00    -0.365 OA 
BRANCH  14  15
HETATM   15  C   UNL     1     -11.088  13.965  65.989  1.00  0.00    -0.289 C  
HETATM   16  C   UNL     1     -11.780  15.815  64.481  1.00  0.00    -0.191 C  
HETATM   17  C   UNL     1     -11.919  13.426  63.691  1.00  0.00    -0.504 C  
HETATM   18  O   UNL     1      -9.869  14.048  65.913  1.00  0.00    -0.304 OA 
HETATM   19  C   UNL     1     -12.053  14.370  64.891  1.00  0.00    -0.442 C  
HETATM   20  C   UNL     1     -12.368  12.006  64.006  1.00  0.00    -0.504 C  
ENDBRANCH  14  15
ENDBRANCH   2  14
BRANCH   7  21
HETATM   21  C   UNL     1     -10.828  10.676  67.954  1.00  0.00    -0.328 C  
BRANCH  21  22
HETATM   22  C   UNL     1      -9.396  11.147  68.291  1.00  0.00    -0.176 C  
BRANCH  22  23
HETATM   23  C   UNL     1      -8.223  10.515  67.530  1.00  0.00    -0.114 C  
HETATM   24  O   UNL     1      -7.126  10.255  68.406  1.00  0.00    -0.075 OA 
HETATM   25  H   UNL     1      -6.400   9.863  67.935  1.00  0.00     0.000 HD 
BRANCH  23  26
HETATM   26  C   UNL     1      -8.701   9.159  66.962  1.00  0.00    -0.131 C  
BRANCH  26  27
HETATM   27  C   UNL     1      -8.537   9.002  65.445  1.00  0.00    -0.177 C  
HETATM   28  O   UNL     1      -8.861   7.667  65.030  1.00  0.00    -0.376 OA 
HETATM   29  H   UNL     1      -8.759   7.570  64.091  1.00  0.00     0.000 HD 
BRANCH  27  30
HETATM   30  C   UNL     1      -9.488   9.945  64.702  1.00  0.00    -0.343 C  
HETATM   31  C   UNL     1      -9.024  10.278  63.303  1.00  0.00    -0.242 C  
HETATM   32  O   UNL     1      -8.470   9.242  62.635  1.00  0.00    -0.180 OA 
HETATM   33  O   UNL     1      -9.203  11.370  62.783  1.00  0.00    -0.358 OA 
ENDBRANCH  27  30
ENDBRANCH  26  27
ENDBRANCH  23  26
ENDBRANCH  22  23
ENDBRANCH  21  22
ENDBRANCH   7  21
TORSDOF 8
ENDMDL
MODEL       35
REMARK 921   NORMALIZED FREE ENERGY PREDICTED BY IDOCK:   -6.58 KCAL/MOL
REMARK 922        TOTAL FREE ENERGY PREDICTED BY IDOCK:  -11.12 KCAL/MOL
REMARK 923 INTER-LIGAND FREE ENERGY PREDICTED BY IDOCK:   -9.79 KCAL/MOL
REMARK 924 INTRA-LIGAND FREE ENERGY PREDICTED BY IDOCK:   -1.33 KCAL/MOL
REMARK 927      BINDING AFFINITY PREDICTED BY RF-SCORE:    0.00 PKD
ROOT
HETATM    1  C   UNL     1     -10.535  11.480  66.097  1.00  0.00    -0.296 C  
HETATM    2  C   UNL     1     -10.920  13.010  66.087  1.00  0.00    -0.280 C  
HETATM    3  C   UNL     1     -10.357  10.941  64.672  1.00  0.00    -0.407 C  
HETATM    4  C   UNL     1     -11.130  13.679  64.711  1.00  0.00    -0.375 C  
HETATM    5  C   UNL     1     -11.752  12.757  63.680  1.00  0.00    -0.519 C  
HETATM    6  C   UNL     1      -9.776   8.500  67.590  1.00  0.00    -0.201 C  
HETATM    7  C   UNL     1      -9.400  11.046  67.095  1.00  0.00    -0.177 C  
HETATM    8  C   UNL     1     -10.982  11.483  63.607  1.00  0.00    -0.482 C  
HETATM    9  O   UNL     1     -13.111  12.503  63.992  1.00  0.00    -0.741 OA 
HETATM   10  C   UNL     1      -8.937   9.564  66.871  1.00  0.00    -0.148 C  
HETATM   11  C   UNL     1      -8.847   9.179  65.428  1.00  0.00    -0.236 C  
HETATM   12  H   UNL     1     -13.501  11.925  63.346  1.00  0.00     0.000 HD 
HETATM   13  C   UNL     1      -9.501   9.798  64.448  1.00  0.00    -0.233 C  
ENDROOT
BRANCH   2  14
HETATM   14  O   UNL     1     -10.124  13.877  66.933  1.00  0.00    -0.252 OA 
BRANCH  14  15
HETATM   15  C   UNL     1     -10.711  14.876  67.651  1.00  0.00    -0.270 C  
HETATM   16  C   UNL     1     -10.709  17.299  67.101  1.00  0.00    -0.181 C  
HETATM   17  C   UNL     1      -9.227  16.423  68.942  1.00  0.00    -0.259 C  
HETATM   18  O   UNL     1     -11.756  14.783  68.282  1.00  0.00    -0.308 OA 
HETATM   19  C   UNL     1      -9.856  16.126  67.576  1.00  0.00    -0.237 C  
HETATM   20  C   UNL     1      -8.216  15.366  69.367  1.00  0.00    -0.250 C  
ENDBRANCH  14  15
ENDBRANCH   2  14
BRANCH   7  21
HETATM   21  C   UNL     1      -9.709  11.310  68.610  1.00  0.00    -0.200 C  
BRANCH  21  22
HETATM   22  C   UNL     1     -11.195  11.015  68.909  1.00  0.00    -0.326 C  
BRANCH  22  23
HETATM   23  C   UNL     1     -11.734  11.332  70.311  1.00  0.00    -0.324 C  
HETATM   24  O   UNL     1     -12.270  12.655  70.366  1.00  0.00    -0.349 OA 
HETATM   25  H   UNL     1     -12.603  12.851  71.234  1.00  0.00     0.000 HD 
BRANCH  23  26
HETATM   26  C   UNL     1     -12.887  10.347  70.610  1.00  0.00    -0.393 C  
BRANCH  26  27
HETATM   27  C   UNL     1     -12.717   9.529  71.897  1.00  0.00    -0.411 C  
HETATM   28  O   UNL     1     -13.783   9.800  72.820  1.00  0.00    -0.664 OA 
HETATM   29  H   UNL     1     -13.677   9.294  73.616  1.00  0.00     0.000 HD 
BRANCH  27  30
HETATM   30  C   UNL     1     -12.762   8.029  71.589  1.00  0.00    -0.347 C  
HETATM   31  C   UNL     1     -11.502   7.301  71.996  1.00  0.00    -0.269 C  
HETATM   32  O   UNL     1     -10.966   7.717  73.165  1.00  0.00    -0.396 OA 
HETATM   33  O   UNL     1     -11.043   6.359  71.366  1.00  0.00    -0.255 OA 
ENDBRANCH  27  30
ENDBRANCH  26  27
ENDBRANCH  23  26
ENDBRANCH  22  23
ENDBRANCH  21  22
ENDBRANCH   7  21
TORSDOF 8
ENDMDL
MODEL       36
REMARK 921   NORMALIZED FREE ENERGY PREDICTED BY IDOCK:   -6.55 KCAL/MOL
REMARK 922        TOTAL FREE ENERGY PREDICTED BY IDOCK:  -11.07 KCAL/MOL
REMARK 923 INTER-LIGAND FREE ENERGY PREDICTED BY IDOCK:   -9.63 KCAL/MOL
REMARK 924 INTRA-LIGAND FREE ENERGY PREDICTED BY IDOCK:   -1.44 KCAL/MOL
REMARK 927      BINDING AFFINITY PREDICTED BY RF-SCORE:    0.00 PKD
ROOT
HETATM    1  C   UNL     1     -10.589  12.278  66.140  1.00  0.00    -0.281 C  
HETATM    2  C   UNL     1     -10.536  13.839  66.358  1.00  0.00    -0.284 C  
HETATM    3  C   UNL     1     -10.753  11.928  64.655  1.00  0.00    -0.356 C  
HETATM    4  C   UNL     1     -10.732  14.735  65.115  1.00  0.00    -0.433 C  
HETATM    5  C   UNL     1     -11.712  14.165  64.108  1.00  0.00    -0.282 C  
HETATM    6  C   UNL     1     -10.490   9.015  67.157  1.00  0.00    -0.333 C  
HETATM    7  C   UNL     1      -9.497  11.425  66.884  1.00  0.00    -0.193 C  
HETATM    8  C   UNL     1     -11.338  12.763  63.773  1.00  0.00    -0.520 C  
HETATM    9  O   UNL     1     -13.036  14.224  64.611  1.00  0.00    -0.621 OA 
HETATM   10  C   UNL     1      -9.493   9.924  66.428  1.00  0.00    -0.234 C  
HETATM   11  C   UNL     1      -9.700   9.746  64.957  1.00  0.00    -0.303 C  
HETATM   12  H   UNL     1     -13.650  13.867  63.980  1.00  0.00     0.000 HD 
HETATM   13  C   UNL     1     -10.281  10.650  64.171  1.00  0.00    -0.365 C  
ENDROOT
BRANCH   2  14
HETATM   14  O   UNL     1      -9.429  14.339  67.149  1.00  0.00    -0.212 OA 
BRANCH  14  15
HETATM   15  C   UNL     1      -9.655  15.009  68.314  1.00  0.00    -0.210 C  
HETATM   16  C   UNL     1     -11.858  15.408  69.393  1.00  0.00    -0.372 C  
HETATM   17  C   UNL     1     -10.690  17.283  68.180  1.00  0.00    -0.363 C  
HETATM   18  O   UNL     1      -8.915  15.015  69.290  1.00  0.00    -0.206 OA 
HETATM   19  C   UNL     1     -10.960  15.775  68.214  1.00  0.00    -0.325 C  
HETATM   20  C   UNL     1      -9.961  17.722  66.917  1.00  0.00    -0.332 C  
ENDBRANCH  14  15
ENDBRANCH   2  14
BRANCH   7  21
HETATM   21  C   UNL     1      -9.521  11.533  68.448  1.00  0.00    -0.195 C  
BRANCH  21  22
HETATM   22  C   UNL     1     -10.954  11.838  68.938  1.00  0.00    -0.288 C  
BRANCH  22  23
HETATM   23  C   UNL     1     -11.546  10.961  70.050  1.00  0.00    -0.341 C  
HETATM   24  O   UNL     1     -12.747  10.323  69.614  1.00  0.00    -0.599 OA 
HETATM   25  H   UNL     1     -13.113   9.781  70.302  1.00  0.00     0.000 HD 
BRANCH  23  26
HETATM   26  C   UNL     1     -10.520   9.853  70.379  1.00  0.00    -0.347 C  
BRANCH  26  27
HETATM   27  C   UNL     1     -10.872   8.991  71.598  1.00  0.00    -0.366 C  
HETATM   28  O   UNL     1     -12.074   9.460  72.226  1.00  0.00    -0.290 OA 
HETATM   29  H   UNL     1     -12.292   8.926  72.981  1.00  0.00     0.000 HD 
BRANCH  27  30
HETATM   30  C   UNL     1     -11.123   7.540  71.176  1.00  0.00    -0.270 C  
HETATM   31  C   UNL     1     -10.617   6.532  72.181  1.00  0.00    -0.214 C  
HETATM   32  O   UNL     1     -10.806   6.883  73.472  1.00  0.00    -0.315 OA 
HETATM   33  O   UNL     1     -10.146   5.450  71.860  1.00  0.00    -0.181 OA 
ENDBRANCH  27  30
ENDBRANCH  26  27
ENDBRANCH  23  26
ENDBRANCH  22  23
ENDBRANCH  21  22
ENDBRANCH   7  21
TORSDOF 8
ENDMDL
MODEL       37
REMARK 921   NORMALIZED FREE ENERGY PREDICTED BY IDOCK:   -6.53 KCAL/MOL
REMARK 922        TOTAL FREE ENERGY PREDICTED BY IDOCK:  -11.05 KCAL/MOL
REMARK 923 INTER-LIGAND FREE ENERGY PREDICTED BY IDOCK:   -9.72 KCAL/MOL
REMARK 924 INTRA-LIGAND FREE ENERGY PREDICTED BY IDOCK:   -1.33 KCAL/MOL
REMARK 927      BINDING AFFINITY PREDICTED BY RF-SCORE:    0.00 PKD
ROOT
HETATM    1  C   UNL     1     -11.768  11.456  69.702  1.00  0.00    -0.415 C  
HETATM    2  C   UNL     1     -11.077  10.044  69.845  1.00  0.00    -0.288 C  
HETATM    3  C   UNL     1     -12.553  11.822  70.969  1.00  0.00    -0.409 C  
HETATM    4  C   UNL     1     -11.353   9.248  71.139  1.00  0.00    -0.412 C  
HETATM    5  C   UNL     1     -12.757   9.439  71.679  1.00  0.00    -0.374 C  
HETATM    6  C   UNL     1     -12.517  14.375  68.089  1.00  0.00     0.214 C  
HETATM    7  C   UNL     1     -10.876  12.623  69.139  1.00  0.00    -0.127 C  
HETATM    8  C   UNL     1     -13.061  10.892  71.802  1.00  0.00    -0.564 C  
HETATM    9  O   UNL     1     -13.705   8.798  70.842  1.00  0.00    -0.545 OA 
HETATM   10  C   UNL     1     -11.577  14.021  69.249  1.00  0.00    -0.356 C  
HETATM   11  C   UNL     1     -12.332  14.212  70.526  1.00  0.00    -0.434 C  
HETATM   12  H   UNL     1     -14.585   8.917  71.180  1.00  0.00     0.000 HD 
HETATM   13  C   UNL     1     -12.778  13.214  71.286  1.00  0.00    -0.396 C  
ENDROOT
BRANCH   2  14
HETATM   14  O   UNL     1      -9.664   9.986  69.528  1.00  0.00    -0.209 OA 
BRANCH  14  15
HETATM   15  C   UNL     1      -9.111   8.845  69.029  1.00  0.00    -0.137 C  
HETATM   16  C   UNL     1      -6.916   8.638  67.883  1.00  0.00    -0.078 C  
HETATM   17  C   UNL     1      -9.050   8.558  66.544  1.00  0.00    -0.217 C  
HETATM   18  O   UNL     1      -9.227   7.725  69.511  1.00  0.00    -0.150 OA 
HETATM   19  C   UNL     1      -8.343   9.165  67.762  1.00  0.00    -0.117 C  
HETATM   20  C   UNL     1     -10.405   9.197  66.271  1.00  0.00    -0.166 C  
ENDBRANCH  14  15
ENDBRANCH   2  14
BRANCH   7  21
HETATM   21  C   UNL     1     -10.314  12.392  67.693  1.00  0.00    -0.223 C  
BRANCH  21  22
HETATM   22  C   UNL     1      -9.197  13.413  67.387  1.00  0.00    -0.213 C  
BRANCH  22  23
HETATM   23  C   UNL     1      -9.547  14.643  66.538  1.00  0.00    -0.289 C  
HETATM   24  O   UNL     1      -8.381  15.415  66.251  1.00  0.00    -0.387 OA 
HETATM   25  H   UNL     1      -8.597  16.177  65.725  1.00  0.00     0.000 HD 
BRANCH  23  26
HETATM   26  C   UNL     1     -10.122  14.144  65.192  1.00  0.00    -0.348 C  
BRANCH  26  27
HETATM   27  C   UNL     1     -11.419  14.833  64.751  1.00  0.00    -0.410 C  
HETATM   28  O   UNL     1     -11.158  16.164  64.283  1.00  0.00    -1.042 OA 
HETATM   29  H   UNL     1     -11.962  16.590  64.010  1.00  0.00     0.000 HD 
BRANCH  27  30
HETATM   30  C   UNL     1     -12.066  14.068  63.592  1.00  0.00    -0.156 C  
HETATM   31  C   UNL     1     -12.522  12.680  63.976  1.00  0.00    -0.399 C  
HETATM   32  O   UNL     1     -13.068  12.590  65.208  1.00  0.00    -0.531 OA 
HETATM   33  O   UNL     1     -12.477  11.728  63.210  1.00  0.00    -0.543 OA 
ENDBRANCH  27  30
ENDBRANCH  26  27
ENDBRANCH  23  26
ENDBRANCH  22  23
ENDBRANCH  21  22
ENDBRANCH   7  21
TORSDOF 8
ENDMDL
MODEL       38
REMARK 921   NORMALIZED FREE ENERGY PREDICTED BY IDOCK:   -6.52 KCAL/MOL
REMARK 922        TOTAL FREE ENERGY PREDICTED BY IDOCK:  -11.02 KCAL/MOL
REMARK 923 INTER-LIGAND FREE ENERGY PREDICTED BY IDOCK:   -9.01 KCAL/MOL
REMARK 924 INTRA-LIGAND FREE ENERGY PREDICTED BY IDOCK:   -2.01 KCAL/MOL
REMARK 927      BINDING AFFINITY PREDICTED BY RF-SCORE:    0.00 PKD
ROOT
HETATM    1  C   UNL     1     -10.172  11.441  65.420  1.00  0.00    -0.320 C  
HETATM    2  C   UNL     1      -9.337  10.149  65.770  1.00  0.00    -0.188 C  
HETATM    3  C   UNL     1     -10.522  11.491  63.927  1.00  0.00    -0.439 C  
HETATM    4  C   UNL     1      -8.944   9.220  64.600  1.00  0.00    -0.202 C  
HETATM    5  C   UNL     1      -8.647   9.964  63.312  1.00  0.00    -0.204 C  
HETATM    6  C   UNL     1     -11.796  14.358  66.156  1.00  0.00    -0.391 C  
HETATM    7  C   UNL     1     -11.376  11.781  66.374  1.00  0.00    -0.361 C  
HETATM    8  C   UNL     1      -9.771  10.885  62.985  1.00  0.00    -0.380 C  
HETATM    9  O   UNL     1      -7.428  10.680  63.419  1.00  0.00    -0.341 OA 
HETATM   10  C   UNL     1     -12.274  12.941  65.818  1.00  0.00    -0.498 C  
HETATM   11  C   UNL     1     -12.493  12.871  64.340  1.00  0.00    -0.447 C  
HETATM   12  H   UNL     1      -7.241  11.145  62.613  1.00  0.00     0.000 HD 
HETATM   13  C   UNL     1     -11.690  12.225  63.496  1.00  0.00    -0.584 C  
ENDROOT
BRANCH   2  14
HETATM   14  O   UNL     1      -9.819   9.355  66.882  1.00  0.00    -0.174 OA 
BRANCH  14  15
HETATM   15  C   UNL     1      -8.966   8.941  67.861  1.00  0.00    -0.139 C  
HETATM   16  C   UNL     1      -6.990   7.462  67.580  1.00  0.00    -0.079 C  
HETATM   17  C   UNL     1      -9.105   6.556  68.608  1.00  0.00    -0.128 C  
HETATM   18  O   UNL     1      -8.627   9.597  68.838  1.00  0.00    -0.119 OA 
HETATM   19  C   UNL     1      -8.515   7.522  67.574  1.00  0.00    -0.119 C  
HETATM   20  C   UNL     1     -10.620   6.439  68.507  1.00  0.00    -0.302 C  
ENDBRANCH  14  15
ENDBRANCH   2  14
BRANCH   7  21
HETATM   21  C   UNL     1     -10.986  12.045  67.869  1.00  0.00    -0.266 C  
BRANCH  21  22
HETATM   22  C   UNL     1     -11.909  11.241  68.811  1.00  0.00    -0.396 C  
BRANCH  22  23
HETATM   23  C   UNL     1     -11.664  11.330  70.323  1.00  0.00    -0.324 C  
HETATM   24  O   UNL     1     -12.274  12.500  70.872  1.00  0.00    -0.407 OA 
HETATM   25  H   UNL     1     -12.123  12.555  71.808  1.00  0.00     0.000 HD 
BRANCH  23  26
HETATM   26  C   UNL     1     -12.329  10.101  70.985  1.00  0.00    -0.474 C  
BRANCH  26  27
HETATM   27  C   UNL     1     -11.423   8.870  71.111  1.00  0.00    -0.301 C  
HETATM   28  O   UNL     1     -10.057   9.259  71.324  1.00  0.00    -0.299 OA 
HETATM   29  H   UNL     1      -9.497   8.496  71.401  1.00  0.00     0.000 HD 
BRANCH  27  30
HETATM   30  C   UNL     1     -11.839   8.018  72.314  1.00  0.00    -0.424 C  
HETATM   31  C   UNL     1     -11.232   6.634  72.301  1.00  0.00    -0.267 C  
HETATM   32  O   UNL     1      -9.950   6.588  71.875  1.00  0.00    -0.178 OA 
HETATM   33  O   UNL     1     -11.818   5.645  72.717  1.00  0.00    -0.258 OA 
ENDBRANCH  27  30
ENDBRANCH  26  27
ENDBRANCH  23  26
ENDBRANCH  22  23
ENDBRANCH  21  22
ENDBRANCH   7  21
TORSDOF 8
ENDMDL
MODEL       39
REMARK 921   NORMALIZED FREE ENERGY PREDICTED BY IDOCK:   -6.51 KCAL/MOL
REMARK 922        TOTAL FREE ENERGY PREDICTED BY IDOCK:  -11.01 KCAL/MOL
REMARK 923 INTER-LIGAND FREE ENERGY PREDICTED BY IDOCK:   -9.21 KCAL/MOL
REMARK 924 INTRA-LIGAND FREE ENERGY PREDICTED BY IDOCK:   -1.80 KCAL/MOL
REMARK 927      BINDING AFFINITY PREDICTED BY RF-SCORE:    0.00 PKD
ROOT
HETATM    1  C   UNL     1     -10.733   8.755  68.771  1.00  0.00    -0.111 C  
HETATM    2  C   UNL     1      -9.820   8.545  67.502  1.00  0.00    -0.177 C  
HETATM    3  C   UNL     1     -10.926   7.443  69.542  1.00  0.00    -0.155 C  
HETATM    4  C   UNL     1      -9.351   7.104  67.197  1.00  0.00    -0.166 C  
HETATM    5  C   UNL     1     -10.381   6.048  67.547  1.00  0.00    -0.210 C  
HETATM    6  C   UNL     1     -12.609  10.606  70.949  1.00  0.00    -0.503 C  
HETATM    7  C   UNL     1     -10.398   9.993  69.682  1.00  0.00    -0.274 C  
HETATM    8  C   UNL     1     -10.844   6.234  68.951  1.00  0.00    -0.396 C  
HETATM    9  O   UNL     1     -11.475   6.099  66.648  1.00  0.00    -0.677 OA 
HETATM   10  C   UNL     1     -11.208   9.987  71.025  1.00  0.00    -0.387 C  
HETATM   11  C   UNL     1     -11.339   8.628  71.637  1.00  0.00    -0.377 C  
HETATM   12  H   UNL     1     -12.120   5.437  66.867  1.00  0.00     0.000 HD 
HETATM   13  C   UNL     1     -11.223   7.489  70.957  1.00  0.00    -0.281 C  
ENDROOT
BRANCH   2  14
HETATM   14  O   UNL     1      -8.707   9.461  67.353  1.00  0.00    -0.125 OA 
BRANCH  14  15
HETATM   15  C   UNL     1      -7.449   9.092  67.729  1.00  0.00    -0.085 C  
HETATM   16  C   UNL     1      -6.780   8.106  69.909  1.00  0.00    -0.043 C  
HETATM   17  C   UNL     1      -6.257  10.519  69.403  1.00  0.00    -0.048 C  
HETATM   18  O   UNL     1      -6.592   8.624  66.991  1.00  0.00    -0.057 OA 
HETATM   19  C   UNL     1      -7.257   9.374  69.206  1.00  0.00    -0.066 C  
HETATM   20  C   UNL     1      -6.780  11.852  68.886  1.00  0.00    -0.095 C  
ENDBRANCH  14  15
ENDBRANCH   2  14
BRANCH   7  21
HETATM   21  C   UNL     1     -10.505  11.388  68.973  1.00  0.00    -0.196 C  
BRANCH  21  22
HETATM   22  C   UNL     1     -11.538  11.325  67.826  1.00  0.00    -0.307 C  
BRANCH  22  23
HETATM   23  C   UNL     1     -11.201  12.024  66.502  1.00  0.00    -0.334 C  
HETATM   24  O   UNL     1     -12.384  12.284  65.746  1.00  0.00    -0.622 OA 
HETATM   25  H   UNL     1     -12.176  12.717  64.926  1.00  0.00     0.000 HD 
BRANCH  23  26
HETATM   26  C   UNL     1     -10.551  13.387  66.837  1.00  0.00    -0.273 C  
BRANCH  26  27
HETATM   27  C   UNL     1      -9.839  14.066  65.661  1.00  0.00    -0.228 C  
HETATM   28  O   UNL     1     -10.159  13.414  64.423  1.00  0.00    -0.613 OA 
HETATM   29  H   UNL     1      -9.718  13.834  63.695  1.00  0.00     0.000 HD 
BRANCH  27  30
HETATM   30  C   UNL     1     -10.290  15.524  65.529  1.00  0.00    -0.419 C  
HETATM   31  C   UNL     1     -11.424  15.709  64.547  1.00  0.00    -0.300 C  
HETATM   32  O   UNL     1     -12.357  14.732  64.577  1.00  0.00    -0.479 OA 
HETATM   33  O   UNL     1     -11.537  16.699  63.838  1.00  0.00    -1.204 OA 
ENDBRANCH  27  30
ENDBRANCH  26  27
ENDBRANCH  23  26
ENDBRANCH  22  23
ENDBRANCH  21  22
ENDBRANCH   7  21
TORSDOF 8
ENDMDL
MODEL       40
REMARK 921   NORMALIZED FREE ENERGY PREDICTED BY IDOCK:   -6.49 KCAL/MOL
REMARK 922        TOTAL FREE ENERGY PREDICTED BY IDOCK:  -10.98 KCAL/MOL
REMARK 923 INTER-LIGAND FREE ENERGY PREDICTED BY IDOCK:   -9.46 KCAL/MOL
REMARK 924 INTRA-LIGAND FREE ENERGY PREDICTED BY IDOCK:   -1.52 KCAL/MOL
REMARK 927      BINDING AFFINITY PREDICTED BY RF-SCORE:    0.00 PKD
ROOT
HETATM    1  C   UNL     1     -10.756  12.827  67.935  1.00  0.00    -0.235 C  
HETATM    2  C   UNL     1     -11.335  14.148  68.574  1.00  0.00    -0.283 C  
HETATM    3  C   UNL     1      -9.476  13.107  67.138  1.00  0.00    -0.239 C  
HETATM    4  C   UNL     1     -10.608  15.471  68.245  1.00  0.00    -0.255 C  
HETATM    5  C   UNL     1     -10.046  15.518  66.838  1.00  0.00    -0.262 C  
HETATM    6  C   UNL     1     -10.703   9.464  67.320  1.00  0.00    -0.258 C  
HETATM    7  C   UNL     1     -10.664  11.571  68.878  1.00  0.00    -0.245 C  
HETATM    8  C   UNL     1      -9.215  14.308  66.582  1.00  0.00    -0.276 C  
HETATM    9  O   UNL     1     -11.090  15.619  65.886  1.00  0.00    -0.272 OA 
HETATM   10  C   UNL     1      -9.873  10.385  68.223  1.00  0.00    -0.169 C  
HETATM   11  C   UNL     1      -8.670  10.824  67.450  1.00  0.00    -0.126 C  
HETATM   12  H   UNL     1     -10.738  15.649  65.004  1.00  0.00     0.000 HD 
HETATM   13  C   UNL     1      -8.508  12.049  66.955  1.00  0.00    -0.172 C  
ENDROOT
BRANCH   2  14
HETATM   14  O   UNL     1     -11.638  14.097  69.990  1.00  0.00    -0.269 OA 
BRANCH  14  15
HETATM   15  C   UNL     1     -12.427  15.048  70.566  1.00  0.00    -0.371 C  
HETATM   16  C   UNL     1     -11.932  16.337  72.631  1.00  0.00    -0.644 C  
HETATM   17  C   UNL     1     -13.613  14.460  72.690  1.00  0.00    -0.589 C  
HETATM   18  O   UNL     1     -13.147  15.837  69.968  1.00  0.00    -0.129 OA 
HETATM   19  C   UNL     1     -12.302  14.965  72.075  1.00  0.00    -0.419 C  
HETATM   20  C   UNL     1     -13.923  13.018  72.313  1.00  0.00    -0.421 C  
ENDBRANCH  14  15
ENDBRANCH   2  14
BRANCH   7  21
HETATM   21  C   UNL     1     -12.033  11.074  69.460  1.00  0.00    -0.413 C  
BRANCH  21  22
HETATM   22  C   UNL     1     -11.927  10.895  70.991  1.00  0.00    -0.375 C  
BRANCH  22  23
HETATM   23  C   UNL     1     -11.958   9.471  71.562  1.00  0.00    -0.399 C  
HETATM   24  O   UNL     1     -12.635   8.579  70.676  1.00  0.00    -0.482 OA 
HETATM   25  H   UNL     1     -12.654   7.698  71.030  1.00  0.00     0.000 HD 
BRANCH  23  26
HETATM   26  C   UNL     1     -10.499   8.981  71.697  1.00  0.00    -0.426 C  
BRANCH  26  27
HETATM   27  C   UNL     1     -10.262   7.963  72.820  1.00  0.00    -0.314 C  
HETATM   28  O   UNL     1     -11.506   7.419  73.287  1.00  0.00    -0.602 OA 
HETATM   29  H   UNL     1     -11.359   6.790  73.983  1.00  0.00     0.000 HD 
BRANCH  27  30
HETATM   30  C   UNL     1      -9.422   6.788  72.312  1.00  0.00    -0.149 C  
HETATM   31  C   UNL     1     -10.255   5.659  71.751  1.00  0.00    -0.202 C  
HETATM   32  O   UNL     1     -11.330   6.057  71.035  1.00  0.00    -0.295 OA 
HETATM   33  O   UNL     1      -9.945   4.482  71.864  1.00  0.00    -0.177 OA 
ENDBRANCH  27  30
ENDBRANCH  26  27
ENDBRANCH  23  26
ENDBRANCH  22  23
ENDBRANCH  21  22
ENDBRANCH   7  21
TORSDOF 8
ENDMDL
MODEL       41
REMARK 921   NORMALIZED FREE ENERGY PREDICTED BY IDOCK:   -6.48 KCAL/MOL
REMARK 922        TOTAL FREE ENERGY PREDICTED BY IDOCK:  -10.97 KCAL/MOL
REMARK 923 INTER-LIGAND FREE ENERGY PREDICTED BY IDOCK:   -9.40 KCAL/MOL
REMARK 924 INTRA-LIGAND FREE ENERGY PREDICTED BY IDOCK:   -1.57 KCAL/MOL
REMARK 927      BINDING AFFINITY PREDICTED BY RF-SCORE:    0.00 PKD
ROOT
HETATM    1  C   UNL     1     -11.851  10.124  70.071  1.00  0.00    -0.253 C  
HETATM    2  C   UNL     1     -11.248   8.688  70.325  1.00  0.00    -0.184 C  
HETATM    3  C   UNL     1     -12.782  10.548  71.214  1.00  0.00    -0.532 C  
HETATM    4  C   UNL     1     -11.730   7.930  71.582  1.00  0.00    -0.320 C  
HETATM    5  C   UNL     1     -13.184   8.190  71.924  1.00  0.00    -0.325 C  
HETATM    6  C   UNL     1     -12.247  13.040  68.331  1.00  0.00    -0.029 C  
HETATM    7  C   UNL     1     -10.841  11.242  69.617  1.00  0.00    -0.155 C  
HETATM    8  C   UNL     1     -13.438   9.656  71.985  1.00  0.00    -0.514 C  
HETATM    9  O   UNL     1     -14.038   7.573  70.976  1.00  0.00    -0.660 OA 
HETATM   10  C   UNL     1     -11.489  12.670  69.611  1.00  0.00    -0.252 C  
HETATM   11  C   UNL     1     -12.399  12.918  70.772  1.00  0.00    -0.385 C  
HETATM   12  H   UNL     1     -14.949   7.735  71.190  1.00  0.00     0.000 HD 
HETATM   13  C   UNL     1     -12.986  11.954  71.479  1.00  0.00    -0.427 C  
ENDROOT
BRANCH   2  14
HETATM   14  O   UNL     1      -9.809   8.566  70.203  1.00  0.00    -0.175 OA 
BRANCH  14  15
HETATM   15  C   UNL     1      -9.255   7.912  69.142  1.00  0.00    -0.144 C  
HETATM   16  C   UNL     1     -10.353   7.409  66.971  1.00  0.00    -0.384 C  
HETATM   17  C   UNL     1     -10.023   5.578  68.671  1.00  0.00    -0.222 C  
HETATM   18  O   UNL     1      -8.082   7.974  68.800  1.00  0.00    -0.121 OA 
HETATM   19  C   UNL     1     -10.313   7.068  68.459  1.00  0.00    -0.204 C  
HETATM   20  C   UNL     1     -10.163   5.152  70.126  1.00  0.00    -0.348 C  
ENDBRANCH  14  15
ENDBRANCH   2  14
BRANCH   7  21
HETATM   21  C   UNL     1     -10.101  10.959  68.264  1.00  0.00    -0.189 C  
BRANCH  21  22
HETATM   22  C   UNL     1      -8.790  11.772  68.194  1.00  0.00    -0.169 C  
BRANCH  22  23
HETATM   23  C   UNL     1      -8.802  13.112  67.446  1.00  0.00    -0.204 C  
HETATM   24  O   UNL     1      -7.488  13.470  67.016  1.00  0.00    -0.362 OA 
HETATM   25  H   UNL     1      -7.496  14.300  66.553  1.00  0.00     0.000 HD 
BRANCH  23  26
HETATM   26  C   UNL     1      -9.679  12.944  66.184  1.00  0.00    -0.250 C  
BRANCH  26  27
HETATM   27  C   UNL     1      -9.958  14.243  65.417  1.00  0.00    -0.303 C  
HETATM   28  O   UNL     1     -11.034  14.064  64.483  1.00  0.00    -0.466 OA 
HETATM   29  H   UNL     1     -11.206  14.868  64.008  1.00  0.00     0.000 HD 
BRANCH  27  30
HETATM   30  C   UNL     1     -10.380  15.356  66.380  1.00  0.00    -0.303 C  
HETATM   31  C   UNL     1     -10.359  16.729  65.748  1.00  0.00    -0.305 C  
HETATM   32  O   UNL     1     -10.796  16.764  64.469  1.00  0.00    -0.886 OA 
HETATM   33  O   UNL     1     -10.050  17.741  66.361  1.00  0.00    -0.327 OA 
ENDBRANCH  27  30
ENDBRANCH  26  27
ENDBRANCH  23  26
ENDBRANCH  22  23
ENDBRANCH  21  22
ENDBRANCH   7  21
TORSDOF 8
ENDMDL
MODEL       42
REMARK 921   NORMALIZED FREE ENERGY PREDICTED BY IDOCK:   -6.48 KCAL/MOL
REMARK 922        TOTAL FREE ENERGY PREDICTED BY IDOCK:  -10.97 KCAL/MOL
REMARK 923 INTER-LIGAND FREE ENERGY PREDICTED BY IDOCK:   -8.96 KCAL/MOL
REMARK 924 INTRA-LIGAND FREE ENERGY PREDICTED BY IDOCK:   -2.01 KCAL/MOL
REMARK 927      BINDING AFFINITY PREDICTED BY RF-SCORE:    0.00 PKD
ROOT
HETATM    1  C   UNL     1     -11.807  10.737  69.961  1.00  0.00    -0.424 C  
HETATM    2  C   UNL     1     -11.350   9.273  70.332  1.00  0.00    -0.242 C  
HETATM    3  C   UNL     1     -12.670  11.350  71.071  1.00  0.00    -0.447 C  
HETATM    4  C   UNL     1     -11.886   8.677  71.652  1.00  0.00    -0.389 C  
HETATM    5  C   UNL     1     -13.299   9.114  71.983  1.00  0.00    -0.445 C  
HETATM    6  C   UNL     1     -11.932  13.521  67.980  1.00  0.00    -0.372 C  
HETATM    7  C   UNL     1     -10.695  11.702  69.405  1.00  0.00    -0.080 C  
HETATM    8  C   UNL     1     -13.401  10.599  71.920  1.00  0.00    -0.454 C  
HETATM    9  O   UNL     1     -14.228   8.511  71.099  1.00  0.00    -0.622 OA 
HETATM   10  C   UNL     1     -11.193  13.184  69.281  1.00  0.00    -0.266 C  
HETATM   11  C   UNL     1     -12.054  13.621  70.424  1.00  0.00    -0.421 C  
HETATM   12  H   UNL     1     -15.114   8.784  71.306  1.00  0.00     0.000 HD 
HETATM   13  C   UNL     1     -12.725  12.787  71.216  1.00  0.00    -0.364 C  
ENDROOT
BRANCH   2  14
HETATM   14  O   UNL     1      -9.934   8.992  70.209  1.00  0.00    -0.176 OA 
BRANCH  14  15
HETATM   15  C   UNL     1      -9.470   8.181  69.216  1.00  0.00    -0.159 C  
HETATM   16  C   UNL     1     -10.746   7.373  67.243  1.00  0.00    -0.379 C  
HETATM   17  C   UNL     1     -10.273   5.812  69.164  1.00  0.00    -0.289 C  
HETATM   18  O   UNL     1      -8.329   8.177  68.772  1.00  0.00    -0.123 OA 
HETATM   19  C   UNL     1     -10.581   7.257  68.756  1.00  0.00    -0.202 C  
HETATM   20  C   UNL     1     -10.291   5.610  70.673  1.00  0.00    -0.320 C  
ENDBRANCH  14  15
ENDBRANCH   2  14
BRANCH   7  21
HETATM   21  C   UNL     1     -10.011  11.231  68.074  1.00  0.00    -0.191 C  
BRANCH  21  22
HETATM   22  C   UNL     1      -8.525  11.651  68.062  1.00  0.00    -0.151 C  
BRANCH  22  23
HETATM   23  C   UNL     1      -8.061  12.659  67.002  1.00  0.00    -0.085 C  
HETATM   24  O   UNL     1      -9.173  13.200  66.288  1.00  0.00    -0.426 OA 
HETATM   25  H   UNL     1      -8.886  13.824  65.632  1.00  0.00     0.000 HD 
BRANCH  23  26
HETATM   26  C   UNL     1      -7.360  13.827  67.732  1.00  0.00    -0.170 C  
BRANCH  26  27
HETATM   27  C   UNL     1      -8.308  14.844  68.380  1.00  0.00    -0.153 C  
HETATM   28  O   UNL     1      -8.208  14.796  69.812  1.00  0.00    -0.417 OA 
HETATM   29  H   UNL     1      -8.796  15.425  70.213  1.00  0.00     0.000 HD 
BRANCH  27  30
HETATM   30  C   UNL     1      -7.943  16.268  67.953  1.00  0.00    -0.153 C  
HETATM   31  C   UNL     1      -8.566  16.672  66.637  1.00  0.00    -0.258 C  
HETATM   32  O   UNL     1      -9.833  16.237  66.459  1.00  0.00    -0.243 OA 
HETATM   33  O   UNL     1      -8.006  17.400  65.829  1.00  0.00    -0.538 OA 
ENDBRANCH  27  30
ENDBRANCH  26  27
ENDBRANCH  23  26
ENDBRANCH  22  23
ENDBRANCH  21  22
ENDBRANCH   7  21
TORSDOF 8
ENDMDL
MODEL       43
REMARK 921   NORMALIZED FREE ENERGY PREDICTED BY IDOCK:   -6.48 KCAL/MOL
REMARK 922        TOTAL FREE ENERGY PREDICTED BY IDOCK:  -10.96 KCAL/MOL
REMARK 923 INTER-LIGAND FREE ENERGY PREDICTED BY IDOCK:   -9.12 KCAL/MOL
REMARK 924 INTRA-LIGAND FREE ENERGY PREDICTED BY IDOCK:   -1.84 KCAL/MOL
REMARK 927      BINDING AFFINITY PREDICTED BY RF-SCORE:    0.00 PKD
ROOT
HETATM    1  C   UNL     1     -11.679  11.668  69.833  1.00  0.00    -0.414 C  
HETATM    2  C   UNL     1     -11.060  10.224  69.976  1.00  0.00    -0.311 C  
HETATM    3  C   UNL     1     -12.498  12.049  71.072  1.00  0.00    -0.376 C  
HETATM    4  C   UNL     1     -11.425   9.419  71.243  1.00  0.00    -0.433 C  
HETATM    5  C   UNL     1     -12.840   9.666  71.727  1.00  0.00    -0.421 C  
HETATM    6  C   UNL     1     -12.225  14.647  68.246  1.00  0.00    -0.112 C  
HETATM    7  C   UNL     1     -10.711  12.803  69.329  1.00  0.00     0.040 C  
HETATM    8  C   UNL     1     -13.083  11.129  71.866  1.00  0.00    -0.513 C  
HETATM    9  O   UNL     1     -13.780   9.084  70.841  1.00  0.00    -0.571 OA 
HETATM   10  C   UNL     1     -11.353  14.230  69.436  1.00  0.00    -0.325 C  
HETATM   11  C   UNL     1     -12.151  14.434  70.685  1.00  0.00    -0.404 C  
HETATM   12  H   UNL     1     -14.667   9.238  71.144  1.00  0.00     0.000 HD 
HETATM   13  C   UNL     1     -12.673  13.444  71.406  1.00  0.00    -0.411 C  
ENDROOT
BRANCH   2  14
HETATM   14  O   UNL     1      -9.638  10.107  69.717  1.00  0.00    -0.222 OA 
BRANCH  14  15
HETATM   15  C   UNL     1      -9.186   9.449  68.612  1.00  0.00    -0.131 C  
HETATM   16  C   UNL     1     -10.471   8.968  66.541  1.00  0.00    -0.192 C  
HETATM   17  C   UNL     1     -10.024   7.127  68.203  1.00  0.00    -0.172 C  
HETATM   18  O   UNL     1      -8.045   9.495  68.171  1.00  0.00    -0.101 OA 
HETATM   19  C   UNL     1     -10.310   8.622  68.019  1.00  0.00    -0.277 C  
HETATM   20  C   UNL     1     -10.046   6.699  69.664  1.00  0.00    -0.202 C  
ENDBRANCH  14  15
ENDBRANCH   2  14
BRANCH   7  21
HETATM   21  C   UNL     1     -10.101  12.571  67.904  1.00  0.00    -0.214 C  
BRANCH  21  22
HETATM   22  C   UNL     1      -8.670  13.150  67.837  1.00  0.00    -0.192 C  
BRANCH  22  23
HETATM   23  C   UNL     1      -8.438  14.425  67.014  1.00  0.00    -0.181 C  
HETATM   24  O   UNL     1      -9.364  14.511  65.931  1.00  0.00    -0.497 OA 
HETATM   25  H   UNL     1      -9.220  15.301  65.422  1.00  0.00     0.000 HD 
BRANCH  23  26
HETATM   26  C   UNL     1      -8.684  15.639  67.940  1.00  0.00    -0.166 C  
BRANCH  26  27
HETATM   27  C   UNL     1      -8.246  16.990  67.360  1.00  0.00    -0.183 C  
HETATM   28  O   UNL     1      -8.003  16.886  65.949  1.00  0.00    -0.427 OA 
HETATM   29  H   UNL     1      -7.732  17.722  65.590  1.00  0.00     0.000 HD 
BRANCH  27  30
HETATM   30  C   UNL     1      -9.347  18.038  67.550  1.00  0.00    -0.257 C  
HETATM   31  C   UNL     1     -10.153  18.287  66.297  1.00  0.00    -0.380 C  
HETATM   32  O   UNL     1     -10.418  17.179  65.570  1.00  0.00    -0.593 OA 
HETATM   33  O   UNL     1     -10.600  19.386  65.999  1.00  0.00    -0.481 OA 
ENDBRANCH  27  30
ENDBRANCH  26  27
ENDBRANCH  23  26
ENDBRANCH  22  23
ENDBRANCH  21  22
ENDBRANCH   7  21
TORSDOF 8
ENDMDL
MODEL       44
REMARK 921   NORMALIZED FREE ENERGY PREDICTED BY IDOCK:   -6.45 KCAL/MOL
REMARK 922        TOTAL FREE ENERGY PREDICTED BY IDOCK:  -10.93 KCAL/MOL
REMARK 923 INTER-LIGAND FREE ENERGY PREDICTED BY IDOCK:   -8.40 KCAL/MOL
REMARK 924 INTRA-LIGAND FREE ENERGY PREDICTED BY IDOCK:   -2.53 KCAL/MOL
REMARK 927      BINDING AFFINITY PREDICTED BY RF-SCORE:    0.00 PKD
ROOT
HETATM    1  C   UNL     1      -8.861   8.274  67.424  1.00  0.00    -0.135 C  
HETATM    2  C   UNL     1      -9.775   7.463  68.421  1.00  0.00    -0.153 C  
HETATM    3  C   UNL     1      -8.717   7.545  66.082  1.00  0.00    -0.174 C  
HETATM    4  C   UNL     1     -10.291   6.086  67.949  1.00  0.00    -0.255 C  
HETATM    5  C   UNL     1      -9.301   5.335  67.081  1.00  0.00    -0.122 C  
HETATM    6  C   UNL     1      -6.932  10.933  66.473  1.00  0.00    -0.139 C  
HETATM    7  C   UNL     1      -9.157   9.814  67.290  1.00  0.00    -0.150 C  
HETATM    8  C   UNL     1      -8.838   6.207  65.965  1.00  0.00    -0.160 C  
HETATM    9  O   UNL     1      -8.201   4.884  67.852  1.00  0.00    -0.100 OA 
HETATM   10  C   UNL     1      -8.354  10.480  66.119  1.00  0.00    -0.155 C  
HETATM   11  C   UNL     1      -8.273   9.630  64.891  1.00  0.00    -0.143 C  
HETATM   12  H   UNL     1      -7.580   4.413  67.309  1.00  0.00     0.000 HD 
HETATM   13  C   UNL     1      -8.425   8.307  64.888  1.00  0.00    -0.115 C  
ENDROOT
BRANCH   2  14
HETATM   14  O   UNL     1     -10.855   8.200  69.046  1.00  0.00    -0.133 OA 
BRANCH  14  15
HETATM   15  C   UNL     1     -11.320   7.841  70.276  1.00  0.00    -0.163 C  
HETATM   16  C   UNL     1     -12.387   9.332  71.953  1.00  0.00    -0.454 C  
HETATM   17  C   UNL     1     -10.011   8.561  72.283  1.00  0.00    -0.385 C  
HETATM   18  O   UNL     1     -11.837   6.768  70.559  1.00  0.00    -0.372 OA 
HETATM   19  C   UNL     1     -11.076   8.969  71.260  1.00  0.00    -0.382 C  
HETATM   20  C   UNL     1      -8.635   8.376  71.658  1.00  0.00    -0.223 C  
ENDBRANCH  14  15
ENDBRANCH   2  14
BRANCH   7  21
HETATM   21  C   UNL     1      -8.998  10.638  68.615  1.00  0.00    -0.170 C  
BRANCH  21  22
HETATM   22  C   UNL     1     -10.190  11.605  68.786  1.00  0.00    -0.190 C  
BRANCH  22  23
HETATM   23  C   UNL     1     -11.413  11.424  67.876  1.00  0.00    -0.291 C  
HETATM   24  O   UNL     1     -12.524  10.907  68.609  1.00  0.00    -0.772 OA 
HETATM   25  H   UNL     1     -13.281  10.795  68.046  1.00  0.00     0.000 HD 
BRANCH  23  26
HETATM   26  C   UNL     1     -11.814  12.816  67.337  1.00  0.00    -0.404 C  
BRANCH  26  27
HETATM   27  C   UNL     1     -12.255  12.834  65.868  1.00  0.00    -0.359 C  
HETATM   28  O   UNL     1     -12.930  14.061  65.552  1.00  0.00    -0.681 OA 
HETATM   29  H   UNL     1     -13.204  14.072  64.642  1.00  0.00     0.000 HD 
BRANCH  27  30
HETATM   30  C   UNL     1     -11.039  12.740  64.941  1.00  0.00    -0.324 C  
HETATM   31  C   UNL     1     -11.350  12.077  63.619  1.00  0.00    -0.452 C  
HETATM   32  O   UNL     1     -12.552  12.405  63.095  1.00  0.00    -0.591 OA 
HETATM   33  O   UNL     1     -10.551  11.365  63.026  1.00  0.00    -0.255 OA 
ENDBRANCH  27  30
ENDBRANCH  26  27
ENDBRANCH  23  26
ENDBRANCH  22  23
ENDBRANCH  21  22
ENDBRANCH   7  21
TORSDOF 8
ENDMDL
MODEL       45
REMARK 921   NORMALIZED FREE ENERGY PREDICTED BY IDOCK:   -6.44 KCAL/MOL
REMARK 922        TOTAL FREE ENERGY PREDICTED BY IDOCK:  -10.91 KCAL/MOL
REMARK 923 INTER-LIGAND FREE ENERGY PREDICTED BY IDOCK:   -9.33 KCAL/MOL
REMARK 924 INTRA-LIGAND FREE ENERGY PREDICTED BY IDOCK:   -1.58 KCAL/MOL
REMARK 927      BINDING AFFINITY PREDICTED BY RF-SCORE:    0.00 PKD
ROOT
HETATM    1  C   UNL     1     -10.073   8.703  67.169  1.00  0.00    -0.329 C  
HETATM    2  C   UNL     1      -9.268   7.862  66.105  1.00  0.00    -0.152 C  
HETATM    3  C   UNL     1     -10.457   7.846  68.382  1.00  0.00    -0.207 C  
HETATM    4  C   UNL     1      -9.072   6.357  66.392  1.00  0.00    -0.168 C  
HETATM    5  C   UNL     1     -10.253   5.717  67.096  1.00  0.00    -0.207 C  
HETATM    6  C   UNL     1     -11.499  11.550  68.414  1.00  0.00    -0.364 C  
HETATM    7  C   UNL     1      -9.488  10.115  67.540  1.00  0.00    -0.172 C  
HETATM    8  C   UNL     1     -10.613   6.508  68.306  1.00  0.00    -0.302 C  
HETATM    9  O   UNL     1     -11.361   5.613  66.218  1.00  0.00    -0.734 OA 
HETATM   10  C   UNL     1     -10.225  10.770  68.760  1.00  0.00    -0.207 C  
HETATM   11  C   UNL     1     -10.564   9.797  69.845  1.00  0.00    -0.301 C  
HETATM   12  H   UNL     1     -12.101   5.212  66.659  1.00  0.00     0.000 HD 
HETATM   13  C   UNL     1     -10.678   8.484  69.661  1.00  0.00    -0.200 C  
ENDROOT
BRANCH   2  14
HETATM   14  O   UNL     1      -8.021   8.437  65.644  1.00  0.00    -0.103 OA 
BRANCH  14  15
HETATM   15  C   UNL     1      -7.662   8.356  64.331  1.00  0.00    -0.133 C  
HETATM   16  C   UNL     1      -6.138   6.682  63.308  1.00  0.00    -0.038 C  
HETATM   17  C   UNL     1      -5.338   9.039  63.704  1.00  0.00    -0.062 C  
HETATM   18  O   UNL     1      -8.379   8.629  63.377  1.00  0.00    -0.180 OA 
HETATM   19  C   UNL     1      -6.221   7.899  64.225  1.00  0.00    -0.057 C  
HETATM   20  C   UNL     1      -5.237  10.201  64.683  1.00  0.00    -0.098 C  
ENDBRANCH  14  15
ENDBRANCH   2  14
BRANCH   7  21
HETATM   21  C   UNL     1      -9.381  11.125  66.345  1.00  0.00    -0.207 C  
BRANCH  21  22
HETATM   22  C   UNL     1     -10.358  10.722  65.219  1.00  0.00    -0.327 C  
BRANCH  22  23
HETATM   23  C   UNL     1     -10.394  11.575  63.944  1.00  0.00    -0.371 C  
HETATM   24  O   UNL     1     -10.427  10.752  62.778  1.00  0.00    -0.763 OA 
HETATM   25  H   UNL     1     -10.450  11.281  61.989  1.00  0.00     0.000 HD 
BRANCH  23  26
HETATM   26  C   UNL     1     -11.696  12.409  63.967  1.00  0.00    -0.498 C  
BRANCH  26  27
HETATM   27  C   UNL     1     -11.492  13.925  63.862  1.00  0.00    -0.034 C  
HETATM   28  O   UNL     1     -12.620  14.551  63.233  1.00  0.00    -0.934 OA 
HETATM   29  H   UNL     1     -12.493  15.490  63.167  1.00  0.00     0.000 HD 
BRANCH  27  30
HETATM   30  C   UNL     1     -11.353  14.547  65.255  1.00  0.00    -0.353 C  
HETATM   31  C   UNL     1     -10.783  15.945  65.228  1.00  0.00    -0.424 C  
HETATM   32  O   UNL     1     -11.224  16.712  64.207  1.00  0.00    -1.098 OA 
HETATM   33  O   UNL     1     -10.044  16.381  66.100  1.00  0.00    -0.309 OA 
ENDBRANCH  27  30
ENDBRANCH  26  27
ENDBRANCH  23  26
ENDBRANCH  22  23
ENDBRANCH  21  22
ENDBRANCH   7  21
TORSDOF 8
ENDMDL
MODEL       46
REMARK 921   NORMALIZED FREE ENERGY PREDICTED BY IDOCK:   -6.44 KCAL/MOL
REMARK 922        TOTAL FREE ENERGY PREDICTED BY IDOCK:  -10.91 KCAL/MOL
REMARK 923 INTER-LIGAND FREE ENERGY PREDICTED BY IDOCK:  -10.04 KCAL/MOL
REMARK 924 INTRA-LIGAND FREE ENERGY PREDICTED BY IDOCK:   -0.87 KCAL/MOL
REMARK 927      BINDING AFFINITY PREDICTED BY RF-SCORE:    0.00 PKD
ROOT
HETATM    1  C   UNL     1     -11.085  12.057  66.730  1.00  0.00    -0.353 C  
HETATM    2  C   UNL     1     -11.249  13.540  67.243  1.00  0.00    -0.298 C  
HETATM    3  C   UNL     1     -11.034  11.999  65.198  1.00  0.00    -0.359 C  
HETATM    4  C   UNL     1     -11.411  14.644  66.175  1.00  0.00    -0.350 C  
HETATM    5  C   UNL     1     -12.191  14.195  64.955  1.00  0.00    -0.438 C  
HETATM    6  C   UNL     1     -10.703   8.682  67.123  1.00  0.00    -0.199 C  
HETATM    7  C   UNL     1      -9.988  11.183  67.444  1.00  0.00    -0.204 C  
HETATM    8  C   UNL     1     -11.612  12.933  64.417  1.00  0.00    -0.415 C  
HETATM    9  O   UNL     1     -13.561  14.022  65.274  1.00  0.00    -0.469 OA 
HETATM   10  C   UNL     1      -9.748   9.812  66.720  1.00  0.00    -0.248 C  
HETATM   11  C   UNL     1      -9.762   9.915  65.227  1.00  0.00    -0.383 C  
HETATM   12  H   UNL     1     -14.051  13.741  64.510  1.00  0.00     0.000 HD 
HETATM   13  C   UNL     1     -10.356  10.897  64.552  1.00  0.00    -0.417 C  
ENDROOT
BRANCH   2  14
HETATM   14  O   UNL     1     -10.310  13.976  68.256  1.00  0.00    -0.234 OA 
BRANCH  14  15
HETATM   15  C   UNL     1      -9.183  14.661  67.911  1.00  0.00    -0.197 C  
HETATM   16  C   UNL     1      -7.363  15.392  69.436  1.00  0.00    -0.213 C  
HETATM   17  C   UNL     1      -9.028  17.072  68.565  1.00  0.00    -0.263 C  
HETATM   18  O   UNL     1      -8.569  14.541  66.858  1.00  0.00    -0.216 OA 
HETATM   19  C   UNL     1      -8.814  15.624  69.022  1.00  0.00    -0.243 C  
HETATM   20  C   UNL     1     -10.494  17.403  68.326  1.00  0.00    -0.385 C  
ENDBRANCH  14  15
ENDBRANCH   2  14
BRANCH   7  21
HETATM   21  C   UNL     1     -10.205  10.970  68.982  1.00  0.00    -0.217 C  
BRANCH  21  22
HETATM   22  C   UNL     1     -11.692  11.177  69.344  1.00  0.00    -0.402 C  
BRANCH  22  23
HETATM   23  C   UNL     1     -12.073  11.287  70.826  1.00  0.00    -0.349 C  
HETATM   24  O   UNL     1     -12.756  12.514  71.089  1.00  0.00    -0.354 OA 
HETATM   25  H   UNL     1     -12.992  12.582  72.007  1.00  0.00     0.000 HD 
BRANCH  23  26
HETATM   26  C   UNL     1     -13.046  10.131  71.154  1.00  0.00    -0.480 C  
BRANCH  26  27
HETATM   27  C   UNL     1     -12.567   9.181  72.260  1.00  0.00    -0.355 C  
HETATM   28  O   UNL     1     -13.594   8.982  73.243  1.00  0.00    -0.992 OA 
HETATM   29  H   UNL     1     -13.297   8.394  73.928  1.00  0.00     0.000 HD 
BRANCH  27  30
HETATM   30  C   UNL     1     -12.232   7.805  71.677  1.00  0.00    -0.341 C  
HETATM   31  C   UNL     1     -10.750   7.589  71.475  1.00  0.00    -0.218 C  
HETATM   32  O   UNL     1      -9.971   8.095  72.456  1.00  0.00    -0.248 OA 
HETATM   33  O   UNL     1     -10.291   6.942  70.545  1.00  0.00    -0.201 OA 
ENDBRANCH  27  30
ENDBRANCH  26  27
ENDBRANCH  23  26
ENDBRANCH  22  23
ENDBRANCH  21  22
ENDBRANCH   7  21
TORSDOF 8
ENDMDL
MODEL       47
REMARK 921   NORMALIZED FREE ENERGY PREDICTED BY IDOCK:   -6.43 KCAL/MOL
REMARK 922        TOTAL FREE ENERGY PREDICTED BY IDOCK:  -10.90 KCAL/MOL
REMARK 923 INTER-LIGAND FREE ENERGY PREDICTED BY IDOCK:   -8.81 KCAL/MOL
REMARK 924 INTRA-LIGAND FREE ENERGY PREDICTED BY IDOCK:   -2.09 KCAL/MOL
REMARK 927      BINDING AFFINITY PREDICTED BY RF-SCORE:    0.00 PKD
ROOT
HETATM    1  C   UNL     1     -10.600  10.414  66.001  1.00  0.00    -0.136 C  
HETATM    2  C   UNL     1     -11.003  11.901  65.661  1.00  0.00    -0.304 C  
HETATM    3  C   UNL     1      -9.575   9.872  64.998  1.00  0.00    -0.364 C  
HETATM    4  C   UNL     1     -10.398  12.525  64.384  1.00  0.00    -0.378 C  
HETATM    5  C   UNL     1     -10.223  11.532  63.252  1.00  0.00    -0.391 C  
HETATM    6  C   UNL     1     -10.682   7.542  67.855  1.00  0.00    -0.200 C  
HETATM    7  C   UNL     1     -10.254  10.104  67.504  1.00  0.00    -0.257 C  
HETATM    8  C   UNL     1      -9.478  10.335  63.735  1.00  0.00    -0.352 C  
HETATM    9  O   UNL     1     -11.480  11.157  62.717  1.00  0.00    -0.665 OA 
HETATM   10  C   UNL     1      -9.653   8.669  67.698  1.00  0.00    -0.190 C  
HETATM   11  C   UNL     1      -8.697   8.271  66.618  1.00  0.00    -0.150 C  
HETATM   12  H   UNL     1     -11.371  10.535  62.007  1.00  0.00     0.000 HD 
HETATM   13  C   UNL     1      -8.679   8.810  65.401  1.00  0.00    -0.217 C  
ENDROOT
BRANCH   2  14
HETATM   14  O   UNL     1     -10.925  12.852  66.752  1.00  0.00    -0.264 OA 
BRANCH  14  15
HETATM   15  C   UNL     1     -11.495  14.086  66.640  1.00  0.00    -0.364 C  
HETATM   16  C   UNL     1     -10.378  16.173  65.885  1.00  0.00    -0.384 C  
HETATM   17  C   UNL     1     -10.876  15.823  68.331  1.00  0.00    -0.297 C  
HETATM   18  O   UNL     1     -12.652  14.311  66.311  1.00  0.00    -0.416 OA 
HETATM   19  C   UNL     1     -10.480  15.149  67.012  1.00  0.00    -0.282 C  
HETATM   20  C   UNL     1     -10.803  14.876  69.521  1.00  0.00    -0.272 C  
ENDBRANCH  14  15
ENDBRANCH   2  14
BRANCH   7  21
HETATM   21  C   UNL     1     -11.420  10.362  68.521  1.00  0.00    -0.231 C  
BRANCH  21  22
HETATM   22  C   UNL     1     -10.856  10.499  69.953  1.00  0.00    -0.334 C  
BRANCH  22  23
HETATM   23  C   UNL     1     -11.767  10.132  71.133  1.00  0.00    -0.366 C  
HETATM   24  O   UNL     1     -13.101   9.881  70.691  1.00  0.00    -0.567 OA 
HETATM   25  H   UNL     1     -13.665   9.654  71.422  1.00  0.00     0.000 HD 
BRANCH  23  26
HETATM   26  C   UNL     1     -11.228   8.826  71.761  1.00  0.00    -0.410 C  
BRANCH  26  27
HETATM   27  C   UNL     1      -9.721   8.600  71.583  1.00  0.00    -0.278 C  
HETATM   28  O   UNL     1      -9.014   8.887  72.798  1.00  0.00    -0.305 OA 
HETATM   29  H   UNL     1      -8.081   8.747  72.688  1.00  0.00     0.000 HD 
BRANCH  27  30
HETATM   30  C   UNL     1      -9.436   7.137  71.232  1.00  0.00    -0.163 C  
HETATM   31  C   UNL     1      -8.082   6.932  70.593  1.00  0.00    -0.118 C  
HETATM   32  O   UNL     1      -7.093   7.687  71.118  1.00  0.00    -0.053 OA 
HETATM   33  O   UNL     1      -7.875   6.095  69.725  1.00  0.00    -0.101 OA 
ENDBRANCH  27  30
ENDBRANCH  26  27
ENDBRANCH  23  26
ENDBRANCH  22  23
ENDBRANCH  21  22
ENDBRANCH   7  21
TORSDOF 8
ENDMDL
MODEL       48
REMARK 921   NORMALIZED FREE ENERGY PREDICTED BY IDOCK:   -6.43 KCAL/MOL
REMARK 922        TOTAL FREE ENERGY PREDICTED BY IDOCK:  -10.89 KCAL/MOL
REMARK 923 INTER-LIGAND FREE ENERGY PREDICTED BY IDOCK:   -9.27 KCAL/MOL
REMARK 924 INTRA-LIGAND FREE ENERGY PREDICTED BY IDOCK:   -1.61 KCAL/MOL
REMARK 927      BINDING AFFINITY PREDICTED BY RF-SCORE:    0.00 PKD
ROOT
HETATM    1  C   UNL     1      -9.473   9.545  69.372  1.00  0.00    -0.182 C  
HETATM    2  C   UNL     1      -9.537   9.457  70.946  1.00  0.00    -0.231 C  
HETATM    3  C   UNL     1      -8.412   8.594  68.804  1.00  0.00    -0.129 C  
HETATM    4  C   UNL     1      -8.513   8.536  71.646  1.00  0.00    -0.235 C  
HETATM    5  C   UNL     1      -7.161   8.505  70.961  1.00  0.00    -0.068 C  
HETATM    6  C   UNL     1     -10.457  10.687  66.304  1.00  0.00    -0.268 C  
HETATM    7  C   UNL     1     -10.848   9.503  68.609  1.00  0.00    -0.177 C  
HETATM    8  C   UNL     1      -7.333   8.204  69.512  1.00  0.00    -0.081 C  
HETATM    9  O   UNL     1      -6.481   9.735  71.139  1.00  0.00    -0.244 OA 
HETATM   10  C   UNL     1     -10.669   9.368  67.056  1.00  0.00    -0.207 C  
HETATM   11  C   UNL     1      -9.571   8.433  66.661  1.00  0.00    -0.294 C  
HETATM   12  H   UNL     1      -5.634   9.715  70.710  1.00  0.00     0.000 HD 
HETATM   13  C   UNL     1      -8.552   8.101  67.452  1.00  0.00    -0.125 C  
ENDROOT
BRANCH   2  14
HETATM   14  O   UNL     1     -10.850   9.255  71.525  1.00  0.00    -0.339 OA 
BRANCH  14  15
HETATM   15  C   UNL     1     -11.174   8.069  72.114  1.00  0.00    -0.319 C  
HETATM   16  C   UNL     1     -11.276   5.844  71.012  1.00  0.00    -0.280 C  
HETATM   17  C   UNL     1     -13.405   7.067  71.584  1.00  0.00    -0.356 C  
HETATM   18  O   UNL     1     -10.906   7.745  73.264  1.00  0.00    -0.383 OA 
HETATM   19  C   UNL     1     -11.947   7.210  71.132  1.00  0.00    -0.381 C  
HETATM   20  C   UNL     1     -14.169   8.383  71.533  1.00  0.00    -0.471 C  
ENDBRANCH  14  15
ENDBRANCH   2  14
BRANCH   7  21
HETATM   21  C   UNL     1     -11.837  10.670  68.957  1.00  0.00    -0.256 C  
BRANCH  21  22
HETATM   22  C   UNL     1     -11.054  11.982  69.181  1.00  0.00    -0.272 C  
BRANCH  22  23
HETATM   23  C   UNL     1     -11.789  13.314  68.978  1.00  0.00    -0.321 C  
HETATM   24  O   UNL     1     -11.015  14.407  69.474  1.00  0.00    -0.289 OA 
HETATM   25  H   UNL     1     -11.470  15.231  69.348  1.00  0.00     0.000 HD 
BRANCH  23  26
HETATM   26  C   UNL     1     -11.978  13.525  67.458  1.00  0.00    -0.385 C  
BRANCH  26  27
HETATM   27  C   UNL     1     -11.057  14.581  66.836  1.00  0.00    -0.325 C  
HETATM   28  O   UNL     1      -9.677  14.231  67.024  1.00  0.00    -0.239 OA 
HETATM   29  H   UNL     1      -9.107  14.886  66.638  1.00  0.00     0.000 HD 
BRANCH  27  30
HETATM   30  C   UNL     1     -11.293  14.677  65.325  1.00  0.00    -0.354 C  
HETATM   31  C   UNL     1     -11.073  16.067  64.776  1.00  0.00    -0.365 C  
HETATM   32  O   UNL     1     -10.027  16.727  65.321  1.00  0.00    -0.546 OA 
HETATM   33  O   UNL     1     -11.733  16.534  63.858  1.00  0.00    -1.148 OA 
ENDBRANCH  27  30
ENDBRANCH  26  27
ENDBRANCH  23  26
ENDBRANCH  22  23
ENDBRANCH  21  22
ENDBRANCH   7  21
TORSDOF 8
ENDMDL
MODEL       49
REMARK 921   NORMALIZED FREE ENERGY PREDICTED BY IDOCK:   -6.42 KCAL/MOL
REMARK 922        TOTAL FREE ENERGY PREDICTED BY IDOCK:  -10.88 KCAL/MOL
REMARK 923 INTER-LIGAND FREE ENERGY PREDICTED BY IDOCK:   -9.27 KCAL/MOL
REMARK 924 INTRA-LIGAND FREE ENERGY PREDICTED BY IDOCK:   -1.61 KCAL/MOL
REMARK 927      BINDING AFFINITY PREDICTED BY RF-SCORE:    0.00 PKD
ROOT
HETATM    1  C   UNL     1     -10.213  14.573  67.846  1.00  0.00    -0.231 C  
HETATM    2  C   UNL     1     -11.099  15.440  68.823  1.00  0.00    -0.283 C  
HETATM    3  C   UNL     1      -8.786  15.126  67.748  1.00  0.00    -0.171 C  
HETATM    4  C   UNL     1     -10.450  16.701  69.435  1.00  0.00    -0.320 C  
HETATM    5  C   UNL     1      -9.487  17.401  68.497  1.00  0.00    -0.297 C  
HETATM    6  C   UNL     1      -9.615  11.959  65.725  1.00  0.00    -0.241 C  
HETATM    7  C   UNL     1     -10.286  13.012  68.029  1.00  0.00    -0.233 C  
HETATM    8  C   UNL     1      -8.495  16.425  67.966  1.00  0.00    -0.183 C  
HETATM    9  O   UNL     1     -10.188  18.028  67.437  1.00  0.00    -0.331 OA 
HETATM   10  C   UNL     1      -9.210  12.256  67.174  1.00  0.00    -0.196 C  
HETATM   11  C   UNL     1      -7.880  12.941  67.147  1.00  0.00    -0.084 C  
HETATM   12  H   UNL     1      -9.585  18.467  66.849  1.00  0.00     0.000 HD 
HETATM   13  C   UNL     1      -7.702  14.237  67.395  1.00  0.00    -0.194 C  
ENDROOT
BRANCH   2  14
HETATM   14  O   UNL     1     -11.819  14.715  69.850  1.00  0.00    -0.282 OA 
BRANCH  14  15
HETATM   15  C   UNL     1     -12.708  15.358  70.660  1.00  0.00    -0.437 C  
HETATM   16  C   UNL     1     -12.230  16.375  72.876  1.00  0.00    -0.534 C  
HETATM   17  C   UNL     1     -13.467  14.183  72.735  1.00  0.00    -0.592 C  
HETATM   18  O   UNL     1     -13.645  16.050  70.284  1.00  0.00     0.282 OA 
HETATM   19  C   UNL     1     -12.378  15.063  72.110  1.00  0.00    -0.433 C  
HETATM   20  C   UNL     1     -13.519  12.789  72.126  1.00  0.00    -0.591 C  
ENDBRANCH  14  15
ENDBRANCH   2  14
BRANCH   7  21
HETATM   21  C   UNL     1     -11.707  12.383  67.819  1.00  0.00    -0.413 C  
BRANCH  21  22
HETATM   22  C   UNL     1     -11.746  10.951  68.396  1.00  0.00    -0.290 C  
BRANCH  22  23
HETATM   23  C   UNL     1     -12.022  10.777  69.896  1.00  0.00    -0.342 C  
HETATM   24  O   UNL     1     -13.257  10.092  70.113  1.00  0.00    -0.552 OA 
HETATM   25  H   UNL     1     -13.427   9.984  71.041  1.00  0.00     0.000 HD 
BRANCH  23  26
HETATM   26  C   UNL     1     -10.892   9.904  70.488  1.00  0.00    -0.391 C  
BRANCH  26  27
HETATM   27  C   UNL     1     -11.326   8.500  70.929  1.00  0.00    -0.268 C  
HETATM   28  O   UNL     1     -11.478   7.632  69.796  1.00  0.00    -0.465 OA 
HETATM   29  H   UNL     1     -11.747   6.763  70.069  1.00  0.00     0.000 HD 
BRANCH  27  30
HETATM   30  C   UNL     1     -10.266   7.871  71.838  1.00  0.00    -0.258 C  
HETATM   31  C   UNL     1     -10.846   6.922  72.861  1.00  0.00    -0.285 C  
HETATM   32  O   UNL     1     -11.859   6.154  72.402  1.00  0.00    -0.303 OA 
HETATM   33  O   UNL     1     -10.390   6.797  73.988  1.00  0.00    -0.352 OA 
ENDBRANCH  27  30
ENDBRANCH  26  27
ENDBRANCH  23  26
ENDBRANCH  22  23
ENDBRANCH  21  22
ENDBRANCH   7  21
TORSDOF 8
ENDMDL
MODEL       50
REMARK 921   NORMALIZED FREE ENERGY PREDICTED BY IDOCK:   -6.40 KCAL/MOL
REMARK 922        TOTAL FREE ENERGY PREDICTED BY IDOCK:  -10.84 KCAL/MOL
REMARK 923 INTER-LIGAND FREE ENERGY PREDICTED BY IDOCK:   -9.08 KCAL/MOL
REMARK 924 INTRA-LIGAND FREE ENERGY PREDICTED BY IDOCK:   -1.77 KCAL/MOL
REMARK 927      BINDING AFFINITY PREDICTED BY RF-SCORE:    0.00 PKD
ROOT
HETATM    1  C   UNL     1     -10.547  16.304  67.480  1.00  0.00    -0.310 C  
HETATM    2  C   UNL     1      -9.664  17.019  68.575  1.00  0.00    -0.282 C  
HETATM    3  C   UNL     1     -10.572  17.107  66.173  1.00  0.00    -0.201 C  
HETATM    4  C   UNL     1      -9.059  18.393  68.211  1.00  0.00    -0.330 C  
HETATM    5  C   UNL     1      -9.957  19.234  67.325  1.00  0.00    -0.363 C  
HETATM    6  C   UNL     1     -12.525  13.793  66.269  1.00  0.00    -0.441 C  
HETATM    7  C   UNL     1     -10.311  14.762  67.281  1.00  0.00    -0.247 C  
HETATM    8  C   UNL     1     -10.385  18.443  66.137  1.00  0.00    -0.431 C  
HETATM    9  O   UNL     1     -11.083  19.695  68.051  1.00  0.00    -0.232 OA 
HETATM   10  C   UNL     1     -11.065  14.195  66.028  1.00  0.00    -0.314 C  
HETATM   11  C   UNL     1     -11.030  15.111  64.846  1.00  0.00    -0.434 C  
HETATM   12  H   UNL     1     -11.647  20.222  67.497  1.00  0.00     0.000 HD 
HETATM   13  C   UNL     1     -10.820  16.423  64.924  1.00  0.00    -0.268 C  
ENDROOT
BRANCH   2  14
HETATM   14  O   UNL     1      -8.660  16.200  69.224  1.00  0.00    -0.250 OA 
BRANCH  14  15
HETATM   15  C   UNL     1      -7.334  16.402  68.977  1.00  0.00    -0.221 C  
HETATM   16  C   UNL     1      -6.270  16.726  66.755  1.00  0.00    -0.187 C  
HETATM   17  C   UNL     1      -6.031  14.524  67.958  1.00  0.00    -0.158 C  
HETATM   18  O   UNL     1      -6.559  17.019  69.696  1.00  0.00    -0.234 OA 
HETATM   19  C   UNL     1      -6.950  15.718  67.679  1.00  0.00    -0.194 C  
HETATM   20  C   UNL     1      -6.733  13.405  68.716  1.00  0.00    -0.106 C  
ENDBRANCH  14  15
ENDBRANCH   2  14
BRANCH   7  21
HETATM   21  C   UNL     1     -10.590  13.879  68.547  1.00  0.00    -0.260 C  
BRANCH  21  22
HETATM   22  C   UNL     1     -10.150  12.421  68.287  1.00  0.00    -0.227 C  
BRANCH  22  23
HETATM   23  C   UNL     1     -11.012  11.286  68.855  1.00  0.00    -0.223 C  
HETATM   24  O   UNL     1     -11.850  10.725  67.843  1.00  0.00    -0.724 OA 
HETATM   25  H   UNL     1     -12.384  10.022  68.195  1.00  0.00     0.000 HD 
BRANCH  23  26
HETATM   26  C   UNL     1     -10.064  10.170  69.350  1.00  0.00    -0.250 C  
BRANCH  26  27
HETATM   27  C   UNL     1     -10.564   9.397  70.576  1.00  0.00    -0.271 C  
HETATM   28  O   UNL     1      -9.578   9.399  71.619  1.00  0.00    -0.260 OA 
HETATM   29  H   UNL     1      -9.888   8.919  72.378  1.00  0.00     0.000 HD 
BRANCH  27  30
HETATM   30  C   UNL     1     -11.824  10.054  71.148  1.00  0.00    -0.481 C  
HETATM   31  C   UNL     1     -12.678   9.102  71.953  1.00  0.00    -0.389 C  
HETATM   32  O   UNL     1     -11.981   8.236  72.722  1.00  0.00    -0.377 OA 
HETATM   33  O   UNL     1     -13.899   9.157  71.974  1.00  0.00    -0.413 OA 
ENDBRANCH  27  30
ENDBRANCH  26  27
ENDBRANCH  23  26
ENDBRANCH  22  23
ENDBRANCH  21  22
ENDBRANCH   7  21
TORSDOF 8
ENDMDL
MODEL       51
REMARK 921   NORMALIZED FREE ENERGY PREDICTED BY IDOCK:   -6.39 KCAL/MOL
REMARK 922        TOTAL FREE ENERGY PREDICTED BY IDOCK:  -10.84 KCAL/MOL
REMARK 923 INTER-LIGAND FREE ENERGY PREDICTED BY IDOCK:   -9.11 KCAL/MOL
REMARK 924 INTRA-LIGAND FREE ENERGY PREDICTED BY IDOCK:   -1.73 KCAL/MOL
REMARK 927      BINDING AFFINITY PREDICTED BY RF-SCORE:    0.00 PKD
ROOT
HETATM    1  C   UNL     1      -9.793  11.984  65.550  1.00  0.00    -0.251 C  
HETATM    2  C   UNL     1      -8.720  10.910  65.979  1.00  0.00    -0.186 C  
HETATM    3  C   UNL     1     -10.550  11.543  64.292  1.00  0.00    -0.405 C  
HETATM    4  C   UNL     1      -8.546   9.678  65.063  1.00  0.00    -0.180 C  
HETATM    5  C   UNL     1      -8.728   9.990  63.591  1.00  0.00    -0.218 C  
HETATM    6  C   UNL     1     -11.537  14.906  65.884  1.00  0.00    -0.228 C  
HETATM    7  C   UNL     1     -10.716  12.551  66.691  1.00  0.00    -0.261 C  
HETATM    8  C   UNL     1     -10.017  10.706  63.379  1.00  0.00    -0.329 C  
HETATM    9  O   UNL     1      -7.642  10.758  63.104  1.00  0.00    -0.349 OA 
HETATM   10  C   UNL     1     -11.887  13.433  66.132  1.00  0.00    -0.427 C  
HETATM   11  C   UNL     1     -12.500  12.890  64.881  1.00  0.00    -0.540 C  
HETATM   12  H   UNL     1      -7.756  10.954  62.181  1.00  0.00     0.000 HD 
HETATM   13  C   UNL     1     -11.884  12.049  64.053  1.00  0.00    -0.500 C  
ENDROOT
BRANCH   2  14
HETATM   14  O   UNL     1      -8.755  10.486  67.365  1.00  0.00    -0.126 OA 
BRANCH  14  15
HETATM   15  C   UNL     1      -7.776  10.869  68.233  1.00  0.00    -0.111 C  
HETATM   16  C   UNL     1      -6.180  12.750  67.934  1.00  0.00    -0.115 C  
HETATM   17  C   UNL     1      -5.402  10.373  67.619  1.00  0.00    -0.044 C  
HETATM   18  O   UNL     1      -7.843  10.814  69.454  1.00  0.00    -0.144 OA 
HETATM   19  C   UNL     1      -6.569  11.353  67.454  1.00  0.00    -0.090 C  
HETATM   20  C   UNL     1      -5.676   9.019  66.979  1.00  0.00    -0.045 C  
ENDBRANCH  14  15
ENDBRANCH   2  14
BRANCH   7  21
HETATM   21  C   UNL     1      -9.963  13.293  67.849  1.00  0.00    -0.233 C  
BRANCH  21  22
HETATM   22  C   UNL     1     -10.857  13.362  69.107  1.00  0.00    -0.156 C  
BRANCH  22  23
HETATM   23  C   UNL     1     -11.595  12.091  69.547  1.00  0.00    -0.321 C  
HETATM   24  O   UNL     1     -10.673  11.071  69.933  1.00  0.00    -0.447 OA 
HETATM   25  H   UNL     1     -11.131  10.285  70.206  1.00  0.00     0.000 HD 
BRANCH  23  26
HETATM   26  C   UNL     1     -12.449  12.444  70.787  1.00  0.00    -0.356 C  
BRANCH  26  27
HETATM   27  C   UNL     1     -12.413  13.922  71.195  1.00  0.00    -0.372 C  
HETATM   28  O   UNL     1     -13.228  14.715  70.318  1.00  0.00    -0.552 OA 
HETATM   29  H   UNL     1     -13.205  15.630  70.570  1.00  0.00     0.000 HD 
BRANCH  27  30
HETATM   30  C   UNL     1     -12.971  14.103  72.610  1.00  0.00    -0.505 C  
HETATM   31  C   UNL     1     -12.333  15.250  73.358  1.00  0.00    -0.506 C  
HETATM   32  O   UNL     1     -12.087  16.344  72.604  1.00  0.00    -0.520 OA 
HETATM   33  O   UNL     1     -12.127  15.228  74.563  1.00  0.00    -0.591 OA 
ENDBRANCH  27  30
ENDBRANCH  26  27
ENDBRANCH  23  26
ENDBRANCH  22  23
ENDBRANCH  21  22
ENDBRANCH   7  21
TORSDOF 8
ENDMDL
MODEL       52
REMARK 921   NORMALIZED FREE ENERGY PREDICTED BY IDOCK:   -6.38 KCAL/MOL
REMARK 922        TOTAL FREE ENERGY PREDICTED BY IDOCK:  -10.82 KCAL/MOL
REMARK 923 INTER-LIGAND FREE ENERGY PREDICTED BY IDOCK:   -9.97 KCAL/MOL
REMARK 924 INTRA-LIGAND FREE ENERGY PREDICTED BY IDOCK:   -0.85 KCAL/MOL
REMARK 927      BINDING AFFINITY PREDICTED BY RF-SCORE:    0.00 PKD
ROOT
HETATM    1  C   UNL     1      -9.414  14.934  68.257  1.00  0.00    -0.210 C  
HETATM    2  C   UNL     1      -9.738  13.412  68.520  1.00  0.00    -0.156 C  
HETATM    3  C   UNL     1      -8.077  15.099  67.524  1.00  0.00    -0.196 C  
HETATM    4  C   UNL     1      -8.673  12.377  68.096  1.00  0.00    -0.190 C  
HETATM    5  C   UNL     1      -7.250  12.868  68.273  1.00  0.00    -0.112 C  
HETATM    6  C   UNL     1     -10.064  18.288  68.355  1.00  0.00    -0.412 C  
HETATM    7  C   UNL     1     -10.581  15.812  67.672  1.00  0.00    -0.301 C  
HETATM    8  C   UNL     1      -7.082  14.193  67.613  1.00  0.00    -0.199 C  
HETATM    9  O   UNL     1      -6.917  12.948  69.648  1.00  0.00    -0.335 OA 
HETATM   10  C   UNL     1     -10.098  17.240  67.237  1.00  0.00    -0.300 C  
HETATM   11  C   UNL     1      -8.760  17.239  66.568  1.00  0.00    -0.293 C  
HETATM   12  H   UNL     1      -6.025  13.256  69.760  1.00  0.00     0.000 HD 
HETATM   13  C   UNL     1      -7.852  16.276  66.715  1.00  0.00    -0.300 C  
ENDROOT
BRANCH   2  14
HETATM   14  O   UNL     1     -11.051  12.956  68.110  1.00  0.00    -0.230 OA 
BRANCH  14  15
HETATM   15  C   UNL     1     -11.188  12.051  67.099  1.00  0.00    -0.316 C  
HETATM   16  C   UNL     1      -9.726  11.824  65.103  1.00  0.00    -0.228 C  
HETATM   17  C   UNL     1     -12.005  12.879  64.884  1.00  0.00    -0.437 C  
HETATM   18  O   UNL     1     -11.596  10.903  67.219  1.00  0.00    -0.475 OA 
HETATM   19  C   UNL     1     -10.780  12.691  65.787  1.00  0.00    -0.295 C  
HETATM   20  C   UNL     1     -12.998  13.890  65.441  1.00  0.00    -0.368 C  
ENDBRANCH  14  15
ENDBRANCH   2  14
BRANCH   7  21
HETATM   21  C   UNL     1     -11.859  15.907  68.576  1.00  0.00    -0.197 C  
BRANCH  21  22
HETATM   22  C   UNL     1     -11.478  15.704  70.059  1.00  0.00    -0.352 C  
BRANCH  22  23
HETATM   23  C   UNL     1     -12.583  15.817  71.118  1.00  0.00    -0.431 C  
HETATM   24  O   UNL     1     -13.839  15.380  70.596  1.00  0.00    -0.809 OA 
HETATM   25  H   UNL     1     -14.523  15.449  71.251  1.00  0.00     0.000 HD 
BRANCH  23  26
HETATM   26  C   UNL     1     -12.213  14.883  72.292  1.00  0.00    -0.419 C  
BRANCH  26  27
HETATM   27  C   UNL     1     -12.974  13.552  72.321  1.00  0.00    -0.296 C  
HETATM   28  O   UNL     1     -14.387  13.773  72.455  1.00  0.00    -0.664 OA 
HETATM   29  H   UNL     1     -14.858  12.948  72.473  1.00  0.00     0.000 HD 
BRANCH  27  30
HETATM   30  C   UNL     1     -12.763  12.784  71.013  1.00  0.00    -0.331 C  
HETATM   31  C   UNL     1     -12.560  11.301  71.220  1.00  0.00    -0.382 C  
HETATM   32  O   UNL     1     -13.336  10.757  72.183  1.00  0.00    -0.442 OA 
HETATM   33  O   UNL     1     -11.814  10.626  70.523  1.00  0.00    -0.301 OA 
ENDBRANCH  27  30
ENDBRANCH  26  27
ENDBRANCH  23  26
ENDBRANCH  22  23
ENDBRANCH  21  22
ENDBRANCH   7  21
TORSDOF 8
ENDMDL
MODEL       53
REMARK 921   NORMALIZED FREE ENERGY PREDICTED BY IDOCK:   -6.38 KCAL/MOL
REMARK 922        TOTAL FREE ENERGY PREDICTED BY IDOCK:  -10.82 KCAL/MOL
REMARK 923 INTER-LIGAND FREE ENERGY PREDICTED BY IDOCK:   -8.43 KCAL/MOL
REMARK 924 INTRA-LIGAND FREE ENERGY PREDICTED BY IDOCK:   -2.39 KCAL/MOL
REMARK 927      BINDING AFFINITY PREDICTED BY RF-SCORE:    0.00 PKD
ROOT
HETATM    1  C   UNL     1     -10.618  11.691  69.069  1.00  0.00    -0.188 C  
HETATM    2  C   UNL     1     -10.730  12.652  67.823  1.00  0.00    -0.220 C  
HETATM    3  C   UNL     1     -11.802  11.880  70.026  1.00  0.00    -0.407 C  
HETATM    4  C   UNL     1     -11.910  13.648  67.800  1.00  0.00    -0.403 C  
HETATM    5  C   UNL     1     -12.283  14.175  69.172  1.00  0.00    -0.255 C  
HETATM    6  C   UNL     1      -9.169   9.228  70.946  1.00  0.00    -0.300 C  
HETATM    7  C   UNL     1     -10.269  10.186  68.770  1.00  0.00    -0.200 C  
HETATM    8  C   UNL     1     -12.487  13.039  70.114  1.00  0.00    -0.166 C  
HETATM    9  O   UNL     1     -11.285  15.055  69.657  1.00  0.00    -0.248 OA 
HETATM   10  C   UNL     1     -10.404   9.274  70.038  1.00  0.00    -0.245 C  
HETATM   11  C   UNL     1     -11.588   9.607  70.890  1.00  0.00    -0.420 C  
HETATM   12  H   UNL     1     -11.519  15.386  70.517  1.00  0.00     0.000 HD 
HETATM   13  C   UNL     1     -12.202  10.788  70.886  1.00  0.00    -0.487 C  
ENDROOT
BRANCH   2  14
HETATM   14  O   UNL     1     -10.589  12.032  66.521  1.00  0.00    -0.223 OA 
BRANCH  14  15
HETATM   15  C   UNL     1     -10.527  12.795  65.392  1.00  0.00    -0.286 C  
HETATM   16  C   UNL     1     -12.339  13.128  63.725  1.00  0.00    -0.459 C  
HETATM   17  C   UNL     1     -10.393  11.620  63.187  1.00  0.00    -0.383 C  
HETATM   18  O   UNL     1      -9.906  13.843  65.271  1.00  0.00    -0.252 OA 
HETATM   19  C   UNL     1     -11.328  12.133  64.288  1.00  0.00    -0.426 C  
HETATM   20  C   UNL     1      -9.495  10.484  63.659  1.00  0.00    -0.347 C  
ENDBRANCH  14  15
ENDBRANCH   2  14
BRANCH   7  21
HETATM   21  C   UNL     1      -8.891   9.953  68.059  1.00  0.00    -0.125 C  
BRANCH  21  22
HETATM   22  C   UNL     1      -7.857  10.990  68.549  1.00  0.00    -0.129 C  
BRANCH  22  23
HETATM   23  C   UNL     1      -6.959  11.673  67.508  1.00  0.00    -0.104 C  
HETATM   24  O   UNL     1      -7.659  11.869  66.278  1.00  0.00    -0.369 OA 
HETATM   25  H   UNL     1      -7.103  12.292  65.634  1.00  0.00     0.000 HD 
BRANCH  23  26
HETATM   26  C   UNL     1      -6.574  13.067  68.055  1.00  0.00    -0.116 C  
BRANCH  26  27
HETATM   27  C   UNL     1      -7.709  14.099  68.044  1.00  0.00    -0.147 C  
HETATM   28  O   UNL     1      -8.148  14.390  69.380  1.00  0.00    -0.357 OA 
HETATM   29  H   UNL     1      -8.851  15.028  69.373  1.00  0.00     0.000 HD 
BRANCH  27  30
HETATM   30  C   UNL     1      -7.229  15.419  67.433  1.00  0.00    -0.242 C  
HETATM   31  C   UNL     1      -8.355  16.266  66.888  1.00  0.00    -0.232 C  
HETATM   32  O   UNL     1      -9.477  16.260  67.641  1.00  0.00    -0.219 OA 
HETATM   33  O   UNL     1      -8.241  16.966  65.891  1.00  0.00    -0.478 OA 
ENDBRANCH  27  30
ENDBRANCH  26  27
ENDBRANCH  23  26
ENDBRANCH  22  23
ENDBRANCH  21  22
ENDBRANCH   7  21
TORSDOF 8
ENDMDL
MODEL       54
REMARK 921   NORMALIZED FREE ENERGY PREDICTED BY IDOCK:   -6.36 KCAL/MOL
REMARK 922        TOTAL FREE ENERGY PREDICTED BY IDOCK:  -10.79 KCAL/MOL
REMARK 923 INTER-LIGAND FREE ENERGY PREDICTED BY IDOCK:   -8.97 KCAL/MOL
REMARK 924 INTRA-LIGAND FREE ENERGY PREDICTED BY IDOCK:   -1.82 KCAL/MOL
REMARK 927      BINDING AFFINITY PREDICTED BY RF-SCORE:    0.00 PKD
ROOT
HETATM    1  C   UNL     1     -11.423  11.501  70.148  1.00  0.00    -0.258 C  
HETATM    2  C   UNL     1     -11.277  12.607  69.032  1.00  0.00    -0.269 C  
HETATM    3  C   UNL     1     -12.515  11.870  71.159  1.00  0.00    -0.365 C  
HETATM    4  C   UNL     1     -12.154  13.871  69.169  1.00  0.00    -0.377 C  
HETATM    5  C   UNL     1     -12.376  14.299  70.606  1.00  0.00    -0.361 C  
HETATM    6  C   UNL     1     -10.672   8.529  71.663  1.00  0.00    -0.351 C  
HETATM    7  C   UNL     1     -11.481  10.007  69.656  1.00  0.00    -0.210 C  
HETATM    8  C   UNL     1     -12.871  13.146  71.409  1.00  0.00    -0.401 C  
HETATM    9  O   UNL     1     -11.182  14.821  71.162  1.00  0.00    -0.527 OA 
HETATM   10  C   UNL     1     -11.851   9.009  70.808  1.00  0.00    -0.251 C  
HETATM   11  C   UNL     1     -12.907   9.530  71.732  1.00  0.00    -0.496 C  
HETATM   12  H   UNL     1     -11.321  15.090  72.063  1.00  0.00     0.000 HD 
HETATM   13  C   UNL     1     -13.188  10.821  71.891  1.00  0.00    -0.524 C  
ENDROOT
BRANCH   2  14
HETATM   14  O   UNL     1     -11.303  12.141  67.660  1.00  0.00    -0.271 OA 
BRANCH  14  15
HETATM   15  C   UNL     1     -10.894  12.953  66.643  1.00  0.00    -0.267 C  
HETATM   16  C   UNL     1     -12.339  14.047  64.945  1.00  0.00    -0.447 C  
HETATM   17  C   UNL     1     -10.954  12.038  64.315  1.00  0.00    -0.401 C  
HETATM   18  O   UNL     1      -9.956  13.738  66.690  1.00  0.00    -0.264 OA 
HETATM   19  C   UNL     1     -11.765  12.717  65.425  1.00  0.00    -0.425 C  
HETATM   20  C   UNL     1     -10.523  10.625  64.681  1.00  0.00    -0.275 C  
ENDBRANCH  14  15
ENDBRANCH   2  14
BRANCH   7  21
HETATM   21  C   UNL     1     -10.212   9.514  68.877  1.00  0.00    -0.213 C  
BRANCH  21  22
HETATM   22  C   UNL     1     -10.630   8.621  67.689  1.00  0.00    -0.272 C  
BRANCH  22  23
HETATM   23  C   UNL     1     -10.479   7.100  67.831  1.00  0.00    -0.212 C  
HETATM   24  O   UNL     1     -11.645   6.424  67.359  1.00  0.00    -0.678 OA 
HETATM   25  H   UNL     1     -11.552   5.482  67.447  1.00  0.00     0.000 HD 
BRANCH  23  26
HETATM   26  C   UNL     1      -9.290   6.656  66.948  1.00  0.00    -0.171 C  
BRANCH  26  27
HETATM   27  C   UNL     1      -8.441   7.803  66.387  1.00  0.00    -0.136 C  
HETATM   28  O   UNL     1      -7.336   8.094  67.257  1.00  0.00    -0.086 OA 
HETATM   29  H   UNL     1      -6.811   8.805  66.909  1.00  0.00     0.000 HD 
BRANCH  27  30
HETATM   30  C   UNL     1      -7.852   7.419  65.026  1.00  0.00    -0.124 C  
HETATM   31  C   UNL     1      -7.547   8.614  64.153  1.00  0.00    -0.121 C  
HETATM   32  O   UNL     1      -7.037   9.677  64.813  1.00  0.00    -0.104 OA 
HETATM   33  O   UNL     1      -7.672   8.599  62.936  1.00  0.00    -0.112 OA 
ENDBRANCH  27  30
ENDBRANCH  26  27
ENDBRANCH  23  26
ENDBRANCH  22  23
ENDBRANCH  21  22
ENDBRANCH   7  21
TORSDOF 8
ENDMDL
MODEL       55
REMARK 921   NORMALIZED FREE ENERGY PREDICTED BY IDOCK:   -6.36 KCAL/MOL
REMARK 922        TOTAL FREE ENERGY PREDICTED BY IDOCK:  -10.79 KCAL/MOL
REMARK 923 INTER-LIGAND FREE ENERGY PREDICTED BY IDOCK:   -9.44 KCAL/MOL
REMARK 924 INTRA-LIGAND FREE ENERGY PREDICTED BY IDOCK:   -1.35 KCAL/MOL
REMARK 927      BINDING AFFINITY PREDICTED BY RF-SCORE:    0.00 PKD
ROOT
HETATM    1  C   UNL     1     -11.983  11.275  69.946  1.00  0.00    -0.440 C  
HETATM    2  C   UNL     1     -11.396   9.814  70.046  1.00  0.00    -0.220 C  
HETATM    3  C   UNL     1     -12.751  11.655  71.218  1.00  0.00    -0.444 C  
HETATM    4  C   UNL     1     -11.738   8.998  71.312  1.00  0.00    -0.382 C  
HETATM    5  C   UNL     1     -13.129   9.271  71.849  1.00  0.00    -0.415 C  
HETATM    6  C   UNL     1     -12.510  14.291  68.424  1.00  0.00     0.200 C  
HETATM    7  C   UNL     1     -11.006  12.393  69.426  1.00  0.00    -0.072 C  
HETATM    8  C   UNL     1     -13.331  10.737  72.018  1.00  0.00    -0.403 C  
HETATM    9  O   UNL     1     -14.113   8.727  70.987  1.00  0.00    -0.609 OA 
HETATM   10  C   UNL     1     -11.608  13.834  69.577  1.00  0.00    -0.355 C  
HETATM   11  C   UNL     1     -12.358  14.037  70.855  1.00  0.00    -0.443 C  
HETATM   12  H   UNL     1     -14.985   8.897  71.323  1.00  0.00     0.000 HD 
HETATM   13  C   UNL     1     -12.879  13.049  71.580  1.00  0.00    -0.386 C  
ENDROOT
BRANCH   2  14
HETATM   14  O   UNL     1      -9.988   9.666  69.736  1.00  0.00    -0.198 OA 
BRANCH  14  15
HETATM   15  C   UNL     1      -9.507   8.495  69.231  1.00  0.00    -0.158 C  
HETATM   16  C   UNL     1      -8.354   6.695  70.498  1.00  0.00    -0.130 C  
HETATM   17  C   UNL     1      -7.027   8.240  69.013  1.00  0.00    -0.061 C  
HETATM   18  O   UNL     1     -10.009   7.851  68.319  1.00  0.00    -0.168 OA 
HETATM   19  C   UNL     1      -8.230   8.116  69.956  1.00  0.00    -0.120 C  
HETATM   20  C   UNL     1      -6.749   9.679  68.600  1.00  0.00    -0.052 C  
ENDBRANCH  14  15
ENDBRANCH   2  14
BRANCH   7  21
HETATM   21  C   UNL     1     -10.450  12.170  67.977  1.00  0.00    -0.227 C  
BRANCH  21  22
HETATM   22  C   UNL     1      -9.034  12.771  67.852  1.00  0.00    -0.186 C  
BRANCH  22  23
HETATM   23  C   UNL     1      -8.840  14.257  68.184  1.00  0.00    -0.183 C  
HETATM   24  O   UNL     1      -7.743  14.442  69.080  1.00  0.00    -0.219 OA 
HETATM   25  H   UNL     1      -7.623  15.361  69.286  1.00  0.00     0.000 HD 
BRANCH  23  26
HETATM   26  C   UNL     1      -8.502  14.998  66.870  1.00  0.00    -0.269 C  
BRANCH  26  27
HETATM   27  C   UNL     1      -9.690  15.703  66.205  1.00  0.00    -0.318 C  
HETATM   28  O   UNL     1      -9.274  16.928  65.582  1.00  0.00    -0.512 OA 
HETATM   29  H   UNL     1     -10.010  17.365  65.170  1.00  0.00     0.000 HD 
BRANCH  27  30
HETATM   30  C   UNL     1     -10.291  14.822  65.105  1.00  0.00    -0.439 C  
HETATM   31  C   UNL     1     -11.492  15.446  64.434  1.00  0.00    -0.255 C  
HETATM   32  O   UNL     1     -11.392  16.777  64.228  1.00  0.00    -1.170 OA 
HETATM   33  O   UNL     1     -12.446  14.793  64.035  1.00  0.00    -0.803 OA 
ENDBRANCH  27  30
ENDBRANCH  26  27
ENDBRANCH  23  26
ENDBRANCH  22  23
ENDBRANCH  21  22
ENDBRANCH   7  21
TORSDOF 8
ENDMDL
MODEL       56
REMARK 921   NORMALIZED FREE ENERGY PREDICTED BY IDOCK:   -6.32 KCAL/MOL
REMARK 922        TOTAL FREE ENERGY PREDICTED BY IDOCK:  -10.74 KCAL/MOL
REMARK 923 INTER-LIGAND FREE ENERGY PREDICTED BY IDOCK:   -9.32 KCAL/MOL
REMARK 924 INTRA-LIGAND FREE ENERGY PREDICTED BY IDOCK:   -1.41 KCAL/MOL
REMARK 927      BINDING AFFINITY PREDICTED BY RF-SCORE:    0.00 PKD
ROOT
HETATM    1  C   UNL     1     -11.723  12.841  70.046  1.00  0.00    -0.282 C  
HETATM    2  C   UNL     1     -11.676  14.081  69.073  1.00  0.00    -0.330 C  
HETATM    3  C   UNL     1     -12.702  13.077  71.203  1.00  0.00    -0.372 C  
HETATM    4  C   UNL     1     -12.516  15.318  69.460  1.00  0.00    -0.122 C  
HETATM    5  C   UNL     1     -12.586  15.557  70.955  1.00  0.00    -0.454 C  
HETATM    6  C   UNL     1     -10.864   9.698  71.082  1.00  0.00    -0.404 C  
HETATM    7  C   UNL     1     -11.851  11.424  69.375  1.00  0.00    -0.419 C  
HETATM    8  C   UNL     1     -13.013  14.310  71.650  1.00  0.00    -0.420 C  
HETATM    9  O   UNL     1     -11.334  16.001  71.449  1.00  0.00    -0.385 OA 
HETATM   10  C   UNL     1     -12.117  10.285  70.421  1.00  0.00    -0.373 C  
HETATM   11  C   UNL     1     -13.066  10.682  71.507  1.00  0.00    -0.527 C  
HETATM   12  H   UNL     1     -11.377  16.152  72.386  1.00  0.00     0.000 HD 
HETATM   13  C   UNL     1     -13.312  11.942  71.859  1.00  0.00    -0.405 C  
ENDROOT
BRANCH   2  14
HETATM   14  O   UNL     1     -11.848  13.797  67.662  1.00  0.00    -0.344 OA 
BRANCH  14  15
HETATM   15  C   UNL     1     -10.858  14.087  66.770  1.00  0.00    -0.294 C  
HETATM   16  C   UNL     1     -10.859  15.925  65.098  1.00  0.00    -0.438 C  
HETATM   17  C   UNL     1     -11.257  13.548  64.359  1.00  0.00    -0.399 C  
HETATM   18  O   UNL     1      -9.657  13.954  66.967  1.00  0.00    -0.237 OA 
HETATM   19  C   UNL     1     -11.472  14.578  65.474  1.00  0.00    -0.343 C  
HETATM   20  C   UNL     1     -12.015  12.250  64.603  1.00  0.00    -0.437 C  
ENDBRANCH  14  15
ENDBRANCH   2  14
BRANCH   7  21
HETATM   21  C   UNL     1     -10.675  11.034  68.413  1.00  0.00    -0.240 C  
BRANCH  21  22
HETATM   22  C   UNL     1     -11.158  10.001  67.372  1.00  0.00    -0.157 C  
BRANCH  22  23
HETATM   23  C   UNL     1     -10.108   9.145  66.652  1.00  0.00    -0.273 C  
HETATM   24  O   UNL     1     -10.558   7.797  66.507  1.00  0.00    -0.470 OA 
HETATM   25  H   UNL     1      -9.907   7.268  66.061  1.00  0.00     0.000 HD 
BRANCH  23  26
HETATM   26  C   UNL     1      -9.909   9.728  65.234  1.00  0.00    -0.335 C  
BRANCH  26  27
HETATM   27  C   UNL     1      -8.466  10.121  64.895  1.00  0.00    -0.172 C  
HETATM   28  O   UNL     1      -8.436  11.274  64.041  1.00  0.00    -0.352 OA 
HETATM   29  H   UNL     1      -7.542  11.516  63.831  1.00  0.00     0.000 HD 
BRANCH  27  30
HETATM   30  C   UNL     1      -7.695  10.486  66.168  1.00  0.00    -0.142 C  
HETATM   31  C   UNL     1      -6.954   9.315  66.770  1.00  0.00    -0.081 C  
HETATM   32  O   UNL     1      -6.379   8.491  65.867  1.00  0.00    -0.051 OA 
HETATM   33  O   UNL     1      -6.813   9.164  67.976  1.00  0.00    -0.067 OA 
ENDBRANCH  27  30
ENDBRANCH  26  27
ENDBRANCH  23  26
ENDBRANCH  22  23
ENDBRANCH  21  22
ENDBRANCH   7  21
TORSDOF 8
ENDMDL
MODEL       57
REMARK 921   NORMALIZED FREE ENERGY PREDICTED BY IDOCK:   -6.31 KCAL/MOL
REMARK 922        TOTAL FREE ENERGY PREDICTED BY IDOCK:  -10.72 KCAL/MOL
REMARK 923 INTER-LIGAND FREE ENERGY PREDICTED BY IDOCK:   -9.44 KCAL/MOL
REMARK 924 INTRA-LIGAND FREE ENERGY PREDICTED BY IDOCK:   -1.27 KCAL/MOL
REMARK 927      BINDING AFFINITY PREDICTED BY RF-SCORE:    0.00 PKD
ROOT
HETATM    1  C   UNL     1     -10.850  10.985  65.669  1.00  0.00    -0.160 C  
HETATM    2  C   UNL     1     -11.967  12.094  65.772  1.00  0.00    -0.194 C  
HETATM    3  C   UNL     1      -9.988  11.177  64.415  1.00  0.00    -0.354 C  
HETATM    4  C   UNL     1     -12.072  13.104  64.608  1.00  0.00    -0.462 C  
HETATM    5  C   UNL     1     -11.757  12.499  63.254  1.00  0.00    -0.398 C  
HETATM    6  C   UNL     1      -9.113   8.246  66.752  1.00  0.00    -0.190 C  
HETATM    7  C   UNL     1     -10.025  10.693  66.977  1.00  0.00    -0.243 C  
HETATM    8  C   UNL     1     -10.447  11.791  63.305  1.00  0.00    -0.439 C  
HETATM    9  O   UNL     1     -12.788  11.616  62.849  1.00  0.00    -0.852 OA 
HETATM   10  C   UNL     1      -8.801   9.747  66.716  1.00  0.00    -0.151 C  
HETATM   11  C   UNL     1      -8.085  10.037  65.435  1.00  0.00    -0.143 C  
HETATM   12  H   UNL     1     -12.591  11.237  62.000  1.00  0.00     0.000 HD 
HETATM   13  C   UNL     1      -8.634  10.670  64.400  1.00  0.00    -0.110 C  
ENDROOT
BRANCH   2  14
HETATM   14  O   UNL     1     -12.059  12.797  67.036  1.00  0.00    -0.432 OA 
BRANCH  14  15
HETATM   15  C   UNL     1     -11.444  14.001  67.208  1.00  0.00    -0.348 C  
HETATM   16  C   UNL     1      -9.084  14.379  67.888  1.00  0.00    -0.187 C  
HETATM   17  C   UNL     1     -10.947  14.744  69.545  1.00  0.00    -0.287 C  
HETATM   18  O   UNL     1     -11.661  15.014  66.555  1.00  0.00    -0.302 OA 
HETATM   19  C   UNL     1     -10.459  13.909  68.356  1.00  0.00    -0.250 C  
HETATM   20  C   UNL     1     -12.222  14.192  70.168  1.00  0.00    -0.415 C  
ENDBRANCH  14  15
ENDBRANCH   2  14
BRANCH   7  21
HETATM   21  C   UNL     1     -10.871  10.186  68.197  1.00  0.00    -0.310 C  
BRANCH  21  22
HETATM   22  C   UNL     1      -9.993  10.132  69.466  1.00  0.00    -0.257 C  
BRANCH  22  23
HETATM   23  C   UNL     1      -9.834   8.785  70.186  1.00  0.00    -0.176 C  
HETATM   24  O   UNL     1      -8.455   8.465  70.372  1.00  0.00    -0.121 OA 
HETATM   25  H   UNL     1      -8.357   7.631  70.817  1.00  0.00     0.000 HD 
BRANCH  23  26
HETATM   26  C   UNL     1     -10.478   8.915  71.585  1.00  0.00    -0.408 C  
BRANCH  26  27
HETATM   27  C   UNL     1     -11.912   8.379  71.686  1.00  0.00    -0.307 C  
HETATM   28  O   UNL     1     -11.944   7.137  72.404  1.00  0.00    -0.428 OA 
HETATM   29  H   UNL     1     -12.832   6.805  72.466  1.00  0.00     0.000 HD 
BRANCH  27  30
HETATM   30  C   UNL     1     -12.800   9.364  72.453  1.00  0.00    -0.394 C  
HETATM   31  C   UNL     1     -13.110  10.619  71.671  1.00  0.00    -0.450 C  
HETATM   32  O   UNL     1     -13.336  10.418  70.354  1.00  0.00    -0.178 OA 
HETATM   33  O   UNL     1     -13.227  11.718  72.194  1.00  0.00    -0.498 OA 
ENDBRANCH  27  30
ENDBRANCH  26  27
ENDBRANCH  23  26
ENDBRANCH  22  23
ENDBRANCH  21  22
ENDBRANCH   7  21
TORSDOF 8
ENDMDL
MODEL       58
REMARK 921   NORMALIZED FREE ENERGY PREDICTED BY IDOCK:   -6.25 KCAL/MOL
REMARK 922        TOTAL FREE ENERGY PREDICTED BY IDOCK:  -10.63 KCAL/MOL
REMARK 923 INTER-LIGAND FREE ENERGY PREDICTED BY IDOCK:   -8.70 KCAL/MOL
REMARK 924 INTRA-LIGAND FREE ENERGY PREDICTED BY IDOCK:   -1.93 KCAL/MOL
REMARK 927      BINDING AFFINITY PREDICTED BY RF-SCORE:    0.00 PKD
ROOT
HETATM    1  C   UNL     1     -11.915  12.726  70.513  1.00  0.00    -0.277 C  
HETATM    2  C   UNL     1     -11.932  14.084  69.710  1.00  0.00    -0.334 C  
HETATM    3  C   UNL     1     -12.944  12.738  71.650  1.00  0.00    -0.402 C  
HETATM    4  C   UNL     1     -12.876  15.196  70.219  1.00  0.00    -0.284 C  
HETATM    5  C   UNL     1     -13.009  15.231  71.729  1.00  0.00    -0.394 C  
HETATM    6  C   UNL     1     -10.851   9.544  71.169  1.00  0.00    -0.425 C  
HETATM    7  C   UNL     1     -11.915  11.404  69.660  1.00  0.00    -0.416 C  
HETATM    8  C   UNL     1     -13.361  13.877  72.240  1.00  0.00    -0.599 C  
HETATM    9  O   UNL     1     -11.810  15.695  72.325  1.00  0.00    -0.394 OA 
HETATM   10  C   UNL     1     -12.125  10.122  70.540  1.00  0.00    -0.380 C  
HETATM   11  C   UNL     1     -13.133  10.304  71.629  1.00  0.00    -0.553 C  
HETATM   12  H   UNL     1     -11.892  15.718  73.271  1.00  0.00     0.000 HD 
HETATM   13  C   UNL     1     -13.485  11.486  72.131  1.00  0.00    -0.219 C  
ENDROOT
BRANCH   2  14
HETATM   14  O   UNL     1     -12.040  13.976  68.268  1.00  0.00    -0.355 OA 
BRANCH  14  15
HETATM   15  C   UNL     1     -10.955  14.199  67.473  1.00  0.00    -0.283 C  
HETATM   16  C   UNL     1      -8.567  14.038  68.139  1.00  0.00    -0.181 C  
HETATM   17  C   UNL     1      -9.642  16.298  67.839  1.00  0.00    -0.227 C  
HETATM   18  O   UNL     1     -10.880  13.940  66.279  1.00  0.00    -0.288 OA 
HETATM   19  C   UNL     1      -9.853  14.847  68.288  1.00  0.00    -0.218 C  
HETATM   20  C   UNL     1     -10.838  17.189  68.147  1.00  0.00    -0.316 C  
ENDBRANCH  14  15
ENDBRANCH   2  14
BRANCH   7  21
HETATM   21  C   UNL     1     -10.684  11.229  68.704  1.00  0.00    -0.241 C  
BRANCH  21  22
HETATM   22  C   UNL     1     -11.105  10.468  67.428  1.00  0.00    -0.322 C  
BRANCH  22  23
HETATM   23  C   UNL     1     -10.358   9.176  67.069  1.00  0.00    -0.263 C  
HETATM   24  O   UNL     1      -9.955   9.182  65.699  1.00  0.00    -0.447 OA 
HETATM   25  H   UNL     1      -9.492   8.382  65.477  1.00  0.00     0.000 HD 
BRANCH  23  26
HETATM   26  C   UNL     1      -9.078   9.112  67.933  1.00  0.00    -0.134 C  
BRANCH  26  27
HETATM   27  C   UNL     1      -8.512   7.702  68.142  1.00  0.00    -0.124 C  
HETATM   28  O   UNL     1      -7.811   7.612  69.392  1.00  0.00    -0.117 OA 
HETATM   29  H   UNL     1      -7.460   6.739  69.521  1.00  0.00     0.000 HD 
BRANCH  27  30
HETATM   30  C   UNL     1      -9.643   6.671  68.187  1.00  0.00    -0.120 C  
HETATM   31  C   UNL     1      -9.162   5.252  67.993  1.00  0.00    -0.113 C  
HETATM   32  O   UNL     1      -7.989   4.968  68.601  1.00  0.00    -0.084 OA 
HETATM   33  O   UNL     1      -9.814   4.402  67.402  1.00  0.00    -0.185 OA 
ENDBRANCH  27  30
ENDBRANCH  26  27
ENDBRANCH  23  26
ENDBRANCH  22  23
ENDBRANCH  21  22
ENDBRANCH   7  21
TORSDOF 8
ENDMDL
MODEL       59
REMARK 921   NORMALIZED FREE ENERGY PREDICTED BY IDOCK:   -6.25 KCAL/MOL
REMARK 922        TOTAL FREE ENERGY PREDICTED BY IDOCK:  -10.63 KCAL/MOL
REMARK 923 INTER-LIGAND FREE ENERGY PREDICTED BY IDOCK:   -8.75 KCAL/MOL
REMARK 924 INTRA-LIGAND FREE ENERGY PREDICTED BY IDOCK:   -1.88 KCAL/MOL
REMARK 927      BINDING AFFINITY PREDICTED BY RF-SCORE:    0.00 PKD
ROOT
HETATM    1  C   UNL     1     -11.919  12.924  70.502  1.00  0.00    -0.282 C  
HETATM    2  C   UNL     1     -11.889  14.311  69.751  1.00  0.00    -0.324 C  
HETATM    3  C   UNL     1     -12.932  12.937  71.654  1.00  0.00    -0.410 C  
HETATM    4  C   UNL     1     -12.778  15.442  70.314  1.00  0.00    -0.338 C  
HETATM    5  C   UNL     1     -12.891  15.425  71.826  1.00  0.00    -0.407 C  
HETATM    6  C   UNL     1     -10.983   9.678  71.025  1.00  0.00    -0.431 C  
HETATM    7  C   UNL     1     -11.986  11.637  69.601  1.00  0.00    -0.390 C  
HETATM    8  C   UNL     1     -13.293  14.069  72.291  1.00  0.00    -0.574 C  
HETATM    9  O   UNL     1     -11.666  15.816  72.422  1.00  0.00    -0.427 OA 
HETATM   10  C   UNL     1     -12.239  10.332  70.435  1.00  0.00    -0.346 C  
HETATM   11  C   UNL     1     -13.225  10.516  71.545  1.00  0.00    -0.470 C  
HETATM   12  H   UNL     1     -11.736  15.806  73.369  1.00  0.00     0.000 HD 
HETATM   13  C   UNL     1     -13.520  11.692  72.095  1.00  0.00    -0.238 C  
ENDROOT
BRANCH   2  14
HETATM   14  O   UNL     1     -12.018  14.262  68.308  1.00  0.00    -0.341 OA 
BRANCH  14  15
HETATM   15  C   UNL     1     -10.930  14.441  67.507  1.00  0.00    -0.293 C  
HETATM   16  C   UNL     1      -8.545  14.271  68.183  1.00  0.00    -0.172 C  
HETATM   17  C   UNL     1      -9.588  16.533  67.797  1.00  0.00    -0.232 C  
HETATM   18  O   UNL     1     -10.857  14.137  66.323  1.00  0.00    -0.295 OA 
HETATM   19  C   UNL     1      -9.820  15.103  68.299  1.00  0.00    -0.223 C  
HETATM   20  C   UNL     1     -10.771  17.451  68.071  1.00  0.00    -0.359 C  
ENDBRANCH  14  15
ENDBRANCH   2  14
BRANCH   7  21
HETATM   21  C   UNL     1     -10.775  11.447  68.622  1.00  0.00    -0.241 C  
BRANCH  21  22
HETATM   22  C   UNL     1     -11.263  10.862  67.279  1.00  0.00    -0.307 C  
BRANCH  22  23
HETATM   23  C   UNL     1     -10.219  10.532  66.204  1.00  0.00    -0.236 C  
HETATM   24  O   UNL     1     -10.424  11.320  65.032  1.00  0.00    -0.278 OA 
HETATM   25  H   UNL     1      -9.777  11.116  64.367  1.00  0.00     0.000 HD 
BRANCH  23  26
HETATM   26  C   UNL     1      -8.825  10.889  66.771  1.00  0.00    -0.149 C  
BRANCH  26  27
HETATM   27  C   UNL     1      -7.651  10.583  65.833  1.00  0.00    -0.148 C  
HETATM   28  O   UNL     1      -6.547  11.463  66.092  1.00  0.00    -0.352 OA 
HETATM   29  H   UNL     1      -5.820  11.274  65.511  1.00  0.00     0.000 HD 
BRANCH  27  30
HETATM   30  C   UNL     1      -7.146   9.153  66.052  1.00  0.00    -0.090 C  
HETATM   31  C   UNL     1      -7.926   8.122  65.271  1.00  0.00    -0.126 C  
HETATM   32  O   UNL     1      -8.281   8.510  64.027  1.00  0.00    -0.159 OA 
HETATM   33  O   UNL     1      -8.152   6.996  65.694  1.00  0.00    -0.115 OA 
ENDBRANCH  27  30
ENDBRANCH  26  27
ENDBRANCH  23  26
ENDBRANCH  22  23
ENDBRANCH  21  22
ENDBRANCH   7  21
TORSDOF 8
ENDMDL
MODEL       60
REMARK 921   NORMALIZED FREE ENERGY PREDICTED BY IDOCK:   -6.21 KCAL/MOL
REMARK 922        TOTAL FREE ENERGY PREDICTED BY IDOCK:  -10.58 KCAL/MOL
REMARK 923 INTER-LIGAND FREE ENERGY PREDICTED BY IDOCK:   -8.59 KCAL/MOL
REMARK 924 INTRA-LIGAND FREE ENERGY PREDICTED BY IDOCK:   -1.98 KCAL/MOL
REMARK 927      BINDING AFFINITY PREDICTED BY RF-SCORE:    0.00 PKD
ROOT
HETATM    1  C   UNL     1     -11.699  12.770  70.146  1.00  0.00    -0.239 C  
HETATM    2  C   UNL     1     -11.644  13.997  69.155  1.00  0.00    -0.313 C  
HETATM    3  C   UNL     1     -12.735  12.995  71.254  1.00  0.00    -0.385 C  
HETATM    4  C   UNL     1     -12.537  15.214  69.484  1.00  0.00    -0.024 C  
HETATM    5  C   UNL     1     -12.681  15.474  70.971  1.00  0.00    -0.467 C  
HETATM    6  C   UNL     1     -10.796   9.671  71.271  1.00  0.00    -0.366 C  
HETATM    7  C   UNL     1     -11.756  11.340  69.493  1.00  0.00    -0.415 C  
HETATM    8  C   UNL     1     -13.102  14.225  71.667  1.00  0.00    -0.417 C  
HETATM    9  O   UNL     1     -11.466  15.963  71.512  1.00  0.00    -0.402 OA 
HETATM   10  C   UNL     1     -12.034  10.211  70.545  1.00  0.00    -0.400 C  
HETATM   11  C   UNL     1     -13.042  10.596  71.581  1.00  0.00    -0.555 C  
HETATM   12  H   UNL     1     -11.556  16.126  72.443  1.00  0.00     0.000 HD 
HETATM   13  C   UNL     1     -13.341  11.853  71.902  1.00  0.00    -0.405 C  
ENDROOT
BRANCH   2  14
HETATM   14  O   UNL     1     -11.744  13.686  67.743  1.00  0.00    -0.320 OA 
BRANCH  14  15
HETATM   15  C   UNL     1     -10.748  14.040  66.882  1.00  0.00    -0.285 C  
HETATM   16  C   UNL     1     -10.776  15.937  65.277  1.00  0.00    -0.442 C  
HETATM   17  C   UNL     1     -11.083  13.577  64.446  1.00  0.00    -0.397 C  
HETATM   18  O   UNL     1      -9.547  13.938  67.098  1.00  0.00    -0.231 OA 
HETATM   19  C   UNL     1     -11.353  14.558  65.592  1.00  0.00    -0.336 C  
HETATM   20  C   UNL     1     -11.803  12.248  64.627  1.00  0.00    -0.435 C  
ENDBRANCH  14  15
ENDBRANCH   2  14
BRANCH   7  21
HETATM   21  C   UNL     1     -10.526  10.972  68.592  1.00  0.00    -0.214 C  
BRANCH  21  22
HETATM   22  C   UNL     1     -10.947   9.954  67.508  1.00  0.00    -0.239 C  
BRANCH  22  23
HETATM   23  C   UNL     1     -10.211   8.609  67.447  1.00  0.00    -0.262 C  
HETATM   24  O   UNL     1      -9.955   8.227  66.094  1.00  0.00    -0.455 OA 
HETATM   25  H   UNL     1      -9.499   7.395  66.056  1.00  0.00     0.000 HD 
BRANCH  23  26
HETATM   26  C   UNL     1      -8.846   8.781  68.152  1.00  0.00    -0.141 C  
BRANCH  26  27
HETATM   27  C   UNL     1      -8.223   7.480  68.674  1.00  0.00    -0.129 C  
HETATM   28  O   UNL     1      -8.921   6.336  68.160  1.00  0.00    -0.117 OA 
HETATM   29  H   UNL     1      -8.535   5.531  68.484  1.00  0.00     0.000 HD 
BRANCH  27  30
HETATM   30  C   UNL     1      -6.766   7.361  68.216  1.00  0.00    -0.054 C  
HETATM   31  C   UNL     1      -6.613   6.613  66.912  1.00  0.00    -0.048 C  
HETATM   32  O   UNL     1      -7.570   6.879  65.996  1.00  0.00    -0.087 OA 
HETATM   33  O   UNL     1      -5.660   5.887  66.668  1.00  0.00    -0.012 OA 
ENDBRANCH  27  30
ENDBRANCH  26  27
ENDBRANCH  23  26
ENDBRANCH  22  23
ENDBRANCH  21  22
ENDBRANCH   7  21
TORSDOF 8
ENDMDL
MODEL       61
REMARK 921   NORMALIZED FREE ENERGY PREDICTED BY IDOCK:   -6.19 KCAL/MOL
REMARK 922        TOTAL FREE ENERGY PREDICTED BY IDOCK:  -10.53 KCAL/MOL
REMARK 923 INTER-LIGAND FREE ENERGY PREDICTED BY IDOCK:   -9.51 KCAL/MOL
REMARK 924 INTRA-LIGAND FREE ENERGY PREDICTED BY IDOCK:   -1.03 KCAL/MOL
REMARK 927      BINDING AFFINITY PREDICTED BY RF-SCORE:    0.00 PKD
ROOT
HETATM    1  C   UNL     1     -11.711  12.399  69.503  1.00  0.00    -0.388 C  
HETATM    2  C   UNL     1     -11.767  13.268  68.188  1.00  0.00    -0.362 C  
HETATM    3  C   UNL     1     -12.385  13.121  70.677  1.00  0.00    -0.405 C  
HETATM    4  C   UNL     1     -12.384  14.680  68.297  1.00  0.00     0.041 C  
HETATM    5  C   UNL     1     -12.099  15.363  69.620  1.00  0.00    -0.327 C  
HETATM    6  C   UNL     1     -10.937   9.615  71.331  1.00  0.00    -0.354 C  
HETATM    7  C   UNL     1     -12.115  10.884  69.364  1.00  0.00    -0.362 C  
HETATM    8  C   UNL     1     -12.475  14.464  70.748  1.00  0.00    -0.423 C  
HETATM    9  O   UNL     1     -10.734  15.732  69.708  1.00  0.00    -0.263 OA 
HETATM   10  C   UNL     1     -12.246  10.167  70.753  1.00  0.00    -0.434 C  
HETATM   11  C   UNL     1     -12.890  11.015  71.803  1.00  0.00    -0.496 C  
HETATM   12  H   UNL     1     -10.555  16.161  70.537  1.00  0.00     0.000 HD 
HETATM   13  C   UNL     1     -12.936  12.345  71.765  1.00  0.00    -0.422 C  
ENDROOT
BRANCH   2  14
HETATM   14  O   UNL     1     -12.271  12.606  67.001  1.00  0.00    -0.466 OA 
BRANCH  14  15
HETATM   15  C   UNL     1     -12.458  13.302  65.844  1.00  0.00    -0.368 C  
HETATM   16  C   UNL     1     -11.810  12.580  63.557  1.00  0.00    -0.616 C  
HETATM   17  C   UNL     1     -10.454  14.333  64.757  1.00  0.00    -0.421 C  
HETATM   18  O   UNL     1     -13.409  14.032  65.595  1.00  0.00    -0.636 OA 
HETATM   19  C   UNL     1     -11.289  13.056  64.911  1.00  0.00    -0.332 C  
HETATM   20  C   UNL     1      -9.755  14.737  66.049  1.00  0.00    -0.350 C  
ENDBRANCH  14  15
ENDBRANCH   2  14
BRANCH   7  21
HETATM   21  C   UNL     1     -11.220  10.046  68.385  1.00  0.00    -0.187 C  
BRANCH  21  22
HETATM   22  C   UNL     1      -9.785  10.614  68.358  1.00  0.00    -0.172 C  
BRANCH  22  23
HETATM   23  C   UNL     1      -8.652   9.709  67.855  1.00  0.00    -0.122 C  
HETATM   24  O   UNL     1      -7.447  10.453  67.667  1.00  0.00    -0.088 OA 
HETATM   25  H   UNL     1      -6.746   9.892  67.356  1.00  0.00     0.000 HD 
BRANCH  23  26
HETATM   26  C   UNL     1      -8.379   8.642  68.940  1.00  0.00    -0.124 C  
BRANCH  26  27
HETATM   27  C   UNL     1      -8.518   7.190  68.465  1.00  0.00    -0.125 C  
HETATM   28  O   UNL     1      -7.237   6.546  68.405  1.00  0.00    -0.080 OA 
HETATM   29  H   UNL     1      -7.323   5.648  68.110  1.00  0.00     0.000 HD 
BRANCH  27  30
HETATM   30  C   UNL     1      -9.379   6.385  69.443  1.00  0.00    -0.143 C  
HETATM   31  C   UNL     1     -10.849   6.404  69.096  1.00  0.00    -0.322 C  
HETATM   32  O   UNL     1     -11.114   6.329  67.773  1.00  0.00    -0.334 OA 
HETATM   33  O   UNL     1     -11.734   6.404  69.940  1.00  0.00    -0.426 OA 
ENDBRANCH  27  30
ENDBRANCH  26  27
ENDBRANCH  23  26
ENDBRANCH  22  23
ENDBRANCH  21  22
ENDBRANCH   7  21
TORSDOF 8
ENDMDL
MODEL       62
REMARK 921   NORMALIZED FREE ENERGY PREDICTED BY IDOCK:   -6.17 KCAL/MOL
REMARK 922        TOTAL FREE ENERGY PREDICTED BY IDOCK:  -10.51 KCAL/MOL
REMARK 923 INTER-LIGAND FREE ENERGY PREDICTED BY IDOCK:   -9.03 KCAL/MOL
REMARK 924 INTRA-LIGAND FREE ENERGY PREDICTED BY IDOCK:   -1.48 KCAL/MOL
REMARK 927      BINDING AFFINITY PREDICTED BY RF-SCORE:    0.00 PKD
ROOT
HETATM    1  C   UNL     1      -8.373  14.987  67.496  1.00  0.00    -0.192 C  
HETATM    2  C   UNL     1      -8.803  13.499  67.200  1.00  0.00    -0.226 C  
HETATM    3  C   UNL     1      -6.846  15.121  67.572  1.00  0.00    -0.203 C  
HETATM    4  C   UNL     1      -7.682  12.439  67.120  1.00  0.00    -0.122 C  
HETATM    5  C   UNL     1      -6.537  12.698  68.080  1.00  0.00    -0.095 C  
HETATM    6  C   UNL     1      -8.944  18.312  68.051  1.00  0.00    -0.301 C  
HETATM    7  C   UNL     1      -9.074  16.107  66.642  1.00  0.00    -0.282 C  
HETATM    8  C   UNL     1      -6.044  14.094  67.919  1.00  0.00    -0.154 C  
HETATM    9  O   UNL     1      -6.943  12.462  69.417  1.00  0.00    -0.286 OA 
HETATM   10  C   UNL     1      -8.421  17.518  66.848  1.00  0.00    -0.261 C  
HETATM   11  C   UNL     1      -6.928  17.477  66.939  1.00  0.00    -0.219 C  
HETATM   12  H   UNL     1      -6.226  12.623  70.019  1.00  0.00     0.000 HD 
HETATM   13  C   UNL     1      -6.230  16.396  67.279  1.00  0.00    -0.212 C  
ENDROOT
BRANCH   2  14
HETATM   14  O   UNL     1      -9.735  13.306  66.107  1.00  0.00    -0.281 OA 
BRANCH  14  15
HETATM   15  C   UNL     1     -10.364  12.109  65.934  1.00  0.00    -0.255 C  
HETATM   16  C   UNL     1      -9.642  10.254  64.446  1.00  0.00    -0.378 C  
HETATM   17  C   UNL     1     -11.580  11.722  63.782  1.00  0.00    -0.508 C  
HETATM   18  O   UNL     1     -10.971  11.489  66.798  1.00  0.00    -0.270 OA 
HETATM   19  C   UNL     1     -10.222  11.665  64.491  1.00  0.00    -0.337 C  
HETATM   20  C   UNL     1     -12.107  13.142  63.632  1.00  0.00    -0.583 C  
ENDBRANCH  14  15
ENDBRANCH   2  14
BRANCH   7  21
HETATM   21  C   UNL     1     -10.632  16.185  66.800  1.00  0.00    -0.277 C  
BRANCH  21  22
HETATM   22  C   UNL     1     -11.028  15.980  68.278  1.00  0.00    -0.335 C  
BRANCH  22  23
HETATM   23  C   UNL     1     -12.116  14.948  68.606  1.00  0.00    -0.170 C  
HETATM   24  O   UNL     1     -11.549  13.651  68.800  1.00  0.00    -0.276 OA 
HETATM   25  H   UNL     1     -12.222  13.012  69.003  1.00  0.00     0.000 HD 
BRANCH  23  26
HETATM   26  C   UNL     1     -12.786  15.369  69.934  1.00  0.00    -0.011 C  
BRANCH  26  27
HETATM   27  C   UNL     1     -11.868  15.321  71.162  1.00  0.00    -0.348 C  
HETATM   28  O   UNL     1     -11.417  16.638  71.515  1.00  0.00    -0.522 OA 
HETATM   29  H   UNL     1     -10.849  16.608  72.275  1.00  0.00     0.000 HD 
BRANCH  27  30
HETATM   30  C   UNL     1     -12.622  14.766  72.374  1.00  0.00    -0.421 C  
HETATM   31  C   UNL     1     -13.332  13.463  72.087  1.00  0.00    -0.520 C  
HETATM   32  O   UNL     1     -12.645  12.612  71.294  1.00  0.00    -0.350 OA 
HETATM   33  O   UNL     1     -14.405  13.163  72.592  1.00  0.00    -0.636 OA 
ENDBRANCH  27  30
ENDBRANCH  26  27
ENDBRANCH  23  26
ENDBRANCH  22  23
ENDBRANCH  21  22
ENDBRANCH   7  21
TORSDOF 8
ENDMDL
MODEL       63
REMARK 921   NORMALIZED FREE ENERGY PREDICTED BY IDOCK:   -6.15 KCAL/MOL
REMARK 922        TOTAL FREE ENERGY PREDICTED BY IDOCK:  -10.48 KCAL/MOL
REMARK 923 INTER-LIGAND FREE ENERGY PREDICTED BY IDOCK:   -8.82 KCAL/MOL
REMARK 924 INTRA-LIGAND FREE ENERGY PREDICTED BY IDOCK:   -1.66 KCAL/MOL
REMARK 927      BINDING AFFINITY PREDICTED BY RF-SCORE:    0.00 PKD
ROOT
HETATM    1  C   UNL     1     -10.586   8.790  67.993  1.00  0.00    -0.218 C  
HETATM    2  C   UNL     1      -9.747   8.406  66.713  1.00  0.00    -0.242 C  
HETATM    3  C   UNL     1     -10.677   7.614  68.973  1.00  0.00    -0.134 C  
HETATM    4  C   UNL     1      -9.242   6.950  66.608  1.00  0.00    -0.185 C  
HETATM    5  C   UNL     1     -10.204   5.933  67.190  1.00  0.00    -0.203 C  
HETATM    6  C   UNL     1     -12.393  10.909  69.976  1.00  0.00    -0.385 C  
HETATM    7  C   UNL     1     -10.244  10.167  68.673  1.00  0.00    -0.193 C  
HETATM    8  C   UNL     1     -10.584   6.328  68.576  1.00  0.00    -0.315 C  
HETATM    9  O   UNL     1     -11.353   5.808  66.372  1.00  0.00    -0.723 OA 
HETATM   10  C   UNL     1     -10.967  10.352  70.052  1.00  0.00    -0.370 C  
HETATM   11  C   UNL     1     -11.005   9.105  70.878  1.00  0.00    -0.349 C  
HETATM   12  H   UNL     1     -11.957   5.170  66.736  1.00  0.00     0.000 HD 
HETATM   13  C   UNL     1     -10.886   7.876  70.379  1.00  0.00    -0.244 C  
ENDROOT
BRANCH   2  14
HETATM   14  O   UNL     1      -8.683   9.319  66.347  1.00  0.00    -0.127 OA 
BRANCH  14  15
HETATM   15  C   UNL     1      -8.355   9.513  65.038  1.00  0.00    -0.143 C  
HETATM   16  C   UNL     1      -7.107   7.942  63.572  1.00  0.00    -0.079 C  
HETATM   17  C   UNL     1      -5.961   9.993  64.486  1.00  0.00    -0.120 C  
HETATM   18  O   UNL     1      -9.033  10.110  64.212  1.00  0.00    -0.196 OA 
HETATM   19  C   UNL     1      -6.998   8.896  64.758  1.00  0.00    -0.076 C  
HETATM   20  C   UNL     1      -5.679  10.853  65.710  1.00  0.00    -0.127 C  
ENDBRANCH  14  15
ENDBRANCH   2  14
BRANCH   7  21
HETATM   21  C   UNL     1     -10.451  11.427  67.762  1.00  0.00    -0.215 C  
BRANCH  21  22
HETATM   22  C   UNL     1      -9.748  12.654  68.383  1.00  0.00    -0.187 C  
BRANCH  22  23
HETATM   23  C   UNL     1      -9.948  14.023  67.719  1.00  0.00    -0.236 C  
HETATM   24  O   UNL     1      -9.103  15.009  68.313  1.00  0.00    -0.173 OA 
HETATM   25  H   UNL     1      -9.227  15.856  67.902  1.00  0.00     0.000 HD 
BRANCH  23  26
HETATM   26  C   UNL     1      -9.543  13.894  66.232  1.00  0.00    -0.274 C  
BRANCH  26  27
HETATM   27  C   UNL     1     -10.652  14.242  65.231  1.00  0.00    -0.381 C  
HETATM   28  O   UNL     1     -10.298  15.399  64.458  1.00  0.00    -0.515 OA 
HETATM   29  H   UNL     1     -10.985  15.615  63.838  1.00  0.00     0.000 HD 
BRANCH  27  30
HETATM   30  C   UNL     1     -10.864  13.091  64.243  1.00  0.00    -0.430 C  
HETATM   31  C   UNL     1     -12.249  13.072  63.640  1.00  0.00    -0.491 C  
HETATM   32  O   UNL     1     -12.749  14.292  63.345  1.00  0.00    -0.733 OA 
HETATM   33  O   UNL     1     -12.842  12.039  63.365  1.00  0.00    -0.760 OA 
ENDBRANCH  27  30
ENDBRANCH  26  27
ENDBRANCH  23  26
ENDBRANCH  22  23
ENDBRANCH  21  22
ENDBRANCH   7  21
TORSDOF 8
ENDMDL
MODEL       64
REMARK 921   NORMALIZED FREE ENERGY PREDICTED BY IDOCK:   -6.13 KCAL/MOL
REMARK 922        TOTAL FREE ENERGY PREDICTED BY IDOCK:  -10.45 KCAL/MOL
REMARK 923 INTER-LIGAND FREE ENERGY PREDICTED BY IDOCK:   -9.12 KCAL/MOL
REMARK 924 INTRA-LIGAND FREE ENERGY PREDICTED BY IDOCK:   -1.33 KCAL/MOL
REMARK 927      BINDING AFFINITY PREDICTED BY RF-SCORE:    0.00 PKD
ROOT
HETATM    1  C   UNL     1      -8.329  16.475  67.573  1.00  0.00    -0.179 C  
HETATM    2  C   UNL     1      -8.201  14.903  67.559  1.00  0.00    -0.182 C  
HETATM    3  C   UNL     1      -6.977  17.147  67.300  1.00  0.00    -0.196 C  
HETATM    4  C   UNL     1      -6.789  14.309  67.368  1.00  0.00    -0.042 C  
HETATM    5  C   UNL     1      -5.694  15.131  68.018  1.00  0.00    -0.139 C  
HETATM    6  C   UNL     1     -10.029  19.430  67.832  1.00  0.00    -0.483 C  
HETATM    7  C   UNL     1      -9.528  17.091  66.761  1.00  0.00    -0.270 C  
HETATM    8  C   UNL     1      -5.801  16.553  67.586  1.00  0.00    -0.163 C  
HETATM    9  O   UNL     1      -5.765  15.030  69.430  1.00  0.00    -0.098 OA 
HETATM   10  C   UNL     1      -9.438  18.653  66.649  1.00  0.00    -0.328 C  
HETATM   11  C   UNL     1      -8.048  19.156  66.419  1.00  0.00    -0.319 C  
HETATM   12  H   UNL     1      -5.079  15.545  69.838  1.00  0.00     0.000 HD 
HETATM   13  C   UNL     1      -6.947  18.474  66.728  1.00  0.00    -0.215 C  
ENDROOT
BRANCH   2  14
HETATM   14  O   UNL     1      -9.148  14.189  66.725  1.00  0.00    -0.254 OA 
BRANCH  14  15
HETATM   15  C   UNL     1      -9.740  13.045  67.170  1.00  0.00    -0.230 C  
HETATM   16  C   UNL     1      -9.853  10.870  65.975  1.00  0.00    -0.280 C  
HETATM   17  C   UNL     1     -11.893  12.346  66.102  1.00  0.00    -0.442 C  
HETATM   18  O   UNL     1      -9.787  12.672  68.335  1.00  0.00    -0.226 OA 
HETATM   19  C   UNL     1     -10.363  12.309  66.001  1.00  0.00    -0.273 C  
HETATM   20  C   UNL     1     -12.459  13.749  65.938  1.00  0.00    -0.512 C  
ENDBRANCH  14  15
ENDBRANCH   2  14
BRANCH   7  21
HETATM   21  C   UNL     1     -10.954  16.648  67.242  1.00  0.00    -0.064 C  
BRANCH  21  22
HETATM   22  C   UNL     1     -11.009  16.617  68.785  1.00  0.00    -0.309 C  
BRANCH  22  23
HETATM   23  C   UNL     1     -11.193  15.261  69.481  1.00  0.00    -0.281 C  
HETATM   24  O   UNL     1     -10.094  14.977  70.347  1.00  0.00    -0.491 OA 
HETATM   25  H   UNL     1     -10.208  14.138  70.778  1.00  0.00     0.000 HD 
BRANCH  23  26
HETATM   26  C   UNL     1     -12.467  15.344  70.353  1.00  0.00    -0.447 C  
BRANCH  26  27
HETATM   27  C   UNL     1     -12.829  14.049  71.090  1.00  0.00    -0.357 C  
HETATM   28  O   UNL     1     -12.028  12.953  70.620  1.00  0.00    -0.508 OA 
HETATM   29  H   UNL     1     -12.253  12.151  71.076  1.00  0.00     0.000 HD 
BRANCH  27  30
HETATM   30  C   UNL     1     -12.559  14.191  72.591  1.00  0.00    -0.272 C  
HETATM   31  C   UNL     1     -13.105  15.473  73.174  1.00  0.00    -0.545 C  
HETATM   32  O   UNL     1     -14.308  15.845  72.684  1.00  0.00    -0.476 OA 
HETATM   33  O   UNL     1     -12.547  16.087  74.073  1.00  0.00    -0.540 OA 
ENDBRANCH  27  30
ENDBRANCH  26  27
ENDBRANCH  23  26
ENDBRANCH  22  23
ENDBRANCH  21  22
ENDBRANCH   7  21
TORSDOF 8
ENDMDL
MODEL       65
REMARK 921   NORMALIZED FREE ENERGY PREDICTED BY IDOCK:   -6.12 KCAL/MOL
REMARK 922        TOTAL FREE ENERGY PREDICTED BY IDOCK:  -10.44 KCAL/MOL
REMARK 923 INTER-LIGAND FREE ENERGY PREDICTED BY IDOCK:   -8.71 KCAL/MOL
REMARK 924 INTRA-LIGAND FREE ENERGY PREDICTED BY IDOCK:   -1.74 KCAL/MOL
REMARK 927      BINDING AFFINITY PREDICTED BY RF-SCORE:    0.00 PKD
ROOT
HETATM    1  C   UNL     1     -10.480  16.345  67.601  1.00  0.00    -0.302 C  
HETATM    2  C   UNL     1      -9.595  16.991  68.736  1.00  0.00    -0.269 C  
HETATM    3  C   UNL     1     -10.437  17.183  66.317  1.00  0.00    -0.260 C  
HETATM    4  C   UNL     1      -8.921  18.346  68.425  1.00  0.00    -0.336 C  
HETATM    5  C   UNL     1      -9.760  19.249  67.541  1.00  0.00    -0.323 C  
HETATM    6  C   UNL     1     -12.533  13.955  66.274  1.00  0.00    -0.454 C  
HETATM    7  C   UNL     1     -10.306  14.799  67.366  1.00  0.00    -0.242 C  
HETATM    8  C   UNL     1     -10.192  18.509  66.322  1.00  0.00    -0.446 C  
HETATM    9  O   UNL     1     -10.883  19.740  68.252  1.00  0.00    -0.344 OA 
HETATM   10  C   UNL     1     -11.052  14.299  66.080  1.00  0.00    -0.324 C  
HETATM   11  C   UNL     1     -10.947  15.243  64.925  1.00  0.00    -0.445 C  
HETATM   12  H   UNL     1     -11.409  20.306  67.699  1.00  0.00     0.000 HD 
HETATM   13  C   UNL     1     -10.683  16.543  65.044  1.00  0.00    -0.228 C  
ENDROOT
BRANCH   2  14
HETATM   14  O   UNL     1      -8.644  16.112  69.387  1.00  0.00    -0.227 OA 
BRANCH  14  15
HETATM   15  C   UNL     1      -7.306  16.244  69.156  1.00  0.00    -0.218 C  
HETATM   16  C   UNL     1      -6.215  16.717  66.975  1.00  0.00    -0.221 C  
HETATM   17  C   UNL     1      -6.135  14.393  67.947  1.00  0.00    -0.161 C  
HETATM   18  O   UNL     1      -6.492  16.729  69.932  1.00  0.00    -0.190 OA 
HETATM   19  C   UNL     1      -6.967  15.671  67.794  1.00  0.00    -0.179 C  
HETATM   20  C   UNL     1      -6.916  13.255  68.589  1.00  0.00    -0.101 C  
ENDBRANCH  14  15
ENDBRANCH   2  14
BRANCH   7  21
HETATM   21  C   UNL     1     -10.654  13.896  68.600  1.00  0.00    -0.265 C  
BRANCH  21  22
HETATM   22  C   UNL     1     -10.409  12.410  68.258  1.00  0.00    -0.232 C  
BRANCH  22  23
HETATM   23  C   UNL     1     -11.137  11.342  69.085  1.00  0.00    -0.253 C  
HETATM   24  O   UNL     1     -12.242  10.799  68.362  1.00  0.00    -0.832 OA 
HETATM   25  H   UNL     1     -12.692  10.137  68.874  1.00  0.00     0.000 HD 
BRANCH  23  26
HETATM   26  C   UNL     1     -10.141  10.190  69.354  1.00  0.00    -0.250 C  
BRANCH  26  27
HETATM   27  C   UNL     1     -10.748   8.783  69.276  1.00  0.00    -0.151 C  
HETATM   28  O   UNL     1     -10.999   8.410  67.913  1.00  0.00    -0.480 OA 
HETATM   29  H   UNL     1     -11.375   7.539  67.864  1.00  0.00     0.000 HD 
BRANCH  27  30
HETATM   30  C   UNL     1      -9.779   7.747  69.854  1.00  0.00    -0.176 C  
HETATM   31  C   UNL     1     -10.478   6.559  70.473  1.00  0.00    -0.207 C  
HETATM   32  O   UNL     1     -11.567   6.134  69.797  1.00  0.00    -0.405 OA 
HETATM   33  O   UNL     1     -10.052   5.976  71.460  1.00  0.00    -0.185 OA 
ENDBRANCH  27  30
ENDBRANCH  26  27
ENDBRANCH  23  26
ENDBRANCH  22  23
ENDBRANCH  21  22
ENDBRANCH   7  21
TORSDOF 8
ENDMDL
MODEL       66
REMARK 921   NORMALIZED FREE ENERGY PREDICTED BY IDOCK:   -6.11 KCAL/MOL
REMARK 922        TOTAL FREE ENERGY PREDICTED BY IDOCK:  -10.43 KCAL/MOL
REMARK 923 INTER-LIGAND FREE ENERGY PREDICTED BY IDOCK:   -9.19 KCAL/MOL
REMARK 924 INTRA-LIGAND FREE ENERGY PREDICTED BY IDOCK:   -1.24 KCAL/MOL
REMARK 927      BINDING AFFINITY PREDICTED BY RF-SCORE:    0.00 PKD
ROOT
HETATM    1  C   UNL     1     -11.538  11.800  69.404  1.00  0.00    -0.386 C  
HETATM    2  C   UNL     1     -11.007  10.360  69.769  1.00  0.00    -0.293 C  
HETATM    3  C   UNL     1     -12.372  12.393  70.547  1.00  0.00    -0.346 C  
HETATM    4  C   UNL     1     -11.457   9.760  71.120  1.00  0.00    -0.472 C  
HETATM    5  C   UNL     1     -12.870  10.146  71.511  1.00  0.00    -0.443 C  
HETATM    6  C   UNL     1     -11.863  14.552  67.402  1.00  0.00    -0.416 C  
HETATM    7  C   UNL     1     -10.492  12.800  68.787  1.00  0.00    -0.179 C  
HETATM    8  C   UNL     1     -13.033  11.625  71.437  1.00  0.00    -0.426 C  
HETATM    9  O   UNL     1     -13.814   9.497  70.678  1.00  0.00    -0.554 OA 
HETATM   10  C   UNL     1     -11.053  14.260  68.671  1.00  0.00    -0.273 C  
HETATM   11  C   UNL     1     -11.876  14.678  69.848  1.00  0.00    -0.372 C  
HETATM   12  H   UNL     1     -14.700   9.738  70.923  1.00  0.00     0.000 HD 
HETATM   13  C   UNL     1     -12.476  13.829  70.678  1.00  0.00    -0.429 C  
ENDROOT
BRANCH   2  14
HETATM   14  O   UNL     1      -9.588  10.132  69.584  1.00  0.00    -0.225 OA 
BRANCH  14  15
HETATM   15  C   UNL     1      -9.145   9.172  68.723  1.00  0.00    -0.136 C  
HETATM   16  C   UNL     1     -10.499   7.956  67.031  1.00  0.00    -0.419 C  
HETATM   17  C   UNL     1      -9.815   6.801  69.165  1.00  0.00    -0.161 C  
HETATM   18  O   UNL     1      -8.038   9.134  68.204  1.00  0.00    -0.103 OA 
HETATM   19  C   UNL     1     -10.230   8.131  68.524  1.00  0.00    -0.233 C  
HETATM   20  C   UNL     1      -9.723   6.883  70.682  1.00  0.00    -0.180 C  
ENDBRANCH  14  15
ENDBRANCH   2  14
BRANCH   7  21
HETATM   21  C   UNL     1      -9.852  12.339  67.431  1.00  0.00    -0.199 C  
BRANCH  21  22
HETATM   22  C   UNL     1     -10.934  11.736  66.509  1.00  0.00    -0.342 C  
BRANCH  22  23
HETATM   23  C   UNL     1     -10.931  12.129  65.026  1.00  0.00    -0.309 C  
HETATM   24  O   UNL     1      -9.964  13.147  64.769  1.00  0.00    -0.541 OA 
HETATM   25  H   UNL     1      -9.962  13.390  63.850  1.00  0.00     0.000 HD 
BRANCH  23  26
HETATM   26  C   UNL     1     -10.529  10.882  64.205  1.00  0.00    -0.405 C  
BRANCH  26  27
HETATM   27  C   UNL     1      -9.231  11.032  63.401  1.00  0.00    -0.245 C  
HETATM   28  O   UNL     1      -8.091  11.071  64.273  1.00  0.00    -0.352 OA 
HETATM   29  H   UNL     1      -7.288  11.164  63.774  1.00  0.00     0.000 HD 
BRANCH  27  30
HETATM   30  C   UNL     1      -9.039   9.835  62.464  1.00  0.00    -0.301 C  
HETATM   31  C   UNL     1      -8.183   8.743  63.063  1.00  0.00    -0.188 C  
HETATM   32  O   UNL     1      -8.397   8.521  64.379  1.00  0.00    -0.161 OA 
HETATM   33  O   UNL     1      -7.416   8.059  62.401  1.00  0.00    -0.098 OA 
ENDBRANCH  27  30
ENDBRANCH  26  27
ENDBRANCH  23  26
ENDBRANCH  22  23
ENDBRANCH  21  22
ENDBRANCH   7  21
TORSDOF 8
ENDMDL
MODEL       67
REMARK 921   NORMALIZED FREE ENERGY PREDICTED BY IDOCK:   -6.11 KCAL/MOL
REMARK 922        TOTAL FREE ENERGY PREDICTED BY IDOCK:  -10.43 KCAL/MOL
REMARK 923 INTER-LIGAND FREE ENERGY PREDICTED BY IDOCK:   -8.31 KCAL/MOL
REMARK 924 INTRA-LIGAND FREE ENERGY PREDICTED BY IDOCK:   -2.11 KCAL/MOL
REMARK 927      BINDING AFFINITY PREDICTED BY RF-SCORE:    0.00 PKD
ROOT
HETATM    1  C   UNL     1     -10.110  12.066  68.837  1.00  0.00    -0.033 C  
HETATM    2  C   UNL     1     -11.443  12.488  69.567  1.00  0.00    -0.230 C  
HETATM    3  C   UNL     1     -10.137  10.585  68.440  1.00  0.00    -0.181 C  
HETATM    4  C   UNL     1     -12.486  11.379  69.833  1.00  0.00    -0.190 C  
HETATM    5  C   UNL     1     -11.868  10.032  70.149  1.00  0.00    -0.173 C  
HETATM    6  C   UNL     1      -7.012  12.628  67.504  1.00  0.00    -0.150 C  
HETATM    7  C   UNL     1      -9.595  13.026  67.702  1.00  0.00    -0.206 C  
HETATM    8  C   UNL     1     -10.875   9.669  69.100  1.00  0.00    -0.212 C  
HETATM    9  O   UNL     1     -11.259  10.049  71.429  1.00  0.00    -0.306 OA 
HETATM   10  C   UNL     1      -8.401  12.412  66.891  1.00  0.00    -0.117 C  
HETATM   11  C   UNL     1      -8.557  10.950  66.614  1.00  0.00    -0.148 C  
HETATM   12  H   UNL     1     -10.872   9.204  71.628  1.00  0.00     0.000 HD 
HETATM   13  C   UNL     1      -9.332  10.134  67.326  1.00  0.00    -0.173 C  
ENDROOT
BRANCH   2  14
HETATM   14  O   UNL     1     -12.109  13.670  69.056  1.00  0.00    -0.344 OA 
BRANCH  14  15
HETATM   15  C   UNL     1     -12.092  14.836  69.762  1.00  0.00    -0.319 C  
HETATM   16  C   UNL     1     -10.749  15.320  71.796  1.00  0.00     0.399 C  
HETATM   17  C   UNL     1     -13.221  14.873  71.995  1.00  0.00    -0.443 C  
HETATM   18  O   UNL     1     -12.209  15.959  69.290  1.00  0.00    -0.273 OA 
HETATM   19  C   UNL     1     -11.932  14.532  71.239  1.00  0.00    -0.396 C  
HETATM   20  C   UNL     1     -14.387  13.974  71.605  1.00  0.00    -0.266 C  
ENDBRANCH  14  15
ENDBRANCH   2  14
BRANCH   7  21
HETATM   21  C   UNL     1      -9.259  14.486  68.168  1.00  0.00    -0.195 C  
BRANCH  21  22
HETATM   22  C   UNL     1      -9.162  15.426  66.946  1.00  0.00    -0.254 C  
BRANCH  22  23
HETATM   23  C   UNL     1     -10.420  16.191  66.513  1.00  0.00    -0.297 C  
HETATM   24  O   UNL     1     -10.243  17.599  66.676  1.00  0.00    -0.317 OA 
HETATM   25  H   UNL     1     -11.022  18.073  66.408  1.00  0.00     0.000 HD 
BRANCH  23  26
HETATM   26  C   UNL     1     -10.648  15.919  65.009  1.00  0.00    -0.372 C  
BRANCH  26  27
HETATM   27  C   UNL     1     -11.565  14.728  64.702  1.00  0.00    -0.399 C  
HETATM   28  O   UNL     1     -12.513  15.064  63.676  1.00  0.00    -1.036 OA 
HETATM   29  H   UNL     1     -13.081  14.327  63.487  1.00  0.00     0.000 HD 
BRANCH  27  30
HETATM   30  C   UNL     1     -10.749  13.540  64.186  1.00  0.00    -0.220 C  
HETATM   31  C   UNL     1     -11.559  12.271  64.062  1.00  0.00    -0.417 C  
HETATM   32  O   UNL     1     -12.818  12.451  63.605  1.00  0.00    -0.743 OA 
HETATM   33  O   UNL     1     -11.096  11.160  64.278  1.00  0.00    -0.301 OA 
ENDBRANCH  27  30
ENDBRANCH  26  27
ENDBRANCH  23  26
ENDBRANCH  22  23
ENDBRANCH  21  22
ENDBRANCH   7  21
TORSDOF 8
ENDMDL
MODEL       68
REMARK 921   NORMALIZED FREE ENERGY PREDICTED BY IDOCK:   -6.10 KCAL/MOL
REMARK 922        TOTAL FREE ENERGY PREDICTED BY IDOCK:  -10.41 KCAL/MOL
REMARK 923 INTER-LIGAND FREE ENERGY PREDICTED BY IDOCK:   -9.75 KCAL/MOL
REMARK 924 INTRA-LIGAND FREE ENERGY PREDICTED BY IDOCK:   -0.65 KCAL/MOL
REMARK 927      BINDING AFFINITY PREDICTED BY RF-SCORE:    0.00 PKD
ROOT
HETATM    1  C   UNL     1     -10.063  13.994  68.801  1.00  0.00    -0.183 C  
HETATM    2  C   UNL     1      -9.160  13.606  67.566  1.00  0.00    -0.213 C  
HETATM    3  C   UNL     1      -9.842  15.454  69.215  1.00  0.00    -0.262 C  
HETATM    4  C   UNL     1      -8.178  14.677  67.042  1.00  0.00    -0.188 C  
HETATM    5  C   UNL     1      -7.593  15.547  68.137  1.00  0.00    -0.120 C  
HETATM    6  C   UNL     1     -12.423  13.404  71.203  1.00  0.00    -0.414 C  
HETATM    7  C   UNL     1     -11.576  13.568  68.728  1.00  0.00    -0.362 C  
HETATM    8  C   UNL     1      -8.687  16.109  68.979  1.00  0.00    -0.254 C  
HETATM    9  O   UNL     1      -6.682  14.807  68.930  1.00  0.00    -0.089 OA 
HETATM   10  C   UNL     1     -12.431  14.191  69.887  1.00  0.00    -0.313 C  
HETATM   11  C   UNL     1     -12.071  15.610  70.198  1.00  0.00    -0.400 C  
HETATM   12  H   UNL     1      -6.315  15.352  69.617  1.00  0.00     0.000 HD 
HETATM   13  C   UNL     1     -10.897  16.164  69.902  1.00  0.00    -0.355 C  
ENDROOT
BRANCH   2  14
HETATM   14  O   UNL     1      -9.837  12.978  66.449  1.00  0.00    -0.259 OA 
BRANCH  14  15
HETATM   15  C   UNL     1     -10.517  13.729  65.537  1.00  0.00    -0.318 C  
HETATM   16  C   UNL     1     -12.985  13.935  65.327  1.00  0.00    -0.341 C  
HETATM   17  C   UNL     1     -11.690  12.539  63.675  1.00  0.00    -0.594 C  
HETATM   18  O   UNL     1     -10.156  14.811  65.092  1.00  0.00    -0.372 OA 
HETATM   19  C   UNL     1     -11.787  13.008  65.131  1.00  0.00    -0.404 C  
HETATM   20  C   UNL     1     -10.631  11.465  63.472  1.00  0.00    -0.468 C  
ENDBRANCH  14  15
ENDBRANCH   2  14
BRANCH   7  21
HETATM   21  C   UNL     1     -11.827  12.024  68.617  1.00  0.00    -0.366 C  
BRANCH  21  22
HETATM   22  C   UNL     1     -10.623  11.246  69.190  1.00  0.00    -0.222 C  
BRANCH  22  23
HETATM   23  C   UNL     1     -10.897   9.982  70.016  1.00  0.00    -0.302 C  
HETATM   24  O   UNL     1      -9.935   9.834  71.061  1.00  0.00    -0.309 OA 
HETATM   25  H   UNL     1     -10.105   9.051  71.572  1.00  0.00     0.000 HD 
BRANCH  23  26
HETATM   26  C   UNL     1     -12.286  10.138  70.677  1.00  0.00    -0.394 C  
BRANCH  26  27
HETATM   27  C   UNL     1     -12.537   9.212  71.874  1.00  0.00    -0.388 C  
HETATM   28  O   UNL     1     -13.665   9.662  72.640  1.00  0.00    -0.701 OA 
HETATM   29  H   UNL     1     -13.820   9.089  73.382  1.00  0.00     0.000 HD 
BRANCH  27  30
HETATM   30  C   UNL     1     -12.857   7.792  71.397  1.00  0.00    -0.328 C  
HETATM   31  C   UNL     1     -11.635   6.909  71.299  1.00  0.00    -0.310 C  
HETATM   32  O   UNL     1     -10.736   7.082  72.293  1.00  0.00    -0.210 OA 
HETATM   33  O   UNL     1     -11.501   6.050  70.439  1.00  0.00    -0.317 OA 
ENDBRANCH  27  30
ENDBRANCH  26  27
ENDBRANCH  23  26
ENDBRANCH  22  23
ENDBRANCH  21  22
ENDBRANCH   7  21
TORSDOF 8
ENDMDL
MODEL       69
REMARK 921   NORMALIZED FREE ENERGY PREDICTED BY IDOCK:   -6.10 KCAL/MOL
REMARK 922        TOTAL FREE ENERGY PREDICTED BY IDOCK:  -10.40 KCAL/MOL
REMARK 923 INTER-LIGAND FREE ENERGY PREDICTED BY IDOCK:   -8.85 KCAL/MOL
REMARK 924 INTRA-LIGAND FREE ENERGY PREDICTED BY IDOCK:   -1.55 KCAL/MOL
REMARK 927      BINDING AFFINITY PREDICTED BY RF-SCORE:    0.00 PKD
ROOT
HETATM    1  C   UNL     1     -10.318   8.228  68.899  1.00  0.00    -0.230 C  
HETATM    2  C   UNL     1     -10.967   6.836  68.538  1.00  0.00    -0.192 C  
HETATM    3  C   UNL     1      -9.736   8.220  70.318  1.00  0.00    -0.177 C  
HETATM    4  C   UNL     1     -10.992   5.758  69.644  1.00  0.00    -0.385 C  
HETATM    5  C   UNL     1     -11.192   6.325  71.036  1.00  0.00    -0.312 C  
HETATM    6  C   UNL     1      -9.365  11.447  68.254  1.00  0.00    -0.187 C  
HETATM    7  C   UNL     1      -9.368   8.863  67.818  1.00  0.00    -0.157 C  
HETATM    8  C   UNL     1     -10.203   7.410  71.290  1.00  0.00    -0.197 C  
HETATM    9  O   UNL     1     -12.515   6.807  71.194  1.00  0.00    -0.367 OA 
HETATM   10  C   UNL     1      -8.602  10.122  68.357  1.00  0.00    -0.119 C  
HETATM   11  C   UNL     1      -8.128   9.973  69.769  1.00  0.00    -0.188 C  
HETATM   12  H   UNL     1     -12.641   7.162  72.066  1.00  0.00     0.000 HD 
HETATM   13  C   UNL     1      -8.655   9.123  70.647  1.00  0.00    -0.266 C  
ENDROOT
BRANCH   2  14
HETATM   14  O   UNL     1     -10.549   6.239  67.285  1.00  0.00    -0.220 OA 
BRANCH  14  15
HETATM   15  C   UNL     1      -9.759   5.128  67.275  1.00  0.00    -0.155 C  
HETATM   16  C   UNL     1      -7.533   4.880  68.351  1.00  0.00    -0.074 C  
HETATM   17  C   UNL     1      -7.701   5.165  65.852  1.00  0.00    -0.091 C  
HETATM   18  O   UNL     1     -10.155   3.970  67.292  1.00  0.00    -0.076 OA 
HETATM   19  C   UNL     1      -8.302   5.543  67.211  1.00  0.00    -0.104 C  
HETATM   20  C   UNL     1      -8.310   5.952  64.700  1.00  0.00    -0.086 C  
ENDBRANCH  14  15
ENDBRANCH   2  14
BRANCH   7  21
HETATM   21  C   UNL     1     -10.044   9.171  66.437  1.00  0.00    -0.345 C  
BRANCH  21  22
HETATM   22  C   UNL     1      -8.979   9.206  65.319  1.00  0.00    -0.246 C  
BRANCH  22  23
HETATM   23  C   UNL     1      -9.111  10.268  64.219  1.00  0.00    -0.243 C  
HETATM   24  O   UNL     1      -9.670   9.707  63.031  1.00  0.00    -0.504 OA 
HETATM   25  H   UNL     1      -9.752  10.364  62.350  1.00  0.00     0.000 HD 
BRANCH  23  26
HETATM   26  C   UNL     1     -10.083  11.358  64.725  1.00  0.00    -0.326 C  
BRANCH  26  27
HETATM   27  C   UNL     1     -10.793  12.151  63.620  1.00  0.00    -0.464 C  
HETATM   28  O   UNL     1     -11.906  11.412  63.096  1.00  0.00    -0.887 OA 
HETATM   29  H   UNL     1     -12.345  11.903  62.411  1.00  0.00     0.000 HD 
BRANCH  27  30
HETATM   30  C   UNL     1     -11.349  13.466  64.176  1.00  0.00    -0.398 C  
HETATM   31  C   UNL     1     -12.459  13.264  65.181  1.00  0.00    -0.470 C  
HETATM   32  O   UNL     1     -12.274  12.222  66.020  1.00  0.00    -0.646 OA 
HETATM   33  O   UNL     1     -13.411  14.025  65.284  1.00  0.00    -0.741 OA 
ENDBRANCH  27  30
ENDBRANCH  26  27
ENDBRANCH  23  26
ENDBRANCH  22  23
ENDBRANCH  21  22
ENDBRANCH   7  21
TORSDOF 8
ENDMDL
MODEL       70
REMARK 921   NORMALIZED FREE ENERGY PREDICTED BY IDOCK:   -6.09 KCAL/MOL
REMARK 922        TOTAL FREE ENERGY PREDICTED BY IDOCK:  -10.40 KCAL/MOL
REMARK 923 INTER-LIGAND FREE ENERGY PREDICTED BY IDOCK:   -9.49 KCAL/MOL
REMARK 924 INTRA-LIGAND FREE ENERGY PREDICTED BY IDOCK:   -0.91 KCAL/MOL
REMARK 927      BINDING AFFINITY PREDICTED BY RF-SCORE:    0.00 PKD
ROOT
HETATM    1  C   UNL     1     -11.519   8.447  69.740  1.00  0.00     0.251 C  
HETATM    2  C   UNL     1     -10.861   8.882  68.373  1.00  0.00     0.010 C  
HETATM    3  C   UNL     1     -10.900   7.146  70.267  1.00  0.00    -0.271 C  
HETATM    4  C   UNL     1      -9.805   7.934  67.762  1.00  0.00    -0.204 C  
HETATM    5  C   UNL     1     -10.098   6.466  68.004  1.00  0.00    -0.148 C  
HETATM    6  C   UNL     1     -13.647   8.806  72.392  1.00  0.00    -0.456 C  
HETATM    7  C   UNL     1     -11.685   9.568  70.830  1.00  0.00    -0.391 C  
HETATM    8  C   UNL     1     -10.337   6.228  69.456  1.00  0.00    -0.263 C  
HETATM    9  O   UNL     1     -11.213   6.047  67.238  1.00  0.00    -0.509 OA 
HETATM   10  C   UNL     1     -12.135   8.994  72.219  1.00  0.00    -0.358 C  
HETATM   11  C   UNL     1     -11.468   7.703  72.575  1.00  0.00    -0.405 C  
HETATM   12  H   UNL     1     -11.397   5.127  67.389  1.00  0.00     0.000 HD 
HETATM   13  C   UNL     1     -10.927   6.873  71.687  1.00  0.00    -0.262 C  
ENDROOT
BRANCH   2  14
HETATM   14  O   UNL     1     -10.391  10.250  68.294  1.00  0.00    -0.165 OA 
BRANCH  14  15
HETATM   15  C   UNL     1     -10.847  11.085  67.318  1.00  0.00    -0.281 C  
HETATM   16  C   UNL     1     -10.162  11.089  64.929  1.00  0.00    -0.373 C  
HETATM   17  C   UNL     1      -9.305  12.874  66.489  1.00  0.00    -0.224 C  
HETATM   18  O   UNL     1     -11.983  11.533  67.233  1.00  0.00    -0.605 OA 
HETATM   19  C   UNL     1      -9.719  11.404  66.356  1.00  0.00    -0.231 C  
HETATM   20  C   UNL     1      -8.676  13.188  67.840  1.00  0.00    -0.192 C  
ENDBRANCH  14  15
ENDBRANCH   2  14
BRANCH   7  21
HETATM   21  C   UNL     1     -12.589  10.778  70.407  1.00  0.00    -0.395 C  
BRANCH  21  22
HETATM   22  C   UNL     1     -13.128  11.503  71.660  1.00  0.00    -0.478 C  
BRANCH  22  23
HETATM   23  C   UNL     1     -13.433  13.003  71.560  1.00  0.00    -0.094 C  
HETATM   24  O   UNL     1     -13.620  13.575  72.855  1.00  0.00    -0.639 OA 
HETATM   25  H   UNL     1     -13.809  14.505  72.793  1.00  0.00     0.000 HD 
BRANCH  23  26
HETATM   26  C   UNL     1     -12.210  13.695  70.914  1.00  0.00    -0.408 C  
BRANCH  26  27
HETATM   27  C   UNL     1     -12.533  14.970  70.125  1.00  0.00    -0.311 C  
HETATM   28  O   UNL     1     -13.771  15.546  70.569  1.00  0.00    -0.837 OA 
HETATM   29  H   UNL     1     -13.971  16.335  70.080  1.00  0.00     0.000 HD 
BRANCH  27  30
HETATM   30  C   UNL     1     -11.444  16.025  70.341  1.00  0.00    -0.392 C  
HETATM   31  C   UNL     1     -10.531  16.189  69.148  1.00  0.00    -0.265 C  
HETATM   32  O   UNL     1     -11.155  16.123  67.951  1.00  0.00    -0.340 OA 
HETATM   33  O   UNL     1      -9.339  16.442  69.250  1.00  0.00    -0.249 OA 
ENDBRANCH  27  30
ENDBRANCH  26  27
ENDBRANCH  23  26
ENDBRANCH  22  23
ENDBRANCH  21  22
ENDBRANCH   7  21
TORSDOF 8
ENDMDL
MODEL       71
REMARK 921   NORMALIZED FREE ENERGY PREDICTED BY IDOCK:   -6.08 KCAL/MOL
REMARK 922        TOTAL FREE ENERGY PREDICTED BY IDOCK:  -10.38 KCAL/MOL
REMARK 923 INTER-LIGAND FREE ENERGY PREDICTED BY IDOCK:   -7.89 KCAL/MOL
REMARK 924 INTRA-LIGAND FREE ENERGY PREDICTED BY IDOCK:   -2.50 KCAL/MOL
REMARK 927      BINDING AFFINITY PREDICTED BY RF-SCORE:    0.00 PKD
ROOT
HETATM    1  C   UNL     1      -8.227  15.131  67.552  1.00  0.00    -0.196 C  
HETATM    2  C   UNL     1      -7.862  16.589  68.033  1.00  0.00    -0.157 C  
HETATM    3  C   UNL     1      -7.066  14.158  67.789  1.00  0.00    -0.185 C  
HETATM    4  C   UNL     1      -6.430  16.820  68.565  1.00  0.00    -0.155 C  
HETATM    5  C   UNL     1      -5.378  15.995  67.850  1.00  0.00    -0.128 C  
HETATM    6  C   UNL     1     -10.292  12.743  66.240  1.00  0.00    -0.271 C  
HETATM    7  C   UNL     1      -9.632  14.576  67.993  1.00  0.00    -0.217 C  
HETATM    8  C   UNL     1      -5.780  14.560  67.837  1.00  0.00    -0.123 C  
HETATM    9  O   UNL     1      -5.183  16.472  66.530  1.00  0.00    -0.337 OA 
HETATM   10  C   UNL     1      -9.806  13.053  67.661  1.00  0.00    -0.212 C  
HETATM   11  C   UNL     1      -8.574  12.242  67.911  1.00  0.00    -0.169 C  
HETATM   12  H   UNL     1      -4.524  15.955  66.081  1.00  0.00     0.000 HD 
HETATM   13  C   UNL     1      -7.343  12.749  67.953  1.00  0.00    -0.120 C  
ENDROOT
BRANCH   2  14
HETATM   14  O   UNL     1      -8.818  17.233  68.911  1.00  0.00    -0.257 OA 
BRANCH  14  15
HETATM   15  C   UNL     1      -9.570  18.281  68.468  1.00  0.00    -0.342 C  
HETATM   16  C   UNL     1     -10.222  18.750  66.117  1.00  0.00    -0.462 C  
HETATM   17  C   UNL     1      -8.411  20.113  67.219  1.00  0.00    -0.403 C  
HETATM   18  O   UNL     1     -10.499  18.800  69.074  1.00  0.00    -0.126 OA 
HETATM   19  C   UNL     1      -9.064  18.731  67.111  1.00  0.00    -0.295 C  
HETATM   20  C   UNL     1      -7.135  20.098  68.050  1.00  0.00    -0.319 C  
ENDBRANCH  14  15
ENDBRANCH   2  14
BRANCH   7  21
HETATM   21  C   UNL     1     -10.863  15.402  67.484  1.00  0.00    -0.305 C  
BRANCH  21  22
HETATM   22  C   UNL     1     -11.925  15.517  68.599  1.00  0.00    -0.231 C  
BRANCH  22  23
HETATM   23  C   UNL     1     -11.528  15.118  70.027  1.00  0.00    -0.286 C  
HETATM   24  O   UNL     1     -11.199  16.269  70.807  1.00  0.00    -0.366 OA 
HETATM   25  H   UNL     1     -10.954  16.022  71.691  1.00  0.00     0.000 HD 
BRANCH  23  26
HETATM   26  C   UNL     1     -12.750  14.439  70.687  1.00  0.00    -0.421 C  
BRANCH  26  27
HETATM   27  C   UNL     1     -12.489  13.026  71.224  1.00  0.00    -0.218 C  
HETATM   28  O   UNL     1     -13.563  12.595  72.074  1.00  0.00    -0.456 OA 
HETATM   29  H   UNL     1     -13.401  11.720  72.406  1.00  0.00     0.000 HD 
BRANCH  27  30
HETATM   30  C   UNL     1     -12.400  12.021  70.070  1.00  0.00    -0.179 C  
HETATM   31  C   UNL     1     -11.745  10.719  70.466  1.00  0.00    -0.351 C  
HETATM   32  O   UNL     1     -12.076  10.276  71.699  1.00  0.00    -0.353 OA 
HETATM   33  O   UNL     1     -11.037  10.072  69.708  1.00  0.00    -0.247 OA 
ENDBRANCH  27  30
ENDBRANCH  26  27
ENDBRANCH  23  26
ENDBRANCH  22  23
ENDBRANCH  21  22
ENDBRANCH   7  21
TORSDOF 8
ENDMDL
MODEL       72
REMARK 921   NORMALIZED FREE ENERGY PREDICTED BY IDOCK:   -6.08 KCAL/MOL
REMARK 922        TOTAL FREE ENERGY PREDICTED BY IDOCK:  -10.38 KCAL/MOL
REMARK 923 INTER-LIGAND FREE ENERGY PREDICTED BY IDOCK:   -9.09 KCAL/MOL
REMARK 924 INTRA-LIGAND FREE ENERGY PREDICTED BY IDOCK:   -1.30 KCAL/MOL
REMARK 927      BINDING AFFINITY PREDICTED BY RF-SCORE:    0.00 PKD
ROOT
HETATM    1  C   UNL     1     -11.956  11.659  69.637  1.00  0.00    -0.390 C  
HETATM    2  C   UNL     1     -11.440  10.173  69.756  1.00  0.00    -0.228 C  
HETATM    3  C   UNL     1     -12.542  12.154  70.965  1.00  0.00    -0.359 C  
HETATM    4  C   UNL     1     -11.670   9.450  71.102  1.00  0.00    -0.418 C  
HETATM    5  C   UNL     1     -12.970   9.835  71.780  1.00  0.00    -0.438 C  
HETATM    6  C   UNL     1     -12.499  14.614  68.006  1.00  0.00     0.289 C  
HETATM    7  C   UNL     1     -10.990  12.686  68.939  1.00  0.00    -0.273 C  
HETATM    8  C   UNL     1     -13.070  11.318  71.882  1.00  0.00    -0.510 C  
HETATM    9  O   UNL     1     -14.078   9.306  71.074  1.00  0.00    -0.483 OA 
HETATM   10  C   UNL     1     -11.490  14.167  69.070  1.00  0.00    -0.322 C  
HETATM   11  C   UNL     1     -12.069  14.484  70.413  1.00  0.00    -0.389 C  
HETATM   12  H   UNL     1     -14.893   9.547  71.499  1.00  0.00     0.000 HD 
HETATM   13  C   UNL     1     -12.551  13.571  71.253  1.00  0.00    -0.427 C  
ENDROOT
BRANCH   2  14
HETATM   14  O   UNL     1     -10.090   9.924  69.293  1.00  0.00    -0.180 OA 
BRANCH  14  15
HETATM   15  C   UNL     1      -9.707   8.672  68.912  1.00  0.00    -0.170 C  
HETATM   16  C   UNL     1      -8.612   6.955  70.336  1.00  0.00    -0.143 C  
HETATM   17  C   UNL     1      -7.260   8.227  68.631  1.00  0.00    -0.087 C  
HETATM   18  O   UNL     1     -10.289   7.963  68.101  1.00  0.00    -0.199 OA 
HETATM   19  C   UNL     1      -8.424   8.294  69.626  1.00  0.00    -0.125 C  
HETATM   20  C   UNL     1      -6.912   9.587  68.041  1.00  0.00    -0.079 C  
ENDBRANCH  14  15
ENDBRANCH   2  14
BRANCH   7  21
HETATM   21  C   UNL     1     -10.625  12.351  67.451  1.00  0.00    -0.237 C  
BRANCH  21  22
HETATM   22  C   UNL     1      -9.598  13.370  66.911  1.00  0.00    -0.257 C  
BRANCH  22  23
HETATM   23  C   UNL     1      -9.622  13.707  65.414  1.00  0.00     0.105 C  
HETATM   24  O   UNL     1      -9.660  12.518  64.623  1.00  0.00    -0.483 OA 
HETATM   25  H   UNL     1      -9.675  12.727  63.696  1.00  0.00     0.000 HD 
BRANCH  23  26
HETATM   26  C   UNL     1     -10.915  14.503  65.127  1.00  0.00    -0.387 C  
BRANCH  26  27
HETATM   27  C   UNL     1     -10.699  15.986  64.800  1.00  0.00    -0.204 C  
HETATM   28  O   UNL     1     -11.726  16.470  63.921  1.00  0.00    -1.527 OA 
HETATM   29  H   UNL     1     -11.591  17.389  63.718  1.00  0.00     0.000 HD 
BRANCH  27  30
HETATM   30  C   UNL     1     -10.764  16.832  66.075  1.00  0.00    -0.139 C  
HETATM   31  C   UNL     1      -9.413  17.044  66.717  1.00  0.00    -0.258 C  
HETATM   32  O   UNL     1      -8.402  17.247  65.844  1.00  0.00    -0.533 OA 
HETATM   33  O   UNL     1      -9.253  17.107  67.928  1.00  0.00    -0.234 OA 
ENDBRANCH  27  30
ENDBRANCH  26  27
ENDBRANCH  23  26
ENDBRANCH  22  23
ENDBRANCH  21  22
ENDBRANCH   7  21
TORSDOF 8
ENDMDL
MODEL       73
REMARK 921   NORMALIZED FREE ENERGY PREDICTED BY IDOCK:   -6.04 KCAL/MOL
REMARK 922        TOTAL FREE ENERGY PREDICTED BY IDOCK:  -10.33 KCAL/MOL
REMARK 923 INTER-LIGAND FREE ENERGY PREDICTED BY IDOCK:   -8.55 KCAL/MOL
REMARK 924 INTRA-LIGAND FREE ENERGY PREDICTED BY IDOCK:   -1.78 KCAL/MOL
REMARK 927      BINDING AFFINITY PREDICTED BY RF-SCORE:    0.00 PKD
ROOT
HETATM    1  C   UNL     1      -7.596  15.298  67.370  1.00  0.00    -0.229 C  
HETATM    2  C   UNL     1      -8.666  15.838  66.345  1.00  0.00    -0.337 C  
HETATM    3  C   UNL     1      -6.922  16.448  68.129  1.00  0.00    -0.138 C  
HETATM    4  C   UNL     1      -8.805  17.370  66.206  1.00  0.00    -0.236 C  
HETATM    5  C   UNL     1      -7.492  18.112  66.360  1.00  0.00    -0.252 C  
HETATM    6  C   UNL     1      -5.845  12.859  69.006  1.00  0.00    -0.079 C  
HETATM    7  C   UNL     1      -8.039  14.098  68.285  1.00  0.00    -0.146 C  
HETATM    8  C   UNL     1      -6.814  17.691  67.618  1.00  0.00    -0.185 C  
HETATM    9  O   UNL     1      -6.656  17.884  65.239  1.00  0.00    -0.291 OA 
HETATM   10  C   UNL     1      -6.997  13.786  69.415  1.00  0.00     0.002 C  
HETATM   11  C   UNL     1      -6.402  15.011  70.033  1.00  0.00    -0.163 C  
HETATM   12  H   UNL     1      -5.833  18.349  65.335  1.00  0.00     0.000 HD 
HETATM   13  C   UNL     1      -6.362  16.202  69.440  1.00  0.00    -0.179 C  
ENDROOT
BRANCH   2  14
HETATM   14  O   UNL     1      -9.981  15.233  66.412  1.00  0.00    -0.250 OA 
BRANCH  14  15
HETATM   15  C   UNL     1     -10.807  15.245  65.327  1.00  0.00    -0.403 C  
HETATM   16  C   UNL     1     -13.119  14.342  65.213  1.00  0.00    -0.042 C  
HETATM   17  C   UNL     1     -11.219  13.080  64.141  1.00  0.00    -0.439 C  
HETATM   18  O   UNL     1     -10.861  16.127  64.480  1.00  0.00    -0.628 OA 
HETATM   19  C   UNL     1     -11.640  13.978  65.310  1.00  0.00    -0.339 C  
HETATM   20  C   UNL     1      -9.806  12.535  64.297  1.00  0.00    -0.114 C  
ENDBRANCH  14  15
ENDBRANCH   2  14
BRANCH   7  21
HETATM   21  C   UNL     1      -8.438  12.789  67.518  1.00  0.00    -0.181 C  
BRANCH  21  22
HETATM   22  C   UNL     1      -9.511  12.013  68.312  1.00  0.00    -0.199 C  
BRANCH  22  23
HETATM   23  C   UNL     1     -10.982  12.413  68.133  1.00  0.00    -0.228 C  
HETATM   24  O   UNL     1     -11.754  11.318  67.638  1.00  0.00    -0.564 OA 
HETATM   25  H   UNL     1     -12.665  11.566  67.528  1.00  0.00     0.000 HD 
BRANCH  23  26
HETATM   26  C   UNL     1     -11.544  12.790  69.524  1.00  0.00    -0.342 C  
BRANCH  26  27
HETATM   27  C   UNL     1     -11.771  14.291  69.741  1.00  0.00    -0.309 C  
HETATM   28  O   UNL     1     -12.068  14.948  68.499  1.00  0.00    -0.542 OA 
HETATM   29  H   UNL     1     -12.208  15.878  68.634  1.00  0.00     0.000 HD 
BRANCH  27  30
HETATM   30  C   UNL     1     -12.967  14.525  70.669  1.00  0.00    -0.358 C  
HETATM   31  C   UNL     1     -12.585  14.571  72.130  1.00  0.00    -0.314 C  
HETATM   32  O   UNL     1     -11.420  15.207  72.386  1.00  0.00    -0.425 OA 
HETATM   33  O   UNL     1     -13.304  14.142  73.021  1.00  0.00    -0.635 OA 
ENDBRANCH  27  30
ENDBRANCH  26  27
ENDBRANCH  23  26
ENDBRANCH  22  23
ENDBRANCH  21  22
ENDBRANCH   7  21
TORSDOF 8
ENDMDL
MODEL       74
REMARK 921   NORMALIZED FREE ENERGY PREDICTED BY IDOCK:   -6.03 KCAL/MOL
REMARK 922        TOTAL FREE ENERGY PREDICTED BY IDOCK:  -10.31 KCAL/MOL
REMARK 923 INTER-LIGAND FREE ENERGY PREDICTED BY IDOCK:   -8.71 KCAL/MOL
REMARK 924 INTRA-LIGAND FREE ENERGY PREDICTED BY IDOCK:   -1.60 KCAL/MOL
REMARK 927      BINDING AFFINITY PREDICTED BY RF-SCORE:    0.00 PKD
ROOT
HETATM    1  C   UNL     1     -10.588  14.718  68.058  1.00  0.00    -0.244 C  
HETATM    2  C   UNL     1     -11.353  15.556  69.154  1.00  0.00    -0.328 C  
HETATM    3  C   UNL     1      -9.247  15.369  67.694  1.00  0.00    -0.187 C  
HETATM    4  C   UNL     1     -10.708  16.883  69.610  1.00  0.00    -0.151 C  
HETATM    5  C   UNL     1      -9.981  17.615  68.498  1.00  0.00    -0.368 C  
HETATM    6  C   UNL     1     -10.169  12.076  65.929  1.00  0.00    -0.263 C  
HETATM    7  C   UNL     1     -10.505  13.164  68.289  1.00  0.00    -0.258 C  
HETATM    8  C   UNL     1      -9.024  16.693  67.824  1.00  0.00    -0.211 C  
HETATM    9  O   UNL     1     -10.904  18.149  67.565  1.00  0.00    -0.389 OA 
HETATM   10  C   UNL     1      -9.540  12.456  67.275  1.00  0.00    -0.199 C  
HETATM   11  C   UNL     1      -8.293  13.234  66.996  1.00  0.00    -0.092 C  
HETATM   12  H   UNL     1     -10.449  18.607  66.869  1.00  0.00     0.000 HD 
HETATM   13  C   UNL     1      -8.176  14.548  67.176  1.00  0.00    -0.214 C  
ENDROOT
BRANCH   2  14
HETATM   14  O   UNL     1     -11.824  14.820  70.310  1.00  0.00    -0.268 OA 
BRANCH  14  15
HETATM   15  C   UNL     1     -12.988  15.170  70.929  1.00  0.00    -0.429 C  
HETATM   16  C   UNL     1     -13.241  15.989  73.261  1.00  0.00    -0.651 C  
HETATM   17  C   UNL     1     -13.898  13.627  72.676  1.00  0.00    -0.494 C  
HETATM   18  O   UNL     1     -13.951  15.701  70.391  1.00  0.00    -0.010 OA 
HETATM   19  C   UNL     1     -12.923  14.775  72.391  1.00  0.00    -0.445 C  
HETATM   20  C   UNL     1     -13.505  12.334  71.976  1.00  0.00    -0.418 C  
ENDBRANCH  14  15
ENDBRANCH   2  14
BRANCH   7  21
HETATM   21  C   UNL     1     -11.888  12.427  68.350  1.00  0.00    -0.361 C  
BRANCH  21  22
HETATM   22  C   UNL     1     -11.678  10.923  68.632  1.00  0.00    -0.334 C  
BRANCH  22  23
HETATM   23  C   UNL     1     -11.352  10.489  70.068  1.00  0.00    -0.318 C  
HETATM   24  O   UNL     1     -12.255   9.476  70.513  1.00  0.00    -0.453 OA 
HETATM   25  H   UNL     1     -12.053   9.207  71.402  1.00  0.00     0.000 HD 
BRANCH  23  26
HETATM   26  C   UNL     1      -9.930   9.884  70.070  1.00  0.00    -0.302 C  
BRANCH  26  27
HETATM   27  C   UNL     1      -9.490   9.266  68.736  1.00  0.00    -0.150 C  
HETATM   28  O   UNL     1      -8.060   9.289  68.609  1.00  0.00    -0.102 OA 
HETATM   29  H   UNL     1      -7.789   8.907  67.783  1.00  0.00     0.000 HD 
BRANCH  27  30
HETATM   30  C   UNL     1      -9.925   7.800  68.654  1.00  0.00    -0.191 C  
HETATM   31  C   UNL     1     -10.353   7.384  67.266  1.00  0.00    -0.286 C  
HETATM   32  O   UNL     1      -9.606   7.905  66.269  1.00  0.00    -0.195 OA 
HETATM   33  O   UNL     1     -11.251   6.579  67.059  1.00  0.00    -0.397 OA 
ENDBRANCH  27  30
ENDBRANCH  26  27
ENDBRANCH  23  26
ENDBRANCH  22  23
ENDBRANCH  21  22
ENDBRANCH   7  21
TORSDOF 8
ENDMDL
MODEL       75
REMARK 921   NORMALIZED FREE ENERGY PREDICTED BY IDOCK:   -6.03 KCAL/MOL
REMARK 922        TOTAL FREE ENERGY PREDICTED BY IDOCK:  -10.31 KCAL/MOL
REMARK 923 INTER-LIGAND FREE ENERGY PREDICTED BY IDOCK:   -8.37 KCAL/MOL
REMARK 924 INTRA-LIGAND FREE ENERGY PREDICTED BY IDOCK:   -1.94 KCAL/MOL
REMARK 927      BINDING AFFINITY PREDICTED BY RF-SCORE:    0.00 PKD
ROOT
HETATM    1  C   UNL     1     -11.873  12.674  70.335  1.00  0.00    -0.238 C  
HETATM    2  C   UNL     1     -11.813  14.035  69.539  1.00  0.00    -0.325 C  
HETATM    3  C   UNL     1     -12.877  12.751  71.493  1.00  0.00    -0.369 C  
HETATM    4  C   UNL     1     -12.668  15.206  70.071  1.00  0.00    -0.200 C  
HETATM    5  C   UNL     1     -12.768  15.242  71.584  1.00  0.00    -0.384 C  
HETATM    6  C   UNL     1     -11.019   9.423  70.956  1.00  0.00    -0.409 C  
HETATM    7  C   UNL     1     -11.981  11.360  69.477  1.00  0.00    -0.409 C  
HETATM    8  C   UNL     1     -13.203  13.912  72.096  1.00  0.00    -0.536 C  
HETATM    9  O   UNL     1     -11.529  15.619  72.158  1.00  0.00    -0.414 OA 
HETATM   10  C   UNL     1     -12.262  10.091  70.355  1.00  0.00    -0.249 C  
HETATM   11  C   UNL     1     -13.234  10.336  71.465  1.00  0.00    -0.484 C  
HETATM   12  H   UNL     1     -11.592  15.642  73.106  1.00  0.00     0.000 HD 
HETATM   13  C   UNL     1     -13.494  11.537  71.978  1.00  0.00    -0.298 C  
ENDROOT
BRANCH   2  14
HETATM   14  O   UNL     1     -11.955  13.943  68.099  1.00  0.00    -0.355 OA 
BRANCH  14  15
HETATM   15  C   UNL     1     -11.204  14.728  67.276  1.00  0.00    -0.346 C  
HETATM   16  C   UNL     1     -10.476  14.182  64.964  1.00  0.00    -0.447 C  
HETATM   17  C   UNL     1      -8.827  14.061  66.866  1.00  0.00    -0.212 C  
HETATM   18  O   UNL     1     -11.241  15.950  67.224  1.00  0.00    -0.234 OA 
HETATM   19  C   UNL     1     -10.286  13.855  66.443  1.00  0.00    -0.292 C  
HETATM   20  C   UNL     1      -8.548  13.565  68.278  1.00  0.00    -0.168 C  
ENDBRANCH  14  15
ENDBRANCH   2  14
BRANCH   7  21
HETATM   21  C   UNL     1     -10.784  11.107  68.496  1.00  0.00    -0.235 C  
BRANCH  21  22
HETATM   22  C   UNL     1     -10.990   9.778  67.736  1.00  0.00    -0.242 C  
BRANCH  22  23
HETATM   23  C   UNL     1      -9.750   8.982  67.309  1.00  0.00    -0.179 C  
HETATM   24  O   UNL     1      -9.908   8.458  65.990  1.00  0.00    -0.456 OA 
HETATM   25  H   UNL     1      -9.140   7.965  65.725  1.00  0.00     0.000 HD 
BRANCH  23  26
HETATM   26  C   UNL     1      -8.547   9.953  67.286  1.00  0.00    -0.125 C  
BRANCH  26  27
HETATM   27  C   UNL     1      -7.387   9.562  68.211  1.00  0.00    -0.077 C  
HETATM   28  O   UNL     1      -6.136  10.039  67.692  1.00  0.00    -0.056 OA 
HETATM   29  H   UNL     1      -5.418   9.796  68.264  1.00  0.00     0.000 HD 
BRANCH  27  30
HETATM   30  C   UNL     1      -7.568  10.193  69.595  1.00  0.00    -0.158 C  
HETATM   31  C   UNL     1      -6.888   9.413  70.697  1.00  0.00    -0.104 C  
HETATM   32  O   UNL     1      -5.684   8.899  70.360  1.00  0.00    -0.029 OA 
HETATM   33  O   UNL     1      -7.346   9.319  71.827  1.00  0.00    -0.337 OA 
ENDBRANCH  27  30
ENDBRANCH  26  27
ENDBRANCH  23  26
ENDBRANCH  22  23
ENDBRANCH  21  22
ENDBRANCH   7  21
TORSDOF 8
ENDMDL
MODEL       76
REMARK 921   NORMALIZED FREE ENERGY PREDICTED BY IDOCK:   -6.03 KCAL/MOL
REMARK 922        TOTAL FREE ENERGY PREDICTED BY IDOCK:  -10.30 KCAL/MOL
REMARK 923 INTER-LIGAND FREE ENERGY PREDICTED BY IDOCK:   -9.05 KCAL/MOL
REMARK 924 INTRA-LIGAND FREE ENERGY PREDICTED BY IDOCK:   -1.25 KCAL/MOL
REMARK 927      BINDING AFFINITY PREDICTED BY RF-SCORE:    0.00 PKD
ROOT
HETATM    1  C   UNL     1      -9.750  13.892  68.779  1.00  0.00    -0.096 C  
HETATM    2  C   UNL     1      -9.432  12.594  67.941  1.00  0.00    -0.204 C  
HETATM    3  C   UNL     1      -8.601  14.905  68.693  1.00  0.00    -0.168 C  
HETATM    4  C   UNL     1      -8.047  12.509  67.263  1.00  0.00    -0.179 C  
HETATM    5  C   UNL     1      -6.938  13.152  68.074  1.00  0.00    -0.116 C  
HETATM    6  C   UNL     1     -11.692  15.881  70.769  1.00  0.00    -0.433 C  
HETATM    7  C   UNL     1     -11.178  14.522  68.588  1.00  0.00    -0.281 C  
HETATM    8  C   UNL     1      -7.326  14.539  68.455  1.00  0.00    -0.120 C  
HETATM    9  O   UNL     1      -6.648  12.378  69.225  1.00  0.00    -0.102 OA 
HETATM   10  C   UNL     1     -11.315  15.922  69.283  1.00  0.00    -0.355 C  
HETATM   11  C   UNL     1     -10.099  16.781  69.140  1.00  0.00    -0.280 C  
HETATM   12  H   UNL     1      -5.953  12.781  69.733  1.00  0.00     0.000 HD 
HETATM   13  C   UNL     1      -8.879  16.311  68.888  1.00  0.00    -0.253 C  
ENDROOT
BRANCH   2  14
HETATM   14  O   UNL     1     -10.457  12.165  67.010  1.00  0.00    -0.217 OA 
BRANCH  14  15
HETATM   15  C   UNL     1     -10.519  12.693  65.754  1.00  0.00    -0.277 C  
HETATM   16  C   UNL     1     -12.394  12.468  64.140  1.00  0.00    -0.548 C  
HETATM   17  C   UNL     1     -10.282  11.132  63.812  1.00  0.00    -0.434 C  
HETATM   18  O   UNL     1     -10.040  13.764  65.405  1.00  0.00    -0.313 OA 
HETATM   19  C   UNL     1     -11.251  11.734  64.836  1.00  0.00    -0.328 C  
HETATM   20  C   UNL     1      -9.236  10.230  64.451  1.00  0.00    -0.296 C  
ENDBRANCH  14  15
ENDBRANCH   2  14
BRANCH   7  21
HETATM   21  C   UNL     1     -12.375  13.586  68.978  1.00  0.00    -0.049 C  
BRANCH  21  22
HETATM   22  C   UNL     1     -11.934  12.584  70.067  1.00  0.00    -0.372 C  
BRANCH  22  23
HETATM   23  C   UNL     1     -12.402  11.127  69.950  1.00  0.00    -0.261 C  
HETATM   24  O   UNL     1     -12.272  10.654  68.608  1.00  0.00    -0.814 OA 
HETATM   25  H   UNL     1     -12.561   9.752  68.536  1.00  0.00     0.000 HD 
BRANCH  23  26
HETATM   26  C   UNL     1     -11.485  10.260  70.843  1.00  0.00    -0.425 C  
BRANCH  26  27
HETATM   27  C   UNL     1     -12.222   9.395  71.873  1.00  0.00    -0.368 C  
HETATM   28  O   UNL     1     -13.348  10.097  72.420  1.00  0.00    -0.598 OA 
HETATM   29  H   UNL     1     -13.803   9.561  73.058  1.00  0.00     0.000 HD 
BRANCH  27  30
HETATM   30  C   UNL     1     -12.764   8.122  71.215  1.00  0.00    -0.220 C  
HETATM   31  C   UNL     1     -11.736   7.018  71.121  1.00  0.00    -0.325 C  
HETATM   32  O   UNL     1     -10.929   6.908  72.199  1.00  0.00    -0.224 OA 
HETATM   33  O   UNL     1     -11.685   6.233  70.184  1.00  0.00    -0.398 OA 
ENDBRANCH  27  30
ENDBRANCH  26  27
ENDBRANCH  23  26
ENDBRANCH  22  23
ENDBRANCH  21  22
ENDBRANCH   7  21
TORSDOF 8
ENDMDL
MODEL       77
REMARK 921   NORMALIZED FREE ENERGY PREDICTED BY IDOCK:   -6.03 KCAL/MOL
REMARK 922        TOTAL FREE ENERGY PREDICTED BY IDOCK:  -10.30 KCAL/MOL
REMARK 923 INTER-LIGAND FREE ENERGY PREDICTED BY IDOCK:   -9.14 KCAL/MOL
REMARK 924 INTRA-LIGAND FREE ENERGY PREDICTED BY IDOCK:   -1.16 KCAL/MOL
REMARK 927      BINDING AFFINITY PREDICTED BY RF-SCORE:    0.00 PKD
ROOT
HETATM    1  C   UNL     1      -8.191  13.476  68.124  1.00  0.00    -0.162 C  
HETATM    2  C   UNL     1      -9.544  12.871  67.582  1.00  0.00    -0.196 C  
HETATM    3  C   UNL     1      -7.154  12.377  68.386  1.00  0.00    -0.106 C  
HETATM    4  C   UNL     1      -9.642  11.332  67.484  1.00  0.00    -0.181 C  
HETATM    5  C   UNL     1      -8.902  10.607  68.591  1.00  0.00    -0.151 C  
HETATM    6  C   UNL     1      -6.105  16.018  69.059  1.00  0.00    -0.128 C  
HETATM    7  C   UNL     1      -7.622  14.726  67.357  1.00  0.00    -0.228 C  
HETATM    8  C   UNL     1      -7.500  11.106  68.676  1.00  0.00    -0.119 C  
HETATM    9  O   UNL     1      -9.569  10.773  69.830  1.00  0.00    -0.411 OA 
HETATM   10  C   UNL     1      -6.175  15.110  67.825  1.00  0.00    -0.172 C  
HETATM   11  C   UNL     1      -5.295  13.927  68.074  1.00  0.00    -0.106 C  
HETATM   12  H   UNL     1      -9.105  10.319  70.524  1.00  0.00     0.000 HD 
HETATM   13  C   UNL     1      -5.747  12.703  68.338  1.00  0.00    -0.060 C  
ENDROOT
BRANCH   2  14
HETATM   14  O   UNL     1     -10.078  13.471  66.377  1.00  0.00    -0.279 OA 
BRANCH  14  15
HETATM   15  C   UNL     1     -11.317  13.130  65.921  1.00  0.00    -0.311 C  
HETATM   16  C   UNL     1     -11.845  11.942  63.803  1.00  0.00    -0.558 C  
HETATM   17  C   UNL     1     -12.257  14.422  63.995  1.00  0.00    -0.300 C  
HETATM   18  O   UNL     1     -12.267  12.794  66.617  1.00  0.00    -0.481 OA 
HETATM   19  C   UNL     1     -11.354  13.254  64.411  1.00  0.00    -0.415 C  
HETATM   20  C   UNL     1     -11.701  15.775  64.416  1.00  0.00    -0.201 C  
ENDBRANCH  14  15
ENDBRANCH   2  14
BRANCH   7  21
HETATM   21  C   UNL     1      -8.559  15.984  67.350  1.00  0.00    -0.194 C  
BRANCH  21  22
HETATM   22  C   UNL     1      -9.015  16.316  68.788  1.00  0.00    -0.243 C  
BRANCH  22  23
HETATM   23  C   UNL     1     -10.519  16.434  69.067  1.00  0.00    -0.288 C  
HETATM   24  O   UNL     1     -11.280  16.185  67.885  1.00  0.00    -0.325 OA 
HETATM   25  H   UNL     1     -12.212  16.257  68.058  1.00  0.00     0.000 HD 
BRANCH  23  26
HETATM   26  C   UNL     1     -10.896  15.352  70.105  1.00  0.00    -0.328 C  
BRANCH  26  27
HETATM   27  C   UNL     1     -12.203  15.615  70.864  1.00  0.00    -0.419 C  
HETATM   28  O   UNL     1     -13.217  14.676  70.477  1.00  0.00    -0.549 OA 
HETATM   29  H   UNL     1     -14.026  14.839  70.947  1.00  0.00     0.000 HD 
BRANCH  27  30
HETATM   30  C   UNL     1     -11.990  15.449  72.372  1.00  0.00    -0.532 C  
HETATM   31  C   UNL     1     -13.161  15.937  73.194  1.00  0.00    -0.572 C  
HETATM   32  O   UNL     1     -14.373  15.657  72.666  1.00  0.00    -0.487 OA 
HETATM   33  O   UNL     1     -13.031  16.470  74.287  1.00  0.00    -0.639 OA 
ENDBRANCH  27  30
ENDBRANCH  26  27
ENDBRANCH  23  26
ENDBRANCH  22  23
ENDBRANCH  21  22
ENDBRANCH   7  21
TORSDOF 8
ENDMDL
MODEL       78
REMARK 921   NORMALIZED FREE ENERGY PREDICTED BY IDOCK:   -5.95 KCAL/MOL
REMARK 922        TOTAL FREE ENERGY PREDICTED BY IDOCK:  -10.20 KCAL/MOL
REMARK 923 INTER-LIGAND FREE ENERGY PREDICTED BY IDOCK:   -8.57 KCAL/MOL
REMARK 924 INTRA-LIGAND FREE ENERGY PREDICTED BY IDOCK:   -1.62 KCAL/MOL
REMARK 927      BINDING AFFINITY PREDICTED BY RF-SCORE:    0.00 PKD
ROOT
HETATM    1  C   UNL     1     -10.546  12.355  65.902  1.00  0.00    -0.289 C  
HETATM    2  C   UNL     1     -10.613  13.883  66.289  1.00  0.00    -0.289 C  
HETATM    3  C   UNL     1     -10.929  12.135  64.433  1.00  0.00    -0.375 C  
HETATM    4  C   UNL     1     -11.110  14.867  65.207  1.00  0.00    -0.382 C  
HETATM    5  C   UNL     1     -12.188  14.286  64.312  1.00  0.00    -0.423 C  
HETATM    6  C   UNL     1      -9.946   9.044  66.504  1.00  0.00    -0.355 C  
HETATM    7  C   UNL     1      -9.261  11.569  66.356  1.00  0.00    -0.218 C  
HETATM    8  C   UNL     1     -11.739  12.977  63.760  1.00  0.00    -0.547 C  
HETATM    9  O   UNL     1     -13.403  14.138  65.025  1.00  0.00    -0.553 OA 
HETATM   10  C   UNL     1      -9.186  10.131  65.734  1.00  0.00    -0.221 C  
HETATM   11  C   UNL     1      -9.626  10.074  64.306  1.00  0.00    -0.301 C  
HETATM   12  H   UNL     1     -14.079  13.775  64.464  1.00  0.00     0.000 HD 
HETATM   13  C   UNL     1     -10.422  10.976  63.734  1.00  0.00    -0.408 C  
ENDROOT
BRANCH   2  14
HETATM   14  O   UNL     1      -9.442  14.431  66.944  1.00  0.00    -0.236 OA 
BRANCH  14  15
HETATM   15  C   UNL     1      -9.533  14.971  68.192  1.00  0.00    -0.196 C  
HETATM   16  C   UNL     1     -11.621  15.501  69.431  1.00  0.00    -0.366 C  
HETATM   17  C   UNL     1     -10.269  17.355  68.388  1.00  0.00    -0.362 C  
HETATM   18  O   UNL     1      -8.760  14.764  69.118  1.00  0.00    -0.161 OA 
HETATM   19  C   UNL     1     -10.730  15.899  68.256  1.00  0.00    -0.291 C  
HETATM   20  C   UNL     1      -9.540  17.856  67.149  1.00  0.00    -0.280 C  
ENDBRANCH  14  15
ENDBRANCH   2  14
BRANCH   7  21
HETATM   21  C   UNL     1      -9.025  11.520  67.906  1.00  0.00    -0.159 C  
BRANCH  21  22
HETATM   22  C   UNL     1      -7.629  10.936  68.213  1.00  0.00    -0.100 C  
BRANCH  22  23
HETATM   23  C   UNL     1      -7.430  10.175  69.531  1.00  0.00    -0.133 C  
HETATM   24  O   UNL     1      -6.845  11.018  70.525  1.00  0.00    -0.490 OA 
HETATM   25  H   UNL     1      -6.723  10.547  71.341  1.00  0.00     0.000 HD 
BRANCH  23  26
HETATM   26  C   UNL     1      -8.823   9.743  70.044  1.00  0.00    -0.245 C  
BRANCH  26  27
HETATM   27  C   UNL     1      -9.001   8.230  70.223  1.00  0.00    -0.142 C  
HETATM   28  O   UNL     1      -8.735   7.840  71.579  1.00  0.00    -0.117 OA 
HETATM   29  H   UNL     1      -8.845   6.903  71.689  1.00  0.00     0.000 HD 
BRANCH  27  30
HETATM   30  C   UNL     1     -10.444   7.819  69.914  1.00  0.00    -0.232 C  
HETATM   31  C   UNL     1     -10.554   6.436  69.316  1.00  0.00    -0.259 C  
HETATM   32  O   UNL     1      -9.711   5.525  69.851  1.00  0.00    -0.153 OA 
HETATM   33  O   UNL     1     -11.388   6.138  68.473  1.00  0.00    -0.289 OA 
ENDBRANCH  27  30
ENDBRANCH  26  27
ENDBRANCH  23  26
ENDBRANCH  22  23
ENDBRANCH  21  22
ENDBRANCH   7  21
TORSDOF 8
ENDMDL
MODEL       79
REMARK 921   NORMALIZED FREE ENERGY PREDICTED BY IDOCK:   -5.94 KCAL/MOL
REMARK 922        TOTAL FREE ENERGY PREDICTED BY IDOCK:  -10.17 KCAL/MOL
REMARK 923 INTER-LIGAND FREE ENERGY PREDICTED BY IDOCK:   -8.56 KCAL/MOL
REMARK 924 INTRA-LIGAND FREE ENERGY PREDICTED BY IDOCK:   -1.62 KCAL/MOL
REMARK 927      BINDING AFFINITY PREDICTED BY RF-SCORE:    0.00 PKD
ROOT
HETATM    1  C   UNL     1     -10.037   8.630  68.658  1.00  0.00    -0.207 C  
HETATM    2  C   UNL     1     -10.779   7.433  67.948  1.00  0.00    -0.149 C  
HETATM    3  C   UNL     1      -9.593   8.248  70.076  1.00  0.00    -0.168 C  
HETATM    4  C   UNL     1     -11.010   6.150  68.778  1.00  0.00    -0.421 C  
HETATM    5  C   UNL     1     -11.283   6.421  70.245  1.00  0.00    -0.382 C  
HETATM    6  C   UNL     1      -8.725  11.783  68.824  1.00  0.00     0.019 C  
HETATM    7  C   UNL     1      -8.933   9.372  67.817  1.00  0.00    -0.127 C  
HETATM    8  C   UNL     1     -10.223   7.305  70.805  1.00  0.00    -0.204 C  
HETATM    9  O   UNL     1     -12.563   7.005  70.415  1.00  0.00    -0.618 OA 
HETATM   10  C   UNL     1      -8.104  10.388  68.678  1.00  0.00    -0.118 C  
HETATM   11  C   UNL     1      -7.781   9.884  70.049  1.00  0.00    -0.188 C  
HETATM   12  H   UNL     1     -12.735   7.174  71.334  1.00  0.00     0.000 HD 
HETATM   13  C   UNL     1      -8.466   8.929  70.674  1.00  0.00    -0.211 C  
ENDROOT
BRANCH   2  14
HETATM   14  O   UNL     1     -10.306   7.078  66.625  1.00  0.00    -0.218 OA 
BRANCH  14  15
HETATM   15  C   UNL     1      -9.591   5.934  66.427  1.00  0.00    -0.146 C  
HETATM   16  C   UNL     1      -7.580   5.202  67.689  1.00  0.00    -0.087 C  
HETATM   17  C   UNL     1      -7.337   6.129  65.358  1.00  0.00    -0.080 C  
HETATM   18  O   UNL     1     -10.053   4.854  66.081  1.00  0.00    -0.205 OA 
HETATM   19  C   UNL     1      -8.120   6.206  66.673  1.00  0.00    -0.109 C  
HETATM   20  C   UNL     1      -7.711   7.238  64.384  1.00  0.00    -0.120 C  
ENDBRANCH  14  15
ENDBRANCH   2  14
BRANCH   7  21
HETATM   21  C   UNL     1      -9.446  10.048  66.497  1.00  0.00    -0.222 C  
BRANCH  21  22
HETATM   22  C   UNL     1     -10.845  10.661  66.722  1.00  0.00    -0.233 C  
BRANCH  22  23
HETATM   23  C   UNL     1     -11.322  11.760  65.764  1.00  0.00    -0.250 C  
HETATM   24  O   UNL     1     -12.439  12.465  66.308  1.00  0.00    -0.462 OA 
HETATM   25  H   UNL     1     -12.733  13.146  65.714  1.00  0.00     0.000 HD 
BRANCH  23  26
HETATM   26  C   UNL     1     -10.167  12.774  65.591  1.00  0.00    -0.292 C  
BRANCH  26  27
HETATM   27  C   UNL     1     -10.535  14.042  64.810  1.00  0.00    -0.421 C  
HETATM   28  O   UNL     1     -11.749  13.852  64.069  1.00  0.00    -0.578 OA 
HETATM   29  H   UNL     1     -11.977  14.637  63.585  1.00  0.00     0.000 HD 
BRANCH  27  30
HETATM   30  C   UNL     1     -10.773  15.213  65.769  1.00  0.00    -0.359 C  
HETATM   31  C   UNL     1     -10.839  16.550  65.069  1.00  0.00    -0.229 C  
HETATM   32  O   UNL     1     -11.485  16.531  63.882  1.00  0.00    -1.145 OA 
HETATM   33  O   UNL     1     -10.417  17.584  65.566  1.00  0.00    -0.628 OA 
ENDBRANCH  27  30
ENDBRANCH  26  27
ENDBRANCH  23  26
ENDBRANCH  22  23
ENDBRANCH  21  22
ENDBRANCH   7  21
TORSDOF 8
ENDMDL
MODEL       80
REMARK 921   NORMALIZED FREE ENERGY PREDICTED BY IDOCK:   -5.94 KCAL/MOL
REMARK 922        TOTAL FREE ENERGY PREDICTED BY IDOCK:  -10.17 KCAL/MOL
REMARK 923 INTER-LIGAND FREE ENERGY PREDICTED BY IDOCK:   -8.61 KCAL/MOL
REMARK 924 INTRA-LIGAND FREE ENERGY PREDICTED BY IDOCK:   -1.56 KCAL/MOL
REMARK 927      BINDING AFFINITY PREDICTED BY RF-SCORE:    0.00 PKD
ROOT
HETATM    1  C   UNL     1      -8.574  11.498  65.794  1.00  0.00     0.059 C  
HETATM    2  C   UNL     1      -9.179  12.330  66.990  1.00  0.00    -0.205 C  
HETATM    3  C   UNL     1      -7.145  11.036  66.103  1.00  0.00    -0.054 C  
HETATM    4  C   UNL     1      -8.256  12.611  68.196  1.00  0.00    -0.170 C  
HETATM    5  C   UNL     1      -6.805  12.825  67.809  1.00  0.00    -0.135 C  
HETATM    6  C   UNL     1      -8.663  10.000  62.722  1.00  0.00    -0.215 C  
HETATM    7  C   UNL     1      -9.492  10.378  65.179  1.00  0.00    -0.303 C  
HETATM    8  C   UNL     1      -6.335  11.699  66.955  1.00  0.00    -0.142 C  
HETATM    9  O   UNL     1      -6.645  14.063  67.139  1.00  0.00    -0.412 OA 
HETATM   10  C   UNL     1      -8.726   9.466  64.159  1.00  0.00    -0.224 C  
HETATM   11  C   UNL     1      -7.332   9.133  64.586  1.00  0.00    -0.099 C  
HETATM   12  H   UNL     1      -5.736  14.198  66.897  1.00  0.00     0.000 HD 
HETATM   13  C   UNL     1      -6.624   9.854  65.453  1.00  0.00    -0.099 C  
ENDROOT
BRANCH   2  14
HETATM   14  O   UNL     1     -10.486  11.917  67.463  1.00  0.00    -0.203 OA 
BRANCH  14  15
HETATM   15  C   UNL     1     -10.656  11.487  68.745  1.00  0.00    -0.211 C  
HETATM   16  C   UNL     1     -12.767  10.667  69.768  1.00  0.00     0.028 C  
HETATM   17  C   UNL     1     -11.907  12.970  70.325  1.00  0.00    -0.294 C  
HETATM   18  O   UNL     1      -9.826  10.882  69.411  1.00  0.00    -0.154 OA 
HETATM   19  C   UNL     1     -12.030  11.895  69.239  1.00  0.00    -0.342 C  
HETATM   20  C   UNL     1     -11.352  14.284  69.793  1.00  0.00    -0.279 C  
ENDBRANCH  14  15
ENDBRANCH   2  14
BRANCH   7  21
HETATM   21  C   UNL     1     -10.843  10.888  64.567  1.00  0.00    -0.145 C  
BRANCH  21  22
HETATM   22  C   UNL     1     -10.628  12.243  63.858  1.00  0.00    -0.462 C  
BRANCH  22  23
HETATM   23  C   UNL     1     -11.853  13.125  63.580  1.00  0.00    -0.488 C  
HETATM   24  O   UNL     1     -13.043  12.338  63.508  1.00  0.00    -0.766 OA 
HETATM   25  H   UNL     1     -13.802  12.884  63.337  1.00  0.00     0.000 HD 
BRANCH  23  26
HETATM   26  C   UNL     1     -12.011  14.106  64.765  1.00  0.00    -0.441 C  
BRANCH  26  27
HETATM   27  C   UNL     1     -10.879  15.131  64.907  1.00  0.00    -0.418 C  
HETATM   28  O   UNL     1     -11.167  16.319  64.154  1.00  0.00    -1.193 OA 
HETATM   29  H   UNL     1     -10.466  16.953  64.242  1.00  0.00     0.000 HD 
BRANCH  27  30
HETATM   30  C   UNL     1     -10.719  15.555  66.370  1.00  0.00    -0.303 C  
HETATM   31  C   UNL     1      -9.351  16.117  66.680  1.00  0.00    -0.242 C  
HETATM   32  O   UNL     1      -8.832  16.899  65.708  1.00  0.00    -0.522 OA 
HETATM   33  O   UNL     1      -8.788  15.947  67.752  1.00  0.00    -0.173 OA 
ENDBRANCH  27  30
ENDBRANCH  26  27
ENDBRANCH  23  26
ENDBRANCH  22  23
ENDBRANCH  21  22
ENDBRANCH   7  21
TORSDOF 8
ENDMDL
MODEL       81
REMARK 921   NORMALIZED FREE ENERGY PREDICTED BY IDOCK:   -5.90 KCAL/MOL
REMARK 922        TOTAL FREE ENERGY PREDICTED BY IDOCK:  -10.12 KCAL/MOL
REMARK 923 INTER-LIGAND FREE ENERGY PREDICTED BY IDOCK:   -8.55 KCAL/MOL
REMARK 924 INTRA-LIGAND FREE ENERGY PREDICTED BY IDOCK:   -1.56 KCAL/MOL
REMARK 927      BINDING AFFINITY PREDICTED BY RF-SCORE:    0.00 PKD
ROOT
HETATM    1  C   UNL     1      -8.628  12.330  68.083  1.00  0.00    -0.181 C  
HETATM    2  C   UNL     1      -9.924  11.784  67.367  1.00  0.00    -0.184 C  
HETATM    3  C   UNL     1      -7.697  11.184  68.499  1.00  0.00    -0.129 C  
HETATM    4  C   UNL     1     -10.090  10.251  67.275  1.00  0.00    -0.249 C  
HETATM    5  C   UNL     1      -9.548   9.511  68.483  1.00  0.00    -0.142 C  
HETATM    6  C   UNL     1      -6.556  14.779  69.265  1.00  0.00    -0.128 C  
HETATM    7  C   UNL     1      -7.893  13.534  67.386  1.00  0.00    -0.157 C  
HETATM    8  C   UNL     1      -8.147   9.939  68.755  1.00  0.00    -0.102 C  
HETATM    9  O   UNL     1     -10.369   9.736  69.615  1.00  0.00    -0.206 OA 
HETATM   10  C   UNL     1      -6.505  13.852  68.044  1.00  0.00    -0.147 C  
HETATM   11  C   UNL     1      -5.732  12.630  68.428  1.00  0.00    -0.060 C  
HETATM   12  H   UNL     1     -10.031   9.272  70.373  1.00  0.00     0.000 HD 
HETATM   13  C   UNL     1      -6.281  11.437  68.643  1.00  0.00    -0.048 C  
ENDROOT
BRANCH   2  14
HETATM   14  O   UNL     1     -10.254  12.387  66.091  1.00  0.00    -0.233 OA 
BRANCH  14  15
HETATM   15  C   UNL     1     -11.554  12.615  65.747  1.00  0.00    -0.387 C  
HETATM   16  C   UNL     1     -12.610  12.148  63.547  1.00  0.00    -0.621 C  
HETATM   17  C   UNL     1     -12.042  14.516  64.195  1.00  0.00    -0.377 C  
HETATM   18  O   UNL     1     -12.519  12.512  66.493  1.00  0.00    -0.396 OA 
HETATM   19  C   UNL     1     -11.626  13.044  64.295  1.00  0.00    -0.437 C  
HETATM   20  C   UNL     1     -10.992  15.464  64.759  1.00  0.00    -0.411 C  
ENDBRANCH  14  15
ENDBRANCH   2  14
BRANCH   7  21
HETATM   21  C   UNL     1      -8.751  14.838  67.234  1.00  0.00    -0.226 C  
BRANCH  21  22
HETATM   22  C   UNL     1      -9.869  14.867  68.299  1.00  0.00    -0.218 C  
BRANCH  22  23
HETATM   23  C   UNL     1     -10.951  15.950  68.192  1.00  0.00    -0.335 C  
HETATM   24  O   UNL     1     -12.229  15.435  68.565  1.00  0.00    -0.563 OA 
HETATM   25  H   UNL     1     -12.899  16.105  68.499  1.00  0.00     0.000 HD 
BRANCH  23  26
HETATM   26  C   UNL     1     -10.592  17.079  69.185  1.00  0.00    -0.303 C  
BRANCH  26  27
HETATM   27  C   UNL     1     -10.261  18.428  68.534  1.00  0.00    -0.364 C  
HETATM   28  O   UNL     1      -9.013  18.940  69.026  1.00  0.00    -0.267 OA 
HETATM   29  H   UNL     1      -8.809  19.776  68.623  1.00  0.00     0.000 HD 
BRANCH  27  30
HETATM   30  C   UNL     1     -10.116  18.271  67.018  1.00  0.00    -0.370 C  
HETATM   31  C   UNL     1     -10.342  19.560  66.262  1.00  0.00    -0.506 C  
HETATM   32  O   UNL     1      -9.832  20.659  66.862  1.00  0.00    -0.423 OA 
HETATM   33  O   UNL     1     -10.871  19.603  65.161  1.00  0.00    -0.386 OA 
ENDBRANCH  27  30
ENDBRANCH  26  27
ENDBRANCH  23  26
ENDBRANCH  22  23
ENDBRANCH  21  22
ENDBRANCH   7  21
TORSDOF 8
ENDMDL
MODEL       82
REMARK 921   NORMALIZED FREE ENERGY PREDICTED BY IDOCK:   -5.88 KCAL/MOL
REMARK 922        TOTAL FREE ENERGY PREDICTED BY IDOCK:  -10.08 KCAL/MOL
REMARK 923 INTER-LIGAND FREE ENERGY PREDICTED BY IDOCK:   -8.43 KCAL/MOL
REMARK 924 INTRA-LIGAND FREE ENERGY PREDICTED BY IDOCK:   -1.65 KCAL/MOL
REMARK 927      BINDING AFFINITY PREDICTED BY RF-SCORE:    0.00 PKD
ROOT
HETATM    1  C   UNL     1     -10.767   7.744  69.774  1.00  0.00    -0.236 C  
HETATM    2  C   UNL     1      -9.802   7.673  68.528  1.00  0.00    -0.167 C  
HETATM    3  C   UNL     1     -10.428   6.658  70.803  1.00  0.00    -0.251 C  
HETATM    4  C   UNL     1      -8.768   6.526  68.496  1.00  0.00    -0.122 C  
HETATM    5  C   UNL     1      -9.280   5.235  69.105  1.00  0.00    -0.118 C  
HETATM    6  C   UNL     1     -13.320   9.059  71.628  1.00  0.00    -0.433 C  
HETATM    7  C   UNL     1     -11.009   9.167  70.398  1.00  0.00    -0.290 C  
HETATM    8  C   UNL     1      -9.831   5.497  70.464  1.00  0.00    -0.254 C  
HETATM    9  O   UNL     1     -10.263   4.645  68.272  1.00  0.00    -0.057 OA 
HETATM   10  C   UNL     1     -11.793   9.103  71.755  1.00  0.00    -0.453 C  
HETATM   11  C   UNL     1     -11.372   7.967  72.634  1.00  0.00    -0.469 C  
HETATM   12  H   UNL     1     -10.584   3.836  68.653  1.00  0.00     0.000 HD 
HETATM   13  C   UNL     1     -10.770   6.865  72.192  1.00  0.00    -0.248 C  
ENDROOT
BRANCH   2  14
HETATM   14  O   UNL     1      -9.163   8.915  68.140  1.00  0.00    -0.139 OA 
BRANCH  14  15
HETATM   15  C   UNL     1      -7.845   9.132  68.410  1.00  0.00    -0.102 C  
HETATM   16  C   UNL     1      -6.835   9.544  70.643  1.00  0.00    -0.115 C  
HETATM   17  C   UNL     1      -7.138  11.452  69.025  1.00  0.00    -0.117 C  
HETATM   18  O   UNL     1      -6.901   8.621  67.821  1.00  0.00    -0.065 OA 
HETATM   19  C   UNL     1      -7.717  10.131  69.544  1.00  0.00    -0.155 C  
HETATM   20  C   UNL     1      -8.078  12.171  68.067  1.00  0.00    -0.155 C  
ENDBRANCH  14  15
ENDBRANCH   2  14
BRANCH   7  21
HETATM   21  C   UNL     1     -11.657  10.216  69.429  1.00  0.00    -0.151 C  
BRANCH  21  22
HETATM   22  C   UNL     1     -11.796  11.581  70.138  1.00  0.00    -0.440 C  
BRANCH  22  23
HETATM   23  C   UNL     1     -11.911  12.844  69.273  1.00  0.00    -0.309 C  
HETATM   24  O   UNL     1     -10.991  13.847  69.707  1.00  0.00    -0.454 OA 
HETATM   25  H   UNL     1     -11.063  14.628  69.171  1.00  0.00     0.000 HD 
BRANCH  23  26
HETATM   26  C   UNL     1     -11.537  12.462  67.822  1.00  0.00    -0.413 C  
BRANCH  26  27
HETATM   27  C   UNL     1     -11.859  13.532  66.772  1.00  0.00    -0.406 C  
HETATM   28  O   UNL     1     -11.012  14.680  66.935  1.00  0.00    -0.309 OA 
HETATM   29  H   UNL     1     -11.211  15.342  66.284  1.00  0.00     0.000 HD 
BRANCH  27  30
HETATM   30  C   UNL     1     -11.613  12.990  65.360  1.00  0.00    -0.374 C  
HETATM   31  C   UNL     1     -12.150  13.893  64.274  1.00  0.00    -0.440 C  
HETATM   32  O   UNL     1     -11.984  15.213  64.510  1.00  0.00    -0.416 OA 
HETATM   33  O   UNL     1     -12.624  13.470  63.230  1.00  0.00    -0.773 OA 
ENDBRANCH  27  30
ENDBRANCH  26  27
ENDBRANCH  23  26
ENDBRANCH  22  23
ENDBRANCH  21  22
ENDBRANCH   7  21
TORSDOF 8
ENDMDL
MODEL       83
REMARK 921   NORMALIZED FREE ENERGY PREDICTED BY IDOCK:   -5.86 KCAL/MOL
REMARK 922        TOTAL FREE ENERGY PREDICTED BY IDOCK:  -10.06 KCAL/MOL
REMARK 923 INTER-LIGAND FREE ENERGY PREDICTED BY IDOCK:   -8.36 KCAL/MOL
REMARK 924 INTRA-LIGAND FREE ENERGY PREDICTED BY IDOCK:   -1.71 KCAL/MOL
REMARK 927      BINDING AFFINITY PREDICTED BY RF-SCORE:    0.00 PKD
ROOT
HETATM    1  C   UNL     1      -9.182   9.716  69.628  1.00  0.00    -0.225 C  
HETATM    2  C   UNL     1     -10.504   8.998  69.155  1.00  0.00    -0.225 C  
HETATM    3  C   UNL     1      -8.585   9.027  70.862  1.00  0.00    -0.263 C  
HETATM    4  C   UNL     1     -11.017   7.821  70.013  1.00  0.00    -0.218 C  
HETATM    5  C   UNL     1     -10.769   8.003  71.498  1.00  0.00    -0.227 C  
HETATM    6  C   UNL     1      -6.701  12.059  69.424  1.00  0.00    -0.070 C  
HETATM    7  C   UNL     1      -8.128  10.060  68.512  1.00  0.00    -0.103 C  
HETATM    8  C   UNL     1      -9.335   8.328  71.738  1.00  0.00    -0.266 C  
HETATM    9  O   UNL     1     -11.608   9.017  72.024  1.00  0.00    -0.361 OA 
HETATM   10  C   UNL     1      -6.765  10.561  69.106  1.00  0.00    -0.069 C  
HETATM   11  C   UNL     1      -6.336   9.813  70.328  1.00  0.00    -0.085 C  
HETATM   12  H   UNL     1     -11.453   9.131  72.954  1.00  0.00     0.000 HD 
HETATM   13  C   UNL     1      -7.166   9.137  71.119  1.00  0.00    -0.091 C  
ENDROOT
BRANCH   2  14
HETATM   14  O   UNL     1     -10.574   8.644  67.751  1.00  0.00    -0.236 OA 
BRANCH  14  15
HETATM   15  C   UNL     1     -10.370   7.358  67.348  1.00  0.00    -0.270 C  
HETATM   16  C   UNL     1      -8.662   5.781  68.225  1.00  0.00    -0.111 C  
HETATM   17  C   UNL     1      -8.337   6.867  65.974  1.00  0.00    -0.134 C  
HETATM   18  O   UNL     1     -11.239   6.577  66.982  1.00  0.00    -0.397 OA 
HETATM   19  C   UNL     1      -8.888   7.041  67.394  1.00  0.00    -0.119 C  
HETATM   20  C   UNL     1      -8.365   8.159  65.169  1.00  0.00    -0.152 C  
ENDBRANCH  14  15
ENDBRANCH   2  14
BRANCH   7  21
HETATM   21  C   UNL     1      -8.639  11.032  67.392  1.00  0.00    -0.132 C  
BRANCH  21  22
HETATM   22  C   UNL     1      -9.796  11.902  67.930  1.00  0.00    -0.190 C  
BRANCH  22  23
HETATM   23  C   UNL     1     -11.066  12.034  67.079  1.00  0.00    -0.298 C  
HETATM   24  O   UNL     1     -12.206  11.536  67.781  1.00  0.00    -0.560 OA 
HETATM   25  H   UNL     1     -12.992  11.618  67.254  1.00  0.00     0.000 HD 
BRANCH  23  26
HETATM   26  C   UNL     1     -11.302  13.538  66.809  1.00  0.00    -0.351 C  
BRANCH  26  27
HETATM   27  C   UNL     1     -10.811  14.031  65.442  1.00  0.00    -0.328 C  
HETATM   28  O   UNL     1      -9.422  14.389  65.496  1.00  0.00    -0.535 OA 
HETATM   29  H   UNL     1      -9.118  14.694  64.650  1.00  0.00     0.000 HD 
BRANCH  27  30
HETATM   30  C   UNL     1     -10.949  12.926  64.391  1.00  0.00    -0.400 C  
HETATM   31  C   UNL     1     -12.250  12.993  63.624  1.00  0.00    -0.491 C  
HETATM   32  O   UNL     1     -12.658  14.244  63.319  1.00  0.00    -0.716 OA 
HETATM   33  O   UNL     1     -12.848  11.999  63.239  1.00  0.00    -0.732 OA 
ENDBRANCH  27  30
ENDBRANCH  26  27
ENDBRANCH  23  26
ENDBRANCH  22  23
ENDBRANCH  21  22
ENDBRANCH   7  21
TORSDOF 8
ENDMDL
MODEL       84
REMARK 921   NORMALIZED FREE ENERGY PREDICTED BY IDOCK:   -5.86 KCAL/MOL
REMARK 922        TOTAL FREE ENERGY PREDICTED BY IDOCK:  -10.06 KCAL/MOL
REMARK 923 INTER-LIGAND FREE ENERGY PREDICTED BY IDOCK:   -8.48 KCAL/MOL
REMARK 924 INTRA-LIGAND FREE ENERGY PREDICTED BY IDOCK:   -1.58 KCAL/MOL
REMARK 927      BINDING AFFINITY PREDICTED BY RF-SCORE:    0.00 PKD
ROOT
HETATM    1  C   UNL     1      -9.451   7.852  68.548  1.00  0.00    -0.148 C  
HETATM    2  C   UNL     1     -10.313   7.747  69.865  1.00  0.00    -0.223 C  
HETATM    3  C   UNL     1      -9.504   6.547  67.743  1.00  0.00    -0.119 C  
HETATM    4  C   UNL     1     -10.976   6.386  70.172  1.00  0.00    -0.395 C  
HETATM    5  C   UNL     1     -10.140   5.197  69.743  1.00  0.00    -0.266 C  
HETATM    6  C   UNL     1      -7.443   9.456  66.294  1.00  0.00    -0.096 C  
HETATM    7  C   UNL     1      -9.646   9.150  67.680  1.00  0.00    -0.181 C  
HETATM    8  C   UNL     1      -9.735   5.348  68.317  1.00  0.00    -0.175 C  
HETATM    9  O   UNL     1      -9.002   5.059  70.575  1.00  0.00    -0.119 OA 
HETATM   10  C   UNL     1      -8.924   9.057  66.291  1.00  0.00    -0.199 C  
HETATM   11  C   UNL     1      -9.035   7.710  65.649  1.00  0.00    -0.036 C  
HETATM   12  H   UNL     1      -8.478   4.313  70.306  1.00  0.00     0.000 HD 
HETATM   13  C   UNL     1      -9.283   6.584  66.315  1.00  0.00    -0.160 C  
ENDROOT
BRANCH   2  14
HETATM   14  O   UNL     1     -11.264   8.816  70.096  1.00  0.00    -0.237 OA 
BRANCH  14  15
HETATM   15  C   UNL     1     -11.689   9.107  71.358  1.00  0.00    -0.343 C  
HETATM   16  C   UNL     1     -14.017   8.951  72.214  1.00  0.00    -0.531 C  
HETATM   17  C   UNL     1     -13.011  11.204  71.698  1.00  0.00    -0.548 C  
HETATM   18  O   UNL     1     -11.052   8.921  72.387  1.00  0.00    -0.280 OA 
HETATM   19  C   UNL     1     -13.072   9.726  71.298  1.00  0.00    -0.465 C  
HETATM   20  C   UNL     1     -12.235  12.053  70.700  1.00  0.00    -0.409 C  
ENDBRANCH  14  15
ENDBRANCH   2  14
BRANCH   7  21
HETATM   21  C   UNL     1      -9.289  10.494  68.405  1.00  0.00    -0.158 C  
BRANCH  21  22
HETATM   22  C   UNL     1     -10.005  11.676  67.717  1.00  0.00    -0.191 C  
BRANCH  22  23
HETATM   23  C   UNL     1      -9.275  13.023  67.635  1.00  0.00    -0.200 C  
HETATM   24  O   UNL     1      -9.282  13.529  66.299  1.00  0.00    -0.444 OA 
HETATM   25  H   UNL     1      -8.830  14.363  66.249  1.00  0.00     0.000 HD 
BRANCH  23  26
HETATM   26  C   UNL     1     -10.038  14.033  68.523  1.00  0.00    -0.236 C  
BRANCH  26  27
HETATM   27  C   UNL     1     -10.948  15.003  67.758  1.00  0.00    -0.298 C  
HETATM   28  O   UNL     1     -12.188  14.371  67.406  1.00  0.00    -0.591 OA 
HETATM   29  H   UNL     1     -12.751  14.972  66.933  1.00  0.00     0.000 HD 
BRANCH  27  30
HETATM   30  C   UNL     1     -11.293  16.215  68.630  1.00  0.00    -0.365 C  
HETATM   31  C   UNL     1     -10.627  17.489  68.166  1.00  0.00    -0.366 C  
HETATM   32  O   UNL     1     -10.573  17.638  66.824  1.00  0.00    -0.313 OA 
HETATM   33  O   UNL     1     -10.238  18.356  68.936  1.00  0.00    -0.382 OA 
ENDBRANCH  27  30
ENDBRANCH  26  27
ENDBRANCH  23  26
ENDBRANCH  22  23
ENDBRANCH  21  22
ENDBRANCH   7  21
TORSDOF 8
ENDMDL
MODEL       85
REMARK 921   NORMALIZED FREE ENERGY PREDICTED BY IDOCK:   -5.81 KCAL/MOL
REMARK 922        TOTAL FREE ENERGY PREDICTED BY IDOCK:   -9.98 KCAL/MOL
REMARK 923 INTER-LIGAND FREE ENERGY PREDICTED BY IDOCK:   -8.26 KCAL/MOL
REMARK 924 INTRA-LIGAND FREE ENERGY PREDICTED BY IDOCK:   -1.72 KCAL/MOL
REMARK 927      BINDING AFFINITY PREDICTED BY RF-SCORE:    0.00 PKD
ROOT
HETATM    1  C   UNL     1      -9.856   9.576  67.978  1.00  0.00    -0.181 C  
HETATM    2  C   UNL     1     -10.473   8.882  69.253  1.00  0.00    -0.224 C  
HETATM    3  C   UNL     1      -9.667   8.572  66.834  1.00  0.00    -0.286 C  
HETATM    4  C   UNL     1     -10.703   7.356  69.188  1.00  0.00    -0.180 C  
HETATM    5  C   UNL     1      -9.646   6.620  68.387  1.00  0.00    -0.123 C  
HETATM    6  C   UNL     1      -8.669  12.231  66.181  1.00  0.00     0.138 C  
HETATM    7  C   UNL     1     -10.504  10.940  67.535  1.00  0.00    -0.252 C  
HETATM    8  C   UNL     1      -9.491   7.252  67.047  1.00  0.00    -0.196 C  
HETATM    9  O   UNL     1      -8.411   6.609  69.082  1.00  0.00    -0.122 OA 
HETATM   10  C   UNL     1      -9.977  11.431  66.142  1.00  0.00    -0.265 C  
HETATM   11  C   UNL     1      -9.811  10.329  65.144  1.00  0.00    -0.389 C  
HETATM   12  H   UNL     1      -7.749   6.148  68.580  1.00  0.00     0.000 HD 
HETATM   13  C   UNL     1      -9.659   9.046  65.468  1.00  0.00    -0.166 C  
ENDROOT
BRANCH   2  14
HETATM   14  O   UNL     1     -11.634   9.526  69.835  1.00  0.00    -0.135 OA 
BRANCH  14  15
HETATM   15  C   UNL     1     -11.859   9.469  71.179  1.00  0.00    -0.358 C  
HETATM   16  C   UNL     1     -13.937   8.704  72.305  1.00  0.00    -0.472 C  
HETATM   17  C   UNL     1     -13.402  11.164  72.183  1.00  0.00    -0.270 C  
HETATM   18  O   UNL     1     -11.022   9.205  72.032  1.00  0.00    -0.349 OA 
HETATM   19  C   UNL     1     -13.307   9.812  71.465  1.00  0.00    -0.468 C  
HETATM   20  C   UNL     1     -12.963  12.328  71.305  1.00  0.00    -0.299 C  
ENDBRANCH  14  15
ENDBRANCH   2  14
BRANCH   7  21
HETATM   21  C   UNL     1     -10.423  12.090  68.599  1.00  0.00    -0.238 C  
BRANCH  21  22
HETATM   22  C   UNL     1     -11.439  13.203  68.258  1.00  0.00    -0.349 C  
BRANCH  22  23
HETATM   23  C   UNL     1     -11.195  14.610  68.820  1.00  0.00    -0.267 C  
HETATM   24  O   UNL     1     -10.240  14.579  69.881  1.00  0.00    -0.429 OA 
HETATM   25  H   UNL     1     -10.089  15.450  70.229  1.00  0.00     0.000 HD 
BRANCH  23  26
HETATM   26  C   UNL     1     -10.607  15.479  67.685  1.00  0.00    -0.291 C  
BRANCH  26  27
HETATM   27  C   UNL     1     -10.669  16.991  67.934  1.00  0.00    -0.348 C  
HETATM   28  O   UNL     1     -10.444  17.292  69.319  1.00  0.00    -0.338 OA 
HETATM   29  H   UNL     1     -10.484  18.228  69.473  1.00  0.00     0.000 HD 
BRANCH  27  30
HETATM   30  C   UNL     1      -9.579  17.713  67.135  1.00  0.00    -0.278 C  
HETATM   31  C   UNL     1      -9.859  19.185  66.943  1.00  0.00    -0.335 C  
HETATM   32  O   UNL     1     -10.402  19.798  68.018  1.00  0.00    -0.427 OA 
HETATM   33  O   UNL     1      -9.549  19.795  65.929  1.00  0.00    -0.364 OA 
ENDBRANCH  27  30
ENDBRANCH  26  27
ENDBRANCH  23  26
ENDBRANCH  22  23
ENDBRANCH  21  22
ENDBRANCH   7  21
TORSDOF 8
ENDMDL
MODEL       86
REMARK 921   NORMALIZED FREE ENERGY PREDICTED BY IDOCK:   -5.77 KCAL/MOL
REMARK 922        TOTAL FREE ENERGY PREDICTED BY IDOCK:   -9.92 KCAL/MOL
REMARK 923 INTER-LIGAND FREE ENERGY PREDICTED BY IDOCK:   -8.19 KCAL/MOL
REMARK 924 INTRA-LIGAND FREE ENERGY PREDICTED BY IDOCK:   -1.73 KCAL/MOL
REMARK 927      BINDING AFFINITY PREDICTED BY RF-SCORE:    0.00 PKD
ROOT
HETATM    1  C   UNL     1      -9.692  10.129  67.110  1.00  0.00    -0.214 C  
HETATM    2  C   UNL     1      -9.519   8.776  67.903  1.00  0.00    -0.142 C  
HETATM    3  C   UNL     1      -9.682   9.891  65.595  1.00  0.00    -0.346 C  
HETATM    4  C   UNL     1      -9.292   7.492  67.074  1.00  0.00    -0.186 C  
HETATM    5  C   UNL     1      -8.471   7.721  65.820  1.00  0.00    -0.144 C  
HETATM    6  C   UNL     1     -10.158  13.504  66.833  1.00  0.00    -0.256 C  
HETATM    7  C   UNL     1     -10.834  11.092  67.602  1.00  0.00    -0.295 C  
HETATM    8  C   UNL     1      -9.054   8.841  65.028  1.00  0.00    -0.047 C  
HETATM    9  O   UNL     1      -7.120   7.991  66.149  1.00  0.00    -0.061 OA 
HETATM   10  C   UNL     1     -11.073  12.292  66.620  1.00  0.00    -0.344 C  
HETATM   11  C   UNL     1     -10.995  11.906  65.177  1.00  0.00    -0.365 C  
HETATM   12  H   UNL     1      -6.605   8.134  65.363  1.00  0.00     0.000 HD 
HETATM   13  C   UNL     1     -10.355  10.830  64.725  1.00  0.00    -0.380 C  
ENDROOT
BRANCH   2  14
HETATM   14  O   UNL     1     -10.490   8.515  68.948  1.00  0.00    -0.215 OA 
BRANCH  14  15
HETATM   15  C   UNL     1     -10.135   7.828  70.070  1.00  0.00    -0.201 C  
HETATM   16  C   UNL     1     -10.856   5.534  70.696  1.00  0.00    -0.257 C  
HETATM   17  C   UNL     1     -11.857   7.533  71.861  1.00  0.00    -0.331 C  
HETATM   18  O   UNL     1      -9.049   7.890  70.632  1.00  0.00    -0.150 OA 
HETATM   19  C   UNL     1     -11.304   6.985  70.540  1.00  0.00    -0.355 C  
HETATM   20  C   UNL     1     -12.492   8.908  71.708  1.00  0.00    -0.425 C  
ENDBRANCH  14  15
ENDBRANCH   2  14
BRANCH   7  21
HETATM   21  C   UNL     1     -10.685  11.601  69.078  1.00  0.00    -0.217 C  
BRANCH  21  22
HETATM   22  C   UNL     1     -12.074  11.715  69.745  1.00  0.00    -0.357 C  
BRANCH  22  23
HETATM   23  C   UNL     1     -12.532  13.092  70.243  1.00  0.00    -0.147 C  
HETATM   24  O   UNL     1     -12.708  13.091  71.661  1.00  0.00    -0.296 OA 
HETATM   25  H   UNL     1     -12.992  13.943  71.969  1.00  0.00     0.000 HD 
BRANCH  23  26
HETATM   26  C   UNL     1     -11.420  14.112  69.910  1.00  0.00    -0.288 C  
BRANCH  26  27
HETATM   27  C   UNL     1     -11.919  15.524  69.578  1.00  0.00    -0.350 C  
HETATM   28  O   UNL     1     -13.144  15.809  70.270  1.00  0.00    -0.685 OA 
HETATM   29  H   UNL     1     -13.453  16.683  70.064  1.00  0.00     0.000 HD 
BRANCH  27  30
HETATM   30  C   UNL     1     -10.897  16.574  70.024  1.00  0.00    -0.258 C  
HETATM   31  C   UNL     1     -10.067  17.117  68.884  1.00  0.00    -0.322 C  
HETATM   32  O   UNL     1     -10.750  17.312  67.735  1.00  0.00    -0.368 OA 
HETATM   33  O   UNL     1      -8.892  17.433  69.007  1.00  0.00    -0.191 OA 
ENDBRANCH  27  30
ENDBRANCH  26  27
ENDBRANCH  23  26
ENDBRANCH  22  23
ENDBRANCH  21  22
ENDBRANCH   7  21
TORSDOF 8
ENDMDL
MODEL       87
REMARK 921   NORMALIZED FREE ENERGY PREDICTED BY IDOCK:   -5.77 KCAL/MOL
REMARK 922        TOTAL FREE ENERGY PREDICTED BY IDOCK:   -9.92 KCAL/MOL
REMARK 923 INTER-LIGAND FREE ENERGY PREDICTED BY IDOCK:   -9.01 KCAL/MOL
REMARK 924 INTRA-LIGAND FREE ENERGY PREDICTED BY IDOCK:   -0.91 KCAL/MOL
REMARK 927      BINDING AFFINITY PREDICTED BY RF-SCORE:    0.00 PKD
ROOT
HETATM    1  C   UNL     1      -7.727  15.355  68.722  1.00  0.00    -0.150 C  
HETATM    2  C   UNL     1      -7.142  13.901  68.547  1.00  0.00    -0.104 C  
HETATM    3  C   UNL     1      -6.718  16.282  69.412  1.00  0.00    -0.209 C  
HETATM    4  C   UNL     1      -5.744  13.623  69.143  1.00  0.00    -0.080 C  
HETATM    5  C   UNL     1      -5.478  14.373  70.434  1.00  0.00    -0.118 C  
HETATM    6  C   UNL     1     -10.103  17.788  68.369  1.00  0.00    -0.376 C  
HETATM    7  C   UNL     1      -8.425  15.990  67.463  1.00  0.00    -0.178 C  
HETATM    8  C   UNL     1      -5.763  15.823  70.247  1.00  0.00    -0.149 C  
HETATM    9  O   UNL     1      -6.258  13.842  71.490  1.00  0.00    -0.558 OA 
HETATM   10  C   UNL     1      -8.768  17.507  67.668  1.00  0.00    -0.223 C  
HETATM   11  C   UNL     1      -7.701  18.268  68.389  1.00  0.00    -0.312 C  
HETATM   12  H   UNL     1      -6.092  14.311  72.299  1.00  0.00     0.000 HD 
HETATM   13  C   UNL     1      -6.791  17.708  69.182  1.00  0.00    -0.229 C  
ENDROOT
BRANCH   2  14
HETATM   14  O   UNL     1      -7.226  13.332  67.216  1.00  0.00    -0.137 OA 
BRANCH  14  15
HETATM   15  C   UNL     1      -6.586  12.165  66.919  1.00  0.00    -0.001 C  
HETATM   16  C   UNL     1      -7.432  10.339  65.460  1.00  0.00    -0.149 C  
HETATM   17  C   UNL     1      -7.441  10.058  67.965  1.00  0.00    -0.088 C  
HETATM   18  O   UNL     1      -5.377  12.026  66.785  1.00  0.00    -0.272 OA 
HETATM   19  C   UNL     1      -7.602  11.045  66.803  1.00  0.00    -0.139 C  
HETATM   20  C   UNL     1      -7.792  10.673  69.313  1.00  0.00    -0.140 C  
ENDBRANCH  14  15
ENDBRANCH   2  14
BRANCH   7  21
HETATM   21  C   UNL     1      -9.672  15.203  66.928  1.00  0.00    -0.248 C  
BRANCH  21  22
HETATM   22  C   UNL     1      -9.918  15.543  65.442  1.00  0.00    -0.339 C  
BRANCH  22  23
HETATM   23  C   UNL     1     -11.367  15.675  64.954  1.00  0.00    -0.315 C  
HETATM   24  O   UNL     1     -11.468  16.641  63.906  1.00  0.00    -1.604 OA 
HETATM   25  H   UNL     1     -12.365  16.722  63.604  1.00  0.00     0.000 HD 
BRANCH  23  26
HETATM   26  C   UNL     1     -11.800  14.309  64.375  1.00  0.00    -0.444 C  
BRANCH  26  27
HETATM   27  C   UNL     1     -12.872  13.575  65.191  1.00  0.00    -0.322 C  
HETATM   28  O   UNL     1     -13.143  12.281  64.631  1.00  0.00    -0.770 OA 
HETATM   29  H   UNL     1     -13.808  11.827  65.136  1.00  0.00     0.000 HD 
BRANCH  27  30
HETATM   30  C   UNL     1     -12.393  13.350  66.628  1.00  0.00    -0.324 C  
HETATM   31  C   UNL     1     -11.597  12.077  66.797  1.00  0.00    -0.321 C  
HETATM   32  O   UNL     1     -10.759  11.798  65.774  1.00  0.00    -0.264 OA 
HETATM   33  O   UNL     1     -11.642  11.392  67.809  1.00  0.00    -0.445 OA 
ENDBRANCH  27  30
ENDBRANCH  26  27
ENDBRANCH  23  26
ENDBRANCH  22  23
ENDBRANCH  21  22
ENDBRANCH   7  21
TORSDOF 8
ENDMDL
MODEL       88
REMARK 921   NORMALIZED FREE ENERGY PREDICTED BY IDOCK:   -5.76 KCAL/MOL
REMARK 922        TOTAL FREE ENERGY PREDICTED BY IDOCK:   -9.91 KCAL/MOL
REMARK 923 INTER-LIGAND FREE ENERGY PREDICTED BY IDOCK:   -7.98 KCAL/MOL
REMARK 924 INTRA-LIGAND FREE ENERGY PREDICTED BY IDOCK:   -1.94 KCAL/MOL
REMARK 927      BINDING AFFINITY PREDICTED BY RF-SCORE:    0.00 PKD
ROOT
HETATM    1  C   UNL     1      -8.654  14.621  67.527  1.00  0.00    -0.196 C  
HETATM    2  C   UNL     1     -10.178  14.378  67.200  1.00  0.00    -0.257 C  
HETATM    3  C   UNL     1      -8.404  16.069  67.968  1.00  0.00    -0.162 C  
HETATM    4  C   UNL     1     -11.125  15.595  67.288  1.00  0.00    -0.238 C  
HETATM    5  C   UNL     1     -10.478  16.896  66.855  1.00  0.00    -0.271 C  
HETATM    6  C   UNL     1      -5.387  13.681  67.882  1.00  0.00    -0.090 C  
HETATM    7  C   UNL     1      -7.946  13.543  68.428  1.00  0.00    -0.142 C  
HETATM    8  C   UNL     1      -9.193  17.092  67.584  1.00  0.00    -0.238 C  
HETATM    9  O   UNL     1     -10.265  16.906  65.454  1.00  0.00    -0.605 OA 
HETATM   10  C   UNL     1      -6.511  13.987  68.879  1.00  0.00    -0.096 C  
HETATM   11  C   UNL     1      -6.420  15.435  69.243  1.00  0.00    -0.137 C  
HETATM   12  H   UNL     1      -9.859  17.721  65.182  1.00  0.00     0.000 HD 
HETATM   13  C   UNL     1      -7.271  16.366  68.816  1.00  0.00    -0.191 C  
ENDROOT
BRANCH   2  14
HETATM   14  O   UNL     1     -10.796  13.233  67.839  1.00  0.00    -0.234 OA 
BRANCH  14  15
HETATM   15  C   UNL     1     -11.231  12.175  67.097  1.00  0.00    -0.314 C  
HETATM   16  C   UNL     1     -10.140  11.233  65.073  1.00  0.00    -0.331 C  
HETATM   17  C   UNL     1     -12.216  12.645  64.845  1.00  0.00    -0.531 C  
HETATM   18  O   UNL     1     -11.804  11.185  67.533  1.00  0.00    -0.591 OA 
HETATM   19  C   UNL     1     -10.920  12.419  65.634  1.00  0.00    -0.321 C  
HETATM   20  C   UNL     1     -12.930  13.929  65.242  1.00  0.00    -0.341 C  
ENDBRANCH  14  15
ENDBRANCH   2  14
BRANCH   7  21
HETATM   21  C   UNL     1      -7.920  12.093  67.833  1.00  0.00    -0.150 C  
BRANCH  21  22
HETATM   22  C   UNL     1      -7.410  11.091  68.892  1.00  0.00    -0.111 C  
BRANCH  22  23
HETATM   23  C   UNL     1      -8.444  10.295  69.700  1.00  0.00    -0.115 C  
HETATM   24  O   UNL     1      -9.710  10.957  69.705  1.00  0.00    -0.428 OA 
HETATM   25  H   UNL     1     -10.350  10.464  70.205  1.00  0.00     0.000 HD 
BRANCH  23  26
HETATM   26  C   UNL     1      -8.634   8.925  69.009  1.00  0.00    -0.138 C  
BRANCH  26  27
HETATM   27  C   UNL     1      -9.942   8.204  69.359  1.00  0.00    -0.188 C  
HETATM   28  O   UNL     1     -11.038   8.733  68.597  1.00  0.00    -0.439 OA 
HETATM   29  H   UNL     1     -11.847   8.286  68.815  1.00  0.00     0.000 HD 
BRANCH  27  30
HETATM   30  C   UNL     1      -9.839   6.713  69.021  1.00  0.00    -0.149 C  
HETATM   31  C   UNL     1     -10.678   5.840  69.926  1.00  0.00    -0.342 C  
HETATM   32  O   UNL     1     -11.882   6.359  70.248  1.00  0.00    -0.396 OA 
HETATM   33  O   UNL     1     -10.334   4.719  70.276  1.00  0.00    -0.234 OA 
ENDBRANCH  27  30
ENDBRANCH  26  27
ENDBRANCH  23  26
ENDBRANCH  22  23
ENDBRANCH  21  22
ENDBRANCH   7  21
TORSDOF 8
ENDMDL
MODEL       89
REMARK 921   NORMALIZED FREE ENERGY PREDICTED BY IDOCK:   -5.76 KCAL/MOL
REMARK 922        TOTAL FREE ENERGY PREDICTED BY IDOCK:   -9.90 KCAL/MOL
REMARK 923 INTER-LIGAND FREE ENERGY PREDICTED BY IDOCK:   -7.99 KCAL/MOL
REMARK 924 INTRA-LIGAND FREE ENERGY PREDICTED BY IDOCK:   -1.91 KCAL/MOL
REMARK 927      BINDING AFFINITY PREDICTED BY RF-SCORE:    0.00 PKD
ROOT
HETATM    1  C   UNL     1     -11.576  11.691  69.393  1.00  0.00    -0.392 C  
HETATM    2  C   UNL     1     -11.009  10.259  69.734  1.00  0.00    -0.289 C  
HETATM    3  C   UNL     1     -12.334  12.288  70.585  1.00  0.00    -0.375 C  
HETATM    4  C   UNL     1     -11.358   9.669  71.118  1.00  0.00    -0.456 C  
HETATM    5  C   UNL     1     -12.744  10.047  71.603  1.00  0.00    -0.435 C  
HETATM    6  C   UNL     1     -12.066  14.419  67.392  1.00  0.00    -0.348 C  
HETATM    7  C   UNL     1     -10.585  12.693  68.694  1.00  0.00    -0.245 C  
HETATM    8  C   UNL     1     -12.925  11.524  71.527  1.00  0.00    -0.485 C  
HETATM    9  O   UNL     1     -13.738   9.381  70.844  1.00  0.00    -0.584 OA 
HETATM   10  C   UNL     1     -11.166  14.147  68.604  1.00  0.00    -0.291 C  
HETATM   11  C   UNL     1     -11.910  14.570  69.831  1.00  0.00    -0.373 C  
HETATM   12  H   UNL     1     -14.606   9.617  71.148  1.00  0.00     0.000 HD 
HETATM   13  C   UNL     1     -12.443  13.724  70.710  1.00  0.00    -0.441 C  
ENDROOT
BRANCH   2  14
HETATM   14  O   UNL     1      -9.604  10.042  69.452  1.00  0.00    -0.197 OA 
BRANCH  14  15
HETATM   15  C   UNL     1      -9.201   8.969  68.713  1.00  0.00    -0.133 C  
HETATM   16  C   UNL     1      -7.735   7.111  69.470  1.00  0.00    -0.113 C  
HETATM   17  C   UNL     1      -6.821   8.898  67.946  1.00  0.00    -0.070 C  
HETATM   18  O   UNL     1      -9.866   8.404  67.854  1.00  0.00    -0.157 OA 
HETATM   19  C   UNL     1      -7.784   8.591  69.098  1.00  0.00    -0.091 C  
HETATM   20  C   UNL     1      -6.692  10.390  67.668  1.00  0.00    -0.074 C  
ENDBRANCH  14  15
ENDBRANCH   2  14
BRANCH   7  21
HETATM   21  C   UNL     1     -10.037  12.224  67.302  1.00  0.00    -0.212 C  
BRANCH  21  22
HETATM   22  C   UNL     1     -11.127  11.442  66.537  1.00  0.00    -0.312 C  
BRANCH  22  23
HETATM   23  C   UNL     1     -10.759  10.807  65.189  1.00  0.00    -0.089 C  
HETATM   24  O   UNL     1     -11.284  11.571  64.103  1.00  0.00    -0.358 OA 
HETATM   25  H   UNL     1     -11.055  11.178  63.269  1.00  0.00     0.000 HD 
BRANCH  23  26
HETATM   26  C   UNL     1      -9.218  10.814  65.066  1.00  0.00    -0.241 C  
BRANCH  26  27
HETATM   27  C   UNL     1      -8.682  10.467  63.671  1.00  0.00    -0.198 C  
HETATM   28  O   UNL     1      -8.666  11.627  62.826  1.00  0.00    -0.634 OA 
HETATM   29  H   UNL     1      -8.334  11.412  61.963  1.00  0.00     0.000 HD 
BRANCH  27  30
HETATM   30  C   UNL     1      -7.240   9.957  63.762  1.00  0.00    -0.125 C  
HETATM   31  C   UNL     1      -7.149   8.461  63.953  1.00  0.00    -0.088 C  
HETATM   32  O   UNL     1      -8.055   7.749  63.247  1.00  0.00    -0.139 OA 
HETATM   33  O   UNL     1      -6.279   7.927  64.627  1.00  0.00    -0.048 OA 
ENDBRANCH  27  30
ENDBRANCH  26  27
ENDBRANCH  23  26
ENDBRANCH  22  23
ENDBRANCH  21  22
ENDBRANCH   7  21
TORSDOF 8
ENDMDL
MODEL       90
REMARK 921   NORMALIZED FREE ENERGY PREDICTED BY IDOCK:   -5.75 KCAL/MOL
REMARK 922        TOTAL FREE ENERGY PREDICTED BY IDOCK:   -9.90 KCAL/MOL
REMARK 923 INTER-LIGAND FREE ENERGY PREDICTED BY IDOCK:   -8.42 KCAL/MOL
REMARK 924 INTRA-LIGAND FREE ENERGY PREDICTED BY IDOCK:   -1.47 KCAL/MOL
REMARK 927      BINDING AFFINITY PREDICTED BY RF-SCORE:    0.00 PKD
ROOT
HETATM    1  C   UNL     1      -7.640  15.326  67.328  1.00  0.00    -0.244 C  
HETATM    2  C   UNL     1      -8.810  15.675  66.328  1.00  0.00    -0.329 C  
HETATM    3  C   UNL     1      -7.399  16.468  68.323  1.00  0.00    -0.169 C  
HETATM    4  C   UNL     1      -9.446  17.078  66.444  1.00  0.00    -0.294 C  
HETATM    5  C   UNL     1      -8.455  18.161  66.825  1.00  0.00    -0.259 C  
HETATM    6  C   UNL     1      -5.212  13.319  68.654  1.00  0.00    -0.070 C  
HETATM    7  C   UNL     1      -7.679  13.898  67.986  1.00  0.00    -0.151 C  
HETATM    8  C   UNL     1      -7.698  17.753  68.041  1.00  0.00    -0.238 C  
HETATM    9  O   UNL     1      -7.570  18.428  65.751  1.00  0.00    -0.500 OA 
HETATM   10  C   UNL     1      -6.612  13.732  69.124  1.00  0.00    -0.112 C  
HETATM   11  C   UNL     1      -6.467  14.945  69.987  1.00  0.00    -0.167 C  
HETATM   12  H   UNL     1      -6.949  19.106  65.989  1.00  0.00     0.000 HD 
HETATM   13  C   UNL     1      -6.812  16.174  69.611  1.00  0.00    -0.139 C  
ENDROOT
BRANCH   2  14
HETATM   14  O   UNL     1      -9.853  14.678  66.188  1.00  0.00    -0.281 OA 
BRANCH  14  15
HETATM   15  C   UNL     1     -10.821  14.815  65.238  1.00  0.00    -0.383 C  
HETATM   16  C   UNL     1     -13.155  13.973  65.366  1.00  0.00    -0.215 C  
HETATM   17  C   UNL     1     -11.466  12.790  63.918  1.00  0.00    -0.505 C  
HETATM   18  O   UNL     1     -10.963  15.779  64.497  1.00  0.00    -0.450 OA 
HETATM   19  C   UNL     1     -11.690  13.573  65.216  1.00  0.00    -0.341 C  
HETATM   20  C   UNL     1     -10.064  12.204  63.818  1.00  0.00    -0.404 C  
ENDBRANCH  14  15
ENDBRANCH   2  14
BRANCH   7  21
HETATM   21  C   UNL     1      -7.609  12.699  66.977  1.00  0.00     0.006 C  
BRANCH  21  22
HETATM   22  C   UNL     1      -8.809  11.752  67.192  1.00  0.00    -0.173 C  
BRANCH  22  23
HETATM   23  C   UNL     1      -9.634  11.900  68.478  1.00  0.00    -0.157 C  
HETATM   24  O   UNL     1     -10.831  12.642  68.235  1.00  0.00    -0.221 OA 
HETATM   25  H   UNL     1     -11.341  12.733  69.031  1.00  0.00     0.000 HD 
BRANCH  23  26
HETATM   26  C   UNL     1     -10.046  10.485  68.945  1.00  0.00    -0.215 C  
BRANCH  26  27
HETATM   27  C   UNL     1     -11.324  10.433  69.791  1.00  0.00    -0.289 C  
HETATM   28  O   UNL     1     -12.492  10.474  68.957  1.00  0.00    -0.770 OA 
HETATM   29  H   UNL     1     -13.283  10.442  69.482  1.00  0.00     0.000 HD 
BRANCH  27  30
HETATM   30  C   UNL     1     -11.387   9.126  70.588  1.00  0.00    -0.323 C  
HETATM   31  C   UNL     1     -12.426   9.149  71.685  1.00  0.00    -0.359 C  
HETATM   32  O   UNL     1     -13.577   9.774  71.355  1.00  0.00    -0.342 OA 
HETATM   33  O   UNL     1     -12.275   8.581  72.758  1.00  0.00    -0.331 OA 
ENDBRANCH  27  30
ENDBRANCH  26  27
ENDBRANCH  23  26
ENDBRANCH  22  23
ENDBRANCH  21  22
ENDBRANCH   7  21
TORSDOF 8
ENDMDL
MODEL       91
REMARK 921   NORMALIZED FREE ENERGY PREDICTED BY IDOCK:   -5.72 KCAL/MOL
REMARK 922        TOTAL FREE ENERGY PREDICTED BY IDOCK:   -9.85 KCAL/MOL
REMARK 923 INTER-LIGAND FREE ENERGY PREDICTED BY IDOCK:   -8.36 KCAL/MOL
REMARK 924 INTRA-LIGAND FREE ENERGY PREDICTED BY IDOCK:   -1.49 KCAL/MOL
REMARK 927      BINDING AFFINITY PREDICTED BY RF-SCORE:    0.00 PKD
ROOT
HETATM    1  C   UNL     1      -8.243  10.654  66.540  1.00  0.00    -0.138 C  
HETATM    2  C   UNL     1      -9.321  10.956  65.428  1.00  0.00    -0.208 C  
HETATM    3  C   UNL     1      -6.952  10.096  65.927  1.00  0.00    -0.116 C  
HETATM    4  C   UNL     1      -8.962  10.583  63.973  1.00  0.00    -0.235 C  
HETATM    5  C   UNL     1      -8.121   9.327  63.861  1.00  0.00    -0.151 C  
HETATM    6  C   UNL     1      -7.054  10.577  69.744  1.00  0.00    -0.150 C  
HETATM    7  C   UNL     1      -8.010  11.775  67.618  1.00  0.00    -0.143 C  
HETATM    8  C   UNL     1      -6.934   9.428  64.755  1.00  0.00    -0.098 C  
HETATM    9  O   UNL     1      -8.891   8.181  64.178  1.00  0.00    -0.371 OA 
HETATM   10  C   UNL     1      -6.773  11.478  68.535  1.00  0.00    -0.067 C  
HETATM   11  C   UNL     1      -5.606  10.904  67.796  1.00  0.00    -0.042 C  
HETATM   12  H   UNL     1      -8.364   7.393  64.108  1.00  0.00     0.000 HD 
HETATM   13  C   UNL     1      -5.700  10.272  66.628  1.00  0.00    -0.056 C  
ENDROOT
BRANCH   2  14
HETATM   14  O   UNL     1      -9.923  12.274  65.459  1.00  0.00    -0.252 OA 
BRANCH  14  15
HETATM   15  C   UNL     1     -11.276  12.422  65.386  1.00  0.00    -0.318 C  
HETATM   16  C   UNL     1     -12.686  12.188  63.354  1.00  0.00    -0.508 C  
HETATM   17  C   UNL     1     -12.174  14.477  64.277  1.00  0.00    -0.441 C  
HETATM   18  O   UNL     1     -12.076  12.114  66.260  1.00  0.00    -0.626 OA 
HETATM   19  C   UNL     1     -11.646  13.055  64.059  1.00  0.00    -0.487 C  
HETATM   20  C   UNL     1     -11.107  15.428  64.801  1.00  0.00    -0.416 C  
ENDBRANCH  14  15
ENDBRANCH   2  14
BRANCH   7  21
HETATM   21  C   UNL     1      -9.269  12.139  68.481  1.00  0.00    -0.100 C  
BRANCH  21  22
HETATM   22  C   UNL     1     -10.089  10.867  68.788  1.00  0.00    -0.205 C  
BRANCH  22  23
HETATM   23  C   UNL     1     -11.408  11.019  69.558  1.00  0.00    -0.287 C  
HETATM   24  O   UNL     1     -12.501  10.483  68.811  1.00  0.00    -0.748 OA 
HETATM   25  H   UNL     1     -13.318  10.577  69.288  1.00  0.00     0.000 HD 
BRANCH  23  26
HETATM   26  C   UNL     1     -11.291  10.205  70.867  1.00  0.00    -0.420 C  
BRANCH  26  27
HETATM   27  C   UNL     1     -12.142   8.930  70.910  1.00  0.00    -0.177 C  
HETATM   28  O   UNL     1     -11.635   7.944  69.998  1.00  0.00    -0.475 OA 
HETATM   29  H   UNL     1     -12.163   7.155  70.025  1.00  0.00     0.000 HD 
BRANCH  27  30
HETATM   30  C   UNL     1     -12.105   8.307  72.309  1.00  0.00    -0.439 C  
HETATM   31  C   UNL     1     -10.974   7.322  72.491  1.00  0.00    -0.282 C  
HETATM   32  O   UNL     1      -9.813   7.685  71.903  1.00  0.00    -0.161 OA 
HETATM   33  O   UNL     1     -11.070   6.316  73.181  1.00  0.00    -0.243 OA 
ENDBRANCH  27  30
ENDBRANCH  26  27
ENDBRANCH  23  26
ENDBRANCH  22  23
ENDBRANCH  21  22
ENDBRANCH   7  21
TORSDOF 8
ENDMDL
MODEL       92
REMARK 921   NORMALIZED FREE ENERGY PREDICTED BY IDOCK:   -5.71 KCAL/MOL
REMARK 922        TOTAL FREE ENERGY PREDICTED BY IDOCK:   -9.84 KCAL/MOL
REMARK 923 INTER-LIGAND FREE ENERGY PREDICTED BY IDOCK:   -8.45 KCAL/MOL
REMARK 924 INTRA-LIGAND FREE ENERGY PREDICTED BY IDOCK:   -1.39 KCAL/MOL
REMARK 927      BINDING AFFINITY PREDICTED BY RF-SCORE:    0.00 PKD
ROOT
HETATM    1  C   UNL     1     -10.273  10.403  65.551  1.00  0.00    -0.316 C  
HETATM    2  C   UNL     1     -10.952  11.804  65.804  1.00  0.00    -0.301 C  
HETATM    3  C   UNL     1      -9.659  10.327  64.147  1.00  0.00    -0.376 C  
HETATM    4  C   UNL     1     -10.968  12.806  64.629  1.00  0.00    -0.355 C  
HETATM    5  C   UNL     1     -11.127  12.145  63.274  1.00  0.00    -0.332 C  
HETATM    6  C   UNL     1      -9.284   7.250  66.428  1.00  0.00    -0.201 C  
HETATM    7  C   UNL     1      -9.337   9.856  66.692  1.00  0.00    -0.196 C  
HETATM    8  C   UNL     1     -10.116  11.063  63.114  1.00  0.00    -0.350 C  
HETATM    9  O   UNL     1     -12.439  11.631  63.120  1.00  0.00    -0.937 OA 
HETATM   10  C   UNL     1      -8.540   8.579  66.254  1.00  0.00    -0.143 C  
HETATM   11  C   UNL     1      -8.037   8.642  64.846  1.00  0.00    -0.146 C  
HETATM   12  H   UNL     1     -12.539  11.217  62.270  1.00  0.00     0.000 HD 
HETATM   13  C   UNL     1      -8.557   9.424  63.902  1.00  0.00    -0.225 C  
ENDROOT
BRANCH   2  14
HETATM   14  O   UNL     1     -10.572  12.489  67.024  1.00  0.00    -0.229 OA 
BRANCH  14  15
HETATM   15  C   UNL     1     -11.422  13.377  67.614  1.00  0.00    -0.319 C  
HETATM   16  C   UNL     1     -10.852  15.024  69.385  1.00  0.00    -0.265 C  
HETATM   17  C   UNL     1     -12.130  12.933  69.973  1.00  0.00    -0.357 C  
HETATM   18  O   UNL     1     -12.358  13.943  67.065  1.00  0.00    -0.391 OA 
HETATM   19  C   UNL     1     -11.048  13.543  69.074  1.00  0.00    -0.293 C  
HETATM   20  C   UNL     1     -12.227  11.420  69.834  1.00  0.00    -0.346 C  
ENDBRANCH  14  15
ENDBRANCH   2  14
BRANCH   7  21
HETATM   21  C   UNL     1     -10.040   9.629  68.075  1.00  0.00    -0.213 C  
BRANCH  21  22
HETATM   22  C   UNL     1      -9.188  10.236  69.211  1.00  0.00    -0.215 C  
BRANCH  22  23
HETATM   23  C   UNL     1      -8.226   9.314  69.974  1.00  0.00    -0.154 C  
HETATM   24  O   UNL     1      -7.828   9.903  71.213  1.00  0.00    -0.183 OA 
HETATM   25  H   UNL     1      -7.233   9.332  71.685  1.00  0.00     0.000 HD 
BRANCH  23  26
HETATM   26  C   UNL     1      -8.980   8.004  70.298  1.00  0.00    -0.147 C  
BRANCH  26  27
HETATM   27  C   UNL     1      -9.452   7.876  71.752  1.00  0.00    -0.158 C  
HETATM   28  O   UNL     1     -10.552   8.761  72.012  1.00  0.00    -0.324 OA 
HETATM   29  H   UNL     1     -10.844   8.681  72.913  1.00  0.00     0.000 HD 
BRANCH  27  30
HETATM   30  C   UNL     1      -9.945   6.453  72.033  1.00  0.00    -0.183 C  
HETATM   31  C   UNL     1     -11.406   6.254  71.703  1.00  0.00    -0.294 C  
HETATM   32  O   UNL     1     -11.819   6.883  70.580  1.00  0.00    -0.358 OA 
HETATM   33  O   UNL     1     -12.141   5.521  72.348  1.00  0.00    -0.146 OA 
ENDBRANCH  27  30
ENDBRANCH  26  27
ENDBRANCH  23  26
ENDBRANCH  22  23
ENDBRANCH  21  22
ENDBRANCH   7  21
TORSDOF 8
ENDMDL
MODEL       93
REMARK 921   NORMALIZED FREE ENERGY PREDICTED BY IDOCK:   -5.69 KCAL/MOL
REMARK 922        TOTAL FREE ENERGY PREDICTED BY IDOCK:   -9.82 KCAL/MOL
REMARK 923 INTER-LIGAND FREE ENERGY PREDICTED BY IDOCK:   -8.49 KCAL/MOL
REMARK 924 INTRA-LIGAND FREE ENERGY PREDICTED BY IDOCK:   -1.33 KCAL/MOL
REMARK 927      BINDING AFFINITY PREDICTED BY RF-SCORE:    0.00 PKD
ROOT
HETATM    1  C   UNL     1      -8.951   6.484  68.559  1.00  0.00    -0.126 C  
HETATM    2  C   UNL     1      -9.454   7.145  69.900  1.00  0.00    -0.153 C  
HETATM    3  C   UNL     1      -9.234   4.977  68.540  1.00  0.00    -0.153 C  
HETATM    4  C   UNL     1     -10.048   6.206  70.973  1.00  0.00    -0.231 C  
HETATM    5  C   UNL     1      -9.374   4.849  71.028  1.00  0.00    -0.153 C  
HETATM    6  C   UNL     1      -7.543   6.514  65.444  1.00  0.00    -0.089 C  
HETATM    7  C   UNL     1      -9.330   7.225  67.223  1.00  0.00    -0.156 C  
HETATM    8  C   UNL     1      -9.339   4.243  69.667  1.00  0.00    -0.235 C  
HETATM    9  O   UNL     1      -8.066   4.962  71.560  1.00  0.00    -0.106 OA 
HETATM   10  C   UNL     1      -8.985   6.379  65.948  1.00  0.00    -0.111 C  
HETATM   11  C   UNL     1      -9.284   4.921  66.100  1.00  0.00    -0.146 C  
HETATM   12  H   UNL     1      -7.643   4.111  71.595  1.00  0.00     0.000 HD 
HETATM   13  C   UNL     1      -9.381   4.298  67.272  1.00  0.00    -0.186 C  
ENDROOT
BRANCH   2  14
HETATM   14  O   UNL     1     -10.292   8.319  69.762  1.00  0.00    -0.207 OA 
BRANCH  14  15
HETATM   15  C   UNL     1     -10.536   9.128  70.832  1.00  0.00    -0.278 C  
HETATM   16  C   UNL     1     -12.721   9.475  71.964  1.00  0.00    -0.479 C  
HETATM   17  C   UNL     1     -11.796  11.253  70.435  1.00  0.00    -0.443 C  
HETATM   18  O   UNL     1      -9.761   9.345  71.754  1.00  0.00    -0.226 OA 
HETATM   19  C   UNL     1     -11.913   9.747  70.697  1.00  0.00    -0.340 C  
HETATM   20  C   UNL     1     -11.168  11.568  69.085  1.00  0.00    -0.337 C  
ENDBRANCH  14  15
ENDBRANCH   2  14
BRANCH   7  21
HETATM   21  C   UNL     1      -8.772   8.685  67.092  1.00  0.00    -0.134 C  
BRANCH  21  22
HETATM   22  C   UNL     1      -9.742   9.553  66.262  1.00  0.00    -0.310 C  
BRANCH  22  23
HETATM   23  C   UNL     1      -9.203  10.252  65.007  1.00  0.00    -0.213 C  
HETATM   24  O   UNL     1      -8.601   9.313  64.116  1.00  0.00    -0.184 OA 
HETATM   25  H   UNL     1      -8.267   9.746  63.339  1.00  0.00     0.000 HD 
BRANCH  23  26
HETATM   26  C   UNL     1     -10.401  10.895  64.269  1.00  0.00    -0.436 C  
BRANCH  26  27
HETATM   27  C   UNL     1     -10.341  12.424  64.155  1.00  0.00    -0.382 C  
HETATM   28  O   UNL     1     -10.997  12.873  62.960  1.00  0.00    -0.514 OA 
HETATM   29  H   UNL     1     -10.960  13.819  62.889  1.00  0.00     0.000 HD 
BRANCH  27  30
HETATM   30  C   UNL     1     -11.063  13.079  65.337  1.00  0.00    -0.300 C  
HETATM   31  C   UNL     1     -12.533  13.315  65.078  1.00  0.00    -0.443 C  
HETATM   32  O   UNL     1     -13.150  12.323  64.399  1.00  0.00    -0.780 OA 
HETATM   33  O   UNL     1     -13.139  14.284  65.514  1.00  0.00    -0.639 OA 
ENDBRANCH  27  30
ENDBRANCH  26  27
ENDBRANCH  23  26
ENDBRANCH  22  23
ENDBRANCH  21  22
ENDBRANCH   7  21
TORSDOF 8
ENDMDL
MODEL       94
REMARK 921   NORMALIZED FREE ENERGY PREDICTED BY IDOCK:   -5.69 KCAL/MOL
REMARK 922        TOTAL FREE ENERGY PREDICTED BY IDOCK:   -9.81 KCAL/MOL
REMARK 923 INTER-LIGAND FREE ENERGY PREDICTED BY IDOCK:   -8.05 KCAL/MOL
REMARK 924 INTRA-LIGAND FREE ENERGY PREDICTED BY IDOCK:   -1.77 KCAL/MOL
REMARK 927      BINDING AFFINITY PREDICTED BY RF-SCORE:    0.00 PKD
ROOT
HETATM    1  C   UNL     1     -10.533   8.306  68.875  1.00  0.00    -0.209 C  
HETATM    2  C   UNL     1      -9.501   8.063  67.707  1.00  0.00    -0.145 C  
HETATM    3  C   UNL     1     -10.935   6.987  69.546  1.00  0.00    -0.251 C  
HETATM    4  C   UNL     1      -9.135   6.599  67.377  1.00  0.00    -0.120 C  
HETATM    5  C   UNL     1     -10.292   5.634  67.550  1.00  0.00    -0.222 C  
HETATM    6  C   UNL     1     -12.471  10.233  70.929  1.00  0.00    -0.466 C  
HETATM    7  C   UNL     1     -10.194   9.463  69.886  1.00  0.00    -0.247 C  
HETATM    8  C   UNL     1     -10.897   5.803  68.901  1.00  0.00    -0.305 C  
HETATM    9  O   UNL     1     -11.264   5.833  66.538  1.00  0.00    -0.698 OA 
HETATM   10  C   UNL     1     -11.152   9.477  71.127  1.00  0.00    -0.450 C  
HETATM   11  C   UNL     1     -11.480   8.111  71.643  1.00  0.00    -0.323 C  
HETATM   12  H   UNL     1     -11.989   5.229  66.646  1.00  0.00     0.000 HD 
HETATM   13  C   UNL     1     -11.391   6.998  70.918  1.00  0.00    -0.334 C  
ENDROOT
BRANCH   2  14
HETATM   14  O   UNL     1      -8.298   8.871  67.736  1.00  0.00    -0.110 OA 
BRANCH  14  15
HETATM   15  C   UNL     1      -7.125   8.354  68.202  1.00  0.00    -0.085 C  
HETATM   16  C   UNL     1      -6.819   6.982  70.250  1.00  0.00    -0.057 C  
HETATM   17  C   UNL     1      -6.108   9.400  70.235  1.00  0.00    -0.049 C  
HETATM   18  O   UNL     1      -6.198   7.950  67.512  1.00  0.00    -0.048 OA 
HETATM   19  C   UNL     1      -7.128   8.379  69.718  1.00  0.00    -0.051 C  
HETATM   20  C   UNL     1      -6.484  10.834  69.889  1.00  0.00    -0.135 C  
ENDBRANCH  14  15
ENDBRANCH   2  14
BRANCH   7  21
HETATM   21  C   UNL     1     -10.087  10.892  69.248  1.00  0.00    -0.164 C  
BRANCH  21  22
HETATM   22  C   UNL     1     -10.923  10.960  67.951  1.00  0.00    -0.325 C  
BRANCH  22  23
HETATM   23  C   UNL     1     -11.354  12.339  67.433  1.00  0.00    -0.325 C  
HETATM   24  O   UNL     1     -12.045  12.224  66.188  1.00  0.00    -0.625 OA 
HETATM   25  H   UNL     1     -12.312  13.078  65.867  1.00  0.00     0.000 HD 
BRANCH  23  26
HETATM   26  C   UNL     1     -12.337  12.946  68.460  1.00  0.00     0.201 C  
BRANCH  26  27
HETATM   27  C   UNL     1     -11.829  14.207  69.170  1.00  0.00    -0.341 C  
HETATM   28  O   UNL     1     -12.256  15.390  68.479  1.00  0.00    -0.563 OA 
HETATM   29  H   UNL     1     -11.940  16.171  68.919  1.00  0.00     0.000 HD 
BRANCH  27  30
HETATM   30  C   UNL     1     -12.395  14.288  70.591  1.00  0.00    -0.431 C  
HETATM   31  C   UNL     1     -11.689  15.307  71.455  1.00  0.00    -0.391 C  
HETATM   32  O   UNL     1     -11.352  16.448  70.816  1.00  0.00    -0.373 OA 
HETATM   33  O   UNL     1     -11.506  15.151  72.654  1.00  0.00    -0.403 OA 
ENDBRANCH  27  30
ENDBRANCH  26  27
ENDBRANCH  23  26
ENDBRANCH  22  23
ENDBRANCH  21  22
ENDBRANCH   7  21
TORSDOF 8
ENDMDL
MODEL       95
REMARK 921   NORMALIZED FREE ENERGY PREDICTED BY IDOCK:   -5.66 KCAL/MOL
REMARK 922        TOTAL FREE ENERGY PREDICTED BY IDOCK:   -9.77 KCAL/MOL
REMARK 923 INTER-LIGAND FREE ENERGY PREDICTED BY IDOCK:   -8.63 KCAL/MOL
REMARK 924 INTRA-LIGAND FREE ENERGY PREDICTED BY IDOCK:   -1.14 KCAL/MOL
REMARK 927      BINDING AFFINITY PREDICTED BY RF-SCORE:    0.00 PKD
ROOT
HETATM    1  C   UNL     1     -10.247  12.298  68.511  1.00  0.00    -0.213 C  
HETATM    2  C   UNL     1     -10.105  10.836  69.086  1.00  0.00    -0.205 C  
HETATM    3  C   UNL     1     -11.182  13.150  69.380  1.00  0.00    -0.210 C  
HETATM    4  C   UNL     1     -10.953  10.476  70.326  1.00  0.00    -0.306 C  
HETATM    5  C   UNL     1     -12.314  11.145  70.342  1.00  0.00    -0.344 C  
HETATM    6  C   UNL     1      -9.572  14.828  66.314  1.00  0.00    -0.339 C  
HETATM    7  C   UNL     1      -8.915  13.025  68.098  1.00  0.00    -0.198 C  
HETATM    8  C   UNL     1     -12.162  12.612  70.134  1.00  0.00    -0.310 C  
HETATM    9  O   UNL     1     -13.157  10.584  69.351  1.00  0.00    -0.462 OA 
HETATM   10  C   UNL     1      -9.138  14.540  67.756  1.00  0.00    -0.190 C  
HETATM   11  C   UNL     1     -10.104  15.222  68.671  1.00  0.00    -0.222 C  
HETATM   12  H   UNL     1     -14.010  11.002  69.360  1.00  0.00     0.000 HD 
HETATM   13  C   UNL     1     -11.029  14.587  69.388  1.00  0.00    -0.275 C  
ENDROOT
BRANCH   2  14
HETATM   14  O   UNL     1      -8.753  10.344  69.261  1.00  0.00    -0.159 OA 
BRANCH  14  15
HETATM   15  C   UNL     1      -8.504   9.005  69.321  1.00  0.00    -0.128 C  
HETATM   16  C   UNL     1      -6.672   7.783  68.169  1.00  0.00    -0.067 C  
HETATM   17  C   UNL     1      -9.035   7.621  67.305  1.00  0.00    -0.134 C  
HETATM   18  O   UNL     1      -8.681   8.288  70.298  1.00  0.00    -0.134 OA 
HETATM   19  C   UNL     1      -7.994   8.524  67.977  1.00  0.00    -0.111 C  
HETATM   20  C   UNL     1     -10.303   8.371  66.919  1.00  0.00    -0.378 C  
ENDBRANCH  14  15
ENDBRANCH   2  14
BRANCH   7  21
HETATM   21  C   UNL     1      -8.092  12.313  66.968  1.00  0.00    -0.141 C  
BRANCH  21  22
HETATM   22  C   UNL     1      -9.007  11.367  66.160  1.00  0.00    -0.207 C  
BRANCH  22  23
HETATM   23  C   UNL     1      -9.099  11.565  64.641  1.00  0.00     0.154 C  
HETATM   24  O   UNL     1      -8.073  10.836  63.966  1.00  0.00    -0.353 OA 
HETATM   25  H   UNL     1      -8.131  10.958  63.026  1.00  0.00     0.000 HD 
BRANCH  23  26
HETATM   26  C   UNL     1     -10.460  11.002  64.171  1.00  0.00    -0.434 C  
BRANCH  26  27
HETATM   27  C   UNL     1     -11.275  11.947  63.279  1.00  0.00    -0.294 C  
HETATM   28  O   UNL     1     -12.577  11.404  63.013  1.00  0.00    -0.919 OA 
HETATM   29  H   UNL     1     -13.081  11.989  62.460  1.00  0.00     0.000 HD 
BRANCH  27  30
HETATM   30  C   UNL     1     -11.484  13.295  63.975  1.00  0.00    -0.432 C  
HETATM   31  C   UNL     1     -12.539  13.248  65.056  1.00  0.00    -0.423 C  
HETATM   32  O   UNL     1     -12.532  12.119  65.798  1.00  0.00    -0.482 OA 
HETATM   33  O   UNL     1     -13.288  14.184  65.297  1.00  0.00    -0.715 OA 
ENDBRANCH  27  30
ENDBRANCH  26  27
ENDBRANCH  23  26
ENDBRANCH  22  23
ENDBRANCH  21  22
ENDBRANCH   7  21
TORSDOF 8
ENDMDL
MODEL       96
REMARK 921   NORMALIZED FREE ENERGY PREDICTED BY IDOCK:   -5.65 KCAL/MOL
REMARK 922        TOTAL FREE ENERGY PREDICTED BY IDOCK:   -9.75 KCAL/MOL
REMARK 923 INTER-LIGAND FREE ENERGY PREDICTED BY IDOCK:   -8.18 KCAL/MOL
REMARK 924 INTRA-LIGAND FREE ENERGY PREDICTED BY IDOCK:   -1.57 KCAL/MOL
REMARK 927      BINDING AFFINITY PREDICTED BY RF-SCORE:    0.00 PKD
ROOT
HETATM    1  C   UNL     1      -9.279  10.345  65.550  1.00  0.00    -0.223 C  
HETATM    2  C   UNL     1      -8.732   9.080  66.319  1.00  0.00    -0.135 C  
HETATM    3  C   UNL     1      -9.295  10.111  64.034  1.00  0.00    -0.339 C  
HETATM    4  C   UNL     1      -8.241   7.890  65.465  1.00  0.00    -0.140 C  
HETATM    5  C   UNL     1      -7.574   8.310  64.170  1.00  0.00    -0.127 C  
HETATM    6  C   UNL     1     -10.581  13.498  65.333  1.00  0.00    -0.313 C  
HETATM    7  C   UNL     1     -10.595  10.997  66.114  1.00  0.00    -0.288 C  
HETATM    8  C   UNL     1      -8.459   9.247  63.423  1.00  0.00    -0.204 C  
HETATM    9  O   UNL     1      -6.315   8.907  64.427  1.00  0.00    -0.070 OA 
HETATM   10  C   UNL     1     -11.177  12.096  65.159  1.00  0.00    -0.378 C  
HETATM   11  C   UNL     1     -11.088  11.736  63.710  1.00  0.00    -0.513 C  
HETATM   12  H   UNL     1      -5.897   9.170  63.615  1.00  0.00     0.000 HD 
HETATM   13  C   UNL     1     -10.228  10.850  63.213  1.00  0.00    -0.317 C  
ENDROOT
BRANCH   2  14
HETATM   14  O   UNL     1      -9.547   8.591  67.412  1.00  0.00    -0.148 OA 
BRANCH  14  15
HETATM   15  C   UNL     1      -9.000   8.369  68.641  1.00  0.00    -0.140 C  
HETATM   16  C   UNL     1      -7.442   6.536  69.263  1.00  0.00    -0.095 C  
HETATM   17  C   UNL     1      -9.857   6.433  69.975  1.00  0.00    -0.193 C  
HETATM   18  O   UNL     1      -8.673   9.233  69.444  1.00  0.00    -0.135 OA 
HETATM   19  C   UNL     1      -8.880   6.877  68.880  1.00  0.00    -0.129 C  
HETATM   20  C   UNL     1     -11.314   6.576  69.557  1.00  0.00    -0.419 C  
ENDBRANCH  14  15
ENDBRANCH   2  14
BRANCH   7  21
HETATM   21  C   UNL     1     -10.493  11.532  67.585  1.00  0.00    -0.218 C  
BRANCH  21  22
HETATM   22  C   UNL     1     -11.856  11.393  68.297  1.00  0.00    -0.320 C  
BRANCH  22  23
HETATM   23  C   UNL     1     -11.869  10.959  69.769  1.00  0.00    -0.345 C  
HETATM   24  O   UNL     1     -10.556  11.008  70.328  1.00  0.00    -0.367 OA 
HETATM   25  H   UNL     1     -10.564  10.740  71.240  1.00  0.00     0.000 HD 
BRANCH  23  26
HETATM   26  C   UNL     1     -12.749  11.960  70.552  1.00  0.00    -0.105 C  
BRANCH  26  27
HETATM   27  C   UNL     1     -12.197  13.390  70.616  1.00  0.00    -0.350 C  
HETATM   28  O   UNL     1     -12.582  14.139  69.453  1.00  0.00    -0.491 OA 
HETATM   29  H   UNL     1     -12.240  15.024  69.493  1.00  0.00     0.000 HD 
BRANCH  27  30
HETATM   30  C   UNL     1     -12.761  14.129  71.833  1.00  0.00    -0.406 C  
HETATM   31  C   UNL     1     -12.027  15.413  72.141  1.00  0.00    -0.429 C  
HETATM   32  O   UNL     1     -11.658  16.124  71.053  1.00  0.00    -0.413 OA 
HETATM   33  O   UNL     1     -11.848  15.822  73.280  1.00  0.00    -0.434 OA 
ENDBRANCH  27  30
ENDBRANCH  26  27
ENDBRANCH  23  26
ENDBRANCH  22  23
ENDBRANCH  21  22
ENDBRANCH   7  21
TORSDOF 8
ENDMDL
MODEL       97
REMARK 921   NORMALIZED FREE ENERGY PREDICTED BY IDOCK:   -5.65 KCAL/MOL
REMARK 922        TOTAL FREE ENERGY PREDICTED BY IDOCK:   -9.75 KCAL/MOL
REMARK 923 INTER-LIGAND FREE ENERGY PREDICTED BY IDOCK:   -7.99 KCAL/MOL
REMARK 924 INTRA-LIGAND FREE ENERGY PREDICTED BY IDOCK:   -1.76 KCAL/MOL
REMARK 927      BINDING AFFINITY PREDICTED BY RF-SCORE:    0.00 PKD
ROOT
HETATM    1  C   UNL     1      -8.727  12.133  67.847  1.00  0.00    -0.176 C  
HETATM    2  C   UNL     1      -7.953  13.453  67.460  1.00  0.00    -0.183 C  
HETATM    3  C   UNL     1      -7.767  11.060  68.375  1.00  0.00    -0.119 C  
HETATM    4  C   UNL     1      -6.414  13.434  67.584  1.00  0.00    -0.169 C  
HETATM    5  C   UNL     1      -5.797  12.092  67.244  1.00  0.00    -0.142 C  
HETATM    6  C   UNL     1     -11.516  10.199  68.253  1.00  0.00    -0.074 C  
HETATM    7  C   UNL     1     -10.031  12.309  68.709  1.00  0.00    -0.048 C  
HETATM    8  C   UNL     1      -6.466  11.012  68.023  1.00  0.00    -0.057 C  
HETATM    9  O   UNL     1      -5.890  11.837  65.853  1.00  0.00    -0.457 OA 
HETATM   10  C   UNL     1     -10.596  10.941  69.229  1.00  0.00    -0.251 C  
HETATM   11  C   UNL     1      -9.533   9.987  69.674  1.00  0.00    -0.247 C  
HETATM   12  H   UNL     1      -5.503  10.996  65.639  1.00  0.00     0.000 HD 
HETATM   13  C   UNL     1      -8.265  10.042  69.273  1.00  0.00    -0.147 C  
ENDROOT
BRANCH   2  14
HETATM   14  O   UNL     1      -8.472  14.687  68.015  1.00  0.00    -0.142 OA 
BRANCH  14  15
HETATM   15  C   UNL     1      -8.638  15.787  67.227  1.00  0.00    -0.188 C  
HETATM   16  C   UNL     1      -7.736  18.064  67.647  1.00  0.00    -0.215 C  
HETATM   17  C   UNL     1     -10.181  17.586  68.031  1.00  0.00    -0.354 C  
HETATM   18  O   UNL     1      -8.704  15.787  66.005  1.00  0.00    -0.313 OA 
HETATM   19  C   UNL     1      -8.757  17.022  68.099  1.00  0.00    -0.233 C  
HETATM   20  C   UNL     1     -11.212  16.653  68.651  1.00  0.00    -0.235 C  
ENDBRANCH  14  15
ENDBRANCH   2  14
BRANCH   7  21
HETATM   21  C   UNL     1     -11.163  13.160  68.036  1.00  0.00    -0.308 C  
BRANCH  21  22
HETATM   22  C   UNL     1     -11.600  12.508  66.706  1.00  0.00    -0.446 C  
BRANCH  22  23
HETATM   23  C   UNL     1     -11.861  13.418  65.499  1.00  0.00    -0.363 C  
HETATM   24  O   UNL     1     -11.524  14.774  65.797  1.00  0.00    -0.349 OA 
HETATM   25  H   UNL     1     -11.685  15.337  65.049  1.00  0.00     0.000 HD 
BRANCH  23  26
HETATM   26  C   UNL     1     -10.944  12.951  64.344  1.00  0.00    -0.400 C  
BRANCH  26  27
HETATM   27  C   UNL     1     -11.160  11.499  63.898  1.00  0.00    -0.380 C  
HETATM   28  O   UNL     1     -12.134  11.427  62.846  1.00  0.00    -0.919 OA 
HETATM   29  H   UNL     1     -12.268  10.528  62.570  1.00  0.00     0.000 HD 
BRANCH  27  30
HETATM   30  C   UNL     1      -9.859  10.908  63.347  1.00  0.00    -0.408 C  
HETATM   31  C   UNL     1      -9.005  10.258  64.410  1.00  0.00    -0.227 C  
HETATM   32  O   UNL     1      -9.698   9.568  65.343  1.00  0.00    -0.294 OA 
HETATM   33  O   UNL     1      -7.782  10.282  64.390  1.00  0.00    -0.150 OA 
ENDBRANCH  27  30
ENDBRANCH  26  27
ENDBRANCH  23  26
ENDBRANCH  22  23
ENDBRANCH  21  22
ENDBRANCH   7  21
TORSDOF 8
ENDMDL
MODEL       98
REMARK 921   NORMALIZED FREE ENERGY PREDICTED BY IDOCK:   -5.64 KCAL/MOL
REMARK 922        TOTAL FREE ENERGY PREDICTED BY IDOCK:   -9.73 KCAL/MOL
REMARK 923 INTER-LIGAND FREE ENERGY PREDICTED BY IDOCK:   -7.41 KCAL/MOL
REMARK 924 INTRA-LIGAND FREE ENERGY PREDICTED BY IDOCK:   -2.31 KCAL/MOL
REMARK 927      BINDING AFFINITY PREDICTED BY RF-SCORE:    0.00 PKD
ROOT
HETATM    1  C   UNL     1      -7.875  11.555  66.822  1.00  0.00    -0.146 C  
HETATM    2  C   UNL     1      -8.893  12.539  67.518  1.00  0.00    -0.184 C  
HETATM    3  C   UNL     1      -6.431  11.857  67.243  1.00  0.00    -0.141 C  
HETATM    4  C   UNL     1      -8.303  13.656  68.408  1.00  0.00    -0.147 C  
HETATM    5  C   UNL     1      -6.983  14.201  67.897  1.00  0.00    -0.165 C  
HETATM    6  C   UNL     1      -7.006   8.927  64.814  1.00  0.00    -0.076 C  
HETATM    7  C   UNL     1      -8.244  10.026  66.846  1.00  0.00    -0.121 C  
HETATM    8  C   UNL     1      -6.033  13.081  67.646  1.00  0.00    -0.145 C  
HETATM    9  O   UNL     1      -7.180  14.963  66.719  1.00  0.00    -0.282 OA 
HETATM   10  C   UNL     1      -7.073   9.117  66.335  1.00  0.00    -0.084 C  
HETATM   11  C   UNL     1      -5.723   9.563  66.802  1.00  0.00    -0.051 C  
HETATM   12  H   UNL     1      -6.354  15.306  66.399  1.00  0.00     0.000 HD 
HETATM   13  C   UNL     1      -5.443  10.803  67.196  1.00  0.00    -0.044 C  
ENDROOT
BRANCH   2  14
HETATM   14  O   UNL     1     -10.020  11.925  68.190  1.00  0.00    -0.185 OA 
BRANCH  14  15
HETATM   15  C   UNL     1     -11.284  12.074  67.702  1.00  0.00    -0.282 C  
HETATM   16  C   UNL     1     -11.916  12.648  65.368  1.00  0.00    -0.496 C  
HETATM   17  C   UNL     1     -12.078  14.390  67.183  1.00  0.00    -0.367 C  
HETATM   18  O   UNL     1     -12.267  11.436  68.058  1.00  0.00    -0.607 OA 
HETATM   19  C   UNL     1     -11.300  13.176  66.661  1.00  0.00    -0.361 C  
HETATM   20  C   UNL     1     -11.390  15.068  68.360  1.00  0.00    -0.323 C  
ENDBRANCH  14  15
ENDBRANCH   2  14
BRANCH   7  21
HETATM   21  C   UNL     1      -9.590   9.656  66.131  1.00  0.00    -0.295 C  
BRANCH  21  22
HETATM   22  C   UNL     1     -10.318   8.539  66.911  1.00  0.00    -0.367 C  
BRANCH  22  23
HETATM   23  C   UNL     1     -10.066   8.421  68.420  1.00  0.00    -0.198 C  
HETATM   24  O   UNL     1     -11.048   9.148  69.161  1.00  0.00    -0.430 OA 
HETATM   25  H   UNL     1     -10.892   9.074  70.095  1.00  0.00     0.000 HD 
BRANCH  23  26
HETATM   26  C   UNL     1     -10.195   6.930  68.808  1.00  0.00    -0.179 C  
BRANCH  26  27
HETATM   27  C   UNL     1     -10.864   6.673  70.164  1.00  0.00    -0.279 C  
HETATM   28  O   UNL     1     -12.290   6.808  70.064  1.00  0.00    -0.605 OA 
HETATM   29  H   UNL     1     -12.704   6.649  70.904  1.00  0.00     0.000 HD 
BRANCH  27  30
HETATM   30  C   UNL     1     -10.581   5.245  70.640  1.00  0.00    -0.263 C  
HETATM   31  C   UNL     1     -10.698   5.084  72.138  1.00  0.00    -0.159 C  
HETATM   32  O   UNL     1     -11.715   5.774  72.699  1.00  0.00    -0.293 OA 
HETATM   33  O   UNL     1      -9.985   4.330  72.785  1.00  0.00    -0.141 OA 
ENDBRANCH  27  30
ENDBRANCH  26  27
ENDBRANCH  23  26
ENDBRANCH  22  23
ENDBRANCH  21  22
ENDBRANCH   7  21
TORSDOF 8
ENDMDL
MODEL       99
REMARK 921   NORMALIZED FREE ENERGY PREDICTED BY IDOCK:   -5.63 KCAL/MOL
REMARK 922        TOTAL FREE ENERGY PREDICTED BY IDOCK:   -9.72 KCAL/MOL
REMARK 923 INTER-LIGAND FREE ENERGY PREDICTED BY IDOCK:   -8.37 KCAL/MOL
REMARK 924 INTRA-LIGAND FREE ENERGY PREDICTED BY IDOCK:   -1.36 KCAL/MOL
REMARK 927      BINDING AFFINITY PREDICTED BY RF-SCORE:    0.00 PKD
ROOT
HETATM    1  C   UNL     1     -11.565  10.978  69.745  1.00  0.00    -0.401 C  
HETATM    2  C   UNL     1     -11.115   9.593  70.352  1.00  0.00    -0.290 C  
HETATM    3  C   UNL     1     -12.463  11.748  70.722  1.00  0.00    -0.405 C  
HETATM    4  C   UNL     1     -11.687   9.205  71.734  1.00  0.00    -0.456 C  
HETATM    5  C   UNL     1     -13.112   9.676  71.951  1.00  0.00    -0.436 C  
HETATM    6  C   UNL     1     -11.642  13.419  67.353  1.00  0.00    -0.394 C  
HETATM    7  C   UNL     1     -10.441  11.853  69.078  1.00  0.00    -0.103 C  
HETATM    8  C   UNL     1     -13.216  11.133  71.656  1.00  0.00    -0.449 C  
HETATM    9  O   UNL     1     -14.011   8.936  71.145  1.00  0.00    -0.581 OA 
HETATM   10  C   UNL     1     -10.941  13.294  68.712  1.00  0.00    -0.294 C  
HETATM   11  C   UNL     1     -11.837  13.897  69.747  1.00  0.00    -0.390 C  
HETATM   12  H   UNL     1     -14.904   9.230  71.282  1.00  0.00     0.000 HD 
HETATM   13  C   UNL     1     -12.528  13.190  70.639  1.00  0.00    -0.363 C  
ENDROOT
BRANCH   2  14
HETATM   14  O   UNL     1      -9.694   9.308  70.316  1.00  0.00    -0.198 OA 
BRANCH  14  15
HETATM   15  C   UNL     1      -9.122   8.508  71.260  1.00  0.00    -0.196 C  
HETATM   16  C   UNL     1      -7.151   7.027  70.953  1.00  0.00    -0.070 C  
HETATM   17  C   UNL     1      -9.466   6.037  71.070  1.00  0.00    -0.187 C  
HETATM   18  O   UNL     1      -9.038   8.761  72.455  1.00  0.00    -0.366 OA 
HETATM   19  C   UNL     1      -8.624   7.232  70.609  1.00  0.00    -0.142 C  
HETATM   20  C   UNL     1     -10.906   6.107  70.579  1.00  0.00    -0.364 C  
ENDBRANCH  14  15
ENDBRANCH   2  14
BRANCH   7  21
HETATM   21  C   UNL     1      -9.716  11.187  67.858  1.00  0.00    -0.184 C  
BRANCH  21  22
HETATM   22  C   UNL     1     -10.679  10.224  67.128  1.00  0.00    -0.303 C  
BRANCH  22  23
HETATM   23  C   UNL     1     -10.080   9.043  66.353  1.00  0.00    -0.281 C  
HETATM   24  O   UNL     1      -8.702   9.272  66.056  1.00  0.00    -0.140 OA 
HETATM   25  H   UNL     1      -8.331   8.540  65.576  1.00  0.00     0.000 HD 
BRANCH  23  26
HETATM   26  C   UNL     1     -10.162   7.791  67.257  1.00  0.00    -0.343 C  
BRANCH  26  27
HETATM   27  C   UNL     1      -9.856   6.465  66.549  1.00  0.00    -0.116 C  
HETATM   28  O   UNL     1      -9.112   6.689  65.343  1.00  0.00    -0.374 OA 
HETATM   29  H   UNL     1      -8.922   5.868  64.905  1.00  0.00     0.000 HD 
BRANCH  27  30
HETATM   30  C   UNL     1      -8.999   5.564  67.444  1.00  0.00    -0.107 C  
HETATM   31  C   UNL     1      -9.170   4.093  67.145  1.00  0.00    -0.157 C  
HETATM   32  O   UNL     1      -9.284   3.797  65.831  1.00  0.00    -0.143 OA 
HETATM   33  O   UNL     1      -9.129   3.228  68.008  1.00  0.00    -0.132 OA 
ENDBRANCH  27  30
ENDBRANCH  26  27
ENDBRANCH  23  26
ENDBRANCH  22  23
ENDBRANCH  21  22
ENDBRANCH   7  21
TORSDOF 8
ENDMDL
MODEL      100
REMARK 921   NORMALIZED FREE ENERGY PREDICTED BY IDOCK:   -5.62 KCAL/MOL
REMARK 922        TOTAL FREE ENERGY PREDICTED BY IDOCK:   -9.70 KCAL/MOL
REMARK 923 INTER-LIGAND FREE ENERGY PREDICTED BY IDOCK:   -8.58 KCAL/MOL
REMARK 924 INTRA-LIGAND FREE ENERGY PREDICTED BY IDOCK:   -1.12 KCAL/MOL
REMARK 927      BINDING AFFINITY PREDICTED BY RF-SCORE:    0.00 PKD
ROOT
HETATM    1  C   UNL     1     -10.423   8.033  68.817  1.00  0.00    -0.196 C  
HETATM    2  C   UNL     1      -9.691   8.042  67.420  1.00  0.00    -0.166 C  
HETATM    3  C   UNL     1     -10.564   6.606  69.363  1.00  0.00    -0.279 C  
HETATM    4  C   UNL     1      -9.322   6.674  66.805  1.00  0.00    -0.184 C  
HETATM    5  C   UNL     1     -10.337   5.586  67.097  1.00  0.00    -0.248 C  
HETATM    6  C   UNL     1     -11.927   9.486  71.522  1.00  0.00    -0.475 C  
HETATM    7  C   UNL     1      -9.925   9.081  69.880  1.00  0.00    -0.203 C  
HETATM    8  C   UNL     1     -10.606   5.523  68.561  1.00  0.00    -0.208 C  
HETATM    9  O   UNL     1     -11.535   5.815  66.377  1.00  0.00    -0.603 OA 
HETATM   10  C   UNL     1     -10.553   8.843  71.298  1.00  0.00    -0.351 C  
HETATM   11  C   UNL     1     -10.656   7.398  71.670  1.00  0.00    -0.229 C  
HETATM   12  H   UNL     1     -12.172   5.133  66.560  1.00  0.00     0.000 HD 
HETATM   13  C   UNL     1     -10.673   6.399  70.790  1.00  0.00    -0.302 C  
ENDROOT
BRANCH   2  14
HETATM   14  O   UNL     1      -8.572   8.953  67.288  1.00  0.00    -0.117 OA 
BRANCH  14  15
HETATM   15  C   UNL     1      -8.422   9.710  66.164  1.00  0.00    -0.120 C  
HETATM   16  C   UNL     1      -7.939   8.882  63.871  1.00  0.00    -0.154 C  
HETATM   17  C   UNL     1      -6.117   9.975  65.227  1.00  0.00    -0.104 C  
HETATM   18  O   UNL     1      -9.025  10.745  65.914  1.00  0.00    -0.171 OA 
HETATM   19  C   UNL     1      -7.366   9.088  65.271  1.00  0.00    -0.092 C  
HETATM   20  C   UNL     1      -5.400  10.051  66.568  1.00  0.00    -0.044 C  
ENDBRANCH  14  15
ENDBRANCH   2  14
BRANCH   7  21
HETATM   21  C   UNL     1     -10.069  10.582  69.451  1.00  0.00    -0.233 C  
BRANCH  21  22
HETATM   22  C   UNL     1     -11.287  10.754  68.517  1.00  0.00    -0.360 C  
BRANCH  22  23
HETATM   23  C   UNL     1     -11.986  12.120  68.473  1.00  0.00    -0.217 C  
HETATM   24  O   UNL     1     -11.996  12.731  69.764  1.00  0.00    -0.314 OA 
HETATM   25  H   UNL     1     -12.428  13.576  69.736  1.00  0.00     0.000 HD 
BRANCH  23  26
HETATM   26  C   UNL     1     -11.177  13.037  67.527  1.00  0.00    -0.320 C  
BRANCH  26  27
HETATM   27  C   UNL     1     -11.963  14.222  66.952  1.00  0.00    -0.438 C  
HETATM   28  O   UNL     1     -11.075  15.272  66.538  1.00  0.00    -0.325 OA 
HETATM   29  H   UNL     1     -11.562  16.006  66.182  1.00  0.00     0.000 HD 
BRANCH  27  30
HETATM   30  C   UNL     1     -12.756  13.791  65.714  1.00  0.00    -0.494 C  
HETATM   31  C   UNL     1     -11.956  13.881  64.435  1.00  0.00    -0.450 C  
HETATM   32  O   UNL     1     -10.664  13.504  64.553  1.00  0.00    -0.390 OA 
HETATM   33  O   UNL     1     -12.451  14.193  63.361  1.00  0.00    -0.797 OA 
ENDBRANCH  27  30
ENDBRANCH  26  27
ENDBRANCH  23  26
ENDBRANCH  22  23
ENDBRANCH  21  22
ENDBRANCH   7  21
TORSDOF 8
ENDMDL
MODEL      101
REMARK 921   NORMALIZED FREE ENERGY PREDICTED BY IDOCK:   -5.61 KCAL/MOL
REMARK 922        TOTAL FREE ENERGY PREDICTED BY IDOCK:   -9.69 KCAL/MOL
REMARK 923 INTER-LIGAND FREE ENERGY PREDICTED BY IDOCK:   -7.55 KCAL/MOL
REMARK 924 INTRA-LIGAND FREE ENERGY PREDICTED BY IDOCK:   -2.14 KCAL/MOL
REMARK 927      BINDING AFFINITY PREDICTED BY RF-SCORE:    0.00 PKD
ROOT
HETATM    1  C   UNL     1      -9.153   9.209  70.442  1.00  0.00    -0.270 C  
HETATM    2  C   UNL     1     -10.448   8.981  69.570  1.00  0.00    -0.219 C  
HETATM    3  C   UNL     1      -9.331   8.649  71.859  1.00  0.00    -0.357 C  
HETATM    4  C   UNL     1     -11.667   8.338  70.267  1.00  0.00     0.105 C  
HETATM    5  C   UNL     1     -11.820   8.748  71.718  1.00  0.00    -0.344 C  
HETATM    6  C   UNL     1      -5.948  10.265  70.988  1.00  0.00    -0.016 C  
HETATM    7  C   UNL     1      -7.779   8.838  69.773  1.00  0.00    -0.084 C  
HETATM    8  C   UNL     1     -10.539   8.528  72.446  1.00  0.00    -0.368 C  
HETATM    9  O   UNL     1     -12.224  10.103  71.815  1.00  0.00    -0.374 OA 
HETATM   10  C   UNL     1      -6.584   8.884  70.788  1.00  0.00    -0.056 C  
HETATM   11  C   UNL     1      -6.926   8.336  72.137  1.00  0.00    -0.098 C  
HETATM   12  H   UNL     1     -12.319  10.361  72.724  1.00  0.00     0.000 HD 
HETATM   13  C   UNL     1      -8.165   8.247  72.615  1.00  0.00    -0.223 C  
ENDROOT
BRANCH   2  14
HETATM   14  O   UNL     1     -10.248   8.367  68.273  1.00  0.00    -0.194 OA 
BRANCH  14  15
HETATM   15  C   UNL     1     -10.554   7.054  68.072  1.00  0.00    -0.207 C  
HETATM   16  C   UNL     1     -10.277   5.198  69.701  1.00  0.00    -0.337 C  
HETATM   17  C   UNL     1      -8.665   5.439  67.778  1.00  0.00    -0.106 C  
HETATM   18  O   UNL     1     -11.486   6.632  67.398  1.00  0.00    -0.183 OA 
HETATM   19  C   UNL     1      -9.544   6.181  68.791  1.00  0.00    -0.137 C  
HETATM   20  C   UNL     1      -7.770   6.376  66.978  1.00  0.00    -0.100 C  
ENDBRANCH  14  15
ENDBRANCH   2  14
BRANCH   7  21
HETATM   21  C   UNL     1      -7.436   9.642  68.470  1.00  0.00    -0.079 C  
BRANCH  21  22
HETATM   22  C   UNL     1      -8.081  11.044  68.525  1.00  0.00    -0.140 C  
BRANCH  22  23
HETATM   23  C   UNL     1      -8.713  11.605  67.244  1.00  0.00    -0.159 C  
HETATM   24  O   UNL     1      -9.217  10.555  66.419  1.00  0.00    -0.161 OA 
HETATM   25  H   UNL     1      -9.609  10.903  65.626  1.00  0.00     0.000 HD 
BRANCH  23  26
HETATM   26  C   UNL     1      -9.911  12.493  67.656  1.00  0.00    -0.202 C  
BRANCH  26  27
HETATM   27  C   UNL     1     -11.169  12.316  66.797  1.00  0.00    -0.318 C  
HETATM   28  O   UNL     1     -12.128  11.478  67.460  1.00  0.00    -0.614 OA 
HETATM   29  H   UNL     1     -12.906  11.368  66.928  1.00  0.00     0.000 HD 
BRANCH  27  30
HETATM   30  C   UNL     1     -11.847  13.667  66.552  1.00  0.00    -0.441 C  
HETATM   31  C   UNL     1     -12.551  13.746  65.217  1.00  0.00    -0.473 C  
HETATM   32  O   UNL     1     -13.192  12.614  64.853  1.00  0.00    -0.819 OA 
HETATM   33  O   UNL     1     -12.608  14.772  64.554  1.00  0.00    -0.574 OA 
ENDBRANCH  27  30
ENDBRANCH  26  27
ENDBRANCH  23  26
ENDBRANCH  22  23
ENDBRANCH  21  22
ENDBRANCH   7  21
TORSDOF 8
ENDMDL
MODEL      102
REMARK 921   NORMALIZED FREE ENERGY PREDICTED BY IDOCK:   -5.58 KCAL/MOL
REMARK 922        TOTAL FREE ENERGY PREDICTED BY IDOCK:   -9.65 KCAL/MOL
REMARK 923 INTER-LIGAND FREE ENERGY PREDICTED BY IDOCK:   -8.22 KCAL/MOL
REMARK 924 INTRA-LIGAND FREE ENERGY PREDICTED BY IDOCK:   -1.43 KCAL/MOL
REMARK 927      BINDING AFFINITY PREDICTED BY RF-SCORE:    0.00 PKD
ROOT
HETATM    1  C   UNL     1     -10.101   8.184  69.201  1.00  0.00    -0.204 C  
HETATM    2  C   UNL     1     -10.744   9.563  69.619  1.00  0.00    -0.238 C  
HETATM    3  C   UNL     1     -10.954   7.003  69.681  1.00  0.00    -0.268 C  
HETATM    4  C   UNL     1     -12.026   9.515  70.479  1.00  0.00    -0.197 C  
HETATM    5  C   UNL     1     -12.050   8.363  71.464  1.00  0.00    -0.301 C  
HETATM    6  C   UNL     1      -7.760   6.204  67.690  1.00  0.00    -0.098 C  
HETATM    7  C   UNL     1      -9.611   8.059  67.712  1.00  0.00    -0.179 C  
HETATM    8  C   UNL     1     -11.765   7.083  70.756  1.00  0.00    -0.394 C  
HETATM    9  O   UNL     1     -11.115   8.577  72.507  1.00  0.00    -0.355 OA 
HETATM   10  C   UNL     1      -9.200   6.592  67.336  1.00  0.00    -0.124 C  
HETATM   11  C   UNL     1     -10.110   5.552  67.910  1.00  0.00    -0.218 C  
HETATM   12  H   UNL     1     -11.130   7.855  73.125  1.00  0.00     0.000 HD 
HETATM   13  C   UNL     1     -10.886   5.744  68.974  1.00  0.00    -0.330 C  
ENDROOT
BRANCH   2  14
HETATM   14  O   UNL     1     -10.901  10.544  68.564  1.00  0.00    -0.203 OA 
BRANCH  14  15
HETATM   15  C   UNL     1     -11.120  11.856  68.863  1.00  0.00    -0.247 C  
HETATM   16  C   UNL     1     -11.974  13.607  67.320  1.00  0.00    -0.420 C  
HETATM   17  C   UNL     1      -9.530  13.551  67.935  1.00  0.00    -0.215 C  
HETATM   18  O   UNL     1     -11.506  12.288  69.941  1.00  0.00    -0.224 OA 
HETATM   19  C   UNL     1     -10.783  12.713  67.658  1.00  0.00    -0.239 C  
HETATM   20  C   UNL     1      -8.275  12.702  68.086  1.00  0.00    -0.170 C  
ENDBRANCH  14  15
ENDBRANCH   2  14
BRANCH   7  21
HETATM   21  C   UNL     1      -8.493   9.076  67.292  1.00  0.00    -0.114 C  
BRANCH  21  22
HETATM   22  C   UNL     1      -8.322   9.075  65.757  1.00  0.00    -0.133 C  
BRANCH  22  23
HETATM   23  C   UNL     1      -8.280  10.425  65.028  1.00  0.00    -0.152 C  
HETATM   24  O   UNL     1      -6.979  10.679  64.496  1.00  0.00    -0.347 OA 
HETATM   25  H   UNL     1      -6.953  11.514  64.044  1.00  0.00     0.000 HD 
BRANCH  23  26
HETATM   26  C   UNL     1      -9.266  10.353  63.839  1.00  0.00    -0.301 C  
BRANCH  26  27
HETATM   27  C   UNL     1     -10.677  10.875  64.141  1.00  0.00    -0.161 C  
HETATM   28  O   UNL     1     -11.022  10.649  65.516  1.00  0.00    -0.004 OA 
HETATM   29  H   UNL     1     -11.896  10.972  65.702  1.00  0.00     0.000 HD 
BRANCH  27  30
HETATM   30  C   UNL     1     -10.754  12.386  63.901  1.00  0.00    -0.465 C  
HETATM   31  C   UNL     1     -12.159  12.876  63.640  1.00  0.00    -0.535 C  
HETATM   32  O   UNL     1     -13.110  12.280  64.393  1.00  0.00    -0.780 OA 
HETATM   33  O   UNL     1     -12.413  13.791  62.870  1.00  0.00    -0.601 OA 
ENDBRANCH  27  30
ENDBRANCH  26  27
ENDBRANCH  23  26
ENDBRANCH  22  23
ENDBRANCH  21  22
ENDBRANCH   7  21
TORSDOF 8
ENDMDL
MODEL      103
REMARK 921   NORMALIZED FREE ENERGY PREDICTED BY IDOCK:   -5.54 KCAL/MOL
REMARK 922        TOTAL FREE ENERGY PREDICTED BY IDOCK:   -9.59 KCAL/MOL
REMARK 923 INTER-LIGAND FREE ENERGY PREDICTED BY IDOCK:   -7.69 KCAL/MOL
REMARK 924 INTRA-LIGAND FREE ENERGY PREDICTED BY IDOCK:   -1.91 KCAL/MOL
REMARK 927      BINDING AFFINITY PREDICTED BY RF-SCORE:    0.00 PKD
ROOT
HETATM    1  C   UNL     1      -8.891   5.929  68.245  1.00  0.00    -0.110 C  
HETATM    2  C   UNL     1      -9.643   5.633  69.600  1.00  0.00    -0.151 C  
HETATM    3  C   UNL     1      -8.612   4.636  67.469  1.00  0.00    -0.103 C  
HETATM    4  C   UNL     1      -9.895   4.153  69.962  1.00  0.00    -0.245 C  
HETATM    5  C   UNL     1      -8.780   3.225  69.520  1.00  0.00    -0.078 C  
HETATM    6  C   UNL     1      -7.483   7.953  65.876  1.00  0.00    -0.078 C  
HETATM    7  C   UNL     1      -9.466   7.097  67.361  1.00  0.00    -0.156 C  
HETATM    8  C   UNL     1      -8.483   3.438  68.076  1.00  0.00    -0.106 C  
HETATM    9  O   UNL     1      -7.619   3.430  70.306  1.00  0.00    -0.044 OA 
HETATM   10  C   UNL     1      -8.796   7.163  65.945  1.00  0.00    -0.128 C  
HETATM   11  C   UNL     1      -8.556   5.819  65.335  1.00  0.00    -0.143 C  
HETATM   12  H   UNL     1      -6.920   2.848  70.029  1.00  0.00     0.000 HD 
HETATM   13  C   UNL     1      -8.461   4.689  66.032  1.00  0.00    -0.115 C  
ENDROOT
BRANCH   2  14
HETATM   14  O   UNL     1     -10.843   6.407  69.851  1.00  0.00    -0.248 OA 
BRANCH  14  15
HETATM   15  C   UNL     1     -11.218   6.713  71.125  1.00  0.00    -0.292 C  
HETATM   16  C   UNL     1     -12.475   8.727  71.859  1.00  0.00    -0.434 C  
HETATM   17  C   UNL     1      -9.999   8.559  72.296  1.00  0.00    -0.385 C  
HETATM   18  O   UNL     1     -11.548   5.908  71.986  1.00  0.00    -0.288 OA 
HETATM   19  C   UNL     1     -11.138   8.213  71.330  1.00  0.00    -0.291 C  
HETATM   20  C   UNL     1      -8.625   8.239  71.723  1.00  0.00    -0.213 C  
ENDBRANCH  14  15
ENDBRANCH   2  14
BRANCH   7  21
HETATM   21  C   UNL     1      -9.466   8.509  68.045  1.00  0.00    -0.154 C  
BRANCH  21  22
HETATM   22  C   UNL     1     -10.629   9.365  67.496  1.00  0.00    -0.333 C  
BRANCH  22  23
HETATM   23  C   UNL     1     -10.290  10.624  66.688  1.00  0.00    -0.241 C  
HETATM   24  O   UNL     1     -10.268  10.343  65.288  1.00  0.00    -0.299 OA 
HETATM   25  H   UNL     1     -10.058  11.123  64.788  1.00  0.00     0.000 HD 
BRANCH  23  26
HETATM   26  C   UNL     1     -11.405  11.665  66.940  1.00  0.00    -0.364 C  
BRANCH  26  27
HETATM   27  C   UNL     1     -11.019  13.114  66.615  1.00  0.00    -0.283 C  
HETATM   28  O   UNL     1      -9.926  13.155  65.685  1.00  0.00    -0.323 OA 
HETATM   29  H   UNL     1      -9.687  14.052  65.485  1.00  0.00     0.000 HD 
BRANCH  27  30
HETATM   30  C   UNL     1     -12.193  13.849  65.961  1.00  0.00    -0.495 C  
HETATM   31  C   UNL     1     -12.262  13.645  64.466  1.00  0.00    -0.401 C  
HETATM   32  O   UNL     1     -11.959  12.394  64.055  1.00  0.00    -0.389 OA 
HETATM   33  O   UNL     1     -12.639  14.513  63.691  1.00  0.00    -0.798 OA 
ENDBRANCH  27  30
ENDBRANCH  26  27
ENDBRANCH  23  26
ENDBRANCH  22  23
ENDBRANCH  21  22
ENDBRANCH   7  21
TORSDOF 8
ENDMDL
MODEL      104
REMARK 921   NORMALIZED FREE ENERGY PREDICTED BY IDOCK:   -5.54 KCAL/MOL
REMARK 922        TOTAL FREE ENERGY PREDICTED BY IDOCK:   -9.59 KCAL/MOL
REMARK 923 INTER-LIGAND FREE ENERGY PREDICTED BY IDOCK:   -7.76 KCAL/MOL
REMARK 924 INTRA-LIGAND FREE ENERGY PREDICTED BY IDOCK:   -1.83 KCAL/MOL
REMARK 927      BINDING AFFINITY PREDICTED BY RF-SCORE:    0.00 PKD
ROOT
HETATM    1  C   UNL     1     -10.209   5.792  71.161  1.00  0.00    -0.275 C  
HETATM    2  C   UNL     1      -9.639   4.891  69.997  1.00  0.00    -0.191 C  
HETATM    3  C   UNL     1      -9.633   5.376  72.520  1.00  0.00    -0.169 C  
HETATM    4  C   UNL     1      -8.699   3.731  70.395  1.00  0.00    -0.129 C  
HETATM    5  C   UNL     1      -9.065   3.083  71.716  1.00  0.00    -0.100 C  
HETATM    6  C   UNL     1     -12.084   8.343  72.452  1.00  0.00    -0.443 C  
HETATM    7  C   UNL     1     -10.212   7.345  70.912  1.00  0.00    -0.195 C  
HETATM    8  C   UNL     1      -9.199   4.125  72.773  1.00  0.00    -0.137 C  
HETATM    9  O   UNL     1     -10.264   2.339  71.592  1.00  0.00    -0.098 OA 
HETATM   10  C   UNL     1     -10.582   8.159  72.201  1.00  0.00    -0.358 C  
HETATM   11  C   UNL     1      -9.972   7.607  73.451  1.00  0.00    -0.373 C  
HETATM   12  H   UNL     1     -10.494   1.932  72.420  1.00  0.00     0.000 HD 
HETATM   13  C   UNL     1      -9.560   6.349  73.587  1.00  0.00    -0.178 C  
ENDROOT
BRANCH   2  14
HETATM   14  O   UNL     1      -9.091   5.592  68.853  1.00  0.00    -0.114 OA 
BRANCH  14  15
HETATM   15  C   UNL     1      -9.552   5.337  67.596  1.00  0.00    -0.132 C  
HETATM   16  C   UNL     1      -8.530   3.815  65.920  1.00  0.00    -0.110 C  
HETATM   17  C   UNL     1      -8.296   6.311  65.664  1.00  0.00    -0.147 C  
HETATM   18  O   UNL     1     -10.730   5.291  67.264  1.00  0.00    -0.183 OA 
HETATM   19  C   UNL     1      -8.380   5.144  66.655  1.00  0.00    -0.108 C  
HETATM   20  C   UNL     1      -7.953   7.632  66.339  1.00  0.00    -0.107 C  
ENDBRANCH  14  15
ENDBRANCH   2  14
BRANCH   7  21
HETATM   21  C   UNL     1     -11.069   7.820  69.687  1.00  0.00    -0.052 C  
BRANCH  21  22
HETATM   22  C   UNL     1     -10.317   8.921  68.907  1.00  0.00    -0.229 C  
BRANCH  22  23
HETATM   23  C   UNL     1     -11.019  10.268  68.688  1.00  0.00    -0.244 C  
HETATM   24  O   UNL     1     -10.616  11.222  69.671  1.00  0.00    -0.440 OA 
HETATM   25  H   UNL     1     -11.050  12.056  69.535  1.00  0.00     0.000 HD 
BRANCH  23  26
HETATM   26  C   UNL     1     -10.588  10.809  67.305  1.00  0.00    -0.304 C  
BRANCH  26  27
HETATM   27  C   UNL     1     -11.436  11.972  66.775  1.00  0.00    -0.345 C  
HETATM   28  O   UNL     1     -11.013  13.217  67.351  1.00  0.00    -0.263 OA 
HETATM   29  H   UNL     1     -11.539  13.937  67.023  1.00  0.00     0.000 HD 
BRANCH  27  30
HETATM   30  C   UNL     1     -11.279  12.103  65.257  1.00  0.00    -0.381 C  
HETATM   31  C   UNL     1     -12.510  12.655  64.578  1.00  0.00    -0.448 C  
HETATM   32  O   UNL     1     -13.135  13.639  65.261  1.00  0.00    -0.735 OA 
HETATM   33  O   UNL     1     -12.872  12.302  63.464  1.00  0.00    -0.768 OA 
ENDBRANCH  27  30
ENDBRANCH  26  27
ENDBRANCH  23  26
ENDBRANCH  22  23
ENDBRANCH  21  22
ENDBRANCH   7  21
TORSDOF 8
ENDMDL
MODEL      105
REMARK 921   NORMALIZED FREE ENERGY PREDICTED BY IDOCK:   -5.52 KCAL/MOL
REMARK 922        TOTAL FREE ENERGY PREDICTED BY IDOCK:   -9.56 KCAL/MOL
REMARK 923 INTER-LIGAND FREE ENERGY PREDICTED BY IDOCK:   -7.38 KCAL/MOL
REMARK 924 INTRA-LIGAND FREE ENERGY PREDICTED BY IDOCK:   -2.18 KCAL/MOL
REMARK 927      BINDING AFFINITY PREDICTED BY RF-SCORE:    0.00 PKD
ROOT
HETATM    1  C   UNL     1      -8.639   7.993  67.294  1.00  0.00    -0.124 C  
HETATM    2  C   UNL     1      -9.519   7.177  68.318  1.00  0.00    -0.133 C  
HETATM    3  C   UNL     1      -8.469   7.230  65.974  1.00  0.00    -0.148 C  
HETATM    4  C   UNL     1      -9.981   5.767  67.888  1.00  0.00    -0.164 C  
HETATM    5  C   UNL     1      -8.963   5.029  67.040  1.00  0.00    -0.112 C  
HETATM    6  C   UNL     1      -6.819  10.696  66.259  1.00  0.00    -0.133 C  
HETATM    7  C   UNL     1      -8.996   9.515  67.115  1.00  0.00    -0.148 C  
HETATM    8  C   UNL     1      -8.537   5.886  65.898  1.00  0.00    -0.145 C  
HETATM    9  O   UNL     1      -7.845   4.646  67.823  1.00  0.00    -0.085 OA 
HETATM   10  C   UNL     1      -8.222  10.177  65.922  1.00  0.00    -0.138 C  
HETATM   11  C   UNL     1      -8.109   9.294  64.720  1.00  0.00    -0.133 C  
HETATM   12  H   UNL     1      -7.207   4.184  67.292  1.00  0.00     0.000 HD 
HETATM   13  C   UNL     1      -8.209   7.967  64.757  1.00  0.00    -0.112 C  
ENDROOT
BRANCH   2  14
HETATM   14  O   UNL     1     -10.626   7.889  68.923  1.00  0.00    -0.211 OA 
BRANCH  14  15
HETATM   15  C   UNL     1     -11.060   7.564  70.173  1.00  0.00    -0.231 C  
HETATM   16  C   UNL     1     -12.385   9.004  71.706  1.00  0.00    -0.438 C  
HETATM   17  C   UNL     1      -9.926   8.641  72.127  1.00  0.00    -0.386 C  
HETATM   18  O   UNL     1     -11.413   6.451  70.540  1.00  0.00    -0.349 OA 
HETATM   19  C   UNL     1     -11.017   8.793  71.061  1.00  0.00    -0.328 C  
HETATM   20  C   UNL     1      -8.524   8.621  71.535  1.00  0.00    -0.238 C  
ENDBRANCH  14  15
ENDBRANCH   2  14
BRANCH   7  21
HETATM   21  C   UNL     1      -8.868  10.384  68.414  1.00  0.00    -0.136 C  
BRANCH  21  22
HETATM   22  C   UNL     1     -10.119  11.275  68.583  1.00  0.00    -0.216 C  
BRANCH  22  23
HETATM   23  C   UNL     1     -11.388  10.904  67.805  1.00  0.00    -0.292 C  
HETATM   24  O   UNL     1     -12.530  10.891  68.663  1.00  0.00    -0.772 OA 
HETATM   25  H   UNL     1     -13.316  10.663  68.181  1.00  0.00     0.000 HD 
BRANCH  23  26
HETATM   26  C   UNL     1     -11.622  11.992  66.732  1.00  0.00    -0.391 C  
BRANCH  26  27
HETATM   27  C   UNL     1     -10.855  13.301  66.963  1.00  0.00    -0.269 C  
HETATM   28  O   UNL     1     -10.299  13.792  65.734  1.00  0.00    -0.290 OA 
HETATM   29  H   UNL     1      -9.824  14.602  65.878  1.00  0.00     0.000 HD 
BRANCH  27  30
HETATM   30  C   UNL     1     -11.794  14.387  67.496  1.00  0.00    -0.418 C  
HETATM   31  C   UNL     1     -11.131  15.310  68.491  1.00  0.00    -0.282 C  
HETATM   32  O   UNL     1      -9.854  15.635  68.192  1.00  0.00    -0.211 OA 
HETATM   33  O   UNL     1     -11.720  15.792  69.449  1.00  0.00    -0.349 OA 
ENDBRANCH  27  30
ENDBRANCH  26  27
ENDBRANCH  23  26
ENDBRANCH  22  23
ENDBRANCH  21  22
ENDBRANCH   7  21
TORSDOF 8
ENDMDL
MODEL      106
REMARK 921   NORMALIZED FREE ENERGY PREDICTED BY IDOCK:   -5.50 KCAL/MOL
REMARK 922        TOTAL FREE ENERGY PREDICTED BY IDOCK:   -9.52 KCAL/MOL
REMARK 923 INTER-LIGAND FREE ENERGY PREDICTED BY IDOCK:   -6.99 KCAL/MOL
REMARK 924 INTRA-LIGAND FREE ENERGY PREDICTED BY IDOCK:   -2.54 KCAL/MOL
REMARK 927      BINDING AFFINITY PREDICTED BY RF-SCORE:    0.00 PKD
ROOT
HETATM    1  C   UNL     1      -7.924  14.017  67.377  1.00  0.00    -0.191 C  
HETATM    2  C   UNL     1      -8.195  15.486  67.887  1.00  0.00    -0.143 C  
HETATM    3  C   UNL     1      -6.513  13.549  67.754  1.00  0.00    -0.175 C  
HETATM    4  C   UNL     1      -7.027  16.222  68.580  1.00  0.00    -0.143 C  
HETATM    5  C   UNL     1      -5.669  15.884  67.996  1.00  0.00    -0.126 C  
HETATM    6  C   UNL     1      -8.768  11.076  65.853  1.00  0.00    -0.182 C  
HETATM    7  C   UNL     1      -9.050  12.955  67.657  1.00  0.00    -0.194 C  
HETATM    8  C   UNL     1      -5.490  14.406  67.947  1.00  0.00    -0.088 C  
HETATM    9  O   UNL     1      -5.526  16.448  66.704  1.00  0.00    -0.333 OA 
HETATM   10  C   UNL     1      -8.594  11.493  67.318  1.00  0.00    -0.150 C  
HETATM   11  C   UNL     1      -7.182  11.201  67.715  1.00  0.00    -0.091 C  
HETATM   12  H   UNL     1      -4.675  16.237  66.338  1.00  0.00     0.000 HD 
HETATM   13  C   UNL     1      -6.249  12.134  67.896  1.00  0.00    -0.079 C  
ENDROOT
BRANCH   2  14
HETATM   14  O   UNL     1      -9.415  15.687  68.644  1.00  0.00    -0.190 OA 
BRANCH  14  15
HETATM   15  C   UNL     1     -10.450  16.399  68.115  1.00  0.00    -0.302 C  
HETATM   16  C   UNL     1     -10.784  16.979  65.722  1.00  0.00    -0.146 C  
HETATM   17  C   UNL     1      -9.995  18.737  67.346  1.00  0.00    -0.378 C  
HETATM   18  O   UNL     1     -11.608  16.378  68.512  1.00  0.00    -0.302 OA 
HETATM   19  C   UNL     1      -9.945  17.252  66.968  1.00  0.00    -0.289 C  
HETATM   20  C   UNL     1      -9.023  19.092  68.464  1.00  0.00    -0.406 C  
ENDBRANCH  14  15
ENDBRANCH   2  14
BRANCH   7  21
HETATM   21  C   UNL     1     -10.440  13.272  67.003  1.00  0.00    -0.249 C  
BRANCH  21  22
HETATM   22  C   UNL     1     -11.580  12.949  67.994  1.00  0.00    -0.385 C  
BRANCH  22  23
HETATM   23  C   UNL     1     -11.224  12.737  69.471  1.00  0.00    -0.077 C  
HETATM   24  O   UNL     1     -11.311  13.961  70.200  1.00  0.00    -0.466 OA 
HETATM   25  H   UNL     1     -11.091  13.829  71.115  1.00  0.00     0.000 HD 
BRANCH  23  26
HETATM   26  C   UNL     1     -12.259  11.758  70.073  1.00  0.00    -0.317 C  
BRANCH  26  27
HETATM   27  C   UNL     1     -11.693  10.392  70.479  1.00  0.00    -0.344 C  
HETATM   28  O   UNL     1     -12.741   9.513  70.914  1.00  0.00    -0.467 OA 
HETATM   29  H   UNL     1     -12.390   8.667  71.166  1.00  0.00     0.000 HD 
BRANCH  27  30
HETATM   30  C   UNL     1     -11.010   9.717  69.285  1.00  0.00    -0.222 C  
HETATM   31  C   UNL     1     -10.050   8.623  69.690  1.00  0.00    -0.201 C  
HETATM   32  O   UNL     1     -10.471   7.861  70.723  1.00  0.00    -0.206 OA 
HETATM   33  O   UNL     1      -9.012   8.389  69.087  1.00  0.00    -0.145 OA 
ENDBRANCH  27  30
ENDBRANCH  26  27
ENDBRANCH  23  26
ENDBRANCH  22  23
ENDBRANCH  21  22
ENDBRANCH   7  21
TORSDOF 8
ENDMDL
MODEL      107
REMARK 921   NORMALIZED FREE ENERGY PREDICTED BY IDOCK:   -5.48 KCAL/MOL
REMARK 922        TOTAL FREE ENERGY PREDICTED BY IDOCK:   -9.50 KCAL/MOL
REMARK 923 INTER-LIGAND FREE ENERGY PREDICTED BY IDOCK:   -8.28 KCAL/MOL
REMARK 924 INTRA-LIGAND FREE ENERGY PREDICTED BY IDOCK:   -1.22 KCAL/MOL
REMARK 927      BINDING AFFINITY PREDICTED BY RF-SCORE:    0.00 PKD
ROOT
HETATM    1  C   UNL     1      -6.630  17.434  67.130  1.00  0.00    -0.193 C  
HETATM    2  C   UNL     1      -7.510  18.058  65.979  1.00  0.00    -0.236 C  
HETATM    3  C   UNL     1      -6.043  18.523  68.036  1.00  0.00    -0.192 C  
HETATM    4  C   UNL     1      -7.575  19.599  65.893  1.00  0.00    -0.320 C  
HETATM    5  C   UNL     1      -6.276  20.280  66.279  1.00  0.00    -0.191 C  
HETATM    6  C   UNL     1      -5.237  14.860  68.897  1.00  0.00    -0.092 C  
HETATM    7  C   UNL     1      -7.250  16.215  67.909  1.00  0.00    -0.144 C  
HETATM    8  C   UNL     1      -5.815  19.781  67.605  1.00  0.00    -0.200 C  
HETATM    9  O   UNL     1      -5.285  20.064  65.290  1.00  0.00    -0.159 OA 
HETATM   10  C   UNL     1      -6.405  15.815  69.168  1.00  0.00    -0.134 C  
HETATM   11  C   UNL     1      -5.872  16.989  69.927  1.00  0.00    -0.228 C  
HETATM   12  H   UNL     1      -4.471  20.491  65.532  1.00  0.00     0.000 HD 
HETATM   13  C   UNL     1      -5.701  18.201  69.403  1.00  0.00    -0.227 C  
ENDROOT
BRANCH   2  14
HETATM   14  O   UNL     1      -8.840  17.505  65.816  1.00  0.00    -0.514 OA 
BRANCH  14  15
HETATM   15  C   UNL     1      -9.942  18.247  66.119  1.00  0.00    -0.308 C  
HETATM   16  C   UNL     1     -10.093  20.060  67.812  1.00  0.00    -0.563 C  
HETATM   17  C   UNL     1     -11.099  17.800  68.292  1.00  0.00     0.184 C  
HETATM   18  O   UNL     1     -10.806  18.599  65.326  1.00  0.00    -0.591 OA 
HETATM   19  C   UNL     1      -9.956  18.554  67.604  1.00  0.00    -0.362 C  
HETATM   20  C   UNL     1     -10.902  16.290  68.277  1.00  0.00    -0.340 C  
ENDBRANCH  14  15
ENDBRANCH   2  14
BRANCH   7  21
HETATM   21  C   UNL     1      -7.570  14.957  67.029  1.00  0.00    -0.027 C  
BRANCH  21  22
HETATM   22  C   UNL     1      -8.872  14.284  67.516  1.00  0.00    -0.202 C  
BRANCH  22  23
HETATM   23  C   UNL     1      -9.200  12.875  67.004  1.00  0.00    -0.226 C  
HETATM   24  O   UNL     1     -10.181  12.246  67.830  1.00  0.00    -0.196 OA 
HETATM   25  H   UNL     1     -10.384  11.374  67.512  1.00  0.00     0.000 HD 
BRANCH  23  26
HETATM   26  C   UNL     1      -9.799  13.013  65.586  1.00  0.00    -0.181 C  
BRANCH  26  27
HETATM   27  C   UNL     1     -10.492  14.352  65.307  1.00  0.00    -0.390 C  
HETATM   28  O   UNL     1      -9.683  15.179  64.457  1.00  0.00    -0.259 OA 
HETATM   29  H   UNL     1     -10.112  16.009  64.285  1.00  0.00     0.000 HD 
BRANCH  27  30
HETATM   30  C   UNL     1     -11.821  14.128  64.579  1.00  0.00    -0.451 C  
HETATM   31  C   UNL     1     -12.661  13.034  65.198  1.00  0.00    -0.469 C  
HETATM   32  O   UNL     1     -12.637  13.006  66.549  1.00  0.00    -0.303 OA 
HETATM   33  O   UNL     1     -13.368  12.285  64.541  1.00  0.00    -0.769 OA 
ENDBRANCH  27  30
ENDBRANCH  26  27
ENDBRANCH  23  26
ENDBRANCH  22  23
ENDBRANCH  21  22
ENDBRANCH   7  21
TORSDOF 8
ENDMDL
MODEL      108
REMARK 921   NORMALIZED FREE ENERGY PREDICTED BY IDOCK:   -5.48 KCAL/MOL
REMARK 922        TOTAL FREE ENERGY PREDICTED BY IDOCK:   -9.50 KCAL/MOL
REMARK 923 INTER-LIGAND FREE ENERGY PREDICTED BY IDOCK:   -7.40 KCAL/MOL
REMARK 924 INTRA-LIGAND FREE ENERGY PREDICTED BY IDOCK:   -2.10 KCAL/MOL
REMARK 927      BINDING AFFINITY PREDICTED BY RF-SCORE:    0.00 PKD
ROOT
HETATM    1  C   UNL     1      -9.940   5.577  68.776  1.00  0.00    -0.231 C  
HETATM    2  C   UNL     1      -9.791   6.622  67.604  1.00  0.00    -0.126 C  
HETATM    3  C   UNL     1      -9.543   4.167  68.319  1.00  0.00    -0.191 C  
HETATM    4  C   UNL     1      -9.370   6.080  66.220  1.00  0.00    -0.165 C  
HETATM    5  C   UNL     1      -9.931   4.705  65.914  1.00  0.00    -0.239 C  
HETATM    6  C   UNL     1     -10.644   4.614  71.980  1.00  0.00    -0.139 C  
HETATM    7  C   UNL     1      -9.342   5.992  70.171  1.00  0.00    -0.172 C  
HETATM    8  C   UNL     1      -9.626   3.771  67.033  1.00  0.00    -0.213 C  
HETATM    9  O   UNL     1     -11.328   4.776  65.687  1.00  0.00    -0.900 OA 
HETATM   10  C   UNL     1      -9.338   4.808  71.200  1.00  0.00    -0.206 C  
HETATM   11  C   UNL     1      -8.966   3.492  70.593  1.00  0.00    -0.163 C  
HETATM   12  H   UNL     1     -11.681   3.915  65.495  1.00  0.00     0.000 HD 
HETATM   13  C   UNL     1      -9.075   3.210  69.297  1.00  0.00    -0.201 C  
ENDROOT
BRANCH   2  14
HETATM   14  O   UNL     1      -9.037   7.822  67.907  1.00  0.00    -0.132 OA 
BRANCH  14  15
HETATM   15  C   UNL     1      -7.735   7.940  67.520  1.00  0.00    -0.117 C  
HETATM   16  C   UNL     1      -5.931   6.262  67.846  1.00  0.00    -0.020 C  
HETATM   17  C   UNL     1      -6.013   8.323  69.295  1.00  0.00    -0.038 C  
HETATM   18  O   UNL     1      -7.338   8.514  66.515  1.00  0.00    -0.082 OA 
HETATM   19  C   UNL     1      -6.839   7.272  68.545  1.00  0.00    -0.073 C  
HETATM   20  C   UNL     1      -6.869   9.235  70.163  1.00  0.00    -0.063 C  
ENDBRANCH  14  15
ENDBRANCH   2  14
BRANCH   7  21
HETATM   21  C   UNL     1      -9.971   7.281  70.807  1.00  0.00    -0.187 C  
BRANCH  21  22
HETATM   22  C   UNL     1     -11.496   7.305  70.562  1.00  0.00    -0.310 C  
BRANCH  22  23
HETATM   23  C   UNL     1     -12.328   8.397  71.248  1.00  0.00    -0.266 C  
HETATM   24  O   UNL     1     -12.572   8.071  72.617  1.00  0.00    -0.575 OA 
HETATM   25  H   UNL     1     -13.086   8.748  73.041  1.00  0.00     0.000 HD 
BRANCH  23  26
HETATM   26  C   UNL     1     -11.508   9.708  71.217  1.00  0.00    -0.463 C  
BRANCH  26  27
HETATM   27  C   UNL     1     -11.816  10.633  70.033  1.00  0.00    -0.322 C  
HETATM   28  O   UNL     1     -11.986  11.988  70.475  1.00  0.00    -0.446 OA 
HETATM   29  H   UNL     1     -12.178  12.561  69.741  1.00  0.00     0.000 HD 
BRANCH  27  30
HETATM   30  C   UNL     1     -10.657  10.629  69.032  1.00  0.00    -0.249 C  
HETATM   31  C   UNL     1     -11.091  10.942  67.619  1.00  0.00    -0.313 C  
HETATM   32  O   UNL     1     -12.040  11.900  67.523  1.00  0.00    -0.573 OA 
HETATM   33  O   UNL     1     -10.574  10.433  66.635  1.00  0.00    -0.231 OA 
ENDBRANCH  27  30
ENDBRANCH  26  27
ENDBRANCH  23  26
ENDBRANCH  22  23
ENDBRANCH  21  22
ENDBRANCH   7  21
TORSDOF 8
ENDMDL
MODEL      109
REMARK 921   NORMALIZED FREE ENERGY PREDICTED BY IDOCK:   -5.47 KCAL/MOL
REMARK 922        TOTAL FREE ENERGY PREDICTED BY IDOCK:   -9.48 KCAL/MOL
REMARK 923 INTER-LIGAND FREE ENERGY PREDICTED BY IDOCK:   -7.86 KCAL/MOL
REMARK 924 INTRA-LIGAND FREE ENERGY PREDICTED BY IDOCK:   -1.61 KCAL/MOL
REMARK 927      BINDING AFFINITY PREDICTED BY RF-SCORE:    0.00 PKD
ROOT
HETATM    1  C   UNL     1     -11.722  11.952  69.921  1.00  0.00    -0.383 C  
HETATM    2  C   UNL     1     -11.519  12.801  68.607  1.00  0.00    -0.303 C  
HETATM    3  C   UNL     1     -12.491  12.747  70.984  1.00  0.00    -0.369 C  
HETATM    4  C   UNL     1     -12.026  14.261  68.621  1.00  0.00    -0.348 C  
HETATM    5  C   UNL     1     -11.874  14.940  69.967  1.00  0.00    -0.307 C  
HETATM    6  C   UNL     1     -11.447   9.146  71.854  1.00  0.00    -0.423 C  
HETATM    7  C   UNL     1     -12.226  10.474  69.734  1.00  0.00    -0.252 C  
HETATM    8  C   UNL     1     -12.478  14.094  71.035  1.00  0.00    -0.438 C  
HETATM    9  O   UNL     1     -10.509  15.198  70.245  1.00  0.00    -0.462 OA 
HETATM   10  C   UNL     1     -12.611   9.794  71.094  1.00  0.00    -0.438 C  
HETATM   11  C   UNL     1     -13.324  10.709  72.039  1.00  0.00    -0.409 C  
HETATM   12  H   UNL     1     -10.413  15.624  71.089  1.00  0.00     0.000 HD 
HETATM   13  C   UNL     1     -13.252  12.037  71.988  1.00  0.00    -0.481 C  
ENDROOT
BRANCH   2  14
HETATM   14  O   UNL     1     -11.905  12.163  67.365  1.00  0.00    -0.515 OA 
BRANCH  14  15
HETATM   15  C   UNL     1     -11.211  12.401  66.216  1.00  0.00    -0.317 C  
HETATM   16  C   UNL     1     -10.188  10.701  64.721  1.00  0.00    -0.401 C  
HETATM   17  C   UNL     1      -8.730  12.071  66.254  1.00  0.00    -0.027 C  
HETATM   18  O   UNL     1     -11.434  13.305  65.421  1.00  0.00    -0.298 OA 
HETATM   19  C   UNL     1     -10.092  11.387  66.081  1.00  0.00    -0.271 C  
HETATM   20  C   UNL     1      -8.515  12.603  67.665  1.00  0.00    -0.173 C  
ENDBRANCH  14  15
ENDBRANCH   2  14
BRANCH   7  21
HETATM   21  C   UNL     1     -11.276   9.549  68.896  1.00  0.00     0.037 C  
BRANCH  21  22
HETATM   22  C   UNL     1      -9.802   9.833  69.258  1.00  0.00    -0.208 C  
BRANCH  22  23
HETATM   23  C   UNL     1      -8.769   8.720  69.035  1.00  0.00    -0.133 C  
HETATM   24  O   UNL     1      -8.205   8.289  70.274  1.00  0.00    -0.114 OA 
HETATM   25  H   UNL     1      -7.566   7.600  70.135  1.00  0.00     0.000 HD 
BRANCH  23  26
HETATM   26  C   UNL     1      -9.501   7.512  68.407  1.00  0.00    -0.148 C  
BRANCH  26  27
HETATM   27  C   UNL     1      -8.597   6.540  67.638  1.00  0.00    -0.116 C  
HETATM   28  O   UNL     1      -7.268   6.540  68.180  1.00  0.00    -0.083 OA 
HETATM   29  H   UNL     1      -6.708   5.938  67.704  1.00  0.00     0.000 HD 
BRANCH  27  30
HETATM   30  C   UNL     1      -9.128   5.108  67.752  1.00  0.00    -0.119 C  
HETATM   31  C   UNL     1      -8.741   4.235  66.581  1.00  0.00    -0.113 C  
HETATM   32  O   UNL     1      -7.486   4.436  66.122  1.00  0.00    -0.082 OA 
HETATM   33  O   UNL     1      -9.469   3.361  66.131  1.00  0.00    -0.170 OA 
ENDBRANCH  27  30
ENDBRANCH  26  27
ENDBRANCH  23  26
ENDBRANCH  22  23
ENDBRANCH  21  22
ENDBRANCH   7  21
TORSDOF 8
ENDMDL
MODEL      110
REMARK 921   NORMALIZED FREE ENERGY PREDICTED BY IDOCK:   -5.46 KCAL/MOL
REMARK 922        TOTAL FREE ENERGY PREDICTED BY IDOCK:   -9.47 KCAL/MOL
REMARK 923 INTER-LIGAND FREE ENERGY PREDICTED BY IDOCK:   -7.97 KCAL/MOL
REMARK 924 INTRA-LIGAND FREE ENERGY PREDICTED BY IDOCK:   -1.50 KCAL/MOL
REMARK 927      BINDING AFFINITY PREDICTED BY RF-SCORE:    0.00 PKD
ROOT
HETATM    1  C   UNL     1      -9.514   8.182  68.820  1.00  0.00    -0.148 C  
HETATM    2  C   UNL     1      -9.988   8.645  67.388  1.00  0.00    -0.210 C  
HETATM    3  C   UNL     1      -8.755   6.851  68.752  1.00  0.00    -0.129 C  
HETATM    4  C   UNL     1      -9.704   7.693  66.205  1.00  0.00    -0.126 C  
HETATM    5  C   UNL     1      -9.801   6.226  66.574  1.00  0.00    -0.126 C  
HETATM    6  C   UNL     1      -9.150   8.505  72.204  1.00  0.00    -0.319 C  
HETATM    7  C   UNL     1      -8.821   9.271  69.719  1.00  0.00    -0.174 C  
HETATM    8  C   UNL     1      -8.962   5.946  67.773  1.00  0.00    -0.111 C  
HETATM    9  O   UNL     1     -11.149   5.858  66.810  1.00  0.00    -0.547 OA 
HETATM   10  C   UNL     1      -8.189   8.663  71.020  1.00  0.00    -0.179 C  
HETATM   11  C   UNL     1      -7.516   7.345  70.796  1.00  0.00    -0.078 C  
HETATM   12  H   UNL     1     -11.211   4.939  67.041  1.00  0.00     0.000 HD 
HETATM   13  C   UNL     1      -7.789   6.531  69.778  1.00  0.00    -0.115 C  
ENDROOT
BRANCH   2  14
HETATM   14  O   UNL     1      -9.655  10.004  67.011  1.00  0.00    -0.162 OA 
BRANCH  14  15
HETATM   15  C   UNL     1     -10.627  10.872  66.610  1.00  0.00    -0.249 C  
HETATM   16  C   UNL     1     -11.008  11.712  64.303  1.00  0.00    -0.418 C  
HETATM   17  C   UNL     1      -9.949  13.210  66.032  1.00  0.00    -0.283 C  
HETATM   18  O   UNL     1     -11.760  10.937  67.070  1.00  0.00    -0.330 OA 
HETATM   19  C   UNL     1     -10.085  11.772  65.518  1.00  0.00    -0.285 C  
HETATM   20  C   UNL     1      -8.891  13.349  67.119  1.00  0.00    -0.225 C  
ENDBRANCH  14  15
ENDBRANCH   2  14
BRANCH   7  21
HETATM   21  C   UNL     1      -9.713  10.515  70.062  1.00  0.00     0.239 C  
BRANCH  21  22
HETATM   22  C   UNL     1     -11.183  10.080  70.251  1.00  0.00    -0.379 C  
BRANCH  22  23
HETATM   23  C   UNL     1     -12.037  10.827  71.285  1.00  0.00    -0.261 C  
HETATM   24  O   UNL     1     -12.311  12.161  70.854  1.00  0.00    -0.373 OA 
HETATM   25  H   UNL     1     -12.840  12.623  71.494  1.00  0.00     0.000 HD 
BRANCH  23  26
HETATM   26  C   UNL     1     -13.389  10.088  71.407  1.00  0.00    -0.432 C  
BRANCH  26  27
HETATM   27  C   UNL     1     -13.323   8.743  72.142  1.00  0.00    -0.423 C  
HETATM   28  O   UNL     1     -14.389   8.628  73.096  1.00  0.00    -1.076 OA 
HETATM   29  H   UNL     1     -14.348   7.796  73.551  1.00  0.00     0.000 HD 
BRANCH  27  30
HETATM   30  C   UNL     1     -13.479   7.583  71.154  1.00  0.00    -0.228 C  
HETATM   31  C   UNL     1     -12.259   6.695  71.083  1.00  0.00    -0.301 C  
HETATM   32  O   UNL     1     -11.659   6.469  72.272  1.00  0.00    -0.281 OA 
HETATM   33  O   UNL     1     -11.885   6.156  70.050  1.00  0.00    -0.243 OA 
ENDBRANCH  27  30
ENDBRANCH  26  27
ENDBRANCH  23  26
ENDBRANCH  22  23
ENDBRANCH  21  22
ENDBRANCH   7  21
TORSDOF 8
ENDMDL
MODEL      111
REMARK 921   NORMALIZED FREE ENERGY PREDICTED BY IDOCK:   -5.46 KCAL/MOL
REMARK 922        TOTAL FREE ENERGY PREDICTED BY IDOCK:   -9.47 KCAL/MOL
REMARK 923 INTER-LIGAND FREE ENERGY PREDICTED BY IDOCK:   -7.85 KCAL/MOL
REMARK 924 INTRA-LIGAND FREE ENERGY PREDICTED BY IDOCK:   -1.62 KCAL/MOL
REMARK 927      BINDING AFFINITY PREDICTED BY RF-SCORE:    0.00 PKD
ROOT
HETATM    1  C   UNL     1     -10.451   8.428  68.225  1.00  0.00    -0.214 C  
HETATM    2  C   UNL     1      -9.660   8.084  66.904  1.00  0.00    -0.204 C  
HETATM    3  C   UNL     1     -10.580   7.198  69.133  1.00  0.00    -0.227 C  
HETATM    4  C   UNL     1      -9.230   6.615  66.698  1.00  0.00    -0.179 C  
HETATM    5  C   UNL     1     -10.229   5.612  67.240  1.00  0.00    -0.206 C  
HETATM    6  C   UNL     1     -12.107  10.504  70.378  1.00  0.00    -0.418 C  
HETATM    7  C   UNL     1     -10.027   9.741  68.980  1.00  0.00    -0.189 C  
HETATM    8  C   UNL     1     -10.560   5.937  68.655  1.00  0.00    -0.323 C  
HETATM    9  O   UNL     1     -11.401   5.594  66.443  1.00  0.00    -0.689 OA 
HETATM   10  C   UNL     1     -10.709   9.874  70.386  1.00  0.00    -0.379 C  
HETATM   11  C   UNL     1     -10.792   8.581  71.133  1.00  0.00    -0.298 C  
HETATM   12  H   UNL     1     -12.028   4.965  66.782  1.00  0.00     0.000 HD 
HETATM   13  C   UNL     1     -10.746   7.382  70.558  1.00  0.00    -0.247 C  
ENDROOT
BRANCH   2  14
HETATM   14  O   UNL     1      -8.560   8.966  66.568  1.00  0.00    -0.119 OA 
BRANCH  14  15
HETATM   15  C   UNL     1      -8.464   9.513  65.323  1.00  0.00    -0.148 C  
HETATM   16  C   UNL     1      -7.599   8.401  63.276  1.00  0.00    -0.128 C  
HETATM   17  C   UNL     1      -6.186  10.109  64.475  1.00  0.00    -0.133 C  
HETATM   18  O   UNL     1      -9.244  10.320  64.836  1.00  0.00    -0.188 OA 
HETATM   19  C   UNL     1      -7.220   8.988  64.633  1.00  0.00    -0.097 C  
HETATM   20  C   UNL     1      -5.635  10.593  65.809  1.00  0.00    -0.134 C  
ENDBRANCH  14  15
ENDBRANCH   2  14
BRANCH   7  21
HETATM   21  C   UNL     1     -10.190  11.064  68.153  1.00  0.00    -0.201 C  
BRANCH  21  22
HETATM   22  C   UNL     1      -8.855  11.841  68.123  1.00  0.00    -0.169 C  
BRANCH  22  23
HETATM   23  C   UNL     1      -8.854  13.267  67.557  1.00  0.00    -0.206 C  
HETATM   24  O   UNL     1      -7.559  13.624  67.072  1.00  0.00    -0.364 OA 
HETATM   25  H   UNL     1      -7.558  14.507  66.721  1.00  0.00     0.000 HD 
BRANCH  23  26
HETATM   26  C   UNL     1      -9.830  13.304  66.358  1.00  0.00    -0.281 C  
BRANCH  26  27
HETATM   27  C   UNL     1     -10.656  14.591  66.239  1.00  0.00    -0.304 C  
HETATM   28  O   UNL     1     -11.400  14.609  65.012  1.00  0.00    -0.355 OA 
HETATM   29  H   UNL     1     -11.911  15.407  64.938  1.00  0.00     0.000 HD 
BRANCH  27  30
HETATM   30  C   UNL     1     -11.672  14.684  67.381  1.00  0.00    -0.413 C  
HETATM   31  C   UNL     1     -11.334  15.756  68.392  1.00  0.00    -0.372 C  
HETATM   32  O   UNL     1     -10.838  16.894  67.858  1.00  0.00    -0.354 OA 
HETATM   33  O   UNL     1     -11.562  15.640  69.588  1.00  0.00    -0.307 OA 
ENDBRANCH  27  30
ENDBRANCH  26  27
ENDBRANCH  23  26
ENDBRANCH  22  23
ENDBRANCH  21  22
ENDBRANCH   7  21
TORSDOF 8
ENDMDL
MODEL      112
REMARK 921   NORMALIZED FREE ENERGY PREDICTED BY IDOCK:   -5.45 KCAL/MOL
REMARK 922        TOTAL FREE ENERGY PREDICTED BY IDOCK:   -9.46 KCAL/MOL
REMARK 923 INTER-LIGAND FREE ENERGY PREDICTED BY IDOCK:   -8.48 KCAL/MOL
REMARK 924 INTRA-LIGAND FREE ENERGY PREDICTED BY IDOCK:   -0.98 KCAL/MOL
REMARK 927      BINDING AFFINITY PREDICTED BY RF-SCORE:    0.00 PKD
ROOT
HETATM    1  C   UNL     1      -8.460   9.095  70.981  1.00  0.00    -0.221 C  
HETATM    2  C   UNL     1      -9.783   8.685  71.736  1.00  0.00    -0.291 C  
HETATM    3  C   UNL     1      -7.266   8.257  71.455  1.00  0.00    -0.087 C  
HETATM    4  C   UNL     1      -9.665   7.614  72.844  1.00  0.00    -0.282 C  
HETATM    5  C   UNL     1      -8.366   7.692  73.622  1.00  0.00    -0.183 C  
HETATM    6  C   UNL     1      -6.632  10.872  68.704  1.00  0.00    -0.057 C  
HETATM    7  C   UNL     1      -8.559   9.246  69.419  1.00  0.00    -0.142 C  
HETATM    8  C   UNL     1      -7.210   7.702  72.683  1.00  0.00    -0.088 C  
HETATM    9  O   UNL     1      -8.348   8.842  74.450  1.00  0.00    -0.358 OA 
HETATM   10  C   UNL     1      -7.155   9.431  68.743  1.00  0.00    -0.069 C  
HETATM   11  C   UNL     1      -6.087   8.571  69.341  1.00  0.00    -0.037 C  
HETATM   12  H   UNL     1      -7.535   8.891  74.939  1.00  0.00     0.000 HD 
HETATM   13  C   UNL     1      -6.142   8.058  70.568  1.00  0.00    -0.033 C  
ENDROOT
BRANCH   2  14
HETATM   14  O   UNL     1     -10.935   8.400  70.904  1.00  0.00    -0.232 OA 
BRANCH  14  15
HETATM   15  C   UNL     1     -11.431   7.133  70.816  1.00  0.00    -0.305 C  
HETATM   16  C   UNL     1     -10.152   5.017  71.056  1.00  0.00    -0.297 C  
HETATM   17  C   UNL     1     -10.882   5.796  68.773  1.00  0.00    -0.285 C  
HETATM   18  O   UNL     1     -12.543   6.775  71.184  1.00  0.00    -0.353 OA 
HETATM   19  C   UNL     1     -10.404   6.230  70.164  1.00  0.00    -0.259 C  
HETATM   20  C   UNL     1     -10.962   6.956  67.790  1.00  0.00    -0.280 C  
ENDBRANCH  14  15
ENDBRANCH   2  14
BRANCH   7  21
HETATM   21  C   UNL     1      -9.566  10.339  68.919  1.00  0.00    -0.193 C  
BRANCH  21  22
HETATM   22  C   UNL     1     -10.332   9.831  67.678  1.00  0.00    -0.281 C  
BRANCH  22  23
HETATM   23  C   UNL     1     -11.017  10.861  66.771  1.00  0.00    -0.185 C  
HETATM   24  O   UNL     1     -11.984  11.621  67.498  1.00  0.00    -0.622 OA 
HETATM   25  H   UNL     1     -12.408  12.259  66.936  1.00  0.00     0.000 HD 
BRANCH  23  26
HETATM   26  C   UNL     1      -9.935  11.842  66.264  1.00  0.00    -0.245 C  
BRANCH  26  27
HETATM   27  C   UNL     1     -10.475  13.171  65.720  1.00  0.00    -0.283 C  
HETATM   28  O   UNL     1      -9.443  14.169  65.695  1.00  0.00    -0.518 OA 
HETATM   29  H   UNL     1      -9.778  14.992  65.358  1.00  0.00     0.000 HD 
BRANCH  27  30
HETATM   30  C   UNL     1     -10.970  13.001  64.281  1.00  0.00    -0.427 C  
HETATM   31  C   UNL     1     -12.461  12.769  64.189  1.00  0.00    -0.369 C  
HETATM   32  O   UNL     1     -13.197  13.498  65.056  1.00  0.00    -0.721 OA 
HETATM   33  O   UNL     1     -12.971  12.042  63.348  1.00  0.00    -0.772 OA 
ENDBRANCH  27  30
ENDBRANCH  26  27
ENDBRANCH  23  26
ENDBRANCH  22  23
ENDBRANCH  21  22
ENDBRANCH   7  21
TORSDOF 8
ENDMDL
MODEL      113
REMARK 921   NORMALIZED FREE ENERGY PREDICTED BY IDOCK:   -5.44 KCAL/MOL
REMARK 922        TOTAL FREE ENERGY PREDICTED BY IDOCK:   -9.43 KCAL/MOL
REMARK 923 INTER-LIGAND FREE ENERGY PREDICTED BY IDOCK:   -8.07 KCAL/MOL
REMARK 924 INTRA-LIGAND FREE ENERGY PREDICTED BY IDOCK:   -1.36 KCAL/MOL
REMARK 927      BINDING AFFINITY PREDICTED BY RF-SCORE:    0.00 PKD
ROOT
HETATM    1  C   UNL     1     -11.177  13.996  69.558  1.00  0.00    -0.249 C  
HETATM    2  C   UNL     1     -10.552  13.622  68.158  1.00  0.00    -0.247 C  
HETATM    3  C   UNL     1     -10.984  15.484  69.875  1.00  0.00    -0.315 C  
HETATM    4  C   UNL     1      -9.803  14.738  67.397  1.00  0.00    -0.222 C  
HETATM    5  C   UNL     1      -9.055  15.693  68.306  1.00  0.00    -0.187 C  
HETATM    6  C   UNL     1     -12.874  13.340  72.453  1.00  0.00    -0.210 C  
HETATM    7  C   UNL     1     -12.629  13.461  69.847  1.00  0.00    -0.034 C  
HETATM    8  C   UNL     1      -9.969  16.210  69.363  1.00  0.00    -0.243 C  
HETATM    9  O   UNL     1      -7.931  15.053  68.886  1.00  0.00    -0.147 OA 
HETATM   10  C   UNL     1     -13.244  14.069  71.155  1.00  0.00    -0.337 C  
HETATM   11  C   UNL     1     -12.936  15.521  71.340  1.00  0.00    -0.553 C  
HETATM   12  H   UNL     1      -7.461  15.652  69.455  1.00  0.00     0.000 HD 
HETATM   13  C   UNL     1     -11.908  16.145  70.769  1.00  0.00    -0.281 C  
ENDROOT
BRANCH   2  14
HETATM   14  O   UNL     1     -11.414  12.901  67.243  1.00  0.00    -0.298 OA 
BRANCH  14  15
HETATM   15  C   UNL     1     -11.029  11.699  66.728  1.00  0.00    -0.290 C  
HETATM   16  C   UNL     1      -8.854  11.175  65.648  1.00  0.00    -0.165 C  
HETATM   17  C   UNL     1     -10.923  11.467  64.239  1.00  0.00    -0.406 C  
HETATM   18  O   UNL     1     -11.337  10.601  67.172  1.00  0.00    -0.344 OA 
HETATM   19  C   UNL     1     -10.175  11.925  65.496  1.00  0.00    -0.290 C  
HETATM   20  C   UNL     1     -12.149  12.319  63.941  1.00  0.00    -0.598 C  
ENDBRANCH  14  15
ENDBRANCH   2  14
BRANCH   7  21
HETATM   21  C   UNL     1     -12.776  11.900  69.834  1.00  0.00     0.248 C  
BRANCH  21  22
HETATM   22  C   UNL     1     -11.461  11.237  70.300  1.00  0.00    -0.286 C  
BRANCH  22  23
HETATM   23  C   UNL     1     -11.540   9.879  71.009  1.00  0.00    -0.389 C  
HETATM   24  O   UNL     1     -12.857   9.333  70.924  1.00  0.00    -0.508 OA 
HETATM   25  H   UNL     1     -12.906   8.491  71.363  1.00  0.00     0.000 HD 
BRANCH  23  26
HETATM   26  C   UNL     1     -10.583   8.907  70.281  1.00  0.00    -0.246 C  
BRANCH  26  27
HETATM   27  C   UNL     1     -11.277   7.828  69.440  1.00  0.00     0.169 C  
HETATM   28  O   UNL     1     -10.950   7.976  68.050  1.00  0.00    -0.463 OA 
HETATM   29  H   UNL     1     -11.380   7.309  67.528  1.00  0.00     0.000 HD 
BRANCH  27  30
HETATM   30  C   UNL     1     -10.810   6.433  69.864  1.00  0.00    -0.370 C  
HETATM   31  C   UNL     1     -11.178   6.090  71.289  1.00  0.00    -0.258 C  
HETATM   32  O   UNL     1     -12.402   6.518  71.670  1.00  0.00    -0.343 OA 
HETATM   33  O   UNL     1     -10.467   5.412  72.017  1.00  0.00    -0.209 OA 
ENDBRANCH  27  30
ENDBRANCH  26  27
ENDBRANCH  23  26
ENDBRANCH  22  23
ENDBRANCH  21  22
ENDBRANCH   7  21
TORSDOF 8
ENDMDL
MODEL      114
REMARK 921   NORMALIZED FREE ENERGY PREDICTED BY IDOCK:   -5.43 KCAL/MOL
REMARK 922        TOTAL FREE ENERGY PREDICTED BY IDOCK:   -9.43 KCAL/MOL
REMARK 923 INTER-LIGAND FREE ENERGY PREDICTED BY IDOCK:   -8.00 KCAL/MOL
REMARK 924 INTRA-LIGAND FREE ENERGY PREDICTED BY IDOCK:   -1.43 KCAL/MOL
REMARK 927      BINDING AFFINITY PREDICTED BY RF-SCORE:    0.00 PKD
ROOT
HETATM    1  C   UNL     1      -9.622   9.364  66.087  1.00  0.00    -0.311 C  
HETATM    2  C   UNL     1      -9.442  10.785  65.426  1.00  0.00    -0.214 C  
HETATM    3  C   UNL     1      -8.633   8.348  65.502  1.00  0.00    -0.201 C  
HETATM    4  C   UNL     1      -8.406  10.910  64.287  1.00  0.00     0.166 C  
HETATM    5  C   UNL     1      -8.317   9.674  63.413  1.00  0.00    -0.170 C  
HETATM    6  C   UNL     1     -11.023   7.128  68.261  1.00  0.00    -0.092 C  
HETATM    7  C   UNL     1      -9.730   9.325  67.656  1.00  0.00    -0.195 C  
HETATM    8  C   UNL     1      -8.120   8.465  64.260  1.00  0.00    -0.151 C  
HETATM    9  O   UNL     1      -9.480   9.542  62.614  1.00  0.00    -0.561 OA 
HETATM   10  C   UNL     1      -9.679   7.865  68.226  1.00  0.00    -0.172 C  
HETATM   11  C   UNL     1      -8.691   6.986  67.527  1.00  0.00    -0.120 C  
HETATM   12  H   UNL     1      -9.425   8.768  62.066  1.00  0.00     0.000 HD 
HETATM   13  C   UNL     1      -8.236   7.206  66.295  1.00  0.00    -0.124 C  
ENDROOT
BRANCH   2  14
HETATM   14  O   UNL     1      -9.302  11.903  66.337  1.00  0.00    -0.217 OA 
BRANCH  14  15
HETATM   15  C   UNL     1     -10.040  13.036  66.163  1.00  0.00    -0.285 C  
HETATM   16  C   UNL     1     -12.150  13.627  67.334  1.00  0.00    -0.375 C  
HETATM   17  C   UNL     1     -12.213  12.846  64.938  1.00  0.00    -0.504 C  
HETATM   18  O   UNL     1      -9.593  14.149  65.917  1.00  0.00    -0.264 OA 
HETATM   19  C   UNL     1     -11.514  12.707  66.295  1.00  0.00    -0.415 C  
HETATM   20  C   UNL     1     -11.742  11.813  63.924  1.00  0.00    -0.461 C  
ENDBRANCH  14  15
ENDBRANCH   2  14
BRANCH   7  21
HETATM   21  C   UNL     1     -10.942  10.117  68.258  1.00  0.00    -0.299 C  
BRANCH  21  22
HETATM   22  C   UNL     1     -10.538  10.772  69.597  1.00  0.00    -0.222 C  
BRANCH  22  23
HETATM   23  C   UNL     1     -11.519  10.691  70.774  1.00  0.00    -0.214 C  
HETATM   24  O   UNL     1     -12.732  11.385  70.479  1.00  0.00    -0.229 OA 
HETATM   25  H   UNL     1     -13.339  11.334  71.208  1.00  0.00     0.000 HD 
BRANCH  23  26
HETATM   26  C   UNL     1     -11.873   9.202  70.996  1.00  0.00    -0.354 C  
BRANCH  26  27
HETATM   27  C   UNL     1     -11.718   8.711  72.441  1.00  0.00    -0.323 C  
HETATM   28  O   UNL     1     -12.991   8.351  72.998  1.00  0.00    -0.704 OA 
HETATM   29  H   UNL     1     -12.894   8.048  73.893  1.00  0.00     0.000 HD 
BRANCH  27  30
HETATM   30  C   UNL     1     -10.836   7.460  72.491  1.00  0.00    -0.327 C  
HETATM   31  C   UNL     1      -9.400   7.729  72.107  1.00  0.00    -0.153 C  
HETATM   32  O   UNL     1      -8.906   8.900  72.566  1.00  0.00    -0.381 OA 
HETATM   33  O   UNL     1      -8.710   6.923  71.499  1.00  0.00    -0.123 OA 
ENDBRANCH  27  30
ENDBRANCH  26  27
ENDBRANCH  23  26
ENDBRANCH  22  23
ENDBRANCH  21  22
ENDBRANCH   7  21
TORSDOF 8
ENDMDL
MODEL      115
REMARK 921   NORMALIZED FREE ENERGY PREDICTED BY IDOCK:   -5.40 KCAL/MOL
REMARK 922        TOTAL FREE ENERGY PREDICTED BY IDOCK:   -9.38 KCAL/MOL
REMARK 923 INTER-LIGAND FREE ENERGY PREDICTED BY IDOCK:   -7.46 KCAL/MOL
REMARK 924 INTRA-LIGAND FREE ENERGY PREDICTED BY IDOCK:   -1.93 KCAL/MOL
REMARK 927      BINDING AFFINITY PREDICTED BY RF-SCORE:    0.00 PKD
ROOT
HETATM    1  C   UNL     1      -9.116  10.346  67.080  1.00  0.00    -0.152 C  
HETATM    2  C   UNL     1     -10.407  10.499  66.186  1.00  0.00    -0.210 C  
HETATM    3  C   UNL     1      -7.842  10.612  66.270  1.00  0.00    -0.150 C  
HETATM    4  C   UNL     1     -10.197  10.795  64.684  1.00  0.00    -0.419 C  
HETATM    5  C   UNL     1      -8.972  10.119  64.101  1.00  0.00    -0.238 C  
HETATM    6  C   UNL     1      -7.440   9.769  70.003  1.00  0.00    -0.158 C  
HETATM    7  C   UNL     1      -9.145  11.055  68.485  1.00  0.00    -0.173 C  
HETATM    8  C   UNL     1      -7.777  10.422  64.936  1.00  0.00    -0.084 C  
HETATM    9  O   UNL     1      -9.173   8.719  64.004  1.00  0.00    -0.272 OA 
HETATM   10  C   UNL     1      -7.746  11.035  69.195  1.00  0.00    -0.102 C  
HETATM   11  C   UNL     1      -6.600  11.274  68.264  1.00  0.00    -0.058 C  
HETATM   12  H   UNL     1      -8.406   8.295  63.638  1.00  0.00     0.000 HD 
HETATM   13  C   UNL     1      -6.650  11.068  66.950  1.00  0.00    -0.112 C  
ENDROOT
BRANCH   2  14
HETATM   14  O   UNL     1     -11.453  11.355  66.710  1.00  0.00    -0.427 OA 
BRANCH  14  15
HETATM   15  C   UNL     1     -11.838  12.474  66.034  1.00  0.00    -0.418 C  
HETATM   16  C   UNL     1     -10.352  14.260  65.152  1.00  0.00    -0.440 C  
HETATM   17  C   UNL     1     -11.717  14.668  67.231  1.00  0.00    -0.406 C  
HETATM   18  O   UNL     1     -12.778  12.550  65.254  1.00  0.00    -0.654 OA 
HETATM   19  C   UNL     1     -10.936  13.632  66.415  1.00  0.00    -0.297 C  
HETATM   20  C   UNL     1     -12.154  14.139  68.590  1.00  0.00    -0.320 C  
ENDBRANCH  14  15
ENDBRANCH   2  14
BRANCH   7  21
HETATM   21  C   UNL     1     -10.271  10.560  69.457  1.00  0.00    -0.230 C  
BRANCH  21  22
HETATM   22  C   UNL     1     -10.536   9.053  69.242  1.00  0.00    -0.238 C  
BRANCH  22  23
HETATM   23  C   UNL     1     -10.993   8.214  70.443  1.00  0.00    -0.247 C  
HETATM   24  O   UNL     1     -12.418   8.194  70.540  1.00  0.00    -0.441 OA 
HETATM   25  H   UNL     1     -12.700   7.674  71.283  1.00  0.00     0.000 HD 
BRANCH  23  26
HETATM   26  C   UNL     1     -10.518   6.761  70.216  1.00  0.00    -0.238 C  
BRANCH  26  27
HETATM   27  C   UNL     1      -9.387   6.606  69.191  1.00  0.00    -0.134 C  
HETATM   28  O   UNL     1      -8.141   6.322  69.844  1.00  0.00    -0.115 OA 
HETATM   29  H   UNL     1      -7.441   6.226  69.209  1.00  0.00     0.000 HD 
BRANCH  27  30
HETATM   30  C   UNL     1      -9.676   5.435  68.246  1.00  0.00    -0.175 C  
HETATM   31  C   UNL     1      -9.915   5.868  66.819  1.00  0.00    -0.175 C  
HETATM   32  O   UNL     1      -9.117   6.873  66.395  1.00  0.00    -0.155 OA 
HETATM   33  O   UNL     1     -10.709   5.307  66.076  1.00  0.00    -0.221 OA 
ENDBRANCH  27  30
ENDBRANCH  26  27
ENDBRANCH  23  26
ENDBRANCH  22  23
ENDBRANCH  21  22
ENDBRANCH   7  21
TORSDOF 8
ENDMDL
MODEL      116
REMARK 921   NORMALIZED FREE ENERGY PREDICTED BY IDOCK:   -5.38 KCAL/MOL
REMARK 922        TOTAL FREE ENERGY PREDICTED BY IDOCK:   -9.35 KCAL/MOL
REMARK 923 INTER-LIGAND FREE ENERGY PREDICTED BY IDOCK:   -8.18 KCAL/MOL
REMARK 924 INTRA-LIGAND FREE ENERGY PREDICTED BY IDOCK:   -1.17 KCAL/MOL
REMARK 927      BINDING AFFINITY PREDICTED BY RF-SCORE:    0.00 PKD
ROOT
HETATM    1  C   UNL     1     -10.275   8.730  69.723  1.00  0.00    -0.205 C  
HETATM    2  C   UNL     1      -9.116   7.661  69.774  1.00  0.00    -0.147 C  
HETATM    3  C   UNL     1     -11.251   8.551  70.892  1.00  0.00    -0.304 C  
HETATM    4  C   UNL     1      -9.185   6.595  70.891  1.00  0.00    -0.157 C  
HETATM    5  C   UNL     1     -10.599   6.167  71.231  1.00  0.00    -0.243 C  
HETATM    6  C   UNL     1     -11.926  11.430  68.428  1.00  0.00    -0.270 C  
HETATM    7  C   UNL     1      -9.845  10.222  69.467  1.00  0.00    -0.244 C  
HETATM    8  C   UNL     1     -11.442   7.365  71.504  1.00  0.00    -0.292 C  
HETATM    9  O   UNL     1     -11.153   5.394  70.180  1.00  0.00    -0.170 OA 
HETATM   10  C   UNL     1     -11.031  11.230  69.658  1.00  0.00    -0.214 C  
HETATM   11  C   UNL     1     -11.915  10.899  70.819  1.00  0.00    -0.449 C  
HETATM   12  H   UNL     1     -12.039   5.125  70.392  1.00  0.00     0.000 HD 
HETATM   13  C   UNL     1     -12.016   9.687  71.359  1.00  0.00    -0.480 C  
ENDROOT
BRANCH   2  14
HETATM   14  O   UNL     1      -7.765   8.173  69.673  1.00  0.00    -0.096 OA 
BRANCH  14  15
HETATM   15  C   UNL     1      -6.954   7.795  68.644  1.00  0.00    -0.067 C  
HETATM   16  C   UNL     1      -7.511   6.194  66.827  1.00  0.00    -0.087 C  
HETATM   17  C   UNL     1      -5.981   5.490  68.702  1.00  0.00    -0.021 C  
HETATM   18  O   UNL     1      -6.136   8.509  68.080  1.00  0.00    -0.049 OA 
HETATM   19  C   UNL     1      -7.200   6.335  68.315  1.00  0.00    -0.085 C  
HETATM   20  C   UNL     1      -5.748   5.447  70.206  1.00  0.00    -0.016 C  
ENDBRANCH  14  15
ENDBRANCH   2  14
BRANCH   7  21
HETATM   21  C   UNL     1      -9.109  10.478  68.106  1.00  0.00    -0.141 C  
BRANCH  21  22
HETATM   22  C   UNL     1      -9.681   9.552  67.010  1.00  0.00    -0.229 C  
BRANCH  22  23
HETATM   23  C   UNL     1      -9.305   9.834  65.549  1.00  0.00    -0.240 C  
HETATM   24  O   UNL     1      -9.144   8.617  64.819  1.00  0.00    -0.420 OA 
HETATM   25  H   UNL     1      -8.911   8.791  63.914  1.00  0.00     0.000 HD 
BRANCH  23  26
HETATM   26  C   UNL     1     -10.470  10.618  64.901  1.00  0.00    -0.282 C  
BRANCH  26  27
HETATM   27  C   UNL     1     -10.045  11.848  64.089  1.00  0.00    -0.310 C  
HETATM   28  O   UNL     1     -10.324  11.660  62.694  1.00  0.00    -0.574 OA 
HETATM   29  H   UNL     1     -10.061  12.422  62.191  1.00  0.00     0.000 HD 
BRANCH  27  30
HETATM   30  C   UNL     1     -10.827  13.085  64.541  1.00  0.00    -0.390 C  
HETATM   31  C   UNL     1     -12.157  13.236  63.839  1.00  0.00    -0.468 C  
HETATM   32  O   UNL     1     -12.821  12.077  63.638  1.00  0.00    -0.713 OA 
HETATM   33  O   UNL     1     -12.637  14.323  63.547  1.00  0.00    -0.814 OA 
ENDBRANCH  27  30
ENDBRANCH  26  27
ENDBRANCH  23  26
ENDBRANCH  22  23
ENDBRANCH  21  22
ENDBRANCH   7  21
TORSDOF 8
ENDMDL
MODEL      117
REMARK 921   NORMALIZED FREE ENERGY PREDICTED BY IDOCK:   -5.36 KCAL/MOL
REMARK 922        TOTAL FREE ENERGY PREDICTED BY IDOCK:   -9.33 KCAL/MOL
REMARK 923 INTER-LIGAND FREE ENERGY PREDICTED BY IDOCK:   -7.66 KCAL/MOL
REMARK 924 INTRA-LIGAND FREE ENERGY PREDICTED BY IDOCK:   -1.67 KCAL/MOL
REMARK 927      BINDING AFFINITY PREDICTED BY RF-SCORE:    0.00 PKD
ROOT
HETATM    1  C   UNL     1      -9.335  16.291  67.064  1.00  0.00    -0.235 C  
HETATM    2  C   UNL     1      -9.750  16.395  65.545  1.00  0.00     0.010 C  
HETATM    3  C   UNL     1     -10.177  17.230  67.937  1.00  0.00    -0.332 C  
HETATM    4  C   UNL     1     -10.829  17.436  65.175  1.00  0.00     0.136 C  
HETATM    5  C   UNL     1     -10.758  18.702  66.007  1.00  0.00    -0.246 C  
HETATM    6  C   UNL     1      -7.542  15.044  69.694  1.00  0.00    -0.140 C  
HETATM    7  C   UNL     1      -9.172  14.841  67.652  1.00  0.00    -0.191 C  
HETATM    8  C   UNL     1     -10.741  18.357  67.457  1.00  0.00    -0.399 C  
HETATM    9  O   UNL     1      -9.615  19.463  65.661  1.00  0.00    -0.328 OA 
HETATM   10  C   UNL     1      -8.983  14.842  69.209  1.00  0.00    -0.099 C  
HETATM   11  C   UNL     1      -9.848  15.838  69.915  1.00  0.00    -0.151 C  
HETATM   12  H   UNL     1      -9.570  20.257  66.182  1.00  0.00     0.000 HD 
HETATM   13  C   UNL     1     -10.370  16.917  69.335  1.00  0.00    -0.250 C  
ENDROOT
BRANCH   2  14
HETATM   14  O   UNL     1     -10.029  15.143  64.870  1.00  0.00    -0.251 OA 
BRANCH  14  15
HETATM   15  C   UNL     1     -11.306  14.677  64.770  1.00  0.00    -0.396 C  
HETATM   16  C   UNL     1     -12.646  13.620  66.575  1.00  0.00    -0.225 C  
HETATM   17  C   UNL     1     -11.654  12.199  64.745  1.00  0.00    -0.380 C  
HETATM   18  O   UNL     1     -12.192  15.164  64.079  1.00  0.00    -0.621 OA 
HETATM   19  C   UNL     1     -11.463  13.438  65.628  1.00  0.00    -0.335 C  
HETATM   20  C   UNL     1     -10.417  11.867  63.922  1.00  0.00    -0.441 C  
ENDBRANCH  14  15
ENDBRANCH   2  14
BRANCH   7  21
HETATM   21  C   UNL     1      -8.075  13.962  66.958  1.00  0.00    -0.016 C  
BRANCH  21  22
HETATM   22  C   UNL     1      -8.007  12.571  67.625  1.00  0.00    -0.170 C  
BRANCH  22  23
HETATM   23  C   UNL     1      -9.156  11.585  67.375  1.00  0.00    -0.166 C  
HETATM   24  O   UNL     1      -8.655  10.289  67.044  1.00  0.00    -0.129 OA 
HETATM   25  H   UNL     1      -9.367   9.678  66.890  1.00  0.00     0.000 HD 
BRANCH  23  26
HETATM   26  C   UNL     1      -9.963  11.454  68.687  1.00  0.00    -0.209 C  
BRANCH  26  27
HETATM   27  C   UNL     1     -11.353  10.824  68.528  1.00  0.00    -0.295 C  
HETATM   28  O   UNL     1     -11.250   9.416  68.267  1.00  0.00    -0.496 OA 
HETATM   29  H   UNL     1     -12.111   9.027  68.168  1.00  0.00     0.000 HD 
BRANCH  27  30
HETATM   30  C   UNL     1     -12.165  10.983  69.817  1.00  0.00    -0.388 C  
HETATM   31  C   UNL     1     -11.921   9.874  70.814  1.00  0.00    -0.323 C  
HETATM   32  O   UNL     1     -10.636   9.463  70.893  1.00  0.00    -0.270 OA 
HETATM   33  O   UNL     1     -12.794   9.435  71.549  1.00  0.00    -0.324 OA 
ENDBRANCH  27  30
ENDBRANCH  26  27
ENDBRANCH  23  26
ENDBRANCH  22  23
ENDBRANCH  21  22
ENDBRANCH   7  21
TORSDOF 8
ENDMDL
MODEL      118
REMARK 921   NORMALIZED FREE ENERGY PREDICTED BY IDOCK:   -5.36 KCAL/MOL
REMARK 922        TOTAL FREE ENERGY PREDICTED BY IDOCK:   -9.32 KCAL/MOL
REMARK 923 INTER-LIGAND FREE ENERGY PREDICTED BY IDOCK:   -7.62 KCAL/MOL
REMARK 924 INTRA-LIGAND FREE ENERGY PREDICTED BY IDOCK:   -1.70 KCAL/MOL
REMARK 927      BINDING AFFINITY PREDICTED BY RF-SCORE:    0.00 PKD
ROOT
HETATM    1  C   UNL     1     -11.525  11.405  69.922  1.00  0.00    -0.353 C  
HETATM    2  C   UNL     1     -11.338  12.170  68.555  1.00  0.00    -0.275 C  
HETATM    3  C   UNL     1     -12.494  12.149  70.849  1.00  0.00    -0.374 C  
HETATM    4  C   UNL     1     -12.057  13.528  68.399  1.00  0.00    -0.293 C  
HETATM    5  C   UNL     1     -12.127  14.326  69.686  1.00  0.00    -0.346 C  
HETATM    6  C   UNL     1     -11.001   8.837  72.117  1.00  0.00    -0.404 C  
HETATM    7  C   UNL     1     -11.783   9.856  69.833  1.00  0.00    -0.131 C  
HETATM    8  C   UNL     1     -12.688  13.482  70.778  1.00  0.00    -0.316 C  
HETATM    9  O   UNL     1     -10.845  14.816  70.040  1.00  0.00    -0.390 OA 
HETATM   10  C   UNL     1     -12.178   9.232  71.217  1.00  0.00    -0.410 C  
HETATM   11  C   UNL     1     -13.100  10.095  72.019  1.00  0.00    -0.538 C  
HETATM   12  H   UNL     1     -10.889  15.317  70.846  1.00  0.00     0.000 HD 
HETATM   13  C   UNL     1     -13.225  11.410  71.854  1.00  0.00    -0.485 C  
ENDROOT
BRANCH   2  14
HETATM   14  O   UNL     1     -11.514  11.383  67.351  1.00  0.00    -0.427 OA 
BRANCH  14  15
HETATM   15  C   UNL     1     -10.713  11.585  66.266  1.00  0.00    -0.272 C  
HETATM   16  C   UNL     1      -9.383   9.865  65.063  1.00  0.00    -0.323 C  
HETATM   17  C   UNL     1      -8.235  11.496  66.604  1.00  0.00    -0.156 C  
HETATM   18  O   UNL     1     -10.918  12.390  65.367  1.00  0.00    -0.283 OA 
HETATM   19  C   UNL     1      -9.505  10.674  66.352  1.00  0.00    -0.204 C  
HETATM   20  C   UNL     1      -8.231  12.167  67.971  1.00  0.00    -0.158 C  
ENDBRANCH  14  15
ENDBRANCH   2  14
BRANCH   7  21
HETATM   21  C   UNL     1     -10.636   9.029  69.155  1.00  0.00    -0.219 C  
BRANCH  21  22
HETATM   22  C   UNL     1     -11.069   7.556  68.988  1.00  0.00     0.106 C  
BRANCH  22  23
HETATM   23  C   UNL     1     -10.078   6.571  68.353  1.00  0.00    -0.160 C  
HETATM   24  O   UNL     1      -9.328   7.200  67.313  1.00  0.00    -0.129 OA 
HETATM   25  H   UNL     1      -8.713   6.590  66.921  1.00  0.00     0.000 HD 
BRANCH  23  26
HETATM   26  C   UNL     1      -9.080   6.129  69.449  1.00  0.00    -0.135 C  
BRANCH  26  27
HETATM   27  C   UNL     1      -9.728   5.653  70.755  1.00  0.00    -0.177 C  
HETATM   28  O   UNL     1     -10.103   4.271  70.666  1.00  0.00    -0.190 OA 
HETATM   29  H   UNL     1     -10.505   3.976  71.475  1.00  0.00     0.000 HD 
BRANCH  27  30
HETATM   30  C   UNL     1      -8.741   5.776  71.920  1.00  0.00    -0.135 C  
HETATM   31  C   UNL     1      -9.407   5.705  73.274  1.00  0.00    -0.135 C  
HETATM   32  O   UNL     1     -10.414   4.809  73.358  1.00  0.00    -0.172 OA 
HETATM   33  O   UNL     1      -9.020   6.345  74.242  1.00  0.00    -0.141 OA 
ENDBRANCH  27  30
ENDBRANCH  26  27
ENDBRANCH  23  26
ENDBRANCH  22  23
ENDBRANCH  21  22
ENDBRANCH   7  21
TORSDOF 8
ENDMDL
MODEL      119
REMARK 921   NORMALIZED FREE ENERGY PREDICTED BY IDOCK:   -5.36 KCAL/MOL
REMARK 922        TOTAL FREE ENERGY PREDICTED BY IDOCK:   -9.32 KCAL/MOL
REMARK 923 INTER-LIGAND FREE ENERGY PREDICTED BY IDOCK:   -7.68 KCAL/MOL
REMARK 924 INTRA-LIGAND FREE ENERGY PREDICTED BY IDOCK:   -1.63 KCAL/MOL
REMARK 927      BINDING AFFINITY PREDICTED BY RF-SCORE:    0.00 PKD
ROOT
HETATM    1  C   UNL     1      -8.864   9.635  69.164  1.00  0.00    -0.157 C  
HETATM    2  C   UNL     1      -8.957   8.354  70.080  1.00  0.00    -0.138 C  
HETATM    3  C   UNL     1      -7.416   9.913  68.740  1.00  0.00    -0.079 C  
HETATM    4  C   UNL     1      -7.632   7.658  70.461  1.00  0.00    -0.081 C  
HETATM    5  C   UNL     1      -6.478   8.621  70.658  1.00  0.00    -0.040 C  
HETATM    6  C   UNL     1     -10.147  12.290  67.433  1.00  0.00    -0.207 C  
HETATM    7  C   UNL     1      -9.908   9.741  67.992  1.00  0.00    -0.173 C  
HETATM    8  C   UNL     1      -6.356   9.517  69.474  1.00  0.00    -0.040 C  
HETATM    9  O   UNL     1      -6.656   9.379  71.842  1.00  0.00    -0.297 OA 
HETATM   10  C   UNL     1      -9.593  10.923  67.011  1.00  0.00    -0.197 C  
HETATM   11  C   UNL     1      -8.134  11.088  66.724  1.00  0.00    -0.151 C  
HETATM   12  H   UNL     1      -5.933   9.983  71.966  1.00  0.00     0.000 HD 
HETATM   13  C   UNL     1      -7.162  10.640  67.517  1.00  0.00    -0.090 C  
ENDROOT
BRANCH   2  14
HETATM   14  O   UNL     1      -9.937   7.358  69.693  1.00  0.00    -0.177 OA 
BRANCH  14  15
HETATM   15  C   UNL     1     -10.940   7.004  70.545  1.00  0.00    -0.265 C  
HETATM   16  C   UNL     1     -11.212   7.735  72.904  1.00  0.00    -0.434 C  
HETATM   17  C   UNL     1     -10.401   5.404  72.392  1.00  0.00    -0.257 C  
HETATM   18  O   UNL     1     -12.105   6.799  70.230  1.00  0.00    -0.328 OA 
HETATM   19  C   UNL     1     -10.389   6.872  71.951  1.00  0.00    -0.210 C  
HETATM   20  C   UNL     1      -9.440   4.539  71.587  1.00  0.00    -0.210 C  
ENDBRANCH  14  15
ENDBRANCH   2  14
BRANCH   7  21
HETATM   21  C   UNL     1     -11.411   9.774  68.442  1.00  0.00     0.027 C  
BRANCH  21  22
HETATM   22  C   UNL     1     -11.557  10.581  69.751  1.00  0.00    -0.368 C  
BRANCH  22  23
HETATM   23  C   UNL     1     -12.946  10.679  70.395  1.00  0.00    -0.145 C  
HETATM   24  O   UNL     1     -13.411   9.394  70.808  1.00  0.00    -0.568 OA 
HETATM   25  H   UNL     1     -14.270   9.455  71.208  1.00  0.00     0.000 HD 
BRANCH  23  26
HETATM   26  C   UNL     1     -12.821  11.561  71.659  1.00  0.00    -0.475 C  
BRANCH  26  27
HETATM   27  C   UNL     1     -13.340  12.995  71.498  1.00  0.00    -0.199 C  
HETATM   28  O   UNL     1     -13.875  13.488  72.735  1.00  0.00    -0.730 OA 
HETATM   29  H   UNL     1     -14.196  14.376  72.634  1.00  0.00     0.000 HD 
BRANCH  27  30
HETATM   30  C   UNL     1     -12.200  13.936  71.096  1.00  0.00    -0.390 C  
HETATM   31  C   UNL     1     -12.685  15.244  70.514  1.00  0.00    -0.390 C  
HETATM   32  O   UNL     1     -13.778  15.757  71.121  1.00  0.00    -0.560 OA 
HETATM   33  O   UNL     1     -12.096  15.835  69.620  1.00  0.00    -0.355 OA 
ENDBRANCH  27  30
ENDBRANCH  26  27
ENDBRANCH  23  26
ENDBRANCH  22  23
ENDBRANCH  21  22
ENDBRANCH   7  21
TORSDOF 8
ENDMDL
MODEL      120
REMARK 921   NORMALIZED FREE ENERGY PREDICTED BY IDOCK:   -5.35 KCAL/MOL
REMARK 922        TOTAL FREE ENERGY PREDICTED BY IDOCK:   -9.31 KCAL/MOL
REMARK 923 INTER-LIGAND FREE ENERGY PREDICTED BY IDOCK:   -7.62 KCAL/MOL
REMARK 924 INTRA-LIGAND FREE ENERGY PREDICTED BY IDOCK:   -1.69 KCAL/MOL
REMARK 927      BINDING AFFINITY PREDICTED BY RF-SCORE:    0.00 PKD
ROOT
HETATM    1  C   UNL     1      -8.880   6.884  69.073  1.00  0.00    -0.130 C  
HETATM    2  C   UNL     1      -8.779   7.276  70.598  1.00  0.00    -0.147 C  
HETATM    3  C   UNL     1      -9.296   5.418  68.901  1.00  0.00    -0.161 C  
HETATM    4  C   UNL     1      -9.019   6.156  71.634  1.00  0.00    -0.142 C  
HETATM    5  C   UNL     1      -8.511   4.800  71.187  1.00  0.00    -0.106 C  
HETATM    6  C   UNL     1      -8.737   7.502  65.714  1.00  0.00    -0.142 C  
HETATM    7  C   UNL     1      -9.654   7.886  68.138  1.00  0.00    -0.163 C  
HETATM    8  C   UNL     1      -9.044   4.477  69.834  1.00  0.00    -0.165 C  
HETATM    9  O   UNL     1      -7.094   4.773  71.186  1.00  0.00    -0.048 OA 
HETATM   10  C   UNL     1      -9.893   7.304  66.702  1.00  0.00    -0.257 C  
HETATM   11  C   UNL     1     -10.256   5.852  66.699  1.00  0.00    -0.258 C  
HETATM   12  H   UNL     1      -6.775   3.923  70.906  1.00  0.00     0.000 HD 
HETATM   13  C   UNL     1      -9.970   5.010  67.689  1.00  0.00    -0.202 C  
ENDROOT
BRANCH   2  14
HETATM   14  O   UNL     1      -9.488   8.474  71.001  1.00  0.00    -0.161 OA 
BRANCH  14  15
HETATM   15  C   UNL     1     -10.611   8.390  71.771  1.00  0.00    -0.282 C  
HETATM   16  C   UNL     1     -12.716   7.199  71.201  1.00  0.00    -0.363 C  
HETATM   17  C   UNL     1     -12.616   9.714  71.070  1.00  0.00    -0.367 C  
HETATM   18  O   UNL     1     -10.636   8.332  72.993  1.00  0.00    -0.264 OA 
HETATM   19  C   UNL     1     -11.838   8.406  70.881  1.00  0.00    -0.237 C  
HETATM   20  C   UNL     1     -11.846  10.932  70.580  1.00  0.00    -0.453 C  
ENDBRANCH  14  15
ENDBRANCH   2  14
BRANCH   7  21
HETATM   21  C   UNL     1      -9.044   9.329  68.061  1.00  0.00    -0.132 C  
BRANCH  21  22
HETATM   22  C   UNL     1     -10.052  10.298  67.405  1.00  0.00    -0.246 C  
BRANCH  22  23
HETATM   23  C   UNL     1      -9.548  11.672  66.943  1.00  0.00    -0.186 C  
HETATM   24  O   UNL     1      -8.418  11.538  66.079  1.00  0.00    -0.333 OA 
HETATM   25  H   UNL     1      -8.106  12.388  65.792  1.00  0.00     0.000 HD 
BRANCH  23  26
HETATM   26  C   UNL     1     -10.679  12.345  66.133  1.00  0.00    -0.292 C  
BRANCH  26  27
HETATM   27  C   UNL     1     -10.384  13.783  65.686  1.00  0.00    -0.311 C  
HETATM   28  O   UNL     1     -10.727  13.969  64.305  1.00  0.00    -0.594 OA 
HETATM   29  H   UNL     1     -10.544  14.860  64.029  1.00  0.00     0.000 HD 
BRANCH  27  30
HETATM   30  C   UNL     1     -11.221  14.779  66.495  1.00  0.00    -0.342 C  
HETATM   31  C   UNL     1     -10.531  16.107  66.698  1.00  0.00    -0.300 C  
HETATM   32  O   UNL     1      -9.837  16.549  65.626  1.00  0.00    -0.511 OA 
HETATM   33  O   UNL     1     -10.652  16.772  67.718  1.00  0.00    -0.327 OA 
ENDBRANCH  27  30
ENDBRANCH  26  27
ENDBRANCH  23  26
ENDBRANCH  22  23
ENDBRANCH  21  22
ENDBRANCH   7  21
TORSDOF 8
ENDMDL
MODEL      121
REMARK 921   NORMALIZED FREE ENERGY PREDICTED BY IDOCK:   -5.34 KCAL/MOL
REMARK 922        TOTAL FREE ENERGY PREDICTED BY IDOCK:   -9.30 KCAL/MOL
REMARK 923 INTER-LIGAND FREE ENERGY PREDICTED BY IDOCK:   -7.38 KCAL/MOL
REMARK 924 INTRA-LIGAND FREE ENERGY PREDICTED BY IDOCK:   -1.92 KCAL/MOL
REMARK 927      BINDING AFFINITY PREDICTED BY RF-SCORE:    0.00 PKD
ROOT
HETATM    1  C   UNL     1      -9.054   7.696  69.202  1.00  0.00    -0.141 C  
HETATM    2  C   UNL     1     -10.216   7.154  68.283  1.00  0.00    -0.184 C  
HETATM    3  C   UNL     1      -9.130   7.093  70.610  1.00  0.00    -0.158 C  
HETATM    4  C   UNL     1     -11.252   6.211  68.932  1.00  0.00    -0.338 C  
HETATM    5  C   UNL     1     -11.555   6.551  70.379  1.00  0.00    -0.407 C  
HETATM    6  C   UNL     1      -6.248   9.533  69.868  1.00  0.00    -0.045 C  
HETATM    7  C   UNL     1      -7.608   7.698  68.582  1.00  0.00    -0.109 C  
HETATM    8  C   UNL     1     -10.286   6.658  71.152  1.00  0.00    -0.232 C  
HETATM    9  O   UNL     1     -12.297   7.756  70.464  1.00  0.00    -0.502 OA 
HETATM   10  C   UNL     1      -6.501   8.037  69.640  1.00  0.00    -0.037 C  
HETATM   11  C   UNL     1      -6.737   7.403  70.975  1.00  0.00    -0.043 C  
HETATM   12  H   UNL     1     -12.487   7.969  71.370  1.00  0.00     0.000 HD 
HETATM   13  C   UNL     1      -7.928   6.993  71.406  1.00  0.00    -0.103 C  
ENDROOT
BRANCH   2  14
HETATM   14  O   UNL     1      -9.820   6.628  66.992  1.00  0.00    -0.143 OA 
BRANCH  14  15
HETATM   15  C   UNL     1      -9.837   5.285  66.754  1.00  0.00    -0.176 C  
HETATM   16  C   UNL     1      -8.802   3.517  68.159  1.00  0.00    -0.153 C  
HETATM   17  C   UNL     1      -7.715   4.201  65.991  1.00  0.00    -0.090 C  
HETATM   18  O   UNL     1     -10.756   4.663  66.239  1.00  0.00    -0.236 OA 
HETATM   19  C   UNL     1      -8.524   4.674  67.204  1.00  0.00    -0.105 C  
HETATM   20  C   UNL     1      -7.249   5.352  65.109  1.00  0.00    -0.067 C  
ENDBRANCH  14  15
ENDBRANCH   2  14
BRANCH   7  21
HETATM   21  C   UNL     1      -7.438   8.579  67.296  1.00  0.00    -0.093 C  
BRANCH  21  22
HETATM   22  C   UNL     1      -8.372   9.807  67.364  1.00  0.00    -0.114 C  
BRANCH  22  23
HETATM   23  C   UNL     1      -9.063  10.271  66.075  1.00  0.00    -0.161 C  
HETATM   24  O   UNL     1     -10.081   9.350  65.680  1.00  0.00    -0.377 OA 
HETATM   25  H   UNL     1     -10.509   9.637  64.882  1.00  0.00     0.000 HD 
BRANCH  23  26
HETATM   26  C   UNL     1      -9.746  11.628  66.364  1.00  0.00    -0.236 C  
BRANCH  26  27
HETATM   27  C   UNL     1     -11.279  11.603  66.303  1.00  0.00    -0.271 C  
HETATM   28  O   UNL     1     -11.826  10.968  67.469  1.00  0.00    -0.571 OA 
HETATM   29  H   UNL     1     -12.775  10.953  67.431  1.00  0.00     0.000 HD 
BRANCH  27  30
HETATM   30  C   UNL     1     -11.838  13.029  66.265  1.00  0.00    -0.466 C  
HETATM   31  C   UNL     1     -12.562  13.349  64.978  1.00  0.00    -0.403 C  
HETATM   32  O   UNL     1     -13.311  12.336  64.489  1.00  0.00    -0.769 OA 
HETATM   33  O   UNL     1     -12.542  14.456  64.459  1.00  0.00    -0.651 OA 
ENDBRANCH  27  30
ENDBRANCH  26  27
ENDBRANCH  23  26
ENDBRANCH  22  23
ENDBRANCH  21  22
ENDBRANCH   7  21
TORSDOF 8
ENDMDL
MODEL      122
REMARK 921   NORMALIZED FREE ENERGY PREDICTED BY IDOCK:   -5.33 KCAL/MOL
REMARK 922        TOTAL FREE ENERGY PREDICTED BY IDOCK:   -9.28 KCAL/MOL
REMARK 923 INTER-LIGAND FREE ENERGY PREDICTED BY IDOCK:   -7.37 KCAL/MOL
REMARK 924 INTRA-LIGAND FREE ENERGY PREDICTED BY IDOCK:   -1.91 KCAL/MOL
REMARK 927      BINDING AFFINITY PREDICTED BY RF-SCORE:    0.00 PKD
ROOT
HETATM    1  C   UNL     1      -8.426  10.999  67.816  1.00  0.00    -0.122 C  
HETATM    2  C   UNL     1      -9.709  11.266  66.937  1.00  0.00    -0.192 C  
HETATM    3  C   UNL     1      -7.877   9.586  67.586  1.00  0.00    -0.102 C  
HETATM    4  C   UNL     1     -10.240  10.092  66.084  1.00  0.00    -0.285 C  
HETATM    5  C   UNL     1     -10.068   8.739  66.746  1.00  0.00    -0.288 C  
HETATM    6  C   UNL     1      -5.986  11.856  70.052  1.00  0.00    -0.159 C  
HETATM    7  C   UNL     1      -7.326  12.124  67.816  1.00  0.00    -0.114 C  
HETATM    8  C   UNL     1      -8.655   8.561  67.182  1.00  0.00    -0.123 C  
HETATM    9  O   UNL     1     -10.952   8.605  67.846  1.00  0.00    -0.488 OA 
HETATM   10  C   UNL     1      -6.005  11.672  68.530  1.00  0.00    -0.049 C  
HETATM   11  C   UNL     1      -5.621  10.257  68.234  1.00  0.00    -0.040 C  
HETATM   12  H   UNL     1     -10.845   7.757  68.260  1.00  0.00     0.000 HD 
HETATM   13  C   UNL     1      -6.475   9.322  67.822  1.00  0.00    -0.059 C  
ENDROOT
BRANCH   2  14
HETATM   14  O   UNL     1      -9.704  12.480  66.146  1.00  0.00    -0.254 OA 
BRANCH  14  15
HETATM   15  C   UNL     1     -10.862  13.156  65.904  1.00  0.00    -0.273 C  
HETATM   16  C   UNL     1     -11.074  15.461  65.001  1.00  0.00    -0.428 C  
HETATM   17  C   UNL     1     -11.474  15.026  67.451  1.00  0.00    -0.326 C  
HETATM   18  O   UNL     1     -11.913  12.659  65.519  1.00  0.00    -0.413 OA 
HETATM   19  C   UNL     1     -10.664  14.628  66.212  1.00  0.00    -0.316 C  
HETATM   20  C   UNL     1     -10.970  14.360  68.723  1.00  0.00    -0.264 C  
ENDBRANCH  14  15
ENDBRANCH   2  14
BRANCH   7  21
HETATM   21  C   UNL     1      -7.802  13.519  68.354  1.00  0.00    -0.143 C  
BRANCH  21  22
HETATM   22  C   UNL     1      -7.216  14.652  67.485  1.00  0.00    -0.216 C  
BRANCH  22  23
HETATM   23  C   UNL     1      -7.184  16.073  68.064  1.00  0.00    -0.130 C  
HETATM   24  O   UNL     1      -5.850  16.460  68.396  1.00  0.00    -0.105 OA 
HETATM   25  H   UNL     1      -5.830  17.340  68.754  1.00  0.00     0.000 HD 
BRANCH  23  26
HETATM   26  C   UNL     1      -7.695  17.043  66.973  1.00  0.00    -0.219 C  
BRANCH  26  27
HETATM   27  C   UNL     1      -8.042  18.450  67.474  1.00  0.00    -0.247 C  
HETATM   28  O   UNL     1      -6.856  19.166  67.850  1.00  0.00    -0.219 OA 
HETATM   29  H   UNL     1      -7.071  20.038  68.160  1.00  0.00     0.000 HD 
BRANCH  27  30
HETATM   30  C   UNL     1      -8.724  19.261  66.368  1.00  0.00    -0.362 C  
HETATM   31  C   UNL     1     -10.209  19.000  66.270  1.00  0.00    -0.446 C  
HETATM   32  O   UNL     1     -10.834  18.856  67.459  1.00  0.00    -0.450 OA 
HETATM   33  O   UNL     1     -10.817  18.999  65.209  1.00  0.00    -0.540 OA 
ENDBRANCH  27  30
ENDBRANCH  26  27
ENDBRANCH  23  26
ENDBRANCH  22  23
ENDBRANCH  21  22
ENDBRANCH   7  21
TORSDOF 8
ENDMDL
MODEL      123
REMARK 921   NORMALIZED FREE ENERGY PREDICTED BY IDOCK:   -5.33 KCAL/MOL
REMARK 922        TOTAL FREE ENERGY PREDICTED BY IDOCK:   -9.28 KCAL/MOL
REMARK 923 INTER-LIGAND FREE ENERGY PREDICTED BY IDOCK:   -7.43 KCAL/MOL
REMARK 924 INTRA-LIGAND FREE ENERGY PREDICTED BY IDOCK:   -1.85 KCAL/MOL
REMARK 927      BINDING AFFINITY PREDICTED BY RF-SCORE:    0.00 PKD
ROOT
HETATM    1  C   UNL     1      -8.124  15.419  69.209  1.00  0.00    -0.246 C  
HETATM    2  C   UNL     1      -7.940  13.852  69.196  1.00  0.00     0.196 C  
HETATM    3  C   UNL     1      -6.774  16.138  69.320  1.00  0.00    -0.198 C  
HETATM    4  C   UNL     1      -6.505  13.306  69.374  1.00  0.00    -0.097 C  
HETATM    5  C   UNL     1      -5.654  14.140  70.311  1.00  0.00    -0.124 C  
HETATM    6  C   UNL     1      -9.940  18.312  69.069  1.00  0.00    -0.293 C  
HETATM    7  C   UNL     1      -9.086  16.023  68.121  1.00  0.00    -0.187 C  
HETATM    8  C   UNL     1      -5.695  15.571  69.897  1.00  0.00    -0.135 C  
HETATM    9  O   UNL     1      -6.094  13.994  71.650  1.00  0.00    -0.461 OA 
HETATM   10  C   UNL     1      -9.027  17.590  68.071  1.00  0.00    -0.258 C  
HETATM   11  C   UNL     1      -7.646  18.141  68.230  1.00  0.00    -0.280 C  
HETATM   12  H   UNL     1      -5.560  14.517  72.237  1.00  0.00     0.000 HD 
HETATM   13  C   UNL     1      -6.642  17.483  68.806  1.00  0.00    -0.216 C  
ENDROOT
BRANCH   2  14
HETATM   14  O   UNL     1      -8.603  13.136  68.124  1.00  0.00    -0.169 OA 
BRANCH  14  15
HETATM   15  C   UNL     1      -9.032  11.855  68.306  1.00  0.00    -0.178 C  
HETATM   16  C   UNL     1     -10.417  10.516  66.737  1.00  0.00    -0.302 C  
HETATM   17  C   UNL     1     -11.454  11.489  68.817  1.00  0.00    -0.349 C  
HETATM   18  O   UNL     1      -8.413  10.970  68.882  1.00  0.00    -0.157 OA 
HETATM   19  C   UNL     1     -10.416  11.694  67.708  1.00  0.00    -0.213 C  
HETATM   20  C   UNL     1     -11.626  12.720  69.697  1.00  0.00    -0.322 C  
ENDBRANCH  14  15
ENDBRANCH   2  14
BRANCH   7  21
HETATM   21  C   UNL     1     -10.571  15.523  68.194  1.00  0.00    -0.266 C  
BRANCH  21  22
HETATM   22  C   UNL     1     -10.999  14.924  66.837  1.00  0.00    -0.327 C  
BRANCH  22  23
HETATM   23  C   UNL     1     -10.017  15.009  65.660  1.00  0.00    -0.355 C  
HETATM   24  O   UNL     1      -9.431  13.735  65.389  1.00  0.00    -0.514 OA 
HETATM   25  H   UNL     1      -8.824  13.788  64.661  1.00  0.00     0.000 HD 
BRANCH  23  26
HETATM   26  C   UNL     1     -10.815  15.434  64.406  1.00  0.00     0.066 C  
BRANCH  26  27
HETATM   27  C   UNL     1     -12.164  14.726  64.230  1.00  0.00    -0.379 C  
HETATM   28  O   UNL     1     -13.159  15.637  63.739  1.00  0.00    -0.239 OA 
HETATM   29  H   UNL     1     -13.995  15.198  63.631  1.00  0.00     0.000 HD 
BRANCH  27  30
HETATM   30  C   UNL     1     -12.047  13.594  63.205  1.00  0.00    -0.096 C  
HETATM   31  C   UNL     1     -12.169  12.220  63.821  1.00  0.00    -0.546 C  
HETATM   32  O   UNL     1     -13.092  12.124  64.803  1.00  0.00    -0.602 OA 
HETATM   33  O   UNL     1     -11.544  11.250  63.415  1.00  0.00    -0.184 OA 
ENDBRANCH  27  30
ENDBRANCH  26  27
ENDBRANCH  23  26
ENDBRANCH  22  23
ENDBRANCH  21  22
ENDBRANCH   7  21
TORSDOF 8
ENDMDL
MODEL      124
REMARK 921   NORMALIZED FREE ENERGY PREDICTED BY IDOCK:   -5.31 KCAL/MOL
REMARK 922        TOTAL FREE ENERGY PREDICTED BY IDOCK:   -9.25 KCAL/MOL
REMARK 923 INTER-LIGAND FREE ENERGY PREDICTED BY IDOCK:   -7.64 KCAL/MOL
REMARK 924 INTRA-LIGAND FREE ENERGY PREDICTED BY IDOCK:   -1.61 KCAL/MOL
REMARK 927      BINDING AFFINITY PREDICTED BY RF-SCORE:    0.00 PKD
ROOT
HETATM    1  C   UNL     1      -9.389   7.338  68.317  1.00  0.00    -0.135 C  
HETATM    2  C   UNL     1     -10.082   6.444  69.418  1.00  0.00    -0.173 C  
HETATM    3  C   UNL     1      -8.815   6.479  67.184  1.00  0.00    -0.110 C  
HETATM    4  C   UNL     1     -10.006   4.912  69.238  1.00  0.00    -0.270 C  
HETATM    5  C   UNL     1      -8.705   4.440  68.618  1.00  0.00    -0.095 C  
HETATM    6  C   UNL     1      -8.421  10.297  66.906  1.00  0.00    -0.126 C  
HETATM    7  C   UNL     1     -10.192   8.598  67.826  1.00  0.00    -0.282 C  
HETATM    8  C   UNL     1      -8.435   5.197  67.364  1.00  0.00    -0.105 C  
HETATM    9  O   UNL     1      -7.633   4.590  69.533  1.00  0.00    -0.054 OA 
HETATM   10  C   UNL     1      -9.527   9.286  66.582  1.00  0.00    -0.246 C  
HETATM   11  C   UNL     1      -8.982   8.315  65.583  1.00  0.00    -0.157 C  
HETATM   12  H   UNL     1      -6.817   4.294  69.145  1.00  0.00     0.000 HD 
HETATM   13  C   UNL     1      -8.653   7.057  65.868  1.00  0.00    -0.152 C  
ENDROOT
BRANCH   2  14
HETATM   14  O   UNL     1     -11.428   6.824  69.799  1.00  0.00    -0.304 OA 
BRANCH  14  15
HETATM   15  C   UNL     1     -11.657   7.493  70.964  1.00  0.00    -0.283 C  
HETATM   16  C   UNL     1      -9.982   8.728  72.321  1.00  0.00    -0.302 C  
HETATM   17  C   UNL     1     -10.811   6.474  73.088  1.00  0.00    -0.286 C  
HETATM   18  O   UNL     1     -12.680   8.102  71.249  1.00  0.00    -0.291 OA 
HETATM   19  C   UNL     1     -10.456   7.346  71.878  1.00  0.00    -0.229 C  
HETATM   20  C   UNL     1     -11.103   5.030  72.707  1.00  0.00    -0.310 C  
ENDBRANCH  14  15
ENDBRANCH   2  14
BRANCH   7  21
HETATM   21  C   UNL     1     -10.518   9.654  68.938  1.00  0.00    -0.234 C  
BRANCH  21  22
HETATM   22  C   UNL     1     -11.602  10.635  68.440  1.00  0.00    -0.269 C  
BRANCH  22  23
HETATM   23  C   UNL     1     -11.409  12.133  68.710  1.00  0.00    -0.288 C  
HETATM   24  O   UNL     1     -10.065  12.414  69.101  1.00  0.00    -0.414 OA 
HETATM   25  H   UNL     1      -9.946  13.342  69.268  1.00  0.00     0.000 HD 
BRANCH  23  26
HETATM   26  C   UNL     1     -11.682  12.893  67.391  1.00  0.00    -0.428 C  
BRANCH  26  27
HETATM   27  C   UNL     1     -11.656  14.422  67.511  1.00  0.00    -0.373 C  
HETATM   28  O   UNL     1     -11.376  14.824  68.861  1.00  0.00    -0.254 OA 
HETATM   29  H   UNL     1     -11.361  15.770  68.935  1.00  0.00     0.000 HD 
BRANCH  27  30
HETATM   30  C   UNL     1     -10.551  15.011  66.630  1.00  0.00    -0.301 C  
HETATM   31  C   UNL     1     -10.591  16.520  66.555  1.00  0.00    -0.217 C  
HETATM   32  O   UNL     1     -10.899  17.131  67.720  1.00  0.00    -0.348 OA 
HETATM   33  O   UNL     1     -10.293  17.146  65.548  1.00  0.00    -0.599 OA 
ENDBRANCH  27  30
ENDBRANCH  26  27
ENDBRANCH  23  26
ENDBRANCH  22  23
ENDBRANCH  21  22
ENDBRANCH   7  21
TORSDOF 8
ENDMDL
MODEL      125
REMARK 921   NORMALIZED FREE ENERGY PREDICTED BY IDOCK:   -5.31 KCAL/MOL
REMARK 922        TOTAL FREE ENERGY PREDICTED BY IDOCK:   -9.25 KCAL/MOL
REMARK 923 INTER-LIGAND FREE ENERGY PREDICTED BY IDOCK:   -8.07 KCAL/MOL
REMARK 924 INTRA-LIGAND FREE ENERGY PREDICTED BY IDOCK:   -1.17 KCAL/MOL
REMARK 927      BINDING AFFINITY PREDICTED BY RF-SCORE:    0.00 PKD
ROOT
HETATM    1  C   UNL     1     -11.365  11.526  69.862  1.00  0.00    -0.267 C  
HETATM    2  C   UNL     1     -11.251  12.533  68.652  1.00  0.00    -0.278 C  
HETATM    3  C   UNL     1     -12.399  12.004  70.889  1.00  0.00    -0.384 C  
HETATM    4  C   UNL     1     -12.094  13.825  68.725  1.00  0.00    -0.344 C  
HETATM    5  C   UNL     1     -12.237  14.375  70.130  1.00  0.00    -0.341 C  
HETATM    6  C   UNL     1     -10.602   8.671  71.582  1.00  0.00    -0.374 C  
HETATM    7  C   UNL     1     -11.478   9.999  69.499  1.00  0.00    -0.176 C  
HETATM    8  C   UNL     1     -12.715  13.305  71.049  1.00  0.00    -0.374 C  
HETATM    9  O   UNL     1     -11.006  14.911  70.584  1.00  0.00    -0.472 OA 
HETATM   10  C   UNL     1     -11.812   9.109  70.747  1.00  0.00    -0.280 C  
HETATM   11  C   UNL     1     -12.809   9.729  71.673  1.00  0.00    -0.519 C  
HETATM   12  H   UNL     1     -11.095  15.257  71.465  1.00  0.00     0.000 HD 
HETATM   13  C   UNL     1     -13.056  11.035  71.738  1.00  0.00    -0.554 C  
ENDROOT
BRANCH   2  14
HETATM   14  O   UNL     1     -11.355  11.957  67.326  1.00  0.00    -0.294 OA 
BRANCH  14  15
HETATM   15  C   UNL     1     -10.463  12.293  66.352  1.00  0.00    -0.236 C  
HETATM   16  C   UNL     1      -9.995  14.578  65.493  1.00  0.00    -0.373 C  
HETATM   17  C   UNL     1     -11.366  12.971  64.118  1.00  0.00    -0.442 C  
HETATM   18  O   UNL     1      -9.389  11.744  66.146  1.00  0.00    -0.221 OA 
HETATM   19  C   UNL     1     -11.017  13.444  65.534  1.00  0.00    -0.294 C  
HETATM   20  C   UNL     1     -12.520  11.977  64.098  1.00  0.00    -0.437 C  
ENDBRANCH  14  15
ENDBRANCH   2  14
BRANCH   7  21
HETATM   21  C   UNL     1     -10.260   9.413  68.705  1.00  0.00    -0.221 C  
BRANCH  21  22
HETATM   22  C   UNL     1     -10.605   8.009  68.160  1.00  0.00    -0.174 C  
BRANCH  22  23
HETATM   23  C   UNL     1      -9.575   7.298  67.272  1.00  0.00    -0.152 C  
HETATM   24  O   UNL     1     -10.185   6.796  66.083  1.00  0.00    -0.423 OA 
HETATM   25  H   UNL     1      -9.547   6.355  65.533  1.00  0.00     0.000 HD 
BRANCH  23  26
HETATM   26  C   UNL     1      -8.512   8.338  66.851  1.00  0.00    -0.118 C  
BRANCH  26  27
HETATM   27  C   UNL     1      -7.435   8.621  67.905  1.00  0.00    -0.097 C  
HETATM   28  O   UNL     1      -6.772   7.410  68.297  1.00  0.00    -0.051 OA 
HETATM   29  H   UNL     1      -6.105   7.586  68.951  1.00  0.00     0.000 HD 
BRANCH  27  30
HETATM   30  C   UNL     1      -6.362   9.557  67.339  1.00  0.00    -0.065 C  
HETATM   31  C   UNL     1      -5.613  10.318  68.408  1.00  0.00    -0.037 C  
HETATM   32  O   UNL     1      -5.339   9.600  69.520  1.00  0.00    -0.035 OA 
HETATM   33  O   UNL     1      -5.213  11.463  68.255  1.00  0.00    -0.040 OA 
ENDBRANCH  27  30
ENDBRANCH  26  27
ENDBRANCH  23  26
ENDBRANCH  22  23
ENDBRANCH  21  22
ENDBRANCH   7  21
TORSDOF 8
ENDMDL
MODEL      126
REMARK 921   NORMALIZED FREE ENERGY PREDICTED BY IDOCK:   -5.29 KCAL/MOL
REMARK 922        TOTAL FREE ENERGY PREDICTED BY IDOCK:   -9.22 KCAL/MOL
REMARK 923 INTER-LIGAND FREE ENERGY PREDICTED BY IDOCK:   -8.00 KCAL/MOL
REMARK 924 INTRA-LIGAND FREE ENERGY PREDICTED BY IDOCK:   -1.22 KCAL/MOL
REMARK 927      BINDING AFFINITY PREDICTED BY RF-SCORE:    0.00 PKD
ROOT
HETATM    1  C   UNL     1      -9.453  11.869  64.972  1.00  0.00    -0.028 C  
HETATM    2  C   UNL     1      -8.591  10.639  65.453  1.00  0.00    -0.179 C  
HETATM    3  C   UNL     1     -10.109  11.593  63.613  1.00  0.00    -0.435 C  
HETATM    4  C   UNL     1      -8.476   9.435  64.491  1.00  0.00    -0.189 C  
HETATM    5  C   UNL     1      -8.441   9.832  63.028  1.00  0.00    -0.180 C  
HETATM    6  C   UNL     1     -10.819  14.988  65.281  1.00  0.00    -0.399 C  
HETATM    7  C   UNL     1     -10.420  12.510  66.034  1.00  0.00    -0.282 C  
HETATM    8  C   UNL     1      -9.589  10.730  62.717  1.00  0.00    -0.337 C  
HETATM    9  O   UNL     1      -7.212  10.462  62.711  1.00  0.00    -0.143 OA 
HETATM   10  C   UNL     1     -11.389  13.570  65.403  1.00  0.00    -0.302 C  
HETATM   11  C   UNL     1     -11.917  13.171  64.061  1.00  0.00    -0.524 C  
HETATM   12  H   UNL     1      -7.190  10.711  61.794  1.00  0.00     0.000 HD 
HETATM   13  C   UNL     1     -11.326  12.289  63.258  1.00  0.00    -0.414 C  
ENDROOT
BRANCH   2  14
HETATM   14  O   UNL     1      -8.845  10.165  66.799  1.00  0.00    -0.132 OA 
BRANCH  14  15
HETATM   15  C   UNL     1      -9.607   9.054  67.012  1.00  0.00    -0.176 C  
HETATM   16  C   UNL     1     -10.103   7.992  69.202  1.00  0.00    -0.202 C  
HETATM   17  C   UNL     1      -8.438   6.931  67.635  1.00  0.00    -0.122 C  
HETATM   18  O   UNL     1     -10.599   8.735  66.370  1.00  0.00    -0.132 OA 
HETATM   19  C   UNL     1      -9.022   8.250  68.156  1.00  0.00    -0.139 C  
HETATM   20  C   UNL     1      -7.228   7.137  66.735  1.00  0.00    -0.083 C  
ENDBRANCH  14  15
ENDBRANCH   2  14
BRANCH   7  21
HETATM   21  C   UNL     1      -9.716  13.089  67.310  1.00  0.00    -0.225 C  
BRANCH  21  22
HETATM   22  C   UNL     1     -10.231  12.368  68.575  1.00  0.00    -0.213 C  
BRANCH  22  23
HETATM   23  C   UNL     1     -11.740  12.368  68.851  1.00  0.00    -0.324 C  
HETATM   24  O   UNL     1     -12.291  11.061  68.679  1.00  0.00    -0.753 OA 
HETATM   25  H   UNL     1     -13.226  11.061  68.850  1.00  0.00     0.000 HD 
BRANCH  23  26
HETATM   26  C   UNL     1     -11.954  12.776  70.327  1.00  0.00    -0.358 C  
BRANCH  26  27
HETATM   27  C   UNL     1     -12.520  14.187  70.529  1.00  0.00    -0.361 C  
HETATM   28  O   UNL     1     -11.881  14.841  71.636  1.00  0.00    -0.343 OA 
HETATM   29  H   UNL     1     -12.232  15.714  71.761  1.00  0.00     0.000 HD 
BRANCH  27  30
HETATM   30  C   UNL     1     -12.264  15.051  69.290  1.00  0.00    -0.214 C  
HETATM   31  C   UNL     1     -11.030  15.914  69.412  1.00  0.00    -0.309 C  
HETATM   32  O   UNL     1      -9.984  15.315  70.023  1.00  0.00    -0.234 OA 
HETATM   33  O   UNL     1     -10.949  17.034  68.929  1.00  0.00    -0.269 OA 
ENDBRANCH  27  30
ENDBRANCH  26  27
ENDBRANCH  23  26
ENDBRANCH  22  23
ENDBRANCH  21  22
ENDBRANCH   7  21
TORSDOF 8
ENDMDL
MODEL      127
REMARK 921   NORMALIZED FREE ENERGY PREDICTED BY IDOCK:   -5.24 KCAL/MOL
REMARK 922        TOTAL FREE ENERGY PREDICTED BY IDOCK:   -9.15 KCAL/MOL
REMARK 923 INTER-LIGAND FREE ENERGY PREDICTED BY IDOCK:   -7.71 KCAL/MOL
REMARK 924 INTRA-LIGAND FREE ENERGY PREDICTED BY IDOCK:   -1.44 KCAL/MOL
REMARK 927      BINDING AFFINITY PREDICTED BY RF-SCORE:    0.00 PKD
ROOT
HETATM    1  C   UNL     1      -9.980  13.954  67.628  1.00  0.00    -0.237 C  
HETATM    2  C   UNL     1      -8.936  15.062  68.042  1.00  0.00    -0.173 C  
HETATM    3  C   UNL     1     -11.365  14.562  67.373  1.00  0.00    -0.370 C  
HETATM    4  C   UNL     1      -9.461  16.506  68.202  1.00  0.00    -0.222 C  
HETATM    5  C   UNL     1     -10.870  16.578  68.757  1.00  0.00    -0.342 C  
HETATM    6  C   UNL     1     -10.963  10.766  66.879  1.00  0.00    -0.255 C  
HETATM    7  C   UNL     1      -9.518  12.925  66.531  1.00  0.00    -0.251 C  
HETATM    8  C   UNL     1     -11.776  15.705  67.959  1.00  0.00    -0.162 C  
HETATM    9  O   UNL     1     -10.888  16.204  70.123  1.00  0.00    -0.332 OA 
HETATM   10  C   UNL     1     -10.693  12.014  66.030  1.00  0.00    -0.317 C  
HETATM   11  C   UNL     1     -11.987  12.746  65.865  1.00  0.00    -0.506 C  
HETATM   12  H   UNL     1     -11.771  16.249  70.472  1.00  0.00     0.000 HD 
HETATM   13  C   UNL     1     -12.284  13.886  66.485  1.00  0.00    -0.482 C  
ENDROOT
BRANCH   2  14
HETATM   14  O   UNL     1      -7.689  15.076  67.303  1.00  0.00    -0.186 OA 
BRANCH  14  15
HETATM   15  C   UNL     1      -6.500  14.888  67.943  1.00  0.00    -0.162 C  
HETATM   16  C   UNL     1      -6.182  14.197  70.309  1.00  0.00    -0.146 C  
HETATM   17  C   UNL     1      -5.794  16.594  69.633  1.00  0.00    -0.199 C  
HETATM   18  O   UNL     1      -5.476  14.451  67.435  1.00  0.00    -0.338 OA 
HETATM   19  C   UNL     1      -6.627  15.330  69.388  1.00  0.00    -0.152 C  
HETATM   20  C   UNL     1      -6.326  17.804  68.877  1.00  0.00    -0.211 C  
ENDBRANCH  14  15
ENDBRANCH   2  14
BRANCH   7  21
HETATM   21  C   UNL     1      -8.267  12.061  66.915  1.00  0.00    -0.146 C  
BRANCH  21  22
HETATM   22  C   UNL     1      -8.264  11.774  68.433  1.00  0.00    -0.154 C  
BRANCH  22  23
HETATM   23  C   UNL     1      -7.510  10.537  68.939  1.00  0.00    -0.104 C  
HETATM   24  O   UNL     1      -7.213  10.654  70.331  1.00  0.00    -0.464 OA 
HETATM   25  H   UNL     1      -6.746   9.888  70.645  1.00  0.00     0.000 HD 
BRANCH  23  26
HETATM   26  C   UNL     1      -8.433   9.310  68.758  1.00  0.00    -0.129 C  
BRANCH  26  27
HETATM   27  C   UNL     1      -9.397   9.053  69.923  1.00  0.00    -0.173 C  
HETATM   28  O   UNL     1     -10.092  10.255  70.287  1.00  0.00    -0.418 OA 
HETATM   29  H   UNL     1     -10.689  10.095  71.008  1.00  0.00     0.000 HD 
BRANCH  27  30
HETATM   30  C   UNL     1     -10.460   8.024  69.523  1.00  0.00    -0.226 C  
HETATM   31  C   UNL     1     -11.069   7.308  70.705  1.00  0.00    -0.266 C  
HETATM   32  O   UNL     1     -11.287   8.092  71.785  1.00  0.00    -0.253 OA 
HETATM   33  O   UNL     1     -11.414   6.136  70.669  1.00  0.00    -0.338 OA 
ENDBRANCH  27  30
ENDBRANCH  26  27
ENDBRANCH  23  26
ENDBRANCH  22  23
ENDBRANCH  21  22
ENDBRANCH   7  21
TORSDOF 8
ENDMDL
MODEL      128
REMARK 921   NORMALIZED FREE ENERGY PREDICTED BY IDOCK:   -5.24 KCAL/MOL
REMARK 922        TOTAL FREE ENERGY PREDICTED BY IDOCK:   -9.14 KCAL/MOL
REMARK 923 INTER-LIGAND FREE ENERGY PREDICTED BY IDOCK:   -7.77 KCAL/MOL
REMARK 924 INTRA-LIGAND FREE ENERGY PREDICTED BY IDOCK:   -1.37 KCAL/MOL
REMARK 927      BINDING AFFINITY PREDICTED BY RF-SCORE:    0.00 PKD
ROOT
HETATM    1  C   UNL     1     -10.131  13.175  68.425  1.00  0.00    -0.231 C  
HETATM    2  C   UNL     1      -9.931  14.452  67.520  1.00  0.00    -0.224 C  
HETATM    3  C   UNL     1     -11.401  13.288  69.277  1.00  0.00    -0.311 C  
HETATM    4  C   UNL     1     -10.949  15.602  67.684  1.00  0.00    -0.315 C  
HETATM    5  C   UNL     1     -11.438  15.778  69.108  1.00  0.00    -0.380 C  
HETATM    6  C   UNL     1      -9.313  10.073  69.606  1.00  0.00    -0.242 C  
HETATM    7  C   UNL     1      -9.951  11.779  67.722  1.00  0.00    -0.198 C  
HETATM    8  C   UNL     1     -11.927  14.475  69.642  1.00  0.00    -0.375 C  
HETATM    9  O   UNL     1     -10.408  16.301  69.929  1.00  0.00    -0.244 OA 
HETATM   10  C   UNL     1     -10.388  10.584  68.640  1.00  0.00    -0.201 C  
HETATM   11  C   UNL     1     -11.624  10.863  69.435  1.00  0.00    -0.387 C  
HETATM   12  H   UNL     1     -10.715  16.411  70.821  1.00  0.00     0.000 HD 
HETATM   13  C   UNL     1     -12.064  12.085  69.726  1.00  0.00    -0.317 C  
ENDROOT
BRANCH   2  14
HETATM   14  O   UNL     1      -9.693  14.209  66.111  1.00  0.00    -0.294 OA 
BRANCH  14  15
HETATM   15  C   UNL     1     -10.657  14.482  65.187  1.00  0.00    -0.410 C  
HETATM   16  C   UNL     1     -13.030  13.750  65.256  1.00  0.00    -0.328 C  
HETATM   17  C   UNL     1     -11.408  12.623  63.690  1.00  0.00    -0.544 C  
HETATM   18  O   UNL     1     -10.753  15.516  64.539  1.00  0.00    -0.321 OA 
HETATM   19  C   UNL     1     -11.587  13.292  65.057  1.00  0.00    -0.342 C  
HETATM   20  C   UNL     1     -10.038  11.980  63.524  1.00  0.00    -0.448 C  
ENDBRANCH  14  15
ENDBRANCH   2  14
BRANCH   7  21
HETATM   21  C   UNL     1      -8.530  11.521  67.110  1.00  0.00    -0.158 C  
BRANCH  21  22
HETATM   22  C   UNL     1      -8.294  10.005  66.934  1.00  0.00    -0.125 C  
BRANCH  22  23
HETATM   23  C   UNL     1      -9.002   9.286  65.778  1.00  0.00    -0.192 C  
HETATM   24  O   UNL     1      -8.099   9.038  64.700  1.00  0.00    -0.127 OA 
HETATM   25  H   UNL     1      -8.537   8.592  63.984  1.00  0.00     0.000 HD 
BRANCH  23  26
HETATM   26  C   UNL     1      -9.495   7.917  66.300  1.00  0.00    -0.220 C  
BRANCH  26  27
HETATM   27  C   UNL     1      -8.745   6.704  65.736  1.00  0.00    -0.116 C  
HETATM   28  O   UNL     1      -7.468   6.550  66.374  1.00  0.00    -0.082 OA 
HETATM   29  H   UNL     1      -7.003   5.799  66.024  1.00  0.00     0.000 HD 
BRANCH  27  30
HETATM   30  C   UNL     1      -9.533   5.416  65.994  1.00  0.00    -0.161 C  
HETATM   31  C   UNL     1      -9.481   4.445  64.838  1.00  0.00    -0.162 C  
HETATM   32  O   UNL     1      -8.280   4.368  64.224  1.00  0.00    -0.094 OA 
HETATM   33  O   UNL     1     -10.420   3.725  64.529  1.00  0.00    -0.225 OA 
ENDBRANCH  27  30
ENDBRANCH  26  27
ENDBRANCH  23  26
ENDBRANCH  22  23
ENDBRANCH  21  22
ENDBRANCH   7  21
TORSDOF 8
ENDMDL
MODEL      129
REMARK 921   NORMALIZED FREE ENERGY PREDICTED BY IDOCK:   -5.24 KCAL/MOL
REMARK 922        TOTAL FREE ENERGY PREDICTED BY IDOCK:   -9.14 KCAL/MOL
REMARK 923 INTER-LIGAND FREE ENERGY PREDICTED BY IDOCK:   -8.05 KCAL/MOL
REMARK 924 INTRA-LIGAND FREE ENERGY PREDICTED BY IDOCK:   -1.09 KCAL/MOL
REMARK 927      BINDING AFFINITY PREDICTED BY RF-SCORE:    0.00 PKD
ROOT
HETATM    1  C   UNL     1     -10.314  10.571  69.002  1.00  0.00    -0.232 C  
HETATM    2  C   UNL     1     -11.137  11.178  70.204  1.00  0.00    -0.025 C  
HETATM    3  C   UNL     1     -10.467   9.047  68.935  1.00  0.00    -0.231 C  
HETATM    4  C   UNL     1     -11.865  10.185  71.136  1.00  0.00    -0.472 C  
HETATM    5  C   UNL     1     -11.112   8.885  71.340  1.00  0.00    -0.306 C  
HETATM    6  C   UNL     1      -8.294  10.742  66.249  1.00  0.00    -0.160 C  
HETATM    7  C   UNL     1     -10.464  11.293  67.611  1.00  0.00    -0.225 C  
HETATM    8  C   UNL     1     -10.746   8.297  70.021  1.00  0.00    -0.239 C  
HETATM    9  O   UNL     1      -9.957   9.095  72.133  1.00  0.00    -0.194 OA 
HETATM   10  C   UNL     1      -9.794  10.489  66.443  1.00  0.00    -0.260 C  
HETATM   11  C   UNL     1     -10.002   9.011  66.539  1.00  0.00    -0.355 C  
HETATM   12  H   UNL     1      -9.485   8.281  72.261  1.00  0.00     0.000 HD 
HETATM   13  C   UNL     1     -10.292   8.370  67.670  1.00  0.00    -0.317 C  
ENDROOT
BRANCH   2  14
HETATM   14  O   UNL     1     -12.018  12.283  69.885  1.00  0.00    -0.324 OA 
BRANCH  14  15
HETATM   15  C   UNL     1     -12.345  13.206  70.834  1.00  0.00    -0.307 C  
HETATM   16  C   UNL     1     -13.923  15.107  70.574  1.00  0.00     0.318 C  
HETATM   17  C   UNL     1     -11.437  15.524  70.579  1.00  0.00    -0.368 C  
HETATM   18  O   UNL     1     -12.435  12.994  72.036  1.00  0.00     0.022 OA 
HETATM   19  C   UNL     1     -12.556  14.556  70.177  1.00  0.00    -0.339 C  
HETATM   20  C   UNL     1     -10.077  15.111  70.034  1.00  0.00    -0.103 C  
ENDBRANCH  14  15
ENDBRANCH   2  14
BRANCH   7  21
HETATM   21  C   UNL     1     -10.008  12.793  67.589  1.00  0.00    -0.217 C  
BRANCH  21  22
HETATM   22  C   UNL     1     -10.714  13.547  66.440  1.00  0.00    -0.287 C  
BRANCH  22  23
HETATM   23  C   UNL     1     -10.504  15.063  66.326  1.00  0.00    -0.304 C  
HETATM   24  O   UNL     1      -9.127  15.403  66.492  1.00  0.00    -0.254 OA 
HETATM   25  H   UNL     1      -8.998  16.342  66.420  1.00  0.00     0.000 HD 
BRANCH  23  26
HETATM   26  C   UNL     1     -10.925  15.494  64.902  1.00  0.00    -0.452 C  
BRANCH  26  27
HETATM   27  C   UNL     1     -12.181  14.799  64.363  1.00  0.00    -0.428 C  
HETATM   28  O   UNL     1     -13.031  15.734  63.682  1.00  0.00    -0.293 OA 
HETATM   29  H   UNL     1     -13.809  15.304  63.349  1.00  0.00     0.000 HD 
BRANCH  27  30
HETATM   30  C   UNL     1     -11.803  13.715  63.349  1.00  0.00    -0.101 C  
HETATM   31  C   UNL     1     -12.196  12.325  63.790  1.00  0.00    -0.546 C  
HETATM   32  O   UNL     1     -13.392  12.251  64.415  1.00  0.00    -0.786 OA 
HETATM   33  O   UNL     1     -11.530  11.331  63.535  1.00  0.00    -0.266 OA 
ENDBRANCH  27  30
ENDBRANCH  26  27
ENDBRANCH  23  26
ENDBRANCH  22  23
ENDBRANCH  21  22
ENDBRANCH   7  21
TORSDOF 8
ENDMDL
MODEL      130
REMARK 921   NORMALIZED FREE ENERGY PREDICTED BY IDOCK:   -5.23 KCAL/MOL
REMARK 922        TOTAL FREE ENERGY PREDICTED BY IDOCK:   -9.14 KCAL/MOL
REMARK 923 INTER-LIGAND FREE ENERGY PREDICTED BY IDOCK:   -7.65 KCAL/MOL
REMARK 924 INTRA-LIGAND FREE ENERGY PREDICTED BY IDOCK:   -1.49 KCAL/MOL
REMARK 927      BINDING AFFINITY PREDICTED BY RF-SCORE:    0.00 PKD
ROOT
HETATM    1  C   UNL     1     -10.387   8.561  68.599  1.00  0.00    -0.224 C  
HETATM    2  C   UNL     1      -9.563   8.339  67.272  1.00  0.00    -0.166 C  
HETATM    3  C   UNL     1     -10.575   7.245  69.365  1.00  0.00    -0.238 C  
HETATM    4  C   UNL     1      -9.163   6.889  66.920  1.00  0.00    -0.167 C  
HETATM    5  C   UNL     1     -10.204   5.862  67.322  1.00  0.00    -0.200 C  
HETATM    6  C   UNL     1     -12.059  10.440  70.914  1.00  0.00    -0.477 C  
HETATM    7  C   UNL     1      -9.954   9.774  69.502  1.00  0.00    -0.230 C  
HETATM    8  C   UNL     1     -10.571   6.043  68.754  1.00  0.00    -0.345 C  
HETATM    9  O   UNL     1     -11.350   5.962  66.495  1.00  0.00    -0.707 OA 
HETATM   10  C   UNL     1     -10.677   9.775  70.894  1.00  0.00    -0.375 C  
HETATM   11  C   UNL     1     -10.816   8.412  71.495  1.00  0.00    -0.323 C  
HETATM   12  H   UNL     1     -12.002   5.318  66.745  1.00  0.00     0.000 HD 
HETATM   13  C   UNL     1     -10.781   7.280  70.795  1.00  0.00    -0.248 C  
ENDROOT
BRANCH   2  14
HETATM   14  O   UNL     1      -8.431   9.220  67.065  1.00  0.00    -0.122 OA 
BRANCH  14  15
HETATM   15  C   UNL     1      -8.106   9.650  65.813  1.00  0.00    -0.113 C  
HETATM   16  C   UNL     1      -6.696   8.455  64.152  1.00  0.00    -0.071 C  
HETATM   17  C   UNL     1      -5.762  10.429  65.411  1.00  0.00    -0.123 C  
HETATM   18  O   UNL     1      -8.827  10.307  65.074  1.00  0.00    -0.166 OA 
HETATM   19  C   UNL     1      -6.693   9.213  65.477  1.00  0.00    -0.073 C  
HETATM   20  C   UNL     1      -5.577  11.103  66.763  1.00  0.00    -0.100 C  
ENDBRANCH  14  15
ENDBRANCH   2  14
BRANCH   7  21
HETATM   21  C   UNL     1     -10.058  11.182  68.819  1.00  0.00    -0.211 C  
BRANCH  21  22
HETATM   22  C   UNL     1     -11.133  11.157  67.710  1.00  0.00    -0.344 C  
BRANCH  22  23
HETATM   23  C   UNL     1     -11.422  12.457  66.947  1.00  0.00    -0.360 C  
HETATM   24  O   UNL     1     -12.424  12.252  65.950  1.00  0.00    -0.535 OA 
HETATM   25  H   UNL     1     -12.604  13.056  65.477  1.00  0.00     0.000 HD 
BRANCH  23  26
HETATM   26  C   UNL     1     -11.972  13.489  67.958  1.00  0.00    -0.372 C  
BRANCH  26  27
HETATM   27  C   UNL     1     -11.241  14.838  67.962  1.00  0.00    -0.299 C  
HETATM   28  O   UNL     1     -12.139  15.905  68.302  1.00  0.00    -0.352 OA 
HETATM   29  H   UNL     1     -11.687  16.740  68.304  1.00  0.00     0.000 HD 
BRANCH  27  30
HETATM   30  C   UNL     1     -10.125  14.840  69.011  1.00  0.00    -0.232 C  
HETATM   31  C   UNL     1      -8.741  14.843  68.406  1.00  0.00    -0.172 C  
HETATM   32  O   UNL     1      -8.611  15.617  67.306  1.00  0.00    -0.171 OA 
HETATM   33  O   UNL     1      -7.791  14.260  68.910  1.00  0.00    -0.137 OA 
ENDBRANCH  27  30
ENDBRANCH  26  27
ENDBRANCH  23  26
ENDBRANCH  22  23
ENDBRANCH  21  22
ENDBRANCH   7  21
TORSDOF 8
ENDMDL
MODEL      131
REMARK 921   NORMALIZED FREE ENERGY PREDICTED BY IDOCK:   -5.22 KCAL/MOL
REMARK 922        TOTAL FREE ENERGY PREDICTED BY IDOCK:   -9.12 KCAL/MOL
REMARK 923 INTER-LIGAND FREE ENERGY PREDICTED BY IDOCK:   -7.59 KCAL/MOL
REMARK 924 INTRA-LIGAND FREE ENERGY PREDICTED BY IDOCK:   -1.53 KCAL/MOL
REMARK 927      BINDING AFFINITY PREDICTED BY RF-SCORE:    0.00 PKD
ROOT
HETATM    1  C   UNL     1     -10.747  13.932  69.207  1.00  0.00    -0.117 C  
HETATM    2  C   UNL     1     -10.159  13.410  67.839  1.00  0.00    -0.238 C  
HETATM    3  C   UNL     1     -10.308  15.375  69.487  1.00  0.00    -0.269 C  
HETATM    4  C   UNL     1      -9.208  14.354  67.070  1.00  0.00    -0.246 C  
HETATM    5  C   UNL     1      -8.331  15.196  67.976  1.00  0.00    -0.147 C  
HETATM    6  C   UNL     1     -12.608  13.675  72.063  1.00  0.00    -0.208 C  
HETATM    7  C   UNL     1     -12.276  13.665  69.464  1.00  0.00    -0.316 C  
HETATM    8  C   UNL     1      -9.169  15.897  68.987  1.00  0.00    -0.242 C  
HETATM    9  O   UNL     1      -7.350  14.392  68.608  1.00  0.00    -0.109 OA 
HETATM   10  C   UNL     1     -12.811  14.413  70.734  1.00  0.00    -0.417 C  
HETATM   11  C   UNL     1     -12.262  15.796  70.888  1.00  0.00    -0.458 C  
HETATM   12  H   UNL     1      -6.800  14.920  69.176  1.00  0.00     0.000 HD 
HETATM   13  C   UNL     1     -11.127  16.214  70.332  1.00  0.00    -0.362 C  
ENDROOT
BRANCH   2  14
HETATM   14  O   UNL     1     -11.107  12.817  66.917  1.00  0.00    -0.254 OA 
BRANCH  14  15
HETATM   15  C   UNL     1     -10.872  11.590  66.373  1.00  0.00    -0.285 C  
HETATM   16  C   UNL     1      -8.837  10.879  65.137  1.00  0.00    -0.167 C  
HETATM   17  C   UNL     1     -10.966  11.373  63.881  1.00  0.00    -0.442 C  
HETATM   18  O   UNL     1     -11.248  10.520  66.834  1.00  0.00    -0.193 OA 
HETATM   19  C   UNL     1     -10.091  11.748  65.083  1.00  0.00    -0.298 C  
HETATM   20  C   UNL     1     -12.127  12.336  63.675  1.00  0.00    -0.648 C  
ENDBRANCH  14  15
ENDBRANCH   2  14
BRANCH   7  21
HETATM   21  C   UNL     1     -12.691  12.152  69.491  1.00  0.00     0.608 C  
BRANCH  21  22
HETATM   22  C   UNL     1     -11.616  11.319  70.223  1.00  0.00    -0.366 C  
BRANCH  22  23
HETATM   23  C   UNL     1     -12.078  10.206  71.173  1.00  0.00    -0.388 C  
HETATM   24  O   UNL     1     -13.372   9.725  70.807  1.00  0.00    -0.594 OA 
HETATM   25  H   UNL     1     -13.658   9.036  71.396  1.00  0.00     0.000 HD 
BRANCH  23  26
HETATM   26  C   UNL     1     -11.086   9.028  71.043  1.00  0.00    -0.356 C  
BRANCH  26  27
HETATM   27  C   UNL     1      -9.793   9.355  70.285  1.00  0.00    -0.243 C  
HETATM   28  O   UNL     1      -8.744   9.716  71.196  1.00  0.00    -0.337 OA 
HETATM   29  H   UNL     1      -7.943   9.919  70.727  1.00  0.00     0.000 HD 
BRANCH  27  30
HETATM   30  C   UNL     1      -9.305   8.133  69.502  1.00  0.00    -0.155 C  
HETATM   31  C   UNL     1      -8.504   8.495  68.273  1.00  0.00    -0.135 C  
HETATM   32  O   UNL     1      -7.671   9.546  68.436  1.00  0.00    -0.084 OA 
HETATM   33  O   UNL     1      -8.542   7.845  67.237  1.00  0.00    -0.126 OA 
ENDBRANCH  27  30
ENDBRANCH  26  27
ENDBRANCH  23  26
ENDBRANCH  22  23
ENDBRANCH  21  22
ENDBRANCH   7  21
TORSDOF 8
ENDMDL
MODEL      132
REMARK 921   NORMALIZED FREE ENERGY PREDICTED BY IDOCK:   -5.21 KCAL/MOL
REMARK 922        TOTAL FREE ENERGY PREDICTED BY IDOCK:   -9.10 KCAL/MOL
REMARK 923 INTER-LIGAND FREE ENERGY PREDICTED BY IDOCK:   -7.62 KCAL/MOL
REMARK 924 INTRA-LIGAND FREE ENERGY PREDICTED BY IDOCK:   -1.48 KCAL/MOL
REMARK 927      BINDING AFFINITY PREDICTED BY RF-SCORE:    0.00 PKD
ROOT
HETATM    1  C   UNL     1      -9.567   9.984  65.253  1.00  0.00    -0.355 C  
HETATM    2  C   UNL     1      -9.971  11.492  65.479  1.00  0.00    -0.242 C  
HETATM    3  C   UNL     1      -9.201   9.719  63.787  1.00  0.00    -0.237 C  
HETATM    4  C   UNL     1     -10.015  12.408  64.236  1.00  0.00    -0.232 C  
HETATM    5  C   UNL     1     -10.486  11.699  62.981  1.00  0.00    -0.197 C  
HETATM    6  C   UNL     1      -8.957   6.771  66.250  1.00  0.00    -0.170 C  
HETATM    7  C   UNL     1      -8.561   9.361  66.290  1.00  0.00    -0.142 C  
HETATM    8  C   UNL     1      -9.694  10.455  62.771  1.00  0.00    -0.233 C  
HETATM    9  O   UNL     1     -11.869  11.404  63.063  1.00  0.00    -0.903 OA 
HETATM   10  C   UNL     1      -8.051   7.943  65.854  1.00  0.00    -0.119 C  
HETATM   11  C   UNL     1      -7.772   7.833  64.389  1.00  0.00    -0.123 C  
HETATM   12  H   UNL     1     -12.165  10.960  62.277  1.00  0.00     0.000 HD 
HETATM   13  C   UNL     1      -8.305   8.630  63.465  1.00  0.00    -0.117 C  
ENDROOT
BRANCH   2  14
HETATM   14  O   UNL     1      -9.302  12.179  66.566  1.00  0.00    -0.220 OA 
BRANCH  14  15
HETATM   15  C   UNL     1      -9.967  12.462  67.722  1.00  0.00    -0.205 C  
HETATM   16  C   UNL     1     -11.958  11.274  68.618  1.00  0.00    -0.314 C  
HETATM   17  C   UNL     1     -12.218  13.541  67.547  1.00  0.00    -0.247 C  
HETATM   18  O   UNL     1      -9.459  12.874  68.757  1.00  0.00    -0.051 OA 
HETATM   19  C   UNL     1     -11.450  12.214  67.527  1.00  0.00    -0.410 C  
HETATM   20  C   UNL     1     -11.882  14.434  66.361  1.00  0.00    -0.402 C  
ENDBRANCH  14  15
ENDBRANCH   2  14
BRANCH   7  21
HETATM   21  C   UNL     1      -9.064   9.341  67.775  1.00  0.00    -0.135 C  
BRANCH  21  22
HETATM   22  C   UNL     1      -8.024   8.645  68.680  1.00  0.00    -0.115 C  
BRANCH  22  23
HETATM   23  C   UNL     1      -8.511   7.985  69.977  1.00  0.00    -0.129 C  
HETATM   24  O   UNL     1      -7.734   8.417  71.094  1.00  0.00    -0.081 OA 
HETATM   25  H   UNL     1      -8.036   8.008  71.897  1.00  0.00     0.000 HD 
BRANCH  23  26
HETATM   26  C   UNL     1      -9.971   8.434  70.219  1.00  0.00    -0.193 C  
BRANCH  26  27
HETATM   27  C   UNL     1     -10.816   7.458  71.048  1.00  0.00    -0.239 C  
HETATM   28  O   UNL     1      -9.995   6.425  71.615  1.00  0.00    -0.175 OA 
HETATM   29  H   UNL     1     -10.519   5.821  72.128  1.00  0.00     0.000 HD 
BRANCH  27  30
HETATM   30  C   UNL     1     -11.489   8.188  72.215  1.00  0.00    -0.435 C  
HETATM   31  C   UNL     1     -12.964   8.428  71.994  1.00  0.00    -0.358 C  
HETATM   32  O   UNL     1     -13.615   7.408  71.393  1.00  0.00    -0.379 OA 
HETATM   33  O   UNL     1     -13.544   9.427  72.395  1.00  0.00    -0.457 OA 
ENDBRANCH  27  30
ENDBRANCH  26  27
ENDBRANCH  23  26
ENDBRANCH  22  23
ENDBRANCH  21  22
ENDBRANCH   7  21
TORSDOF 8
ENDMDL
MODEL      133
REMARK 921   NORMALIZED FREE ENERGY PREDICTED BY IDOCK:   -5.19 KCAL/MOL
REMARK 922        TOTAL FREE ENERGY PREDICTED BY IDOCK:   -9.07 KCAL/MOL
REMARK 923 INTER-LIGAND FREE ENERGY PREDICTED BY IDOCK:   -8.02 KCAL/MOL
REMARK 924 INTRA-LIGAND FREE ENERGY PREDICTED BY IDOCK:   -1.05 KCAL/MOL
REMARK 927      BINDING AFFINITY PREDICTED BY RF-SCORE:    0.00 PKD
ROOT
HETATM    1  C   UNL     1     -10.380   8.304  69.579  1.00  0.00    -0.219 C  
HETATM    2  C   UNL     1      -9.022   7.765  68.983  1.00  0.00    -0.145 C  
HETATM    3  C   UNL     1     -10.983   7.308  70.578  1.00  0.00    -0.282 C  
HETATM    4  C   UNL     1      -8.573   6.350  69.409  1.00  0.00    -0.130 C  
HETATM    5  C   UNL     1      -9.725   5.385  69.607  1.00  0.00    -0.177 C  
HETATM    6  C   UNL     1     -12.878  10.604  69.975  1.00  0.00    -0.067 C  
HETATM    7  C   UNL     1     -10.387   9.797  70.077  1.00  0.00    -0.307 C  
HETATM    8  C   UNL     1     -10.739   5.983  70.520  1.00  0.00    -0.349 C  
HETATM    9  O   UNL     1     -10.311   5.045  68.362  1.00  0.00    -0.119 OA 
HETATM   10  C   UNL     1     -11.700  10.165  70.852  1.00  0.00    -0.468 C  
HETATM   11  C   UNL     1     -12.182   9.077  71.759  1.00  0.00    -0.434 C  
HETATM   12  H   UNL     1     -11.033   4.439  68.486  1.00  0.00     0.000 HD 
HETATM   13  C   UNL     1     -11.864   7.792  71.618  1.00  0.00    -0.321 C  
ENDROOT
BRANCH   2  14
HETATM   14  O   UNL     1      -7.893   8.672  69.037  1.00  0.00    -0.096 OA 
BRANCH  14  15
HETATM   15  C   UNL     1      -6.942   8.656  68.061  1.00  0.00    -0.075 C  
HETATM   16  C   UNL     1      -6.413  10.492  66.473  1.00  0.00    -0.099 C  
HETATM   17  C   UNL     1      -7.703   8.475  65.684  1.00  0.00    -0.095 C  
HETATM   18  O   UNL     1      -5.858   8.089  68.128  1.00  0.00    -0.038 OA 
HETATM   19  C   UNL     1      -7.439   9.428  66.855  1.00  0.00    -0.091 C  
HETATM   20  C   UNL     1      -8.856   7.518  65.951  1.00  0.00    -0.157 C  
ENDBRANCH  14  15
ENDBRANCH   2  14
BRANCH   7  21
HETATM   21  C   UNL     1     -10.073  10.866  68.973  1.00  0.00    -0.212 C  
BRANCH  21  22
HETATM   22  C   UNL     1     -10.611  10.393  67.605  1.00  0.00    -0.304 C  
BRANCH  22  23
HETATM   23  C   UNL     1     -10.555  11.369  66.422  1.00  0.00    -0.263 C  
HETATM   24  O   UNL     1     -10.531  10.667  65.179  1.00  0.00    -0.280 OA 
HETATM   25  H   UNL     1     -10.497  11.271  64.447  1.00  0.00     0.000 HD 
BRANCH  23  26
HETATM   26  C   UNL     1     -11.841  12.226  66.452  1.00  0.00    -0.382 C  
BRANCH  26  27
HETATM   27  C   UNL     1     -12.174  12.934  65.132  1.00  0.00    -0.470 C  
HETATM   28  O   UNL     1     -13.261  13.856  65.307  1.00  0.00    -0.774 OA 
HETATM   29  H   UNL     1     -13.467  14.294  64.489  1.00  0.00     0.000 HD 
BRANCH  27  30
HETATM   30  C   UNL     1     -10.972  13.746  64.641  1.00  0.00    -0.406 C  
HETATM   31  C   UNL     1     -10.912  15.136  65.230  1.00  0.00    -0.395 C  
HETATM   32  O   UNL     1     -11.267  15.210  66.531  1.00  0.00    -0.341 OA 
HETATM   33  O   UNL     1     -10.501  16.106  64.609  1.00  0.00    -0.526 OA 
ENDBRANCH  27  30
ENDBRANCH  26  27
ENDBRANCH  23  26
ENDBRANCH  22  23
ENDBRANCH  21  22
ENDBRANCH   7  21
TORSDOF 8
ENDMDL
MODEL      134
REMARK 921   NORMALIZED FREE ENERGY PREDICTED BY IDOCK:   -5.17 KCAL/MOL
REMARK 922        TOTAL FREE ENERGY PREDICTED BY IDOCK:   -9.05 KCAL/MOL
REMARK 923 INTER-LIGAND FREE ENERGY PREDICTED BY IDOCK:   -7.21 KCAL/MOL
REMARK 924 INTRA-LIGAND FREE ENERGY PREDICTED BY IDOCK:   -1.84 KCAL/MOL
REMARK 927      BINDING AFFINITY PREDICTED BY RF-SCORE:    0.00 PKD
ROOT
HETATM    1  C   UNL     1      -6.847  15.308  67.525  1.00  0.00    -0.218 C  
HETATM    2  C   UNL     1      -7.673  16.104  66.442  1.00  0.00    -0.094 C  
HETATM    3  C   UNL     1      -6.144  16.260  68.501  1.00  0.00    -0.112 C  
HETATM    4  C   UNL     1      -7.584  17.646  66.476  1.00  0.00    -0.299 C  
HETATM    5  C   UNL     1      -6.220  18.163  66.889  1.00  0.00    -0.166 C  
HETATM    6  C   UNL     1      -5.698  12.478  69.062  1.00  0.00    -0.067 C  
HETATM    7  C   UNL     1      -7.577  14.099  68.219  1.00  0.00    -0.130 C  
HETATM    8  C   UNL     1      -5.796  17.518  68.164  1.00  0.00    -0.153 C  
HETATM    9  O   UNL     1      -5.266  17.928  65.868  1.00  0.00    -0.170 OA 
HETATM   10  C   UNL     1      -6.762  13.520  69.428  1.00  0.00    -0.051 C  
HETATM   11  C   UNL     1      -6.106  14.573  70.265  1.00  0.00    -0.170 C  
HETATM   12  H   UNL     1      -4.411  18.253  66.126  1.00  0.00     0.000 HD 
HETATM   13  C   UNL     1      -5.820  15.799  69.832  1.00  0.00    -0.155 C  
ENDROOT
BRANCH   2  14
HETATM   14  O   UNL     1      -9.053  15.700  66.263  1.00  0.00    -0.289 OA 
BRANCH  14  15
HETATM   15  C   UNL     1     -10.072  16.516  66.655  1.00  0.00    -0.294 C  
HETATM   16  C   UNL     1     -10.362  17.560  68.891  1.00  0.00    -0.338 C  
HETATM   17  C   UNL     1     -11.782  15.586  68.228  1.00  0.00    -0.287 C  
HETATM   18  O   UNL     1     -10.652  17.327  65.944  1.00  0.00    -0.339 OA 
HETATM   19  C   UNL     1     -10.405  16.249  68.110  1.00  0.00    -0.277 C  
HETATM   20  C   UNL     1     -11.815  14.187  67.629  1.00  0.00    -0.427 C  
ENDBRANCH  14  15
ENDBRANCH   2  14
BRANCH   7  21
HETATM   21  C   UNL     1      -8.031  12.952  67.252  1.00  0.00    -0.151 C  
BRANCH  21  22
HETATM   22  C   UNL     1      -9.053  12.034  67.958  1.00  0.00    -0.188 C  
BRANCH  22  23
HETATM   23  C   UNL     1     -10.028  11.226  67.091  1.00  0.00    -0.192 C  
HETATM   24  O   UNL     1      -9.407  10.811  65.873  1.00  0.00    -0.175 OA 
HETATM   25  H   UNL     1     -10.011  10.310  65.337  1.00  0.00     0.000 HD 
BRANCH  23  26
HETATM   26  C   UNL     1     -10.418   9.952  67.875  1.00  0.00    -0.282 C  
BRANCH  26  27
HETATM   27  C   UNL     1     -11.103  10.211  69.223  1.00  0.00    -0.225 C  
HETATM   28  O   UNL     1     -12.421  10.747  69.033  1.00  0.00    -0.757 OA 
HETATM   29  H   UNL     1     -12.844  10.908  69.868  1.00  0.00     0.000 HD 
BRANCH  27  30
HETATM   30  C   UNL     1     -11.260   8.904  70.006  1.00  0.00    -0.120 C  
HETATM   31  C   UNL     1     -11.469   9.119  71.487  1.00  0.00    -0.367 C  
HETATM   32  O   UNL     1     -12.262  10.168  71.795  1.00  0.00    -0.374 OA 
HETATM   33  O   UNL     1     -11.026   8.362  72.340  1.00  0.00    -0.339 OA 
ENDBRANCH  27  30
ENDBRANCH  26  27
ENDBRANCH  23  26
ENDBRANCH  22  23
ENDBRANCH  21  22
ENDBRANCH   7  21
TORSDOF 8
ENDMDL
MODEL      135
REMARK 921   NORMALIZED FREE ENERGY PREDICTED BY IDOCK:   -5.17 KCAL/MOL
REMARK 922        TOTAL FREE ENERGY PREDICTED BY IDOCK:   -9.05 KCAL/MOL
REMARK 923 INTER-LIGAND FREE ENERGY PREDICTED BY IDOCK:   -7.34 KCAL/MOL
REMARK 924 INTRA-LIGAND FREE ENERGY PREDICTED BY IDOCK:   -1.70 KCAL/MOL
REMARK 927      BINDING AFFINITY PREDICTED BY RF-SCORE:    0.00 PKD
ROOT
HETATM    1  C   UNL     1     -10.260   8.356  69.779  1.00  0.00    -0.207 C  
HETATM    2  C   UNL     1     -10.791   9.430  70.806  1.00  0.00    -0.305 C  
HETATM    3  C   UNL     1     -11.248   7.192  69.631  1.00  0.00    -0.161 C  
HETATM    4  C   UNL     1     -12.118   9.120  71.533  1.00  0.00    -0.422 C  
HETATM    5  C   UNL     1     -12.307   7.648  71.843  1.00  0.00    -0.306 C  
HETATM    6  C   UNL     1      -8.037   7.091  67.512  1.00  0.00    -0.113 C  
HETATM    7  C   UNL     1      -9.701   8.902  68.414  1.00  0.00    -0.175 C  
HETATM    8  C   UNL     1     -12.106   6.838  70.609  1.00  0.00    -0.371 C  
HETATM    9  O   UNL     1     -11.416   7.235  72.864  1.00  0.00    -0.496 OA 
HETATM   10  C   UNL     1      -9.412   7.757  67.382  1.00  0.00    -0.177 C  
HETATM   11  C   UNL     1     -10.447   6.677  67.383  1.00  0.00    -0.325 C  
HETATM   12  H   UNL     1     -11.534   6.312  73.059  1.00  0.00     0.000 HD 
HETATM   13  C   UNL     1     -11.260   6.423  68.406  1.00  0.00    -0.297 C  
ENDROOT
BRANCH   2  14
HETATM   14  O   UNL     1     -10.795  10.806  70.350  1.00  0.00    -0.143 OA 
BRANCH  14  15
HETATM   15  C   UNL     1     -11.879  11.320  69.703  1.00  0.00    -0.360 C  
HETATM   16  C   UNL     1     -12.100  13.610  68.765  1.00  0.00    -0.332 C  
HETATM   17  C   UNL     1     -13.276  13.008  70.911  1.00  0.00     0.113 C  
HETATM   18  O   UNL     1     -12.635  10.696  68.970  1.00  0.00    -0.232 OA 
HETATM   19  C   UNL     1     -12.028  12.788  70.050  1.00  0.00    -0.371 C  
HETATM   20  C   UNL     1     -13.164  12.362  72.286  1.00  0.00    -0.392 C  
ENDBRANCH  14  15
ENDBRANCH   2  14
BRANCH   7  21
HETATM   21  C   UNL     1      -8.470   9.866  68.538  1.00  0.00    -0.112 C  
BRANCH  21  22
HETATM   22  C   UNL     1      -8.598  11.026  67.527  1.00  0.00    -0.128 C  
BRANCH  22  23
HETATM   23  C   UNL     1      -8.768  12.451  68.071  1.00  0.00    -0.186 C  
HETATM   24  O   UNL     1      -7.591  12.881  68.757  1.00  0.00    -0.224 OA 
HETATM   25  H   UNL     1      -7.696  13.763  69.093  1.00  0.00     0.000 HD 
BRANCH  23  26
HETATM   26  C   UNL     1      -8.979  13.397  66.866  1.00  0.00    -0.216 C  
BRANCH  26  27
HETATM   27  C   UNL     1      -8.710  14.879  67.156  1.00  0.00    -0.219 C  
HETATM   28  O   UNL     1      -7.494  15.311  66.527  1.00  0.00    -0.231 OA 
HETATM   29  H   UNL     1      -7.328  16.229  66.707  1.00  0.00     0.000 HD 
BRANCH  27  30
HETATM   30  C   UNL     1      -9.839  15.750  66.595  1.00  0.00    -0.266 C  
HETATM   31  C   UNL     1      -9.966  17.082  67.296  1.00  0.00    -0.275 C  
HETATM   32  O   UNL     1      -8.789  17.661  67.620  1.00  0.00    -0.232 OA 
HETATM   33  O   UNL     1     -11.040  17.636  67.487  1.00  0.00    -0.182 OA 
ENDBRANCH  27  30
ENDBRANCH  26  27
ENDBRANCH  23  26
ENDBRANCH  22  23
ENDBRANCH  21  22
ENDBRANCH   7  21
TORSDOF 8
ENDMDL
MODEL      136
REMARK 921   NORMALIZED FREE ENERGY PREDICTED BY IDOCK:   -5.17 KCAL/MOL
REMARK 922        TOTAL FREE ENERGY PREDICTED BY IDOCK:   -9.04 KCAL/MOL
REMARK 923 INTER-LIGAND FREE ENERGY PREDICTED BY IDOCK:   -7.40 KCAL/MOL
REMARK 924 INTRA-LIGAND FREE ENERGY PREDICTED BY IDOCK:   -1.64 KCAL/MOL
REMARK 927      BINDING AFFINITY PREDICTED BY RF-SCORE:    0.00 PKD
ROOT
HETATM    1  C   UNL     1     -11.367  11.426  69.404  1.00  0.00    -0.365 C  
HETATM    2  C   UNL     1     -10.640  10.107  69.873  1.00  0.00    -0.285 C  
HETATM    3  C   UNL     1     -12.316  11.955  70.487  1.00  0.00    -0.372 C  
HETATM    4  C   UNL     1     -11.039   9.529  71.249  1.00  0.00    -0.449 C  
HETATM    5  C   UNL     1     -12.506   9.721  71.582  1.00  0.00    -0.410 C  
HETATM    6  C   UNL     1     -12.034  13.972  67.222  1.00  0.00    -0.448 C  
HETATM    7  C   UNL     1     -10.462  12.533  68.747  1.00  0.00    -0.169 C  
HETATM    8  C   UNL     1     -12.884  11.151  71.410  1.00  0.00    -0.544 C  
HETATM    9  O   UNL     1     -13.315   8.888  70.771  1.00  0.00    -0.473 OA 
HETATM   10  C   UNL     1     -11.230  13.883  68.525  1.00  0.00    -0.298 C  
HETATM   11  C   UNL     1     -12.144  14.243  69.653  1.00  0.00    -0.396 C  
HETATM   12  H   UNL     1     -14.235   9.007  70.980  1.00  0.00     0.000 HD 
HETATM   13  C   UNL     1     -12.638  13.364  70.523  1.00  0.00    -0.281 C  
ENDROOT
BRANCH   2  14
HETATM   14  O   UNL     1      -9.198  10.085  69.735  1.00  0.00    -0.219 OA 
BRANCH  14  15
HETATM   15  C   UNL     1      -8.502   8.924  69.899  1.00  0.00    -0.135 C  
HETATM   16  C   UNL     1      -7.380   8.148  71.976  1.00  0.00    -0.105 C  
HETATM   17  C   UNL     1      -6.009   9.064  70.069  1.00  0.00    -0.031 C  
HETATM   18  O   UNL     1      -8.759   7.855  69.362  1.00  0.00    -0.136 OA 
HETATM   19  C   UNL     1      -7.333   9.162  70.836  1.00  0.00    -0.129 C  
HETATM   20  C   UNL     1      -5.836  10.180  69.049  1.00  0.00    -0.037 C  
ENDBRANCH  14  15
ENDBRANCH   2  14
BRANCH   7  21
HETATM   21  C   UNL     1      -9.718  12.093  67.439  1.00  0.00    -0.180 C  
BRANCH  21  22
HETATM   22  C   UNL     1     -10.570  11.067  66.661  1.00  0.00    -0.315 C  
BRANCH  22  23
HETATM   23  C   UNL     1      -9.909  10.289  65.516  1.00  0.00    -0.282 C  
HETATM   24  O   UNL     1      -9.032  11.130  64.765  1.00  0.00    -0.339 OA 
HETATM   25  H   UNL     1      -8.622  10.648  64.056  1.00  0.00     0.000 HD 
BRANCH  23  26
HETATM   26  C   UNL     1      -9.057   9.159  66.138  1.00  0.00    -0.234 C  
BRANCH  26  27
HETATM   27  C   UNL     1      -8.881   7.921  65.250  1.00  0.00     0.077 C  
HETATM   28  O   UNL     1      -8.438   8.292  63.936  1.00  0.00    -0.374 OA 
HETATM   29  H   UNL     1      -8.330   7.525  63.387  1.00  0.00     0.000 HD 
BRANCH  27  30
HETATM   30  C   UNL     1      -7.818   6.986  65.835  1.00  0.00    -0.106 C  
HETATM   31  C   UNL     1      -8.400   5.733  66.448  1.00  0.00    -0.113 C  
HETATM   32  O   UNL     1      -9.436   5.202  65.762  1.00  0.00    -0.159 OA 
HETATM   33  O   UNL     1      -7.926   5.194  67.438  1.00  0.00    -0.099 OA 
ENDBRANCH  27  30
ENDBRANCH  26  27
ENDBRANCH  23  26
ENDBRANCH  22  23
ENDBRANCH  21  22
ENDBRANCH   7  21
TORSDOF 8
ENDMDL
MODEL      137
REMARK 921   NORMALIZED FREE ENERGY PREDICTED BY IDOCK:   -5.16 KCAL/MOL
REMARK 922        TOTAL FREE ENERGY PREDICTED BY IDOCK:   -9.03 KCAL/MOL
REMARK 923 INTER-LIGAND FREE ENERGY PREDICTED BY IDOCK:   -7.84 KCAL/MOL
REMARK 924 INTRA-LIGAND FREE ENERGY PREDICTED BY IDOCK:   -1.19 KCAL/MOL
REMARK 927      BINDING AFFINITY PREDICTED BY RF-SCORE:    0.00 PKD
ROOT
HETATM    1  C   UNL     1     -10.007  11.028  65.786  1.00  0.00    -0.294 C  
HETATM    2  C   UNL     1     -10.333  12.557  66.000  1.00  0.00    -0.256 C  
HETATM    3  C   UNL     1     -10.016  10.659  64.297  1.00  0.00    -0.413 C  
HETATM    4  C   UNL     1     -10.678  13.389  64.745  1.00  0.00    -0.403 C  
HETATM    5  C   UNL     1     -11.449  12.611  63.697  1.00  0.00    -0.495 C  
HETATM    6  C   UNL     1      -9.189   7.874  66.822  1.00  0.00    -0.206 C  
HETATM    7  C   UNL     1      -8.779  10.451  66.583  1.00  0.00    -0.141 C  
HETATM    8  C   UNL     1     -10.741  11.338  63.385  1.00  0.00    -0.349 C  
HETATM    9  O   UNL     1     -12.771  12.354  64.139  1.00  0.00    -0.654 OA 
HETATM   10  C   UNL     1      -8.402   8.997  66.135  1.00  0.00    -0.124 C  
HETATM   11  C   UNL     1      -8.494   8.784  64.657  1.00  0.00    -0.169 C  
HETATM   12  H   UNL     1     -13.255  11.866  63.483  1.00  0.00     0.000 HD 
HETATM   13  C   UNL     1      -9.235   9.531  63.841  1.00  0.00    -0.094 C  
ENDROOT
BRANCH   2  14
HETATM   14  O   UNL     1      -9.412  13.298  66.838  1.00  0.00    -0.233 OA 
BRANCH  14  15
HETATM   15  C   UNL     1      -9.829  13.841  68.017  1.00  0.00    -0.239 C  
HETATM   16  C   UNL     1     -12.169  13.982  68.840  1.00  0.00    -0.261 C  
HETATM   17  C   UNL     1     -11.024  16.038  67.940  1.00  0.00    -0.327 C  
HETATM   18  O   UNL     1      -9.213  13.811  69.075  1.00  0.00     0.054 OA 
HETATM   19  C   UNL     1     -11.171  14.517  67.817  1.00  0.00    -0.312 C  
HETATM   20  C   UNL     1     -10.188  16.641  66.819  1.00  0.00    -0.301 C  
ENDBRANCH  14  15
ENDBRANCH   2  14
BRANCH   7  21
HETATM   21  C   UNL     1      -8.899  10.540  68.145  1.00  0.00    -0.134 C  
BRANCH  21  22
HETATM   22  C   UNL     1     -10.354  10.262  68.583  1.00  0.00    -0.203 C  
BRANCH  22  23
HETATM   23  C   UNL     1     -10.623   9.948  70.061  1.00  0.00    -0.288 C  
HETATM   24  O   UNL     1     -11.359  11.002  70.682  1.00  0.00    -0.425 OA 
HETATM   25  H   UNL     1     -11.526  10.807  71.597  1.00  0.00     0.000 HD 
BRANCH  23  26
HETATM   26  C   UNL     1     -11.490   8.670  70.125  1.00  0.00    -0.009 C  
BRANCH  26  27
HETATM   27  C   UNL     1     -11.044   7.641  71.172  1.00  0.00    -0.251 C  
HETATM   28  O   UNL     1     -12.120   6.750  71.503  1.00  0.00    -0.328 OA 
HETATM   29  H   UNL     1     -11.844   6.113  72.152  1.00  0.00     0.000 HD 
BRANCH  27  30
HETATM   30  C   UNL     1      -9.900   6.780  70.626  1.00  0.00    -0.191 C  
HETATM   31  C   UNL     1     -10.376   5.651  69.742  1.00  0.00    -0.282 C  
HETATM   32  O   UNL     1     -11.404   5.972  68.926  1.00  0.00    -0.307 OA 
HETATM   33  O   UNL     1      -9.828   4.558  69.704  1.00  0.00    -0.205 OA 
ENDBRANCH  27  30
ENDBRANCH  26  27
ENDBRANCH  23  26
ENDBRANCH  22  23
ENDBRANCH  21  22
ENDBRANCH   7  21
TORSDOF 8
ENDMDL
MODEL      138
REMARK 921   NORMALIZED FREE ENERGY PREDICTED BY IDOCK:   -5.14 KCAL/MOL
REMARK 922        TOTAL FREE ENERGY PREDICTED BY IDOCK:   -9.00 KCAL/MOL
REMARK 923 INTER-LIGAND FREE ENERGY PREDICTED BY IDOCK:   -7.40 KCAL/MOL
REMARK 924 INTRA-LIGAND FREE ENERGY PREDICTED BY IDOCK:   -1.60 KCAL/MOL
REMARK 927      BINDING AFFINITY PREDICTED BY RF-SCORE:    0.00 PKD
ROOT
HETATM    1  C   UNL     1     -10.483  14.476  67.249  1.00  0.00    -0.266 C  
HETATM    2  C   UNL     1      -9.590  14.411  68.548  1.00  0.00    -0.217 C  
HETATM    3  C   UNL     1     -10.691  15.924  66.788  1.00  0.00    -0.281 C  
HETATM    4  C   UNL     1      -9.154  15.754  69.176  1.00  0.00    -0.262 C  
HETATM    5  C   UNL     1     -10.199  16.845  69.054  1.00  0.00    -0.308 C  
HETATM    6  C   UNL     1     -12.294  13.132  64.680  1.00  0.00    -0.463 C  
HETATM    7  C   UNL     1     -10.112  13.480  66.089  1.00  0.00    -0.307 C  
HETATM    8  C   UNL     1     -10.641  16.971  67.637  1.00  0.00    -0.333 C  
HETATM    9  O   UNL     1     -11.303  16.575  69.900  1.00  0.00    -0.374 OA 
HETATM   10  C   UNL     1     -10.904  13.775  64.768  1.00  0.00    -0.410 C  
HETATM   11  C   UNL     1     -11.055  15.234  64.475  1.00  0.00    -0.260 C  
HETATM   12  H   UNL     1     -11.959  17.259  69.825  1.00  0.00     0.000 HD 
HETATM   13  C   UNL     1     -10.970  16.193  65.395  1.00  0.00    -0.235 C  
ENDROOT
BRANCH   2  14
HETATM   14  O   UNL     1      -8.461  13.504  68.506  1.00  0.00    -0.157 OA 
BRANCH  14  15
HETATM   15  C   UNL     1      -7.289  13.880  67.919  1.00  0.00    -0.154 C  
HETATM   16  C   UNL     1      -5.425  12.386  67.235  1.00  0.00    -0.087 C  
HETATM   17  C   UNL     1      -5.206  13.809  69.304  1.00  0.00    -0.081 C  
HETATM   18  O   UNL     1      -7.152  14.800  67.123  1.00  0.00    -0.192 OA 
HETATM   19  C   UNL     1      -6.164  12.998  68.423  1.00  0.00    -0.081 C  
HETATM   20  C   UNL     1      -5.854  14.277  70.600  1.00  0.00    -0.190 C  
ENDBRANCH  14  15
ENDBRANCH   2  14
BRANCH   7  21
HETATM   21  C   UNL     1     -10.200  11.960  66.465  1.00  0.00    -0.232 C  
BRANCH  21  22
HETATM   22  C   UNL     1      -9.017  11.188  65.841  1.00  0.00    -0.210 C  
BRANCH  22  23
HETATM   23  C   UNL     1      -8.577   9.873  66.498  1.00  0.00    -0.124 C  
HETATM   24  O   UNL     1      -8.423  10.031  67.908  1.00  0.00    -0.117 OA 
HETATM   25  H   UNL     1      -8.151   9.217  68.315  1.00  0.00     0.000 HD 
BRANCH  23  26
HETATM   26  C   UNL     1      -9.693   8.828  66.263  1.00  0.00    -0.342 C  
BRANCH  26  27
HETATM   27  C   UNL     1     -10.224   8.156  67.535  1.00  0.00    -0.243 C  
HETATM   28  O   UNL     1     -11.124   9.026  68.236  1.00  0.00    -0.475 OA 
HETATM   29  H   UNL     1     -11.453   8.610  69.024  1.00  0.00     0.000 HD 
BRANCH  27  30
HETATM   30  C   UNL     1     -11.007   6.887  67.185  1.00  0.00    -0.427 C  
HETATM   31  C   UNL     1     -10.126   5.757  66.705  1.00  0.00    -0.193 C  
HETATM   32  O   UNL     1      -8.951   5.644  67.362  1.00  0.00    -0.110 OA 
HETATM   33  O   UNL     1     -10.474   4.958  65.847  1.00  0.00    -0.264 OA 
ENDBRANCH  27  30
ENDBRANCH  26  27
ENDBRANCH  23  26
ENDBRANCH  22  23
ENDBRANCH  21  22
ENDBRANCH   7  21
TORSDOF 8
ENDMDL
MODEL      139
REMARK 921   NORMALIZED FREE ENERGY PREDICTED BY IDOCK:   -5.11 KCAL/MOL
REMARK 922        TOTAL FREE ENERGY PREDICTED BY IDOCK:   -8.96 KCAL/MOL
REMARK 923 INTER-LIGAND FREE ENERGY PREDICTED BY IDOCK:   -7.25 KCAL/MOL
REMARK 924 INTRA-LIGAND FREE ENERGY PREDICTED BY IDOCK:   -1.72 KCAL/MOL
REMARK 927      BINDING AFFINITY PREDICTED BY RF-SCORE:    0.00 PKD
ROOT
HETATM    1  C   UNL     1      -7.722  12.985  67.534  1.00  0.00    -0.168 C  
HETATM    2  C   UNL     1      -9.084  13.685  67.155  1.00  0.00    -0.239 C  
HETATM    3  C   UNL     1      -6.846  13.901  68.397  1.00  0.00    -0.101 C  
HETATM    4  C   UNL     1      -9.282  15.146  67.617  1.00  0.00    -0.181 C  
HETATM    5  C   UNL     1      -8.005  15.963  67.602  1.00  0.00    -0.146 C  
HETATM    6  C   UNL     1      -5.489  10.397  67.568  1.00  0.00    -0.040 C  
HETATM    7  C   UNL     1      -7.813  11.504  68.057  1.00  0.00    -0.126 C  
HETATM    8  C   UNL     1      -6.934  15.246  68.350  1.00  0.00    -0.111 C  
HETATM    9  O   UNL     1      -7.595  16.225  66.271  1.00  0.00    -0.189 OA 
HETATM   10  C   UNL     1      -6.445  10.979  68.616  1.00  0.00    -0.052 C  
HETATM   11  C   UNL     1      -5.691  12.002  69.407  1.00  0.00    -0.074 C  
HETATM   12  H   UNL     1      -6.795  16.737  66.261  1.00  0.00     0.000 HD 
HETATM   13  C   UNL     1      -5.871  13.316  69.290  1.00  0.00    -0.088 C  
ENDROOT
BRANCH   2  14
HETATM   14  O   UNL     1     -10.290  12.925  67.413  1.00  0.00    -0.230 OA 
BRANCH  14  15
HETATM   15  C   UNL     1     -11.076  12.498  66.384  1.00  0.00    -0.290 C  
HETATM   16  C   UNL     1     -10.304  11.587  64.205  1.00  0.00    -0.376 C  
HETATM   17  C   UNL     1     -11.214  13.934  64.340  1.00  0.00    -0.341 C  
HETATM   18  O   UNL     1     -12.160  11.941  66.497  1.00  0.00    -0.568 OA 
HETATM   19  C   UNL     1     -10.416  12.845  65.064  1.00  0.00    -0.337 C  
HETATM   20  C   UNL     1     -11.188  15.269  65.072  1.00  0.00    -0.409 C  
ENDBRANCH  14  15
ENDBRANCH   2  14
BRANCH   7  21
HETATM   21  C   UNL     1      -8.432  10.478  67.044  1.00  0.00    -0.128 C  
BRANCH  21  22
HETATM   22  C   UNL     1      -9.015   9.267  67.803  1.00  0.00    -0.131 C  
BRANCH  22  23
HETATM   23  C   UNL     1     -10.498   9.297  68.196  1.00  0.00    -0.215 C  
HETATM   24  O   UNL     1     -11.037   7.977  68.265  1.00  0.00    -0.420 OA 
HETATM   25  H   UNL     1     -11.955   7.996  68.508  1.00  0.00     0.000 HD 
BRANCH  23  26
HETATM   26  C   UNL     1     -10.604   9.921  69.606  1.00  0.00    -0.273 C  
BRANCH  26  27
HETATM   27  C   UNL     1     -10.151   9.006  70.751  1.00  0.00    -0.241 C  
HETATM   28  O   UNL     1      -8.962   9.516  71.374  1.00  0.00    -0.302 OA 
HETATM   29  H   UNL     1      -8.682   8.949  72.082  1.00  0.00     0.000 HD 
BRANCH  27  30
HETATM   30  C   UNL     1     -11.229   8.930  71.836  1.00  0.00    -0.447 C  
HETATM   31  C   UNL     1     -12.391   8.040  71.459  1.00  0.00    -0.308 C  
HETATM   32  O   UNL     1     -12.044   6.915  70.797  1.00  0.00    -0.374 OA 
HETATM   33  O   UNL     1     -13.544   8.273  71.792  1.00  0.00    -0.342 OA 
ENDBRANCH  27  30
ENDBRANCH  26  27
ENDBRANCH  23  26
ENDBRANCH  22  23
ENDBRANCH  21  22
ENDBRANCH   7  21
TORSDOF 8
ENDMDL
MODEL      140
REMARK 921   NORMALIZED FREE ENERGY PREDICTED BY IDOCK:   -5.09 KCAL/MOL
REMARK 922        TOTAL FREE ENERGY PREDICTED BY IDOCK:   -8.93 KCAL/MOL
REMARK 923 INTER-LIGAND FREE ENERGY PREDICTED BY IDOCK:   -7.45 KCAL/MOL
REMARK 924 INTRA-LIGAND FREE ENERGY PREDICTED BY IDOCK:   -1.48 KCAL/MOL
REMARK 927      BINDING AFFINITY PREDICTED BY RF-SCORE:    0.00 PKD
ROOT
HETATM    1  C   UNL     1      -9.610   4.832  68.894  1.00  0.00    -0.229 C  
HETATM    2  C   UNL     1      -9.439   6.079  67.942  1.00  0.00    -0.112 C  
HETATM    3  C   UNL     1      -9.363   3.519  68.140  1.00  0.00    -0.236 C  
HETATM    4  C   UNL     1      -9.147   5.798  66.452  1.00  0.00    -0.152 C  
HETATM    5  C   UNL     1      -9.842   4.559  65.923  1.00  0.00    -0.226 C  
HETATM    6  C   UNL     1     -10.209   3.296  71.888  1.00  0.00    -0.070 C  
HETATM    7  C   UNL     1      -8.900   4.913  70.295  1.00  0.00    -0.134 C  
HETATM    8  C   UNL     1      -9.555   3.397  66.811  1.00  0.00    -0.096 C  
HETATM    9  O   UNL     1     -11.238   4.775  65.818  1.00  0.00    -0.833 OA 
HETATM   10  C   UNL     1      -8.939   3.548  71.067  1.00  0.00    -0.158 C  
HETATM   11  C   UNL     1      -8.716   2.358  70.188  1.00  0.00    -0.121 C  
HETATM   12  H   UNL     1     -11.674   3.998  65.487  1.00  0.00     0.000 HD 
HETATM   13  C   UNL     1      -8.923   2.353  68.873  1.00  0.00    -0.170 C  
ENDROOT
BRANCH   2  14
HETATM   14  O   UNL     1      -8.569   7.135  68.419  1.00  0.00    -0.123 OA 
BRANCH  14  15
HETATM   15  C   UNL     1      -9.031   8.411  68.548  1.00  0.00    -0.136 C  
HETATM   16  C   UNL     1      -8.055  10.454  67.525  1.00  0.00    -0.107 C  
HETATM   17  C   UNL     1      -7.725   9.994  69.981  1.00  0.00    -0.181 C  
HETATM   18  O   UNL     1     -10.207   8.739  68.642  1.00  0.00    -0.186 OA 
HETATM   19  C   UNL     1      -7.860   9.374  68.585  1.00  0.00    -0.088 C  
HETATM   20  C   UNL     1      -7.338   8.974  71.043  1.00  0.00    -0.125 C  
ENDBRANCH  14  15
ENDBRANCH   2  14
BRANCH   7  21
HETATM   21  C   UNL     1      -9.378   6.089  71.216  1.00  0.00    -0.170 C  
BRANCH  21  22
HETATM   22  C   UNL     1     -10.897   6.311  71.050  1.00  0.00    -0.326 C  
BRANCH  22  23
HETATM   23  C   UNL     1     -11.726   6.644  72.297  1.00  0.00    -0.269 C  
HETATM   24  O   UNL     1     -11.112   6.119  73.475  1.00  0.00    -0.448 OA 
HETATM   25  H   UNL     1     -11.625   6.326  74.248  1.00  0.00     0.000 HD 
BRANCH  23  26
HETATM   26  C   UNL     1     -11.773   8.183  72.440  1.00  0.00    -0.461 C  
BRANCH  26  27
HETATM   27  C   UNL     1     -12.514   8.912  71.312  1.00  0.00    -0.272 C  
HETATM   28  O   UNL     1     -13.785   8.297  71.054  1.00  0.00    -0.550 OA 
HETATM   29  H   UNL     1     -14.244   8.748  70.355  1.00  0.00     0.000 HD 
BRANCH  27  30
HETATM   30  C   UNL     1     -12.791  10.367  71.703  1.00  0.00    -0.579 C  
HETATM   31  C   UNL     1     -12.393  11.356  70.632  1.00  0.00    -0.373 C  
HETATM   32  O   UNL     1     -12.657  10.953  69.370  1.00  0.00    -0.335 OA 
HETATM   33  O   UNL     1     -11.943  12.465  70.884  1.00  0.00    -0.183 OA 
ENDBRANCH  27  30
ENDBRANCH  26  27
ENDBRANCH  23  26
ENDBRANCH  22  23
ENDBRANCH  21  22
ENDBRANCH   7  21
TORSDOF 8
ENDMDL
MODEL      141
REMARK 921   NORMALIZED FREE ENERGY PREDICTED BY IDOCK:   -5.09 KCAL/MOL
REMARK 922        TOTAL FREE ENERGY PREDICTED BY IDOCK:   -8.92 KCAL/MOL
REMARK 923 INTER-LIGAND FREE ENERGY PREDICTED BY IDOCK:   -7.39 KCAL/MOL
REMARK 924 INTRA-LIGAND FREE ENERGY PREDICTED BY IDOCK:   -1.53 KCAL/MOL
REMARK 927      BINDING AFFINITY PREDICTED BY RF-SCORE:    0.00 PKD
ROOT
HETATM    1  C   UNL     1     -11.204   9.509  70.063  1.00  0.00    -0.243 C  
HETATM    2  C   UNL     1     -11.133   8.325  71.103  1.00  0.00    -0.250 C  
HETATM    3  C   UNL     1     -12.213  10.577  70.504  1.00  0.00    -0.435 C  
HETATM    4  C   UNL     1     -12.105   8.376  72.303  1.00  0.00    -0.456 C  
HETATM    5  C   UNL     1     -13.454   8.978  71.963  1.00  0.00    -0.442 C  
HETATM    6  C   UNL     1     -10.289  11.183  67.226  1.00  0.00    -0.243 C  
HETATM    7  C   UNL     1      -9.830  10.091  69.564  1.00  0.00    -0.249 C  
HETATM    8  C   UNL     1     -13.269  10.297  71.295  1.00  0.00    -0.447 C  
HETATM    9  O   UNL     1     -14.199   8.099  71.138  1.00  0.00    -0.635 OA 
HETATM   10  C   UNL     1     -10.004  11.400  68.718  1.00  0.00    -0.188 C  
HETATM   11  C   UNL     1     -11.051  12.324  69.255  1.00  0.00    -0.220 C  
HETATM   12  H   UNL     1     -15.045   8.476  70.924  1.00  0.00     0.000 HD 
HETATM   13  C   UNL     1     -12.049  11.940  70.049  1.00  0.00    -0.366 C  
ENDROOT
BRANCH   2  14
HETATM   14  O   UNL     1      -9.810   7.952  71.562  1.00  0.00    -0.161 OA 
BRANCH  14  15
HETATM   15  C   UNL     1      -9.288   6.731  71.257  1.00  0.00    -0.165 C  
HETATM   16  C   UNL     1     -10.284   5.024  69.751  1.00  0.00    -0.336 C  
HETATM   17  C   UNL     1     -10.374   4.707  72.250  1.00  0.00    -0.251 C  
HETATM   18  O   UNL     1      -8.097   6.472  71.144  1.00  0.00    -0.113 OA 
HETATM   19  C   UNL     1     -10.410   5.723  71.102  1.00  0.00    -0.286 C  
HETATM   20  C   UNL     1     -10.688   5.334  73.601  1.00  0.00    -0.343 C  
ENDBRANCH  14  15
ENDBRANCH   2  14
BRANCH   7  21
HETATM   21  C   UNL     1      -8.905   9.065  68.821  1.00  0.00    -0.137 C  
BRANCH  21  22
HETATM   22  C   UNL     1      -9.749   8.162  67.895  1.00  0.00    -0.191 C  
BRANCH  22  23
HETATM   23  C   UNL     1      -9.020   7.296  66.858  1.00  0.00    -0.135 C  
HETATM   24  O   UNL     1      -9.923   6.392  66.220  1.00  0.00    -0.371 OA 
HETATM   25  H   UNL     1      -9.471   5.857  65.578  1.00  0.00     0.000 HD 
BRANCH  23  26
HETATM   26  C   UNL     1      -8.451   8.236  65.770  1.00  0.00    -0.164 C  
BRANCH  26  27
HETATM   27  C   UNL     1      -8.411   7.637  64.359  1.00  0.00     0.057 C  
HETATM   28  O   UNL     1      -8.607   8.656  63.366  1.00  0.00    -0.388 OA 
HETATM   29  H   UNL     1      -8.583   8.284  62.492  1.00  0.00     0.000 HD 
BRANCH  27  30
HETATM   30  C   UNL     1      -7.045   7.000  64.084  1.00  0.00    -0.063 C  
HETATM   31  C   UNL     1      -6.965   5.556  64.520  1.00  0.00    -0.049 C  
HETATM   32  O   UNL     1      -8.085   4.836  64.289  1.00  0.00    -0.099 OA 
HETATM   33  O   UNL     1      -5.947   5.052  64.973  1.00  0.00    -0.024 OA 
ENDBRANCH  27  30
ENDBRANCH  26  27
ENDBRANCH  23  26
ENDBRANCH  22  23
ENDBRANCH  21  22
ENDBRANCH   7  21
TORSDOF 8
ENDMDL
MODEL      142
REMARK 921   NORMALIZED FREE ENERGY PREDICTED BY IDOCK:   -5.08 KCAL/MOL
REMARK 922        TOTAL FREE ENERGY PREDICTED BY IDOCK:   -8.92 KCAL/MOL
REMARK 923 INTER-LIGAND FREE ENERGY PREDICTED BY IDOCK:   -7.31 KCAL/MOL
REMARK 924 INTRA-LIGAND FREE ENERGY PREDICTED BY IDOCK:   -1.61 KCAL/MOL
REMARK 927      BINDING AFFINITY PREDICTED BY RF-SCORE:    0.00 PKD
ROOT
HETATM    1  C   UNL     1      -7.824  15.693  67.627  1.00  0.00    -0.173 C  
HETATM    2  C   UNL     1      -7.742  14.136  67.866  1.00  0.00    -0.158 C  
HETATM    3  C   UNL     1      -6.447  16.278  67.288  1.00  0.00    -0.223 C  
HETATM    4  C   UNL     1      -6.343  13.483  67.810  1.00  0.00    -0.166 C  
HETATM    5  C   UNL     1      -5.240  14.371  68.351  1.00  0.00    -0.105 C  
HETATM    6  C   UNL     1      -9.442  18.693  67.368  1.00  0.00    -0.315 C  
HETATM    7  C   UNL     1      -8.985  16.202  66.695  1.00  0.00    -0.288 C  
HETATM    8  C   UNL     1      -5.295  15.708  67.697  1.00  0.00    -0.097 C  
HETATM    9  O   UNL     1      -5.346  14.497  69.759  1.00  0.00    -0.092 OA 
HETATM   10  C   UNL     1      -8.846  17.723  66.340  1.00  0.00    -0.256 C  
HETATM   11  C   UNL     1      -7.437  18.148  66.071  1.00  0.00    -0.264 C  
HETATM   12  H   UNL     1      -4.655  15.053  70.099  1.00  0.00     0.000 HD 
HETATM   13  C   UNL     1      -6.364  17.496  66.514  1.00  0.00    -0.261 C  
ENDROOT
BRANCH   2  14
HETATM   14  O   UNL     1      -8.689  13.323  67.130  1.00  0.00    -0.206 OA 
BRANCH  14  15
HETATM   15  C   UNL     1      -8.819  11.992  67.400  1.00  0.00    -0.178 C  
HETATM   16  C   UNL     1      -7.180  10.203  66.864  1.00  0.00    -0.092 C  
HETATM   17  C   UNL     1      -9.276  10.446  65.486  1.00  0.00    -0.223 C  
HETATM   18  O   UNL     1      -9.373  11.513  68.380  1.00  0.00    -0.186 OA 
HETATM   19  C   UNL     1      -8.193  11.185  66.280  1.00  0.00    -0.153 C  
HETATM   20  C   UNL     1     -10.196  11.392  64.726  1.00  0.00    -0.338 C  
ENDBRANCH  14  15
ENDBRANCH   2  14
BRANCH   7  21
HETATM   21  C   UNL     1     -10.433  15.877  67.201  1.00  0.00    -0.313 C  
BRANCH  21  22
HETATM   22  C   UNL     1     -11.028  14.702  66.394  1.00  0.00    -0.325 C  
BRANCH  22  23
HETATM   23  C   UNL     1     -12.185  13.905  67.011  1.00  0.00    -0.355 C  
HETATM   24  O   UNL     1     -11.805  12.549  67.245  1.00  0.00    -0.402 OA 
HETATM   25  H   UNL     1     -12.521  12.055  67.627  1.00  0.00     0.000 HD 
BRANCH  23  26
HETATM   26  C   UNL     1     -12.522  14.540  68.380  1.00  0.00     0.188 C  
BRANCH  26  27
HETATM   27  C   UNL     1     -12.208  13.657  69.594  1.00  0.00    -0.270 C  
HETATM   28  O   UNL     1     -10.794  13.436  69.713  1.00  0.00    -0.439 OA 
HETATM   29  H   UNL     1     -10.599  12.889  70.465  1.00  0.00     0.000 HD 
BRANCH  27  30
HETATM   30  C   UNL     1     -12.665  14.339  70.887  1.00  0.00    -0.427 C  
HETATM   31  C   UNL     1     -11.624  15.265  71.472  1.00  0.00    -0.396 C  
HETATM   32  O   UNL     1     -10.935  15.983  70.558  1.00  0.00    -0.335 OA 
HETATM   33  O   UNL     1     -11.467  15.416  72.675  1.00  0.00    -0.459 OA 
ENDBRANCH  27  30
ENDBRANCH  26  27
ENDBRANCH  23  26
ENDBRANCH  22  23
ENDBRANCH  21  22
ENDBRANCH   7  21
TORSDOF 8
ENDMDL
MODEL      143
REMARK 921   NORMALIZED FREE ENERGY PREDICTED BY IDOCK:   -5.07 KCAL/MOL
REMARK 922        TOTAL FREE ENERGY PREDICTED BY IDOCK:   -8.90 KCAL/MOL
REMARK 923 INTER-LIGAND FREE ENERGY PREDICTED BY IDOCK:   -7.58 KCAL/MOL
REMARK 924 INTRA-LIGAND FREE ENERGY PREDICTED BY IDOCK:   -1.32 KCAL/MOL
REMARK 927      BINDING AFFINITY PREDICTED BY RF-SCORE:    0.00 PKD
ROOT
HETATM    1  C   UNL     1     -10.947  10.312  70.266  1.00  0.00    -0.375 C  
HETATM    2  C   UNL     1     -10.828  11.284  69.030  1.00  0.00    -0.222 C  
HETATM    3  C   UNL     1     -12.214  10.600  71.082  1.00  0.00    -0.479 C  
HETATM    4  C   UNL     1     -11.906  12.380  68.884  1.00  0.00    -0.350 C  
HETATM    5  C   UNL     1     -12.391  12.932  70.211  1.00  0.00    -0.223 C  
HETATM    6  C   UNL     1      -9.947   7.723  72.263  1.00  0.00    -0.259 C  
HETATM    7  C   UNL     1     -10.697   8.784  69.987  1.00  0.00    -0.236 C  
HETATM    8  C   UNL     1     -12.801  11.814  71.107  1.00  0.00    -0.365 C  
HETATM    9  O   UNL     1     -11.383  13.719  70.822  1.00  0.00    -0.441 OA 
HETATM   10  C   UNL     1     -11.058   7.881  71.219  1.00  0.00    -0.278 C  
HETATM   11  C   UNL     1     -12.300   8.313  71.932  1.00  0.00    -0.379 C  
HETATM   12  H   UNL     1     -11.686  14.065  71.653  1.00  0.00     0.000 HD 
HETATM   13  C   UNL     1     -12.804   9.544  71.873  1.00  0.00    -0.508 C  
ENDROOT
BRANCH   2  14
HETATM   14  O   UNL     1     -10.590  10.660  67.744  1.00  0.00    -0.201 OA 
BRANCH  14  15
HETATM   15  C   UNL     1     -10.038  11.370  66.719  1.00  0.00    -0.216 C  
HETATM   16  C   UNL     1     -11.176  12.094  64.632  1.00  0.00    -0.374 C  
HETATM   17  C   UNL     1      -9.556  10.164  64.580  1.00  0.00    -0.379 C  
HETATM   18  O   UNL     1      -9.185  12.242  66.832  1.00  0.00    -0.197 OA 
HETATM   19  C   UNL     1     -10.622  10.898  65.402  1.00  0.00    -0.243 C  
HETATM   20  C   UNL     1      -9.114   8.857  65.224  1.00  0.00    -0.196 C  
ENDBRANCH  14  15
ENDBRANCH   2  14
BRANCH   7  21
HETATM   21  C   UNL     1      -9.270   8.433  69.438  1.00  0.00    -0.154 C  
BRANCH  21  22
HETATM   22  C   UNL     1      -9.388   7.555  68.173  1.00  0.00    -0.137 C  
BRANCH  22  23
HETATM   23  C   UNL     1      -9.317   6.031  68.334  1.00  0.00    -0.119 C  
HETATM   24  O   UNL     1     -10.587   5.496  68.711  1.00  0.00    -0.212 OA 
HETATM   25  H   UNL     1     -10.543   4.552  68.811  1.00  0.00     0.000 HD 
BRANCH  23  26
HETATM   26  C   UNL     1      -8.943   5.425  66.962  1.00  0.00    -0.112 C  
BRANCH  26  27
HETATM   27  C   UNL     1      -8.723   3.907  66.967  1.00  0.00    -0.111 C  
HETATM   28  O   UNL     1      -9.956   3.213  67.214  1.00  0.00    -0.245 OA 
HETATM   29  H   UNL     1      -9.819   2.273  67.217  1.00  0.00     0.000 HD 
BRANCH  27  30
HETATM   30  C   UNL     1      -8.208   3.434  65.604  1.00  0.00    -0.097 C  
HETATM   31  C   UNL     1      -9.314   3.175  64.607  1.00  0.00    -0.146 C  
HETATM   32  O   UNL     1     -10.331   4.064  64.654  1.00  0.00    -0.228 OA 
HETATM   33  O   UNL     1      -9.262   2.285  63.771  1.00  0.00    -0.095 OA 
ENDBRANCH  27  30
ENDBRANCH  26  27
ENDBRANCH  23  26
ENDBRANCH  22  23
ENDBRANCH  21  22
ENDBRANCH   7  21
TORSDOF 8
ENDMDL
MODEL      144
REMARK 921   NORMALIZED FREE ENERGY PREDICTED BY IDOCK:   -5.06 KCAL/MOL
REMARK 922        TOTAL FREE ENERGY PREDICTED BY IDOCK:   -8.88 KCAL/MOL
REMARK 923 INTER-LIGAND FREE ENERGY PREDICTED BY IDOCK:   -7.16 KCAL/MOL
REMARK 924 INTRA-LIGAND FREE ENERGY PREDICTED BY IDOCK:   -1.72 KCAL/MOL
REMARK 927      BINDING AFFINITY PREDICTED BY RF-SCORE:    0.00 PKD
ROOT
HETATM    1  C   UNL     1      -7.016  13.372  68.788  1.00  0.00    -0.103 C  
HETATM    2  C   UNL     1      -6.927  11.935  68.142  1.00  0.00    -0.078 C  
HETATM    3  C   UNL     1      -5.960  13.555  69.886  1.00  0.00    -0.130 C  
HETATM    4  C   UNL     1      -5.898  10.951  68.741  1.00  0.00    -0.039 C  
HETATM    5  C   UNL     1      -5.726  11.097  70.240  1.00  0.00    -0.128 C  
HETATM    6  C   UNL     1      -8.274  16.533  69.118  1.00  0.00    -0.159 C  
HETATM    7  C   UNL     1      -7.126  14.586  67.793  1.00  0.00    -0.190 C  
HETATM    8  C   UNL     1      -5.453  12.520  70.585  1.00  0.00    -0.169 C  
HETATM    9  O   UNL     1      -6.875  10.627  70.923  1.00  0.00    -0.406 OA 
HETATM   10  C   UNL     1      -6.981  15.970  68.517  1.00  0.00    -0.131 C  
HETATM   11  C   UNL     1      -5.936  15.978  69.587  1.00  0.00    -0.162 C  
HETATM   12  H   UNL     1      -6.767  10.718  71.863  1.00  0.00     0.000 HD 
HETATM   13  C   UNL     1      -5.493  14.885  70.205  1.00  0.00    -0.124 C  
ENDROOT
BRANCH   2  14
HETATM   14  O   UNL     1      -6.863  11.885  66.695  1.00  0.00    -0.058 OA 
BRANCH  14  15
HETATM   15  C   UNL     1      -7.174  10.739  66.025  1.00  0.00    -0.105 C  
HETATM   16  C   UNL     1      -8.933  10.462  64.293  1.00  0.00    -0.249 C  
HETATM   17  C   UNL     1      -9.305   9.572  66.621  1.00  0.00    -0.207 C  
HETATM   18  O   UNL     1      -6.379   9.871  65.688  1.00  0.00    -0.072 OA 
HETATM   19  C   UNL     1      -8.669  10.684  65.780  1.00  0.00    -0.192 C  
HETATM   20  C   UNL     1      -9.234   9.851  68.116  1.00  0.00    -0.131 C  
ENDBRANCH  14  15
ENDBRANCH   2  14
BRANCH   7  21
HETATM   21  C   UNL     1      -8.390  14.571  66.864  1.00  0.00    -0.133 C  
BRANCH  21  22
HETATM   22  C   UNL     1      -9.620  14.062  67.647  1.00  0.00    -0.221 C  
BRANCH  22  23
HETATM   23  C   UNL     1     -10.934  14.846  67.532  1.00  0.00    -0.302 C  
HETATM   24  O   UNL     1     -10.907  15.727  66.408  1.00  0.00    -0.301 OA 
HETATM   25  H   UNL     1     -11.721  16.212  66.337  1.00  0.00     0.000 HD 
BRANCH  23  26
HETATM   26  C   UNL     1     -12.076  13.830  67.304  1.00  0.00    -0.393 C  
BRANCH  26  27
HETATM   27  C   UNL     1     -11.662  12.551  66.565  1.00  0.00    -0.391 C  
HETATM   28  O   UNL     1     -11.991  11.385  67.336  1.00  0.00    -0.606 OA 
HETATM   29  H   UNL     1     -11.734  10.594  66.878  1.00  0.00     0.000 HD 
BRANCH  27  30
HETATM   30  C   UNL     1     -12.410  12.434  65.234  1.00  0.00    -0.357 C  
HETATM   31  C   UNL     1     -11.920  13.409  64.189  1.00  0.00    -0.450 C  
HETATM   32  O   UNL     1     -10.582  13.594  64.176  1.00  0.00    -0.320 OA 
HETATM   33  O   UNL     1     -12.659  13.932  63.366  1.00  0.00    -0.853 OA 
ENDBRANCH  27  30
ENDBRANCH  26  27
ENDBRANCH  23  26
ENDBRANCH  22  23
ENDBRANCH  21  22
ENDBRANCH   7  21
TORSDOF 8
ENDMDL
MODEL      145
REMARK 921   NORMALIZED FREE ENERGY PREDICTED BY IDOCK:   -5.04 KCAL/MOL
REMARK 922        TOTAL FREE ENERGY PREDICTED BY IDOCK:   -8.85 KCAL/MOL
REMARK 923 INTER-LIGAND FREE ENERGY PREDICTED BY IDOCK:   -7.42 KCAL/MOL
REMARK 924 INTRA-LIGAND FREE ENERGY PREDICTED BY IDOCK:   -1.42 KCAL/MOL
REMARK 927      BINDING AFFINITY PREDICTED BY RF-SCORE:    0.00 PKD
ROOT
HETATM    1  C   UNL     1     -10.531   7.881  69.209  1.00  0.00    -0.221 C  
HETATM    2  C   UNL     1      -9.635   8.048  67.922  1.00  0.00    -0.155 C  
HETATM    3  C   UNL     1     -10.738   6.402  69.556  1.00  0.00    -0.347 C  
HETATM    4  C   UNL     1      -9.195   6.759  67.193  1.00  0.00    -0.145 C  
HETATM    5  C   UNL     1     -10.238   5.659  67.227  1.00  0.00    -0.206 C  
HETATM    6  C   UNL     1     -12.352   9.021  71.869  1.00  0.00    -0.455 C  
HETATM    7  C   UNL     1     -10.165   8.786  70.444  1.00  0.00    -0.228 C  
HETATM    8  C   UNL     1     -10.684   5.424  68.629  1.00  0.00    -0.088 C  
HETATM    9  O   UNL     1     -11.341   5.992  66.401  1.00  0.00    -0.732 OA 
HETATM   10  C   UNL     1     -10.961   8.388  71.736  1.00  0.00    -0.359 C  
HETATM   11  C   UNL     1     -11.110   6.911  71.915  1.00  0.00    -0.278 C  
HETATM   12  H   UNL     1     -11.995   5.303  66.422  1.00  0.00     0.000 HD 
HETATM   13  C   UNL     1     -11.020   6.026  70.924  1.00  0.00    -0.355 C  
ENDROOT
BRANCH   2  14
HETATM   14  O   UNL     1      -8.507   8.951  68.037  1.00  0.00    -0.124 OA 
BRANCH  14  15
HETATM   15  C   UNL     1      -7.242   8.467  68.186  1.00  0.00    -0.091 C  
HETATM   16  C   UNL     1      -6.523   6.629  69.697  1.00  0.00    -0.044 C  
HETATM   17  C   UNL     1      -6.011   9.024  70.292  1.00  0.00    -0.034 C  
HETATM   18  O   UNL     1      -6.402   8.379  67.299  1.00  0.00    -0.055 OA 
HETATM   19  C   UNL     1      -7.016   8.073  69.632  1.00  0.00    -0.049 C  
HETATM   20  C   UNL     1      -6.544  10.445  70.424  1.00  0.00    -0.121 C  
ENDBRANCH  14  15
ENDBRANCH   2  14
BRANCH   7  21
HETATM   21  C   UNL     1     -10.255  10.330  70.186  1.00  0.00    -0.150 C  
BRANCH  21  22
HETATM   22  C   UNL     1     -11.397  10.638  69.193  1.00  0.00    -0.338 C  
BRANCH  22  23
HETATM   23  C   UNL     1     -12.220  11.917  69.402  1.00  0.00    -0.125 C  
HETATM   24  O   UNL     1     -12.103  12.387  70.745  1.00  0.00    -0.456 OA 
HETATM   25  H   UNL     1     -12.613  13.178  70.874  1.00  0.00     0.000 HD 
BRANCH  23  26
HETATM   26  C   UNL     1     -11.644  13.010  68.472  1.00  0.00    -0.363 C  
BRANCH  26  27
HETATM   27  C   UNL     1     -11.066  14.232  69.196  1.00  0.00    -0.262 C  
HETATM   28  O   UNL     1      -9.631  14.212  69.168  1.00  0.00    -0.406 OA 
HETATM   29  H   UNL     1      -9.274  14.969  69.617  1.00  0.00     0.000 HD 
BRANCH  27  30
HETATM   30  C   UNL     1     -11.510  15.525  68.504  1.00  0.00    -0.369 C  
HETATM   31  C   UNL     1     -10.545  15.990  67.438  1.00  0.00    -0.316 C  
HETATM   32  O   UNL     1     -10.009  14.998  66.694  1.00  0.00    -0.243 OA 
HETATM   33  O   UNL     1     -10.325  17.171  67.208  1.00  0.00    -0.310 OA 
ENDBRANCH  27  30
ENDBRANCH  26  27
ENDBRANCH  23  26
ENDBRANCH  22  23
ENDBRANCH  21  22
ENDBRANCH   7  21
TORSDOF 8
ENDMDL
MODEL      146
REMARK 921   NORMALIZED FREE ENERGY PREDICTED BY IDOCK:   -5.02 KCAL/MOL
REMARK 922        TOTAL FREE ENERGY PREDICTED BY IDOCK:   -8.83 KCAL/MOL
REMARK 923 INTER-LIGAND FREE ENERGY PREDICTED BY IDOCK:   -7.33 KCAL/MOL
REMARK 924 INTRA-LIGAND FREE ENERGY PREDICTED BY IDOCK:   -1.50 KCAL/MOL
REMARK 927      BINDING AFFINITY PREDICTED BY RF-SCORE:    0.00 PKD
ROOT
HETATM    1  C   UNL     1      -9.691  15.487  66.525  1.00  0.00    -0.290 C  
HETATM    2  C   UNL     1      -8.419  16.349  66.886  1.00  0.00    -0.221 C  
HETATM    3  C   UNL     1     -10.638  16.255  65.595  1.00  0.00    -0.360 C  
HETATM    4  C   UNL     1      -8.366  17.795  66.344  1.00  0.00    -0.281 C  
HETATM    5  C   UNL     1      -9.722  18.470  66.290  1.00  0.00    -0.305 C  
HETATM    6  C   UNL     1     -11.637  12.678  66.603  1.00  0.00    -0.443 C  
HETATM    7  C   UNL     1      -9.432  13.998  66.091  1.00  0.00    -0.210 C  
HETATM    8  C   UNL     1     -10.694  17.602  65.566  1.00  0.00    -0.037 C  
HETATM    9  O   UNL     1     -10.188  18.761  67.596  1.00  0.00    -0.356 OA 
HETATM   10  C   UNL     1     -10.723  13.299  65.540  1.00  0.00    -0.299 C  
HETATM   11  C   UNL     1     -11.562  14.190  64.678  1.00  0.00    -0.414 C  
HETATM   12  H   UNL     1     -11.038  19.185  67.563  1.00  0.00     0.000 HD 
HETATM   13  C   UNL     1     -11.525  15.520  64.721  1.00  0.00    -0.314 C  
ENDROOT
BRANCH   2  14
HETATM   14  O   UNL     1      -7.134  15.708  66.693  1.00  0.00    -0.144 OA 
BRANCH  14  15
HETATM   15  C   UNL     1      -6.365  15.358  67.763  1.00  0.00    -0.161 C  
HETATM   16  C   UNL     1      -7.157  14.891  70.071  1.00  0.00    -0.045 C  
HETATM   17  C   UNL     1      -5.996  17.067  69.553  1.00  0.00    -0.216 C  
HETATM   18  O   UNL     1      -5.355  14.668  67.721  1.00  0.00    -0.253 OA 
HETATM   19  C   UNL     1      -6.936  15.978  69.023  1.00  0.00    -0.165 C  
HETATM   20  C   UNL     1      -5.898  18.266  68.620  1.00  0.00    -0.195 C  
ENDBRANCH  14  15
ENDBRANCH   2  14
BRANCH   7  21
HETATM   21  C   UNL     1      -8.732  13.102  67.172  1.00  0.00    -0.214 C  
BRANCH  21  22
HETATM   22  C   UNL     1      -8.521  11.674  66.624  1.00  0.00    -0.165 C  
BRANCH  22  23
HETATM   23  C   UNL     1      -8.788  10.487  67.560  1.00  0.00    -0.131 C  
HETATM   24  O   UNL     1      -7.566   9.955  68.073  1.00  0.00    -0.085 OA 
HETATM   25  H   UNL     1      -7.732   9.221  68.653  1.00  0.00     0.000 HD 
BRANCH  23  26
HETATM   26  C   UNL     1      -9.614  11.005  68.760  1.00  0.00    -0.194 C  
BRANCH  26  27
HETATM   27  C   UNL     1     -10.254   9.909  69.622  1.00  0.00    -0.237 C  
HETATM   28  O   UNL     1      -9.299   9.361  70.543  1.00  0.00    -0.237 OA 
HETATM   29  H   UNL     1      -9.696   8.682  71.076  1.00  0.00     0.000 HD 
BRANCH  27  30
HETATM   30  C   UNL     1     -11.403  10.484  70.455  1.00  0.00    -0.400 C  
HETATM   31  C   UNL     1     -12.269   9.419  71.087  1.00  0.00    -0.323 C  
HETATM   32  O   UNL     1     -11.591   8.348  71.553  1.00  0.00    -0.261 OA 
HETATM   33  O   UNL     1     -13.476   9.546  71.240  1.00  0.00    -0.370 OA 
ENDBRANCH  27  30
ENDBRANCH  26  27
ENDBRANCH  23  26
ENDBRANCH  22  23
ENDBRANCH  21  22
ENDBRANCH   7  21
TORSDOF 8
ENDMDL
MODEL      147
REMARK 921   NORMALIZED FREE ENERGY PREDICTED BY IDOCK:   -5.02 KCAL/MOL
REMARK 922        TOTAL FREE ENERGY PREDICTED BY IDOCK:   -8.83 KCAL/MOL
REMARK 923 INTER-LIGAND FREE ENERGY PREDICTED BY IDOCK:   -7.33 KCAL/MOL
REMARK 924 INTRA-LIGAND FREE ENERGY PREDICTED BY IDOCK:   -1.49 KCAL/MOL
REMARK 927      BINDING AFFINITY PREDICTED BY RF-SCORE:    0.00 PKD
ROOT
HETATM    1  C   UNL     1     -10.642  11.055  65.576  1.00  0.00    -0.267 C  
HETATM    2  C   UNL     1     -11.594  12.230  66.027  1.00  0.00    -0.393 C  
HETATM    3  C   UNL     1     -10.219  11.212  64.111  1.00  0.00    -0.405 C  
HETATM    4  C   UNL     1     -12.002  13.262  64.954  1.00  0.00    -0.417 C  
HETATM    5  C   UNL     1     -12.178  12.661  63.573  1.00  0.00    -0.547 C  
HETATM    6  C   UNL     1      -8.829   8.197  66.056  1.00  0.00    -0.206 C  
HETATM    7  C   UNL     1      -9.462  10.691  66.551  1.00  0.00    -0.199 C  
HETATM    8  C   UNL     1     -10.970  11.871  63.205  1.00  0.00    -0.281 C  
HETATM    9  O   UNL     1     -13.339  11.850  63.526  1.00  0.00    -0.605 OA 
HETATM   10  C   UNL     1      -8.449   9.676  65.915  1.00  0.00    -0.136 C  
HETATM   11  C   UNL     1      -8.166   9.941  64.470  1.00  0.00    -0.162 C  
HETATM   12  H   UNL     1     -13.450  11.473  62.661  1.00  0.00     0.000 HD 
HETATM   13  C   UNL     1      -8.976  10.623  63.663  1.00  0.00    -0.211 C  
ENDROOT
BRANCH   2  14
HETATM   14  O   UNL     1     -11.230  12.917  67.250  1.00  0.00    -0.264 OA 
BRANCH  14  15
HETATM   15  C   UNL     1     -10.880  14.234  67.229  1.00  0.00    -0.284 C  
HETATM   16  C   UNL     1      -9.626  15.408  65.434  1.00  0.00    -0.161 C  
HETATM   17  C   UNL     1      -8.474  14.817  67.596  1.00  0.00    -0.185 C  
HETATM   18  O   UNL     1     -11.540  15.156  67.691  1.00  0.00    -0.336 OA 
HETATM   19  C   UNL     1      -9.526  14.389  66.566  1.00  0.00    -0.309 C  
HETATM   20  C   UNL     1      -8.201  13.742  68.639  1.00  0.00    -0.077 C  
ENDBRANCH  14  15
ENDBRANCH   2  14
BRANCH   7  21
HETATM   21  C   UNL     1      -9.901  10.219  67.980  1.00  0.00    -0.171 C  
BRANCH  21  22
HETATM   22  C   UNL     1      -8.703  10.283  68.953  1.00  0.00    -0.152 C  
BRANCH  22  23
HETATM   23  C   UNL     1      -8.288   8.999  69.684  1.00  0.00    -0.125 C  
HETATM   24  O   UNL     1      -6.920   8.682  69.424  1.00  0.00    -0.051 OA 
HETATM   25  H   UNL     1      -6.663   7.887  69.877  1.00  0.00     0.000 HD 
BRANCH  23  26
HETATM   26  C   UNL     1      -8.431   9.249  71.203  1.00  0.00    -0.081 C  
BRANCH  26  27
HETATM   27  C   UNL     1      -9.748   8.756  71.816  1.00  0.00    -0.310 C  
HETATM   28  O   UNL     1     -10.812   9.685  71.557  1.00  0.00    -0.329 OA 
HETATM   29  H   UNL     1     -11.627   9.380  71.937  1.00  0.00     0.000 HD 
BRANCH  27  30
HETATM   30  C   UNL     1     -10.160   7.418  71.197  1.00  0.00    -0.189 C  
HETATM   31  C   UNL     1      -9.838   6.232  72.076  1.00  0.00    -0.157 C  
HETATM   32  O   UNL     1     -10.046   6.438  73.395  1.00  0.00    -0.179 OA 
HETATM   33  O   UNL     1      -9.494   5.146  71.631  1.00  0.00    -0.144 OA 
ENDBRANCH  27  30
ENDBRANCH  26  27
ENDBRANCH  23  26
ENDBRANCH  22  23
ENDBRANCH  21  22
ENDBRANCH   7  21
TORSDOF 8
ENDMDL
MODEL      148
REMARK 921   NORMALIZED FREE ENERGY PREDICTED BY IDOCK:   -4.99 KCAL/MOL
REMARK 922        TOTAL FREE ENERGY PREDICTED BY IDOCK:   -8.78 KCAL/MOL
REMARK 923 INTER-LIGAND FREE ENERGY PREDICTED BY IDOCK:   -6.74 KCAL/MOL
REMARK 924 INTRA-LIGAND FREE ENERGY PREDICTED BY IDOCK:   -2.04 KCAL/MOL
REMARK 927      BINDING AFFINITY PREDICTED BY RF-SCORE:    0.00 PKD
ROOT
HETATM    1  C   UNL     1      -8.486  12.591  67.504  1.00  0.00    -0.177 C  
HETATM    2  C   UNL     1      -8.785  13.990  68.168  1.00  0.00    -0.180 C  
HETATM    3  C   UNL     1      -7.024  12.177  67.712  1.00  0.00    -0.109 C  
HETATM    4  C   UNL     1      -7.598  14.733  68.820  1.00  0.00    -0.137 C  
HETATM    5  C   UNL     1      -6.284  14.529  68.092  1.00  0.00    -0.142 C  
HETATM    6  C   UNL     1      -9.312   9.747  65.796  1.00  0.00    -0.278 C  
HETATM    7  C   UNL     1      -9.525  11.442  67.783  1.00  0.00    -0.167 C  
HETATM    8  C   UNL     1      -6.033  13.074  67.893  1.00  0.00    -0.130 C  
HETATM    9  O   UNL     1      -6.291  15.211  66.850  1.00  0.00    -0.173 OA 
HETATM   10  C   UNL     1      -9.026  10.045  67.273  1.00  0.00    -0.144 C  
HETATM   11  C   UNL     1      -7.570   9.806  67.516  1.00  0.00    -0.091 C  
HETATM   12  H   UNL     1      -5.467  15.084  66.393  1.00  0.00     0.000 HD 
HETATM   13  C   UNL     1      -6.675  10.774  67.699  1.00  0.00    -0.069 C  
ENDROOT
BRANCH   2  14
HETATM   14  O   UNL     1      -9.938  14.052  69.043  1.00  0.00    -0.151 OA 
BRANCH  14  15
HETATM   15  C   UNL     1     -10.907  14.992  68.851  1.00  0.00    -0.243 C  
HETATM   16  C   UNL     1     -10.590  17.455  68.775  1.00  0.00    -0.283 C  
HETATM   17  C   UNL     1     -11.605  16.377  70.814  1.00  0.00    -0.156 C  
HETATM   18  O   UNL     1     -11.896  14.863  68.141  1.00  0.00    -0.330 OA 
HETATM   19  C   UNL     1     -10.590  16.223  69.676  1.00  0.00    -0.320 C  
HETATM   20  C   UNL     1     -11.505  15.263  71.847  1.00  0.00    -0.504 C  
ENDBRANCH  14  15
ENDBRANCH   2  14
BRANCH   7  21
HETATM   21  C   UNL     1     -10.983  11.730  67.284  1.00  0.00    -0.318 C  
BRANCH  21  22
HETATM   22  C   UNL     1     -12.010  11.130  68.270  1.00  0.00    -0.173 C  
BRANCH  22  23
HETATM   23  C   UNL     1     -11.582  10.912  69.727  1.00  0.00    -0.322 C  
HETATM   24  O   UNL     1     -11.476  12.156  70.421  1.00  0.00    -0.491 OA 
HETATM   25  H   UNL     1     -11.211  12.021  71.323  1.00  0.00     0.000 HD 
BRANCH  23  26
HETATM   26  C   UNL     1     -12.680  10.078  70.425  1.00  0.00    -0.111 C  
BRANCH  26  27
HETATM   27  C   UNL     1     -12.177   8.811  71.129  1.00  0.00    -0.244 C  
HETATM   28  O   UNL     1     -13.099   7.725  70.947  1.00  0.00    -0.545 OA 
HETATM   29  H   UNL     1     -12.787   6.941  71.383  1.00  0.00     0.000 HD 
BRANCH  27  30
HETATM   30  C   UNL     1     -10.836   8.365  70.537  1.00  0.00    -0.250 C  
HETATM   31  C   UNL     1      -9.986   7.585  71.513  1.00  0.00    -0.177 C  
HETATM   32  O   UNL     1     -10.676   6.728  72.298  1.00  0.00    -0.210 OA 
HETATM   33  O   UNL     1      -8.766   7.658  71.541  1.00  0.00    -0.117 OA 
ENDBRANCH  27  30
ENDBRANCH  26  27
ENDBRANCH  23  26
ENDBRANCH  22  23
ENDBRANCH  21  22
ENDBRANCH   7  21
TORSDOF 8
ENDMDL
MODEL      149
REMARK 921   NORMALIZED FREE ENERGY PREDICTED BY IDOCK:   -4.99 KCAL/MOL
REMARK 922        TOTAL FREE ENERGY PREDICTED BY IDOCK:   -8.78 KCAL/MOL
REMARK 923 INTER-LIGAND FREE ENERGY PREDICTED BY IDOCK:   -6.56 KCAL/MOL
REMARK 924 INTRA-LIGAND FREE ENERGY PREDICTED BY IDOCK:   -2.22 KCAL/MOL
REMARK 927      BINDING AFFINITY PREDICTED BY RF-SCORE:    0.00 PKD
ROOT
HETATM    1  C   UNL     1      -9.675  14.034  67.468  1.00  0.00    -0.232 C  
HETATM    2  C   UNL     1      -8.466  15.033  67.295  1.00  0.00    -0.198 C  
HETATM    3  C   UNL     1     -10.887  14.477  66.639  1.00  0.00    -0.311 C  
HETATM    4  C   UNL     1      -8.704  16.289  66.427  1.00  0.00    -0.354 C  
HETATM    5  C   UNL     1     -10.109  16.846  66.542  1.00  0.00    -0.315 C  
HETATM    6  C   UNL     1     -11.211  11.232  68.682  1.00  0.00    -0.310 C  
HETATM    7  C   UNL     1      -9.343  12.501  67.352  1.00  0.00    -0.187 C  
HETATM    8  C   UNL     1     -11.106  15.765  66.303  1.00  0.00    -0.073 C  
HETATM    9  O   UNL     1     -10.308  17.439  67.814  1.00  0.00    -0.328 OA 
HETATM   10  C   UNL     1     -10.633  11.609  67.313  1.00  0.00    -0.265 C  
HETATM   11  C   UNL     1     -11.739  12.194  66.492  1.00  0.00    -0.392 C  
HETATM   12  H   UNL     1     -11.189  17.788  67.886  1.00  0.00     0.000 HD 
HETATM   13  C   UNL     1     -11.850  13.490  66.206  1.00  0.00    -0.431 C  
ENDROOT
BRANCH   2  14
HETATM   14  O   UNL     1      -7.188  14.441  66.955  1.00  0.00    -0.057 OA 
BRANCH  14  15
HETATM   15  C   UNL     1      -6.177  14.399  67.870  1.00  0.00    -0.156 C  
HETATM   16  C   UNL     1      -6.395  14.626  70.334  1.00  0.00    -0.153 C  
HETATM   17  C   UNL     1      -5.497  16.543  68.967  1.00  0.00    -0.128 C  
HETATM   18  O   UNL     1      -5.169  13.709  67.789  1.00  0.00    -0.211 OA 
HETATM   19  C   UNL     1      -6.476  15.364  69.000  1.00  0.00    -0.113 C  
HETATM   20  C   UNL     1      -5.677  17.422  67.737  1.00  0.00    -0.140 C  
ENDBRANCH  14  15
ENDBRANCH   2  14
BRANCH   7  21
HETATM   21  C   UNL     1      -8.323  11.960  68.414  1.00  0.00    -0.157 C  
BRANCH  21  22
HETATM   22  C   UNL     1      -7.436  10.861  67.788  1.00  0.00    -0.094 C  
BRANCH  22  23
HETATM   23  C   UNL     1      -7.157  10.921  66.280  1.00  0.00    -0.119 C  
HETATM   24  O   UNL     1      -5.878  11.499  66.019  1.00  0.00    -0.445 OA 
HETATM   25  H   UNL     1      -5.705  11.535  65.085  1.00  0.00     0.000 HD 
BRANCH  23  26
HETATM   26  C   UNL     1      -7.135   9.471  65.743  1.00  0.00    -0.096 C  
BRANCH  26  27
HETATM   27  C   UNL     1      -8.504   8.782  65.690  1.00  0.00    -0.160 C  
HETATM   28  O   UNL     1      -9.056   8.842  64.366  1.00  0.00    -0.423 OA 
HETATM   29  H   UNL     1      -9.904   8.416  64.334  1.00  0.00     0.000 HD 
BRANCH  27  30
HETATM   30  C   UNL     1      -8.375   7.300  66.056  1.00  0.00    -0.140 C  
HETATM   31  C   UNL     1      -9.429   6.835  67.032  1.00  0.00    -0.146 C  
HETATM   32  O   UNL     1     -10.659   7.355  66.821  1.00  0.00    -0.310 OA 
HETATM   33  O   UNL     1      -9.215   5.995  67.895  1.00  0.00    -0.114 OA 
ENDBRANCH  27  30
ENDBRANCH  26  27
ENDBRANCH  23  26
ENDBRANCH  22  23
ENDBRANCH  21  22
ENDBRANCH   7  21
TORSDOF 8
ENDMDL
MODEL      150
REMARK 921   NORMALIZED FREE ENERGY PREDICTED BY IDOCK:   -4.99 KCAL/MOL
REMARK 922        TOTAL FREE ENERGY PREDICTED BY IDOCK:   -8.77 KCAL/MOL
REMARK 923 INTER-LIGAND FREE ENERGY PREDICTED BY IDOCK:   -6.37 KCAL/MOL
REMARK 924 INTRA-LIGAND FREE ENERGY PREDICTED BY IDOCK:   -2.40 KCAL/MOL
REMARK 927      BINDING AFFINITY PREDICTED BY RF-SCORE:    0.00 PKD
ROOT
HETATM    1  C   UNL     1     -10.825   7.681  69.689  1.00  0.00    -0.195 C  
HETATM    2  C   UNL     1     -11.222   6.448  70.590  1.00  0.00    -0.339 C  
HETATM    3  C   UNL     1     -10.172   8.792  70.520  1.00  0.00    -0.240 C  
HETATM    4  C   UNL     1     -10.982   6.576  72.111  1.00  0.00    -0.283 C  
HETATM    5  C   UNL     1     -11.205   7.979  72.641  1.00  0.00    -0.397 C  
HETATM    6  C   UNL     1     -10.528   9.372  66.733  1.00  0.00    -0.265 C  
HETATM    7  C   UNL     1     -10.073   7.357  68.345  1.00  0.00    -0.196 C  
HETATM    8  C   UNL     1     -10.423   8.958  71.835  1.00  0.00    -0.415 C  
HETATM    9  O   UNL     1     -12.583   8.306  72.626  1.00  0.00    -0.582 OA 
HETATM   10  C   UNL     1      -9.526   8.646  67.638  1.00  0.00    -0.169 C  
HETATM   11  C   UNL     1      -8.954   9.651  68.587  1.00  0.00    -0.129 C  
HETATM   12  H   UNL     1     -12.723   9.185  72.959  1.00  0.00     0.000 HD 
HETATM   13  C   UNL     1      -9.262   9.715  69.881  1.00  0.00    -0.255 C  
ENDROOT
BRANCH   2  14
HETATM   14  O   UNL     1     -10.772   5.148  70.134  1.00  0.00    -0.239 OA 
BRANCH  14  15
HETATM   15  C   UNL     1      -9.603   4.618  70.592  1.00  0.00    -0.191 C  
HETATM   16  C   UNL     1      -8.698   2.360  70.085  1.00  0.00    -0.121 C  
HETATM   17  C   UNL     1      -9.730   2.828  72.337  1.00  0.00    -0.213 C  
HETATM   18  O   UNL     1      -8.569   5.240  70.800  1.00  0.00    -0.124 OA 
HETATM   19  C   UNL     1      -9.781   3.132  70.835  1.00  0.00    -0.170 C  
HETATM   20  C   UNL     1     -10.908   3.422  73.098  1.00  0.00    -0.246 C  
ENDBRANCH  14  15
ENDBRANCH   2  14
BRANCH   7  21
HETATM   21  C   UNL     1     -10.872   6.463  67.335  1.00  0.00    -0.457 C  
BRANCH  21  22
HETATM   22  C   UNL     1      -9.896   5.682  66.428  1.00  0.00    -0.184 C  
BRANCH  22  23
HETATM   23  C   UNL     1      -9.529   4.244  66.821  1.00  0.00    -0.186 C  
HETATM   24  O   UNL     1     -10.014   3.310  65.855  1.00  0.00    -0.399 OA 
HETATM   25  H   UNL     1      -9.786   2.420  66.098  1.00  0.00     0.000 HD 
BRANCH  23  26
HETATM   26  C   UNL     1      -7.986   4.137  66.842  1.00  0.00    -0.097 C  
BRANCH  26  27
HETATM   27  C   UNL     1      -7.274   5.255  67.615  1.00  0.00    -0.071 C  
HETATM   28  O   UNL     1      -6.441   4.711  68.650  1.00  0.00    -0.035 OA 
HETATM   29  H   UNL     1      -6.001   5.403  69.128  1.00  0.00     0.000 HD 
BRANCH  27  30
HETATM   30  C   UNL     1      -6.362   6.056  66.680  1.00  0.00    -0.045 C  
HETATM   31  C   UNL     1      -6.119   7.470  67.156  1.00  0.00    -0.051 C  
HETATM   32  O   UNL     1      -5.962   7.593  68.493  1.00  0.00    -0.029 OA 
HETATM   33  O   UNL     1      -5.992   8.417  66.394  1.00  0.00    -0.046 OA 
ENDBRANCH  27  30
ENDBRANCH  26  27
ENDBRANCH  23  26
ENDBRANCH  22  23
ENDBRANCH  21  22
ENDBRANCH   7  21
TORSDOF 8
ENDMDL
MODEL      151
REMARK 921   NORMALIZED FREE ENERGY PREDICTED BY IDOCK:   -4.96 KCAL/MOL
REMARK 922        TOTAL FREE ENERGY PREDICTED BY IDOCK:   -8.74 KCAL/MOL
REMARK 923 INTER-LIGAND FREE ENERGY PREDICTED BY IDOCK:   -7.15 KCAL/MOL
REMARK 924 INTRA-LIGAND FREE ENERGY PREDICTED BY IDOCK:   -1.59 KCAL/MOL
REMARK 927      BINDING AFFINITY PREDICTED BY RF-SCORE:    0.00 PKD
ROOT
HETATM    1  C   UNL     1      -9.719   7.473  70.427  1.00  0.00    -0.179 C  
HETATM    2  C   UNL     1      -8.518   7.567  69.408  1.00  0.00    -0.133 C  
HETATM    3  C   UNL     1      -9.372   6.567  71.616  1.00  0.00    -0.147 C  
HETATM    4  C   UNL     1      -7.269   6.707  69.705  1.00  0.00    -0.078 C  
HETATM    5  C   UNL     1      -7.593   5.370  70.340  1.00  0.00    -0.076 C  
HETATM    6  C   UNL     1     -12.842   8.232  71.593  1.00  0.00    -0.350 C  
HETATM    7  C   UNL     1     -10.406   8.829  70.832  1.00  0.00    -0.281 C  
HETATM    8  C   UNL     1      -8.469   5.570  71.529  1.00  0.00    -0.127 C  
HETATM    9  O   UNL     1      -8.214   4.508  69.401  1.00  0.00    -0.068 OA 
HETATM   10  C   UNL     1     -11.428   8.657  72.010  1.00  0.00    -0.437 C  
HETATM   11  C   UNL     1     -10.961   7.713  73.073  1.00  0.00    -0.457 C  
HETATM   12  H   UNL     1      -8.417   3.669  69.799  1.00  0.00     0.000 HD 
HETATM   13  C   UNL     1     -10.043   6.768  72.880  1.00  0.00    -0.201 C  
ENDROOT
BRANCH   2  14
HETATM   14  O   UNL     1      -8.110   8.902  69.019  1.00  0.00    -0.110 OA 
BRANCH  14  15
HETATM   15  C   UNL     1      -7.585   9.134  67.782  1.00  0.00    -0.085 C  
HETATM   16  C   UNL     1      -6.893  11.332  66.852  1.00  0.00    -0.134 C  
HETATM   17  C   UNL     1      -9.038  10.255  66.081  1.00  0.00    -0.181 C  
HETATM   18  O   UNL     1      -6.842   8.379  67.169  1.00  0.00    -0.068 OA 
HETATM   19  C   UNL     1      -8.083  10.468  67.262  1.00  0.00    -0.115 C  
HETATM   20  C   UNL     1     -10.332   9.564  66.488  1.00  0.00    -0.263 C  
ENDBRANCH  14  15
ENDBRANCH   2  14
BRANCH   7  21
HETATM   21  C   UNL     1     -11.051   9.628  69.646  1.00  0.00    -0.223 C  
BRANCH  21  22
HETATM   22  C   UNL     1     -10.797  11.141  69.823  1.00  0.00    -0.152 C  
BRANCH  22  23
HETATM   23  C   UNL     1     -11.676  12.124  69.038  1.00  0.00    -0.322 C  
HETATM   24  O   UNL     1     -12.138  13.181  69.879  1.00  0.00    -0.314 OA 
HETATM   25  H   UNL     1     -12.682  13.790  69.393  1.00  0.00     0.000 HD 
BRANCH  23  26
HETATM   26  C   UNL     1     -10.805  12.756  67.928  1.00  0.00    -0.242 C  
BRANCH  26  27
HETATM   27  C   UNL     1     -11.588  13.288  66.720  1.00  0.00    -0.365 C  
HETATM   28  O   UNL     1     -12.574  14.246  67.132  1.00  0.00    -0.546 OA 
HETATM   29  H   UNL     1     -13.059  14.575  66.385  1.00  0.00     0.000 HD 
BRANCH  27  30
HETATM   30  C   UNL     1     -10.649  14.003  65.744  1.00  0.00    -0.303 C  
HETATM   31  C   UNL     1     -10.515  15.482  66.023  1.00  0.00    -0.323 C  
HETATM   32  O   UNL     1     -10.470  15.804  67.335  1.00  0.00    -0.283 OA 
HETATM   33  O   UNL     1     -10.379  16.318  65.141  1.00  0.00    -0.587 OA 
ENDBRANCH  27  30
ENDBRANCH  26  27
ENDBRANCH  23  26
ENDBRANCH  22  23
ENDBRANCH  21  22
ENDBRANCH   7  21
TORSDOF 8
ENDMDL
MODEL      152
REMARK 921   NORMALIZED FREE ENERGY PREDICTED BY IDOCK:   -4.95 KCAL/MOL
REMARK 922        TOTAL FREE ENERGY PREDICTED BY IDOCK:   -8.72 KCAL/MOL
REMARK 923 INTER-LIGAND FREE ENERGY PREDICTED BY IDOCK:   -8.10 KCAL/MOL
REMARK 924 INTRA-LIGAND FREE ENERGY PREDICTED BY IDOCK:   -0.62 KCAL/MOL
REMARK 927      BINDING AFFINITY PREDICTED BY RF-SCORE:    0.00 PKD
ROOT
HETATM    1  C   UNL     1      -9.726   9.798  69.690  1.00  0.00    -0.242 C  
HETATM    2  C   UNL     1      -9.684   9.483  71.236  1.00  0.00     0.031 C  
HETATM    3  C   UNL     1      -8.676   8.982  68.926  1.00  0.00    -0.136 C  
HETATM    4  C   UNL     1      -8.589   8.512  71.731  1.00  0.00    -0.254 C  
HETATM    5  C   UNL     1      -7.284   8.633  70.967  1.00  0.00    -0.079 C  
HETATM    6  C   UNL     1     -10.943  11.331  66.887  1.00  0.00    -0.348 C  
HETATM    7  C   UNL     1     -11.147   9.813  69.013  1.00  0.00    -0.143 C  
HETATM    8  C   UNL     1      -7.541   8.537  69.503  1.00  0.00    -0.089 C  
HETATM    9  O   UNL     1      -6.632   9.851  71.282  1.00  0.00    -0.321 OA 
HETATM   10  C   UNL     1     -11.066   9.910  67.450  1.00  0.00    -0.101 C  
HETATM   11  C   UNL     1      -9.967   9.085  66.857  1.00  0.00    -0.313 C  
HETATM   12  H   UNL     1      -5.815   9.927  70.804  1.00  0.00     0.000 HD 
HETATM   13  C   UNL     1      -8.890   8.684  67.528  1.00  0.00    -0.139 C  
ENDROOT
BRANCH   2  14
HETATM   14  O   UNL     1     -10.949   9.148  71.857  1.00  0.00    -0.364 OA 
BRANCH  14  15
HETATM   15  C   UNL     1     -11.229   7.862  72.214  1.00  0.00    -0.331 C  
HETATM   16  C   UNL     1     -11.262   5.880  70.716  1.00  0.00    -0.281 C  
HETATM   17  C   UNL     1     -13.428   6.899  71.508  1.00  0.00    -0.290 C  
HETATM   18  O   UNL     1     -10.942   7.339  73.283  1.00  0.00    -0.352 OA 
HETATM   19  C   UNL     1     -11.979   7.175  71.090  1.00  0.00    -0.381 C  
HETATM   20  C   UNL     1     -14.237   8.173  71.703  1.00  0.00    -0.536 C  
ENDBRANCH  14  15
ENDBRANCH   2  14
BRANCH   7  21
HETATM   21  C   UNL     1     -12.146  10.877  69.587  1.00  0.00    -0.400 C  
BRANCH  21  22
HETATM   22  C   UNL     1     -11.424  12.227  69.795  1.00  0.00    -0.237 C  
BRANCH  22  23
HETATM   23  C   UNL     1     -12.255  13.436  70.246  1.00  0.00    -0.335 C  
HETATM   24  O   UNL     1     -11.699  14.029  71.420  1.00  0.00    -0.407 OA 
HETATM   25  H   UNL     1     -12.213  14.778  71.698  1.00  0.00     0.000 HD 
BRANCH  23  26
HETATM   26  C   UNL     1     -12.205  14.493  69.118  1.00  0.00    -0.234 C  
BRANCH  26  27
HETATM   27  C   UNL     1     -11.418  15.763  69.461  1.00  0.00    -0.353 C  
HETATM   28  O   UNL     1     -11.843  16.304  70.721  1.00  0.00    -0.525 OA 
HETATM   29  H   UNL     1     -11.355  17.091  70.933  1.00  0.00     0.000 HD 
BRANCH  27  30
HETATM   30  C   UNL     1      -9.924  15.452  69.587  1.00  0.00    -0.270 C  
HETATM   31  C   UNL     1      -9.052  16.378  68.772  1.00  0.00    -0.244 C  
HETATM   32  O   UNL     1      -9.456  17.667  68.765  1.00  0.00    -0.286 OA 
HETATM   33  O   UNL     1      -8.020  16.014  68.227  1.00  0.00    -0.139 OA 
ENDBRANCH  27  30
ENDBRANCH  26  27
ENDBRANCH  23  26
ENDBRANCH  22  23
ENDBRANCH  21  22
ENDBRANCH   7  21
TORSDOF 8
ENDMDL
MODEL      153
REMARK 921   NORMALIZED FREE ENERGY PREDICTED BY IDOCK:   -4.95 KCAL/MOL
REMARK 922        TOTAL FREE ENERGY PREDICTED BY IDOCK:   -8.72 KCAL/MOL
REMARK 923 INTER-LIGAND FREE ENERGY PREDICTED BY IDOCK:   -7.14 KCAL/MOL
REMARK 924 INTRA-LIGAND FREE ENERGY PREDICTED BY IDOCK:   -1.57 KCAL/MOL
REMARK 927      BINDING AFFINITY PREDICTED BY RF-SCORE:    0.00 PKD
ROOT
HETATM    1  C   UNL     1     -11.083  10.186  70.166  1.00  0.00    -0.378 C  
HETATM    2  C   UNL     1     -10.827  10.744  68.712  1.00  0.00    -0.221 C  
HETATM    3  C   UNL     1     -12.228  10.936  70.857  1.00  0.00    -0.485 C  
HETATM    4  C   UNL     1     -11.670  11.957  68.261  1.00  0.00    -0.385 C  
HETATM    5  C   UNL     1     -11.973  12.932  69.382  1.00  0.00    -0.269 C  
HETATM    6  C   UNL     1     -10.532   8.082  72.804  1.00  0.00    -0.415 C  
HETATM    7  C   UNL     1     -11.157   8.622  70.316  1.00  0.00    -0.230 C  
HETATM    8  C   UNL     1     -12.558  12.206  70.543  1.00  0.00    -0.184 C  
HETATM    9  O   UNL     1     -10.803  13.632  69.766  1.00  0.00    -0.455 OA 
HETATM   10  C   UNL     1     -11.635   8.178  71.743  1.00  0.00    -0.342 C  
HETATM   11  C   UNL     1     -12.733   9.030  72.296  1.00  0.00    -0.457 C  
HETATM   12  H   UNL     1     -10.993  14.243  70.469  1.00  0.00     0.000 HD 
HETATM   13  C   UNL     1     -12.982  10.276  71.899  1.00  0.00    -0.554 C  
ENDROOT
BRANCH   2  14
HETATM   14  O   UNL     1     -10.777   9.762  67.648  1.00  0.00    -0.260 OA 
BRANCH  14  15
HETATM   15  C   UNL     1      -9.963   9.948  66.570  1.00  0.00    -0.228 C  
HETATM   16  C   UNL     1      -8.236   8.374  65.725  1.00  0.00    -0.131 C  
HETATM   17  C   UNL     1      -7.547  10.440  66.994  1.00  0.00    -0.101 C  
HETATM   18  O   UNL     1     -10.267  10.534  65.538  1.00  0.00    -0.272 OA 
HETATM   19  C   UNL     1      -8.604   9.339  66.850  1.00  0.00    -0.132 C  
HETATM   20  C   UNL     1      -7.768  11.311  68.222  1.00  0.00    -0.122 C  
ENDBRANCH  14  15
ENDBRANCH   2  14
BRANCH   7  21
HETATM   21  C   UNL     1      -9.855   7.852  69.900  1.00  0.00    -0.182 C  
BRANCH  21  22
HETATM   22  C   UNL     1     -10.222   6.555  69.146  1.00  0.00    -0.208 C  
BRANCH  22  23
HETATM   23  C   UNL     1      -9.359   5.307  69.378  1.00  0.00    -0.126 C  
HETATM   24  O   UNL     1      -7.980   5.655  69.507  1.00  0.00    -0.089 OA 
HETATM   25  H   UNL     1      -7.446   4.883  69.651  1.00  0.00     0.000 HD 
BRANCH  23  26
HETATM   26  C   UNL     1      -9.806   4.662  70.710  1.00  0.00    -0.284 C  
BRANCH  26  27
HETATM   27  C   UNL     1      -9.455   3.176  70.855  1.00  0.00    -0.160 C  
HETATM   28  O   UNL     1      -8.066   2.948  70.573  1.00  0.00    -0.045 OA 
HETATM   29  H   UNL     1      -7.849   2.028  70.662  1.00  0.00     0.000 HD 
BRANCH  27  30
HETATM   30  C   UNL     1      -9.704   2.702  72.291  1.00  0.00    -0.213 C  
HETATM   31  C   UNL     1      -8.496   2.856  73.185  1.00  0.00    -0.079 C  
HETATM   32  O   UNL     1      -7.786   3.987  72.980  1.00  0.00    -0.081 OA 
HETATM   33  O   UNL     1      -8.223   2.066  74.078  1.00  0.00    -0.055 OA 
ENDBRANCH  27  30
ENDBRANCH  26  27
ENDBRANCH  23  26
ENDBRANCH  22  23
ENDBRANCH  21  22
ENDBRANCH   7  21
TORSDOF 8
ENDMDL
MODEL      154
REMARK 921   NORMALIZED FREE ENERGY PREDICTED BY IDOCK:   -4.92 KCAL/MOL
REMARK 922        TOTAL FREE ENERGY PREDICTED BY IDOCK:   -8.69 KCAL/MOL
REMARK 923 INTER-LIGAND FREE ENERGY PREDICTED BY IDOCK:   -6.63 KCAL/MOL
REMARK 924 INTRA-LIGAND FREE ENERGY PREDICTED BY IDOCK:   -2.05 KCAL/MOL
REMARK 927      BINDING AFFINITY PREDICTED BY RF-SCORE:    0.00 PKD
ROOT
HETATM    1  C   UNL     1      -7.646  12.518  67.104  1.00  0.00    -0.087 C  
HETATM    2  C   UNL     1      -8.560  13.618  67.770  1.00  0.00    -0.182 C  
HETATM    3  C   UNL     1      -6.179  12.684  67.524  1.00  0.00    -0.159 C  
HETATM    4  C   UNL     1      -7.862  14.693  68.631  1.00  0.00    -0.138 C  
HETATM    5  C   UNL     1      -6.494  15.088  68.112  1.00  0.00    -0.131 C  
HETATM    6  C   UNL     1      -7.043   9.762  65.172  1.00  0.00    -0.121 C  
HETATM    7  C   UNL     1      -8.168  11.035  67.168  1.00  0.00    -0.133 C  
HETATM    8  C   UNL     1      -5.661  13.872  67.896  1.00  0.00    -0.103 C  
HETATM    9  O   UNL     1      -6.611  15.835  66.914  1.00  0.00    -0.276 OA 
HETATM   10  C   UNL     1      -7.093   9.999  66.687  1.00  0.00    -0.091 C  
HETATM   11  C   UNL     1      -5.706  10.319  67.147  1.00  0.00    -0.045 C  
HETATM   12  H   UNL     1      -5.753  16.083  66.588  1.00  0.00     0.000 HD 
HETATM   13  C   UNL     1      -5.302  11.535  67.509  1.00  0.00    -0.061 C  
ENDROOT
BRANCH   2  14
HETATM   14  O   UNL     1      -9.745  13.139  68.453  1.00  0.00    -0.227 OA 
BRANCH  14  15
HETATM   15  C   UNL     1     -10.946  13.761  68.279  1.00  0.00    -0.250 C  
HETATM   16  C   UNL     1     -11.681  15.889  69.331  1.00  0.00    -0.350 C  
HETATM   17  C   UNL     1     -12.589  13.690  70.165  1.00  0.00    -0.215 C  
HETATM   18  O   UNL     1     -11.598  13.778  67.244  1.00  0.00    -0.322 OA 
HETATM   19  C   UNL     1     -11.371  14.415  69.579  1.00  0.00    -0.318 C  
HETATM   20  C   UNL     1     -12.271  12.269  70.608  1.00  0.00    -0.378 C  
ENDBRANCH  14  15
ENDBRANCH   2  14
BRANCH   7  21
HETATM   21  C   UNL     1      -9.543  10.783  66.457  1.00  0.00    -0.217 C  
BRANCH  21  22
HETATM   22  C   UNL     1     -10.476   9.967  67.378  1.00  0.00    -0.316 C  
BRANCH  22  23
HETATM   23  C   UNL     1     -10.520   8.443  67.206  1.00  0.00    -0.303 C  
HETATM   24  O   UNL     1      -9.948   8.052  65.957  1.00  0.00    -0.457 OA 
HETATM   25  H   UNL     1      -9.975   7.109  65.851  1.00  0.00     0.000 HD 
BRANCH  23  26
HETATM   26  C   UNL     1      -9.665   7.813  68.330  1.00  0.00    -0.167 C  
BRANCH  26  27
HETATM   27  C   UNL     1     -10.469   7.151  69.456  1.00  0.00    -0.225 C  
HETATM   28  O   UNL     1      -9.742   6.052  70.026  1.00  0.00    -0.160 OA 
HETATM   29  H   UNL     1     -10.240   5.642  70.723  1.00  0.00     0.000 HD 
BRANCH  27  30
HETATM   30  C   UNL     1     -10.731   8.150  70.588  1.00  0.00    -0.238 C  
HETATM   31  C   UNL     1     -11.996   7.856  71.360  1.00  0.00    -0.303 C  
HETATM   32  O   UNL     1     -12.229   6.542  71.576  1.00  0.00    -0.340 OA 
HETATM   33  O   UNL     1     -12.713   8.731  71.824  1.00  0.00    -0.322 OA 
ENDBRANCH  27  30
ENDBRANCH  26  27
ENDBRANCH  23  26
ENDBRANCH  22  23
ENDBRANCH  21  22
ENDBRANCH   7  21
TORSDOF 8
ENDMDL
MODEL      155
REMARK 921   NORMALIZED FREE ENERGY PREDICTED BY IDOCK:   -4.92 KCAL/MOL
REMARK 922        TOTAL FREE ENERGY PREDICTED BY IDOCK:   -8.68 KCAL/MOL
REMARK 923 INTER-LIGAND FREE ENERGY PREDICTED BY IDOCK:   -7.29 KCAL/MOL
REMARK 924 INTRA-LIGAND FREE ENERGY PREDICTED BY IDOCK:   -1.39 KCAL/MOL
REMARK 927      BINDING AFFINITY PREDICTED BY RF-SCORE:    0.00 PKD
ROOT
HETATM    1  C   UNL     1      -8.425  11.116  67.502  1.00  0.00    -0.126 C  
HETATM    2  C   UNL     1      -9.635  11.244  66.499  1.00  0.00    -0.191 C  
HETATM    3  C   UNL     1      -7.967   9.658  67.640  1.00  0.00    -0.106 C  
HETATM    4  C   UNL     1     -10.202   9.936  65.903  1.00  0.00    -0.264 C  
HETATM    5  C   UNL     1     -10.165   8.767  66.867  1.00  0.00    -0.287 C  
HETATM    6  C   UNL     1      -6.054  12.328  69.646  1.00  0.00    -0.132 C  
HETATM    7  C   UNL     1      -7.248  12.145  67.321  1.00  0.00    -0.144 C  
HETATM    8  C   UNL     1      -8.794   8.614  67.428  1.00  0.00    -0.140 C  
HETATM    9  O   UNL     1     -11.114   8.944  67.904  1.00  0.00    -0.497 OA 
HETATM   10  C   UNL     1      -6.003  11.796  68.209  1.00  0.00    -0.049 C  
HETATM   11  C   UNL     1      -5.707  10.331  68.272  1.00  0.00    -0.041 C  
HETATM   12  H   UNL     1     -11.091   8.211  68.508  1.00  0.00     0.000 HD 
HETATM   13  C   UNL     1      -6.602   9.377  68.027  1.00  0.00    -0.063 C  
ENDROOT
BRANCH   2  14
HETATM   14  O   UNL     1      -9.499  12.238  65.453  1.00  0.00    -0.124 OA 
BRANCH  14  15
HETATM   15  C   UNL     1     -10.370  13.283  65.371  1.00  0.00    -0.306 C  
HETATM   16  C   UNL     1     -12.346  13.686  66.822  1.00  0.00    -0.354 C  
HETATM   17  C   UNL     1     -12.662  12.835  64.471  1.00  0.00    -0.405 C  
HETATM   18  O   UNL     1     -10.083  14.429  65.048  1.00  0.00    -0.390 OA 
HETATM   19  C   UNL     1     -11.768  12.807  65.716  1.00  0.00    -0.449 C  
HETATM   20  C   UNL     1     -12.230  11.827  63.414  1.00  0.00    -0.461 C  
ENDBRANCH  14  15
ENDBRANCH   2  14
BRANCH   7  21
HETATM   21  C   UNL     1      -7.650  13.651  67.491  1.00  0.00    -0.180 C  
BRANCH  21  22
HETATM   22  C   UNL     1      -8.703  13.797  68.611  1.00  0.00    -0.051 C  
BRANCH  22  23
HETATM   23  C   UNL     1      -9.574  15.061  68.633  1.00  0.00    -0.219 C  
HETATM   24  O   UNL     1     -10.627  14.940  69.590  1.00  0.00    -0.285 OA 
HETATM   25  H   UNL     1     -11.166  15.723  69.603  1.00  0.00     0.000 HD 
BRANCH  23  26
HETATM   26  C   UNL     1      -8.680  16.246  69.066  1.00  0.00    -0.246 C  
BRANCH  26  27
HETATM   27  C   UNL     1      -8.935  17.555  68.309  1.00  0.00    -0.267 C  
HETATM   28  O   UNL     1      -7.993  18.565  68.702  1.00  0.00    -0.314 OA 
HETATM   29  H   UNL     1      -8.151  19.376  68.234  1.00  0.00     0.000 HD 
BRANCH  27  30
HETATM   30  C   UNL     1      -8.765  17.346  66.801  1.00  0.00    -0.278 C  
HETATM   31  C   UNL     1      -7.364  17.637  66.315  1.00  0.00    -0.310 C  
HETATM   32  O   UNL     1      -6.383  17.229  67.151  1.00  0.00    -0.136 OA 
HETATM   33  O   UNL     1      -7.127  18.129  65.221  1.00  0.00    -0.479 OA 
ENDBRANCH  27  30
ENDBRANCH  26  27
ENDBRANCH  23  26
ENDBRANCH  22  23
ENDBRANCH  21  22
ENDBRANCH   7  21
TORSDOF 8
ENDMDL
MODEL      156
REMARK 921   NORMALIZED FREE ENERGY PREDICTED BY IDOCK:   -4.92 KCAL/MOL
REMARK 922        TOTAL FREE ENERGY PREDICTED BY IDOCK:   -8.68 KCAL/MOL
REMARK 923 INTER-LIGAND FREE ENERGY PREDICTED BY IDOCK:   -7.29 KCAL/MOL
REMARK 924 INTRA-LIGAND FREE ENERGY PREDICTED BY IDOCK:   -1.39 KCAL/MOL
REMARK 927      BINDING AFFINITY PREDICTED BY RF-SCORE:    0.00 PKD
ROOT
HETATM    1  C   UNL     1     -10.627   8.257  69.777  1.00  0.00    -0.228 C  
HETATM    2  C   UNL     1      -9.645   8.099  68.553  1.00  0.00    -0.148 C  
HETATM    3  C   UNL     1     -10.358   7.194  70.849  1.00  0.00    -0.214 C  
HETATM    4  C   UNL     1      -8.666   6.904  68.580  1.00  0.00    -0.122 C  
HETATM    5  C   UNL     1      -9.248   5.661  69.223  1.00  0.00    -0.116 C  
HETATM    6  C   UNL     1     -13.148   9.754  71.536  1.00  0.00    -0.506 C  
HETATM    7  C   UNL     1     -10.813   9.712  70.347  1.00  0.00    -0.353 C  
HETATM    8  C   UNL     1      -9.810   5.995  70.562  1.00  0.00    -0.222 C  
HETATM    9  O   UNL     1     -10.243   5.088  68.392  1.00  0.00    -0.146 OA 
HETATM   10  C   UNL     1     -11.623   9.731  71.691  1.00  0.00    -0.345 C  
HETATM   11  C   UNL     1     -11.272   8.609  72.616  1.00  0.00    -0.098 C  
HETATM   12  H   UNL     1     -10.608   4.308  68.794  1.00  0.00     0.000 HD 
HETATM   13  C   UNL     1     -10.714   7.466  72.224  1.00  0.00    -0.275 C  
ENDROOT
BRANCH   2  14
HETATM   14  O   UNL     1      -8.942   9.295  68.136  1.00  0.00    -0.129 OA 
BRANCH  14  15
HETATM   15  C   UNL     1      -9.093   9.784  66.872  1.00  0.00    -0.142 C  
HETATM   16  C   UNL     1      -8.342   8.706  64.763  1.00  0.00    -0.167 C  
HETATM   17  C   UNL     1      -7.063  10.664  65.703  1.00  0.00    -0.076 C  
HETATM   18  O   UNL     1     -10.044  10.442  66.470  1.00  0.00    -0.211 OA 
HETATM   19  C   UNL     1      -7.884   9.413  66.036  1.00  0.00    -0.099 C  
HETATM   20  C   UNL     1      -6.423  11.293  66.933  1.00  0.00    -0.128 C  
ENDBRANCH  14  15
ENDBRANCH   2  14
BRANCH   7  21
HETATM   21  C   UNL     1     -11.394  10.755  69.331  1.00  0.00    -0.351 C  
BRANCH  21  22
HETATM   22  C   UNL     1     -10.628  12.091  69.443  1.00  0.00     0.108 C  
BRANCH  22  23
HETATM   23  C   UNL     1     -10.965  13.211  68.449  1.00  0.00    -0.262 C  
HETATM   24  O   UNL     1     -11.297  12.675  67.168  1.00  0.00    -0.283 OA 
HETATM   25  H   UNL     1     -11.506  13.368  66.552  1.00  0.00     0.000 HD 
BRANCH  23  26
HETATM   26  C   UNL     1     -12.208  13.960  68.980  1.00  0.00    -0.274 C  
BRANCH  26  27
HETATM   27  C   UNL     1     -11.909  15.054  70.013  1.00  0.00    -0.319 C  
HETATM   28  O   UNL     1     -11.738  16.328  69.373  1.00  0.00    -0.255 OA 
HETATM   29  H   UNL     1     -11.552  17.005  70.013  1.00  0.00     0.000 HD 
BRANCH  27  30
HETATM   30  C   UNL     1     -13.075  15.199  70.996  1.00  0.00    -0.513 C  
HETATM   31  C   UNL     1     -12.703  14.842  72.416  1.00  0.00    -0.349 C  
HETATM   32  O   UNL     1     -11.472  15.250  72.793  1.00  0.00    -0.435 OA 
HETATM   33  O   UNL     1     -13.478  14.300  73.192  1.00  0.00    -0.632 OA 
ENDBRANCH  27  30
ENDBRANCH  26  27
ENDBRANCH  23  26
ENDBRANCH  22  23
ENDBRANCH  21  22
ENDBRANCH   7  21
TORSDOF 8
ENDMDL
MODEL      157
REMARK 921   NORMALIZED FREE ENERGY PREDICTED BY IDOCK:   -4.86 KCAL/MOL
REMARK 922        TOTAL FREE ENERGY PREDICTED BY IDOCK:   -8.59 KCAL/MOL
REMARK 923 INTER-LIGAND FREE ENERGY PREDICTED BY IDOCK:   -7.60 KCAL/MOL
REMARK 924 INTRA-LIGAND FREE ENERGY PREDICTED BY IDOCK:   -0.99 KCAL/MOL
REMARK 927      BINDING AFFINITY PREDICTED BY RF-SCORE:    0.00 PKD
ROOT
HETATM    1  C   UNL     1      -8.919   9.237  68.066  1.00  0.00    -0.128 C  
HETATM    2  C   UNL     1     -10.284   8.487  68.321  1.00  0.00    -0.205 C  
HETATM    3  C   UNL     1      -8.194   9.538  69.384  1.00  0.00    -0.126 C  
HETATM    4  C   UNL     1     -10.703   8.259  69.790  1.00  0.00    -0.221 C  
HETATM    5  C   UNL     1     -10.299   9.388  70.716  1.00  0.00    -0.298 C  
HETATM    6  C   UNL     1      -6.474  10.615  66.114  1.00  0.00    -0.131 C  
HETATM    7  C   UNL     1      -7.990   8.645  66.943  1.00  0.00    -0.095 C  
HETATM    8  C   UNL     1      -8.847   9.684  70.555  1.00  0.00    -0.169 C  
HETATM    9  O   UNL     1     -11.076  10.545  70.462  1.00  0.00    -0.376 OA 
HETATM   10  C   UNL     1      -6.572   9.315  66.921  1.00  0.00    -0.068 C  
HETATM   11  C   UNL     1      -6.015   9.578  68.284  1.00  0.00    -0.044 C  
HETATM   12  H   UNL     1     -10.824  11.254  71.043  1.00  0.00     0.000 HD 
HETATM   13  C   UNL     1      -6.756   9.689  69.384  1.00  0.00    -0.053 C  
ENDROOT
BRANCH   2  14
HETATM   14  O   UNL     1     -10.503   7.275  67.557  1.00  0.00    -0.216 OA 
BRANCH  14  15
HETATM   15  C   UNL     1     -10.195   6.057  68.085  1.00  0.00    -0.178 C  
HETATM   16  C   UNL     1      -7.951   5.281  68.818  1.00  0.00    -0.086 C  
HETATM   17  C   UNL     1      -8.929   4.443  66.652  1.00  0.00    -0.117 C  
HETATM   18  O   UNL     1     -10.919   5.390  68.812  1.00  0.00    -0.062 OA 
HETATM   19  C   UNL     1      -8.818   5.633  67.612  1.00  0.00    -0.105 C  
HETATM   20  C   UNL     1      -9.621   4.803  65.345  1.00  0.00    -0.152 C  
ENDBRANCH  14  15
ENDBRANCH   2  14
BRANCH   7  21
HETATM   21  C   UNL     1      -8.617   8.621  65.505  1.00  0.00    -0.200 C  
BRANCH  21  22
HETATM   22  C   UNL     1      -9.757   9.658  65.405  1.00  0.00    -0.365 C  
BRANCH  22  23
HETATM   23  C   UNL     1      -9.521  10.922  64.567  1.00  0.00    -0.244 C  
HETATM   24  O   UNL     1      -8.352  10.788  63.757  1.00  0.00    -0.341 OA 
HETATM   25  H   UNL     1      -8.207  11.571  63.238  1.00  0.00     0.000 HD 
BRANCH  23  26
HETATM   26  C   UNL     1     -10.730  11.096  63.619  1.00  0.00    -0.381 C  
BRANCH  26  27
HETATM   27  C   UNL     1     -11.690  12.229  64.002  1.00  0.00    -0.425 C  
HETATM   28  O   UNL     1     -13.012  11.969  63.505  1.00  0.00    -0.774 OA 
HETATM   29  H   UNL     1     -13.606  12.672  63.741  1.00  0.00     0.000 HD 
BRANCH  27  30
HETATM   30  C   UNL     1     -11.799  12.350  65.525  1.00  0.00    -0.469 C  
HETATM   31  C   UNL     1     -12.327  13.691  65.978  1.00  0.00    -0.445 C  
HETATM   32  O   UNL     1     -13.315  14.196  65.207  1.00  0.00    -0.715 OA 
HETATM   33  O   UNL     1     -11.952  14.243  67.003  1.00  0.00    -0.414 OA 
ENDBRANCH  27  30
ENDBRANCH  26  27
ENDBRANCH  23  26
ENDBRANCH  22  23
ENDBRANCH  21  22
ENDBRANCH   7  21
TORSDOF 8
ENDMDL
MODEL      158
REMARK 921   NORMALIZED FREE ENERGY PREDICTED BY IDOCK:   -4.82 KCAL/MOL
REMARK 922        TOTAL FREE ENERGY PREDICTED BY IDOCK:   -8.54 KCAL/MOL
REMARK 923 INTER-LIGAND FREE ENERGY PREDICTED BY IDOCK:   -6.88 KCAL/MOL
REMARK 924 INTRA-LIGAND FREE ENERGY PREDICTED BY IDOCK:   -1.66 KCAL/MOL
REMARK 927      BINDING AFFINITY PREDICTED BY RF-SCORE:    0.00 PKD
ROOT
HETATM    1  C   UNL     1     -10.163   8.325  69.634  1.00  0.00    -0.209 C  
HETATM    2  C   UNL     1     -10.705   9.289  70.758  1.00  0.00    -0.284 C  
HETATM    3  C   UNL     1     -11.076   7.105  69.458  1.00  0.00    -0.170 C  
HETATM    4  C   UNL     1     -11.964   8.839  71.532  1.00  0.00    -0.386 C  
HETATM    5  C   UNL     1     -12.035   7.340  71.749  1.00  0.00    -0.307 C  
HETATM    6  C   UNL     1      -7.993   7.372  67.169  1.00  0.00    -0.114 C  
HETATM    7  C   UNL     1      -9.722   8.998  68.282  1.00  0.00    -0.169 C  
HETATM    8  C   UNL     1     -11.851   6.629  70.453  1.00  0.00    -0.407 C  
HETATM    9  O   UNL     1     -11.061   6.925  72.691  1.00  0.00    -0.252 OA 
HETATM   10  C   UNL     1      -9.415   7.946  67.159  1.00  0.00    -0.203 C  
HETATM   11  C   UNL     1     -10.374   6.797  67.140  1.00  0.00    -0.327 C  
HETATM   12  H   UNL     1     -11.105   5.986  72.828  1.00  0.00     0.000 HD 
HETATM   13  C   UNL     1     -11.107   6.419  68.185  1.00  0.00    -0.358 C  
ENDROOT
BRANCH   2  14
HETATM   14  O   UNL     1     -10.828  10.688  70.400  1.00  0.00    -0.212 OA 
BRANCH  14  15
HETATM   15  C   UNL     1     -11.984  11.167  69.859  1.00  0.00    -0.363 C  
HETATM   16  C   UNL     1     -12.347  13.428  68.893  1.00  0.00     0.013 C  
HETATM   17  C   UNL     1     -13.278  12.863  71.167  1.00  0.00    -0.062 C  
HETATM   18  O   UNL     1     -12.802  10.511  69.226  1.00  0.00    -0.030 OA 
HETATM   19  C   UNL     1     -12.123  12.641  70.183  1.00  0.00    -0.368 C  
HETATM   20  C   UNL     1     -13.009  12.256  72.537  1.00  0.00     0.464 C  
ENDBRANCH  14  15
ENDBRANCH   2  14
BRANCH   7  21
HETATM   21  C   UNL     1      -8.553  10.036  68.406  1.00  0.00    -0.113 C  
BRANCH  21  22
HETATM   22  C   UNL     1      -8.650  11.084  67.276  1.00  0.00    -0.130 C  
BRANCH  22  23
HETATM   23  C   UNL     1      -9.012  12.528  67.649  1.00  0.00    -0.185 C  
HETATM   24  O   UNL     1      -7.981  13.128  68.433  1.00  0.00    -0.136 OA 
HETATM   25  H   UNL     1      -8.205  14.022  68.663  1.00  0.00     0.000 HD 
BRANCH  23  26
HETATM   26  C   UNL     1      -9.138  13.340  66.339  1.00  0.00    -0.062 C  
BRANCH  26  27
HETATM   27  C   UNL     1     -10.571  13.508  65.820  1.00  0.00    -0.283 C  
HETATM   28  O   UNL     1     -10.994  14.876  65.920  1.00  0.00    -0.324 OA 
HETATM   29  H   UNL     1     -11.882  14.980  65.599  1.00  0.00     0.000 HD 
BRANCH  27  30
HETATM   30  C   UNL     1     -10.656  13.120  64.341  1.00  0.00    -0.441 C  
HETATM   31  C   UNL     1     -12.042  12.692  63.917  1.00  0.00    -0.487 C  
HETATM   32  O   UNL     1     -13.044  13.414  64.465  1.00  0.00    -0.543 OA 
HETATM   33  O   UNL     1     -12.245  11.820  63.084  1.00  0.00    -0.429 OA 
ENDBRANCH  27  30
ENDBRANCH  26  27
ENDBRANCH  23  26
ENDBRANCH  22  23
ENDBRANCH  21  22
ENDBRANCH   7  21
TORSDOF 8
ENDMDL
MODEL      159
REMARK 921   NORMALIZED FREE ENERGY PREDICTED BY IDOCK:   -4.82 KCAL/MOL
REMARK 922        TOTAL FREE ENERGY PREDICTED BY IDOCK:   -8.53 KCAL/MOL
REMARK 923 INTER-LIGAND FREE ENERGY PREDICTED BY IDOCK:   -6.41 KCAL/MOL
REMARK 924 INTRA-LIGAND FREE ENERGY PREDICTED BY IDOCK:   -2.13 KCAL/MOL
REMARK 927      BINDING AFFINITY PREDICTED BY RF-SCORE:    0.00 PKD
ROOT
HETATM    1  C   UNL     1      -8.615  11.345  68.653  1.00  0.00    -0.126 C  
HETATM    2  C   UNL     1      -9.773  11.557  67.602  1.00  0.00    -0.174 C  
HETATM    3  C   UNL     1      -8.953  10.214  69.633  1.00  0.00    -0.190 C  
HETATM    4  C   UNL     1     -11.044  10.695  67.765  1.00  0.00    -0.385 C  
HETATM    5  C   UNL     1     -11.404  10.416  69.211  1.00  0.00    -0.235 C  
HETATM    6  C   UNL     1      -5.558  11.980  70.046  1.00  0.00    -0.123 C  
HETATM    7  C   UNL     1      -7.150  11.284  68.084  1.00  0.00    -0.071 C  
HETATM    8  C   UNL     1     -10.222   9.868  69.933  1.00  0.00    -0.298 C  
HETATM    9  O   UNL     1     -11.875  11.593  69.844  1.00  0.00    -0.312 OA 
HETATM   10  C   UNL     1      -6.102  10.848  69.166  1.00  0.00    -0.044 C  
HETATM   11  C   UNL     1      -6.594   9.761  70.069  1.00  0.00    -0.081 C  
HETATM   12  H   UNL     1     -12.101  11.419  70.751  1.00  0.00     0.000 HD 
HETATM   13  C   UNL     1      -7.881   9.493  70.282  1.00  0.00    -0.180 C  
ENDROOT
BRANCH   2  14
HETATM   14  O   UNL     1      -9.377  11.583  66.208  1.00  0.00    -0.201 OA 
BRANCH  14  15
HETATM   15  C   UNL     1      -9.642  10.525  65.391  1.00  0.00    -0.237 C  
HETATM   16  C   UNL     1      -9.544   8.118  66.001  1.00  0.00    -0.113 C  
HETATM   17  C   UNL     1      -7.713   9.140  64.601  1.00  0.00    -0.113 C  
HETATM   18  O   UNL     1     -10.480  10.503  64.499  1.00  0.00    -0.310 OA 
HETATM   19  C   UNL     1      -8.717   9.374  65.736  1.00  0.00    -0.183 C  
HETATM   20  C   UNL     1      -6.738  10.296  64.430  1.00  0.00    -0.066 C  
ENDBRANCH  14  15
ENDBRANCH   2  14
BRANCH   7  21
HETATM   21  C   UNL     1      -6.673  12.578  67.336  1.00  0.00    -0.147 C  
BRANCH  21  22
HETATM   22  C   UNL     1      -6.973  13.828  68.193  1.00  0.00    -0.120 C  
BRANCH  22  23
HETATM   23  C   UNL     1      -8.024  14.825  67.686  1.00  0.00    -0.176 C  
HETATM   24  O   UNL     1      -8.581  14.394  66.443  1.00  0.00    -0.443 OA 
HETATM   25  H   UNL     1      -9.232  15.011  66.130  1.00  0.00     0.000 HD 
BRANCH  23  26
HETATM   26  C   UNL     1      -9.171  14.873  68.721  1.00  0.00    -0.193 C  
BRANCH  26  27
HETATM   27  C   UNL     1     -10.123  16.066  68.573  1.00  0.00    -0.233 C  
HETATM   28  O   UNL     1      -9.908  16.740  67.323  1.00  0.00    -0.250 OA 
HETATM   29  H   UNL     1     -10.497  17.479  67.232  1.00  0.00     0.000 HD 
BRANCH  27  30
HETATM   30  C   UNL     1     -11.581  15.595  68.582  1.00  0.00    -0.391 C  
HETATM   31  C   UNL     1     -12.082  15.239  69.963  1.00  0.00    -0.352 C  
HETATM   32  O   UNL     1     -11.650  16.060  70.945  1.00  0.00    -0.382 OA 
HETATM   33  O   UNL     1     -12.876  14.333  70.170  1.00  0.00    -0.281 OA 
ENDBRANCH  27  30
ENDBRANCH  26  27
ENDBRANCH  23  26
ENDBRANCH  22  23
ENDBRANCH  21  22
ENDBRANCH   7  21
TORSDOF 8
ENDMDL
MODEL      160
REMARK 921   NORMALIZED FREE ENERGY PREDICTED BY IDOCK:   -4.81 KCAL/MOL
REMARK 922        TOTAL FREE ENERGY PREDICTED BY IDOCK:   -8.52 KCAL/MOL
REMARK 923 INTER-LIGAND FREE ENERGY PREDICTED BY IDOCK:   -7.14 KCAL/MOL
REMARK 924 INTRA-LIGAND FREE ENERGY PREDICTED BY IDOCK:   -1.37 KCAL/MOL
REMARK 927      BINDING AFFINITY PREDICTED BY RF-SCORE:    0.00 PKD
ROOT
HETATM    1  C   UNL     1      -9.298  16.221  67.033  1.00  0.00    -0.235 C  
HETATM    2  C   UNL     1      -9.719  16.439  65.528  1.00  0.00     0.010 C  
HETATM    3  C   UNL     1     -10.107  17.122  67.975  1.00  0.00    -0.311 C  
HETATM    4  C   UNL     1     -10.770  17.534  65.239  1.00  0.00     0.080 C  
HETATM    5  C   UNL     1     -10.657  18.737  66.154  1.00  0.00    -0.377 C  
HETATM    6  C   UNL     1      -7.526  14.747  69.558  1.00  0.00    -0.120 C  
HETATM    7  C   UNL     1      -9.174  14.730  67.520  1.00  0.00    -0.198 C  
HETATM    8  C   UNL     1     -10.641  18.295  67.576  1.00  0.00    -0.432 C  
HETATM    9  O   UNL     1      -9.494  19.488  65.851  1.00  0.00    -0.403 OA 
HETATM   10  C   UNL     1      -8.975  14.620  69.072  1.00  0.00    -0.093 C  
HETATM   11  C   UNL     1      -9.806  15.590  69.851  1.00  0.00    -0.207 C  
HETATM   12  H   UNL     1      -9.423  20.242  66.424  1.00  0.00     0.000 HD 
HETATM   13  C   UNL     1     -10.300  16.720  69.350  1.00  0.00    -0.276 C  
ENDROOT
BRANCH   2  14
HETATM   14  O   UNL     1     -10.038  15.245  64.772  1.00  0.00    -0.224 OA 
BRANCH  14  15
HETATM   15  C   UNL     1     -11.314  14.767  64.735  1.00  0.00    -0.397 C  
HETATM   16  C   UNL     1     -12.483  13.517  66.536  1.00  0.00    -0.309 C  
HETATM   17  C   UNL     1     -11.635  12.296  64.501  1.00  0.00    -0.418 C  
HETATM   18  O   UNL     1     -12.261  15.300  64.171  1.00  0.00    -0.606 OA 
HETATM   19  C   UNL     1     -11.383  13.448  65.480  1.00  0.00    -0.310 C  
HETATM   20  C   UNL     1     -10.469  12.067  63.549  1.00  0.00    -0.505 C  
ENDBRANCH  14  15
ENDBRANCH   2  14
BRANCH   7  21
HETATM   21  C   UNL     1      -8.107  13.869  66.759  1.00  0.00     0.280 C  
BRANCH  21  22
HETATM   22  C   UNL     1      -8.203  12.392  67.199  1.00  0.00    -0.176 C  
BRANCH  22  23
HETATM   23  C   UNL     1      -8.365  11.317  66.115  1.00  0.00    -0.111 C  
HETATM   24  O   UNL     1      -7.104  10.980  65.535  1.00  0.00    -0.367 OA 
HETATM   25  H   UNL     1      -7.205  10.315  64.865  1.00  0.00     0.000 HD 
BRANCH  23  26
HETATM   26  C   UNL     1      -8.926  10.044  66.789  1.00  0.00    -0.151 C  
BRANCH  26  27
HETATM   27  C   UNL     1      -9.700   9.107  65.853  1.00  0.00    -0.266 C  
HETATM   28  O   UNL     1      -8.924   8.794  64.686  1.00  0.00    -0.412 OA 
HETATM   29  H   UNL     1      -9.403   8.215  64.107  1.00  0.00     0.000 HD 
BRANCH  27  30
HETATM   30  C   UNL     1     -10.009   7.781  66.555  1.00  0.00    -0.244 C  
HETATM   31  C   UNL     1      -8.875   6.787  66.473  1.00  0.00    -0.143 C  
HETATM   32  O   UNL     1      -7.644   7.328  66.603  1.00  0.00    -0.089 OA 
HETATM   33  O   UNL     1      -9.052   5.580  66.378  1.00  0.00    -0.135 OA 
ENDBRANCH  27  30
ENDBRANCH  26  27
ENDBRANCH  23  26
ENDBRANCH  22  23
ENDBRANCH  21  22
ENDBRANCH   7  21
TORSDOF 8
ENDMDL
MODEL      161
REMARK 921   NORMALIZED FREE ENERGY PREDICTED BY IDOCK:   -4.81 KCAL/MOL
REMARK 922        TOTAL FREE ENERGY PREDICTED BY IDOCK:   -8.51 KCAL/MOL
REMARK 923 INTER-LIGAND FREE ENERGY PREDICTED BY IDOCK:   -7.21 KCAL/MOL
REMARK 924 INTRA-LIGAND FREE ENERGY PREDICTED BY IDOCK:   -1.30 KCAL/MOL
REMARK 927      BINDING AFFINITY PREDICTED BY RF-SCORE:    0.00 PKD
ROOT
HETATM    1  C   UNL     1      -7.639  12.441  68.624  1.00  0.00    -0.082 C  
HETATM    2  C   UNL     1      -8.155  11.086  68.002  1.00  0.00    -0.121 C  
HETATM    3  C   UNL     1      -6.408  12.214  69.510  1.00  0.00    -0.122 C  
HETATM    4  C   UNL     1      -7.430   9.790  68.426  1.00  0.00    -0.083 C  
HETATM    5  C   UNL     1      -6.957   9.806  69.866  1.00  0.00    -0.093 C  
HETATM    6  C   UNL     1      -7.679  15.825  69.112  1.00  0.00    -0.220 C  
HETATM    7  C   UNL     1      -7.507  13.663  67.641  1.00  0.00    -0.191 C  
HETATM    8  C   UNL     1      -6.164  11.040  70.128  1.00  0.00    -0.146 C  
HETATM    9  O   UNL     1      -8.058   9.721  70.754  1.00  0.00    -0.359 OA 
HETATM   10  C   UNL     1      -6.778  14.886  68.299  1.00  0.00    -0.113 C  
HETATM   11  C   UNL     1      -5.621  14.498  69.163  1.00  0.00    -0.091 C  
HETATM   12  H   UNL     1      -7.763   9.731  71.657  1.00  0.00     0.000 HD 
HETATM   13  C   UNL     1      -5.470  13.296  69.714  1.00  0.00    -0.098 C  
ENDROOT
BRANCH   2  14
HETATM   14  O   UNL     1      -8.368  11.079  66.568  1.00  0.00    -0.152 OA 
BRANCH  14  15
HETATM   15  C   UNL     1      -9.154  10.128  65.988  1.00  0.00    -0.154 C  
HETATM   16  C   UNL     1      -8.403   8.292  64.492  1.00  0.00    -0.097 C  
HETATM   17  C   UNL     1      -9.582  10.300  63.528  1.00  0.00    -0.321 C  
HETATM   18  O   UNL     1     -10.154   9.627  66.485  1.00  0.00    -0.227 OA 
HETATM   19  C   UNL     1      -8.617   9.799  64.609  1.00  0.00    -0.199 C  
HETATM   20  C   UNL     1      -9.677  11.819  63.483  1.00  0.00    -0.325 C  
ENDBRANCH  14  15
ENDBRANCH   2  14
BRANCH   7  21
HETATM   21  C   UNL     1      -8.844  14.112  66.956  1.00  0.00    -0.237 C  
BRANCH  21  22
HETATM   22  C   UNL     1     -10.042  13.824  67.886  1.00  0.00    -0.246 C  
BRANCH  22  23
HETATM   23  C   UNL     1     -11.187  14.844  67.938  1.00  0.00    -0.315 C  
HETATM   24  O   UNL     1     -10.791  16.088  67.359  1.00  0.00    -0.319 OA 
HETATM   25  H   UNL     1     -11.500  16.720  67.391  1.00  0.00     0.000 HD 
BRANCH  23  26
HETATM   26  C   UNL     1     -12.358  14.288  67.096  1.00  0.00    -0.169 C  
BRANCH  26  27
HETATM   27  C   UNL     1     -11.942  13.602  65.788  1.00  0.00    -0.395 C  
HETATM   28  O   UNL     1     -12.616  12.344  65.634  1.00  0.00    -0.575 OA 
HETATM   29  H   UNL     1     -12.357  11.920  64.824  1.00  0.00     0.000 HD 
BRANCH  27  30
HETATM   30  C   UNL     1     -12.325  14.467  64.583  1.00  0.00    -0.419 C  
HETATM   31  C   UNL     1     -11.333  15.572  64.305  1.00  0.00    -0.155 C  
HETATM   32  O   UNL     1     -10.040  15.222  64.478  1.00  0.00    -0.040 OA 
HETATM   33  O   UNL     1     -11.661  16.671  63.881  1.00  0.00    -1.153 OA 
ENDBRANCH  27  30
ENDBRANCH  26  27
ENDBRANCH  23  26
ENDBRANCH  22  23
ENDBRANCH  21  22
ENDBRANCH   7  21
TORSDOF 8
ENDMDL
MODEL      162
REMARK 921   NORMALIZED FREE ENERGY PREDICTED BY IDOCK:   -4.80 KCAL/MOL
REMARK 922        TOTAL FREE ENERGY PREDICTED BY IDOCK:   -8.51 KCAL/MOL
REMARK 923 INTER-LIGAND FREE ENERGY PREDICTED BY IDOCK:   -7.08 KCAL/MOL
REMARK 924 INTRA-LIGAND FREE ENERGY PREDICTED BY IDOCK:   -1.43 KCAL/MOL
REMARK 927      BINDING AFFINITY PREDICTED BY RF-SCORE:    0.00 PKD
ROOT
HETATM    1  C   UNL     1      -8.940   8.315  67.551  1.00  0.00    -0.141 C  
HETATM    2  C   UNL     1      -9.289   6.919  68.200  1.00  0.00    -0.124 C  
HETATM    3  C   UNL     1      -8.941   8.233  66.020  1.00  0.00    -0.224 C  
HETATM    4  C   UNL     1      -9.485   5.722  67.244  1.00  0.00    -0.116 C  
HETATM    5  C   UNL     1      -8.577   5.764  66.030  1.00  0.00    -0.139 C  
HETATM    6  C   UNL     1      -8.184  11.648  67.624  1.00  0.00    -0.141 C  
HETATM    7  C   UNL     1      -9.697   9.568  68.128  1.00  0.00    -0.166 C  
HETATM    8  C   UNL     1      -8.692   7.087  65.354  1.00  0.00     0.009 C  
HETATM    9  O   UNL     1      -7.234   5.508  66.402  1.00  0.00    -0.074 OA 
HETATM   10  C   UNL     1      -9.453  10.861  67.274  1.00  0.00    -0.176 C  
HETATM   11  C   UNL     1      -9.446  10.611  65.799  1.00  0.00    -0.244 C  
HETATM   12  H   UNL     1      -6.664   5.534  65.642  1.00  0.00     0.000 HD 
HETATM   13  C   UNL     1      -9.202   9.425  65.245  1.00  0.00    -0.299 C  
ENDROOT
BRANCH   2  14
HETATM   14  O   UNL     1     -10.338   6.921  69.200  1.00  0.00    -0.180 OA 
BRANCH  14  15
HETATM   15  C   UNL     1     -10.365   5.973  70.180  1.00  0.00    -0.224 C  
HETATM   16  C   UNL     1     -11.423   6.182  72.418  1.00  0.00    -0.349 C  
HETATM   17  C   UNL     1      -8.917   6.322  72.190  1.00  0.00    -0.137 C  
HETATM   18  O   UNL     1     -10.436   4.764  70.002  1.00  0.00    -0.194 OA 
HETATM   19  C   UNL     1     -10.266   6.644  71.536  1.00  0.00    -0.218 C  
HETATM   20  C   UNL     1      -7.740   6.933  71.442  1.00  0.00    -0.092 C  
ENDBRANCH  14  15
ENDBRANCH   2  14
BRANCH   7  21
HETATM   21  C   UNL     1      -9.450   9.850  69.651  1.00  0.00    -0.252 C  
BRANCH  21  22
HETATM   22  C   UNL     1     -10.787  10.165  70.357  1.00  0.00    -0.365 C  
BRANCH  22  23
HETATM   23  C   UNL     1     -11.841  10.978  69.593  1.00  0.00    -0.342 C  
HETATM   24  O   UNL     1     -13.131  10.375  69.702  1.00  0.00    -0.550 OA 
HETATM   25  H   UNL     1     -13.783  10.878  69.229  1.00  0.00     0.000 HD 
BRANCH  23  26
HETATM   26  C   UNL     1     -11.923  12.379  70.242  1.00  0.00    -0.371 C  
BRANCH  26  27
HETATM   27  C   UNL     1     -12.100  13.538  69.253  1.00  0.00    -0.288 C  
HETATM   28  O   UNL     1     -12.874  14.596  69.838  1.00  0.00    -0.575 OA 
HETATM   29  H   UNL     1     -12.983  15.313  69.225  1.00  0.00     0.000 HD 
BRANCH  27  30
HETATM   30  C   UNL     1     -10.740  14.133  68.875  1.00  0.00    -0.270 C  
HETATM   31  C   UNL     1     -10.420  15.407  69.623  1.00  0.00    -0.280 C  
HETATM   32  O   UNL     1     -10.801  15.407  70.920  1.00  0.00    -0.323 OA 
HETATM   33  O   UNL     1      -9.797  16.334  69.125  1.00  0.00    -0.238 OA 
ENDBRANCH  27  30
ENDBRANCH  26  27
ENDBRANCH  23  26
ENDBRANCH  22  23
ENDBRANCH  21  22
ENDBRANCH   7  21
TORSDOF 8
ENDMDL
MODEL      163
REMARK 921   NORMALIZED FREE ENERGY PREDICTED BY IDOCK:   -4.80 KCAL/MOL
REMARK 922        TOTAL FREE ENERGY PREDICTED BY IDOCK:   -8.51 KCAL/MOL
REMARK 923 INTER-LIGAND FREE ENERGY PREDICTED BY IDOCK:   -6.43 KCAL/MOL
REMARK 924 INTRA-LIGAND FREE ENERGY PREDICTED BY IDOCK:   -2.07 KCAL/MOL
REMARK 927      BINDING AFFINITY PREDICTED BY RF-SCORE:    0.00 PKD
ROOT
HETATM    1  C   UNL     1      -9.237  10.111  67.808  1.00  0.00    -0.146 C  
HETATM    2  C   UNL     1     -10.531   9.299  68.206  1.00  0.00    -0.215 C  
HETATM    3  C   UNL     1      -9.103  11.390  68.644  1.00  0.00    -0.138 C  
HETATM    4  C   UNL     1     -11.464   9.928  69.264  1.00  0.00    -0.046 C  
HETATM    5  C   UNL     1     -11.539  11.440  69.182  1.00  0.00    -0.314 C  
HETATM    6  C   UNL     1      -6.347  10.647  66.062  1.00  0.00    -0.132 C  
HETATM    7  C   UNL     1      -7.903   9.288  67.674  1.00  0.00    -0.096 C  
HETATM    8  C   UNL     1     -10.166  12.019  69.185  1.00  0.00     0.127 C  
HETATM    9  O   UNL     1     -12.248  11.842  68.023  1.00  0.00    -0.491 OA 
HETATM   10  C   UNL     1      -6.645  10.208  67.501  1.00  0.00    -0.068 C  
HETATM   11  C   UNL     1      -6.679  11.434  68.357  1.00  0.00    -0.065 C  
HETATM   12  H   UNL     1     -12.296  12.790  67.971  1.00  0.00     0.000 HD 
HETATM   13  C   UNL     1      -7.793  11.965  68.856  1.00  0.00     0.015 C  
ENDROOT
BRANCH   2  14
HETATM   14  O   UNL     1     -10.341   7.893  68.497  1.00  0.00    -0.203 OA 
BRANCH  14  15
HETATM   15  C   UNL     1     -10.353   7.442  69.784  1.00  0.00    -0.222 C  
HETATM   16  C   UNL     1      -9.297   8.535  71.749  1.00  0.00    -0.323 C  
HETATM   17  C   UNL     1      -8.232   6.497  70.717  1.00  0.00    -0.125 C  
HETATM   18  O   UNL     1     -11.274   6.840  70.321  1.00  0.00    -0.287 OA 
HETATM   19  C   UNL     1      -9.033   7.777  70.451  1.00  0.00    -0.147 C  
HETATM   20  C   UNL     1      -7.781   5.809  69.436  1.00  0.00    -0.092 C  
ENDBRANCH  14  15
ENDBRANCH   2  14
BRANCH   7  21
HETATM   21  C   UNL     1      -7.924   8.161  66.584  1.00  0.00    -0.102 C  
BRANCH  21  22
HETATM   22  C   UNL     1      -8.953   8.504  65.484  1.00  0.00    -0.182 C  
BRANCH  22  23
HETATM   23  C   UNL     1      -8.432   8.878  64.089  1.00  0.00    -0.142 C  
HETATM   24  O   UNL     1      -8.277   7.717  63.272  1.00  0.00    -0.318 OA 
HETATM   25  H   UNL     1      -7.955   7.948  62.409  1.00  0.00     0.000 HD 
BRANCH  23  26
HETATM   26  C   UNL     1      -9.486   9.787  63.417  1.00  0.00     0.007 C  
BRANCH  26  27
HETATM   27  C   UNL     1     -10.124  10.829  64.344  1.00  0.00    -0.353 C  
HETATM   28  O   UNL     1      -9.168  11.831  64.721  1.00  0.00    -0.420 OA 
HETATM   29  H   UNL     1      -9.563  12.476  65.296  1.00  0.00     0.000 HD 
BRANCH  27  30
HETATM   30  C   UNL     1     -11.272  11.550  63.632  1.00  0.00    -0.451 C  
HETATM   31  C   UNL     1     -12.189  12.289  64.579  1.00  0.00    -0.388 C  
HETATM   32  O   UNL     1     -11.558  12.907  65.603  1.00  0.00    -0.328 OA 
HETATM   33  O   UNL     1     -13.394  12.391  64.397  1.00  0.00    -0.789 OA 
ENDBRANCH  27  30
ENDBRANCH  26  27
ENDBRANCH  23  26
ENDBRANCH  22  23
ENDBRANCH  21  22
ENDBRANCH   7  21
TORSDOF 8
ENDMDL
MODEL      164
REMARK 921   NORMALIZED FREE ENERGY PREDICTED BY IDOCK:   -4.80 KCAL/MOL
REMARK 922        TOTAL FREE ENERGY PREDICTED BY IDOCK:   -8.50 KCAL/MOL
REMARK 923 INTER-LIGAND FREE ENERGY PREDICTED BY IDOCK:   -7.24 KCAL/MOL
REMARK 924 INTRA-LIGAND FREE ENERGY PREDICTED BY IDOCK:   -1.26 KCAL/MOL
REMARK 927      BINDING AFFINITY PREDICTED BY RF-SCORE:    0.00 PKD
ROOT
HETATM    1  C   UNL     1     -11.680  10.258  70.119  1.00  0.00    -0.364 C  
HETATM    2  C   UNL     1     -11.276   8.906  70.826  1.00  0.00    -0.272 C  
HETATM    3  C   UNL     1     -12.629  11.083  70.997  1.00  0.00    -0.512 C  
HETATM    4  C   UNL     1     -11.932   8.596  72.189  1.00  0.00    -0.449 C  
HETATM    5  C   UNL     1     -13.363   9.084  72.296  1.00  0.00    -0.467 C  
HETATM    6  C   UNL     1     -11.597  12.566  67.599  1.00  0.00    -0.416 C  
HETATM    7  C   UNL     1     -10.512  11.091  69.474  1.00  0.00    -0.133 C  
HETATM    8  C   UNL     1     -13.440  10.522  71.917  1.00  0.00    -0.358 C  
HETATM    9  O   UNL     1     -14.219   8.304  71.479  1.00  0.00    -0.468 OA 
HETATM   10  C   UNL     1     -10.979  12.512  69.001  1.00  0.00    -0.237 C  
HETATM   11  C   UNL     1     -11.930  13.174  69.948  1.00  0.00    -0.387 C  
HETATM   12  H   UNL     1     -15.116   8.609  71.546  1.00  0.00     0.000 HD 
HETATM   13  C   UNL     1     -12.678  12.519  70.834  1.00  0.00    -0.270 C  
ENDROOT
BRANCH   2  14
HETATM   14  O   UNL     1      -9.858   8.614  70.889  1.00  0.00    -0.182 OA 
BRANCH  14  15
HETATM   15  C   UNL     1      -9.394   7.362  70.615  1.00  0.00    -0.160 C  
HETATM   16  C   UNL     1      -8.363   5.775  72.225  1.00  0.00    -0.118 C  
HETATM   17  C   UNL     1      -6.917   7.011  70.571  1.00  0.00    -0.062 C  
HETATM   18  O   UNL     1      -9.874   6.585  69.800  1.00  0.00    -0.163 OA 
HETATM   19  C   UNL     1      -8.166   7.080  71.457  1.00  0.00    -0.108 C  
HETATM   20  C   UNL     1      -6.571   8.351  69.936  1.00  0.00    -0.038 C  
ENDBRANCH  14  15
ENDBRANCH   2  14
BRANCH   7  21
HETATM   21  C   UNL     1      -9.721  10.357  68.336  1.00  0.00    -0.167 C  
BRANCH  21  22
HETATM   22  C   UNL     1     -10.628   9.316  67.644  1.00  0.00    -0.324 C  
BRANCH  22  23
HETATM   23  C   UNL     1     -10.097   8.604  66.393  1.00  0.00    -0.224 C  
HETATM   24  O   UNL     1     -10.122   9.473  65.260  1.00  0.00    -0.387 OA 
HETATM   25  H   UNL     1      -9.793   9.032  64.485  1.00  0.00     0.000 HD 
BRANCH  23  26
HETATM   26  C   UNL     1      -8.623   8.218  66.655  1.00  0.00    -0.135 C  
BRANCH  26  27
HETATM   27  C   UNL     1      -7.690   8.381  65.448  1.00  0.00    -0.099 C  
HETATM   28  O   UNL     1      -8.337   7.953  64.240  1.00  0.00    -0.334 OA 
HETATM   29  H   UNL     1      -7.759   8.053  63.493  1.00  0.00     0.000 HD 
BRANCH  27  30
HETATM   30  C   UNL     1      -7.312   9.853  65.257  1.00  0.00    -0.131 C  
HETATM   31  C   UNL     1      -6.367  10.366  66.319  1.00  0.00    -0.097 C  
HETATM   32  O   UNL     1      -5.414   9.486  66.695  1.00  0.00    -0.044 OA 
HETATM   33  O   UNL     1      -6.406  11.510  66.749  1.00  0.00    -0.135 OA 
ENDBRANCH  27  30
ENDBRANCH  26  27
ENDBRANCH  23  26
ENDBRANCH  22  23
ENDBRANCH  21  22
ENDBRANCH   7  21
TORSDOF 8
ENDMDL
MODEL      165
REMARK 921   NORMALIZED FREE ENERGY PREDICTED BY IDOCK:   -4.79 KCAL/MOL
REMARK 922        TOTAL FREE ENERGY PREDICTED BY IDOCK:   -8.49 KCAL/MOL
REMARK 923 INTER-LIGAND FREE ENERGY PREDICTED BY IDOCK:   -6.89 KCAL/MOL
REMARK 924 INTRA-LIGAND FREE ENERGY PREDICTED BY IDOCK:   -1.60 KCAL/MOL
REMARK 927      BINDING AFFINITY PREDICTED BY RF-SCORE:    0.00 PKD
ROOT
HETATM    1  C   UNL     1      -9.849   8.462  68.560  1.00  0.00    -0.186 C  
HETATM    2  C   UNL     1     -10.584   7.189  67.987  1.00  0.00    -0.196 C  
HETATM    3  C   UNL     1      -9.476   8.273  70.036  1.00  0.00    -0.167 C  
HETATM    4  C   UNL     1     -10.877   6.036  68.972  1.00  0.00    -0.412 C  
HETATM    5  C   UNL     1     -11.209   6.510  70.374  1.00  0.00    -0.355 C  
HETATM    6  C   UNL     1      -8.482  11.589  68.355  1.00  0.00    -0.159 C  
HETATM    7  C   UNL     1      -8.695   9.066  67.678  1.00  0.00    -0.124 C  
HETATM    8  C   UNL     1     -10.157   7.447  70.857  1.00  0.00    -0.188 C  
HETATM    9  O   UNL     1     -12.483   7.129  70.403  1.00  0.00    -0.604 OA 
HETATM   10  C   UNL     1      -7.884  10.179  68.429  1.00  0.00    -0.093 C  
HETATM   11  C   UNL     1      -7.632   9.863  69.870  1.00  0.00    -0.167 C  
HETATM   12  H   UNL     1     -12.692   7.426  71.282  1.00  0.00     0.000 HD 
HETATM   13  C   UNL     1      -8.363   9.013  70.587  1.00  0.00    -0.214 C  
ENDROOT
BRANCH   2  14
HETATM   14  O   UNL     1     -10.061   6.650  66.748  1.00  0.00    -0.179 OA 
BRANCH  14  15
HETATM   15  C   UNL     1      -9.325   5.502  66.746  1.00  0.00    -0.132 C  
HETATM   16  C   UNL     1      -7.339   5.009  68.156  1.00  0.00    -0.074 C  
HETATM   17  C   UNL     1      -7.046   5.569  65.716  1.00  0.00    -0.067 C  
HETATM   18  O   UNL     1      -9.763   4.374  66.560  1.00  0.00    -0.183 OA 
HETATM   19  C   UNL     1      -7.865   5.834  66.984  1.00  0.00    -0.102 C  
HETATM   20  C   UNL     1      -7.408   6.508  64.574  1.00  0.00    -0.082 C  
ENDBRANCH  14  15
ENDBRANCH   2  14
BRANCH   7  21
HETATM   21  C   UNL     1      -9.135   9.561  66.256  1.00  0.00    -0.202 C  
BRANCH  21  22
HETATM   22  C   UNL     1     -10.439  10.383  66.358  1.00  0.00    -0.246 C  
BRANCH  22  23
HETATM   23  C   UNL     1     -10.635  11.563  65.397  1.00  0.00    -0.282 C  
HETATM   24  O   UNL     1     -10.689  11.116  64.042  1.00  0.00    -0.368 OA 
HETATM   25  H   UNL     1     -10.811  11.846  63.447  1.00  0.00     0.000 HD 
BRANCH  23  26
HETATM   26  C   UNL     1     -11.992  12.225  65.727  1.00  0.00    -0.362 C  
BRANCH  26  27
HETATM   27  C   UNL     1     -11.892  13.567  66.462  1.00  0.00    -0.399 C  
HETATM   28  O   UNL     1     -13.105  14.322  66.316  1.00  0.00    -0.352 OA 
HETATM   29  H   UNL     1     -13.042  15.154  66.771  1.00  0.00     0.000 HD 
BRANCH  27  30
HETATM   30  C   UNL     1     -11.682  13.344  67.963  1.00  0.00    -0.391 C  
HETATM   31  C   UNL     1     -10.961  14.487  68.639  1.00  0.00    -0.251 C  
HETATM   32  O   UNL     1     -11.319  15.714  68.201  1.00  0.00    -0.336 OA 
HETATM   33  O   UNL     1     -10.175  14.326  69.562  1.00  0.00    -0.014 OA 
ENDBRANCH  27  30
ENDBRANCH  26  27
ENDBRANCH  23  26
ENDBRANCH  22  23
ENDBRANCH  21  22
ENDBRANCH   7  21
TORSDOF 8
ENDMDL
MODEL      166
REMARK 921   NORMALIZED FREE ENERGY PREDICTED BY IDOCK:   -4.78 KCAL/MOL
REMARK 922        TOTAL FREE ENERGY PREDICTED BY IDOCK:   -8.47 KCAL/MOL
REMARK 923 INTER-LIGAND FREE ENERGY PREDICTED BY IDOCK:   -7.78 KCAL/MOL
REMARK 924 INTRA-LIGAND FREE ENERGY PREDICTED BY IDOCK:   -0.69 KCAL/MOL
REMARK 927      BINDING AFFINITY PREDICTED BY RF-SCORE:    0.00 PKD
ROOT
HETATM    1  C   UNL     1      -6.937  15.345  67.193  1.00  0.00    -0.085 C  
HETATM    2  C   UNL     1      -7.823  16.230  66.233  1.00  0.00    -0.105 C  
HETATM    3  C   UNL     1      -5.981  16.210  68.024  1.00  0.00    -0.129 C  
HETATM    4  C   UNL     1      -7.547  17.750  66.215  1.00  0.00    -0.322 C  
HETATM    5  C   UNL     1      -6.084  18.101  66.398  1.00  0.00    -0.181 C  
HETATM    6  C   UNL     1      -5.905  12.406  68.602  1.00  0.00    -0.054 C  
HETATM    7  C   UNL     1      -7.687  14.238  68.022  1.00  0.00    -0.141 C  
HETATM    8  C   UNL     1      -5.544  17.416  67.606  1.00  0.00    -0.137 C  
HETATM    9  O   UNL     1      -5.338  17.746  65.247  1.00  0.00    -0.082 OA 
HETATM   10  C   UNL     1      -6.767  13.571  69.103  1.00  0.00    -0.103 C  
HETATM   11  C   UNL     1      -5.867  14.541  69.801  1.00  0.00    -0.111 C  
HETATM   12  H   UNL     1      -4.420  17.966  65.361  1.00  0.00     0.000 HD 
HETATM   13  C   UNL     1      -5.509  15.721  69.300  1.00  0.00    -0.107 C  
ENDROOT
BRANCH   2  14
HETATM   14  O   UNL     1      -9.252  15.995  66.280  1.00  0.00    -0.275 OA 
BRANCH  14  15
HETATM   15  C   UNL     1     -10.108  16.989  66.653  1.00  0.00    -0.306 C  
HETATM   16  C   UNL     1      -9.749  18.657  68.459  1.00  0.00    -0.409 C  
HETATM   17  C   UNL     1     -11.335  16.731  68.819  1.00  0.00    -0.038 C  
HETATM   18  O   UNL     1     -10.845  17.615  65.902  1.00  0.00    -0.208 OA 
HETATM   19  C   UNL     1     -10.031  17.188  68.154  1.00  0.00    -0.297 C  
HETATM   20  C   UNL     1     -11.559  15.230  68.704  1.00  0.00    -0.370 C  
ENDBRANCH  14  15
ENDBRANCH   2  14
BRANCH   7  21
HETATM   21  C   UNL     1      -8.421  13.149  67.165  1.00  0.00    -0.173 C  
BRANCH  21  22
HETATM   22  C   UNL     1      -9.164  12.158  68.087  1.00  0.00    -0.197 C  
BRANCH  22  23
HETATM   23  C   UNL     1     -10.519  11.605  67.623  1.00  0.00    -0.191 C  
HETATM   24  O   UNL     1     -11.146  10.851  68.660  1.00  0.00    -0.212 OA 
HETATM   25  H   UNL     1     -11.985  10.509  68.372  1.00  0.00     0.000 HD 
BRANCH  23  26
HETATM   26  C   UNL     1     -11.435  12.807  67.297  1.00  0.00    -0.393 C  
BRANCH  26  27
HETATM   27  C   UNL     1     -11.674  13.048  65.801  1.00  0.00    -0.382 C  
HETATM   28  O   UNL     1     -12.642  12.123  65.282  1.00  0.00    -0.494 OA 
HETATM   29  H   UNL     1     -12.789  12.272  64.356  1.00  0.00     0.000 HD 
BRANCH  27  30
HETATM   30  C   UNL     1     -12.228  14.456  65.566  1.00  0.00    -0.352 C  
HETATM   31  C   UNL     1     -12.213  14.866  64.111  1.00  0.00    -0.255 C  
HETATM   32  O   UNL     1     -12.536  13.879  63.247  1.00  0.00    -0.824 OA 
HETATM   33  O   UNL     1     -12.004  16.013  63.744  1.00  0.00    -0.844 OA 
ENDBRANCH  27  30
ENDBRANCH  26  27
ENDBRANCH  23  26
ENDBRANCH  22  23
ENDBRANCH  21  22
ENDBRANCH   7  21
TORSDOF 8
ENDMDL
MODEL      167
REMARK 921   NORMALIZED FREE ENERGY PREDICTED BY IDOCK:   -4.77 KCAL/MOL
REMARK 922        TOTAL FREE ENERGY PREDICTED BY IDOCK:   -8.46 KCAL/MOL
REMARK 923 INTER-LIGAND FREE ENERGY PREDICTED BY IDOCK:   -6.53 KCAL/MOL
REMARK 924 INTRA-LIGAND FREE ENERGY PREDICTED BY IDOCK:   -1.93 KCAL/MOL
REMARK 927      BINDING AFFINITY PREDICTED BY RF-SCORE:    0.00 PKD
ROOT
HETATM    1  C   UNL     1      -8.661  11.283  68.836  1.00  0.00    -0.053 C  
HETATM    2  C   UNL     1      -9.825  11.569  67.809  1.00  0.00    -0.177 C  
HETATM    3  C   UNL     1      -9.039  10.156  69.805  1.00  0.00    -0.166 C  
HETATM    4  C   UNL     1     -11.135  10.769  67.982  1.00  0.00    -0.359 C  
HETATM    5  C   UNL     1     -11.483  10.487  69.430  1.00  0.00    -0.262 C  
HETATM    6  C   UNL     1      -5.553  11.744  70.183  1.00  0.00    -0.131 C  
HETATM    7  C   UNL     1      -7.211  11.159  68.239  1.00  0.00    -0.083 C  
HETATM    8  C   UNL     1     -10.318   9.869  70.122  1.00  0.00    -0.336 C  
HETATM    9  O   UNL     1     -11.884  11.675  70.089  1.00  0.00    -0.330 OA 
HETATM   10  C   UNL     1      -6.168  10.654  69.297  1.00  0.00    -0.050 C  
HETATM   11  C   UNL     1      -6.699   9.579  70.192  1.00  0.00    -0.078 C  
HETATM   12  H   UNL     1     -12.103  11.499  70.996  1.00  0.00     0.000 HD 
HETATM   13  C   UNL     1      -7.993   9.372  70.424  1.00  0.00    -0.190 C  
ENDROOT
BRANCH   2  14
HETATM   14  O   UNL     1      -9.452  11.598  66.409  1.00  0.00    -0.205 OA 
BRANCH  14  15
HETATM   15  C   UNL     1      -9.755  10.552  65.588  1.00  0.00    -0.234 C  
HETATM   16  C   UNL     1      -9.753   8.142  66.193  1.00  0.00    -0.154 C  
HETATM   17  C   UNL     1      -7.879   9.094  64.802  1.00  0.00    -0.119 C  
HETATM   18  O   UNL     1     -10.590  10.565  64.693  1.00  0.00    -0.250 OA 
HETATM   19  C   UNL     1      -8.877   9.365  65.934  1.00  0.00    -0.193 C  
HETATM   20  C   UNL     1      -6.859  10.213  64.637  1.00  0.00    -0.117 C  
ENDBRANCH  14  15
ENDBRANCH   2  14
BRANCH   7  21
HETATM   21  C   UNL     1      -6.683  12.439  67.503  1.00  0.00    -0.146 C  
BRANCH  21  22
HETATM   22  C   UNL     1      -7.234  13.710  68.185  1.00  0.00    -0.117 C  
BRANCH  22  23
HETATM   23  C   UNL     1      -7.641  14.895  67.298  1.00  0.00    -0.181 C  
HETATM   24  O   UNL     1      -8.485  14.468  66.228  1.00  0.00    -0.357 OA 
HETATM   25  H   UNL     1      -8.737  15.201  65.679  1.00  0.00     0.000 HD 
BRANCH  23  26
HETATM   26  C   UNL     1      -8.452  15.883  68.168  1.00  0.00    -0.167 C  
BRANCH  26  27
HETATM   27  C   UNL     1      -8.221  17.365  67.845  1.00  0.00    -0.225 C  
HETATM   28  O   UNL     1      -7.436  17.512  66.652  1.00  0.00    -0.201 OA 
HETATM   29  H   UNL     1      -7.292  18.429  66.453  1.00  0.00     0.000 HD 
BRANCH  27  30
HETATM   30  C   UNL     1      -9.555  18.074  67.593  1.00  0.00    -0.271 C  
HETATM   31  C   UNL     1      -9.962  18.077  66.138  1.00  0.00    -0.285 C  
HETATM   32  O   UNL     1      -9.692  16.929  65.477  1.00  0.00    -0.541 OA 
HETATM   33  O   UNL     1     -10.558  19.007  65.614  1.00  0.00    -0.554 OA 
ENDBRANCH  27  30
ENDBRANCH  26  27
ENDBRANCH  23  26
ENDBRANCH  22  23
ENDBRANCH  21  22
ENDBRANCH   7  21
TORSDOF 8
ENDMDL
MODEL      168
REMARK 921   NORMALIZED FREE ENERGY PREDICTED BY IDOCK:   -4.75 KCAL/MOL
REMARK 922        TOTAL FREE ENERGY PREDICTED BY IDOCK:   -8.42 KCAL/MOL
REMARK 923 INTER-LIGAND FREE ENERGY PREDICTED BY IDOCK:   -6.80 KCAL/MOL
REMARK 924 INTRA-LIGAND FREE ENERGY PREDICTED BY IDOCK:   -1.62 KCAL/MOL
REMARK 927      BINDING AFFINITY PREDICTED BY RF-SCORE:    0.00 PKD
ROOT
HETATM    1  C   UNL     1      -8.606   6.712  71.010  1.00  0.00    -0.137 C  
HETATM    2  C   UNL     1      -8.013   6.631  69.550  1.00  0.00    -0.117 C  
HETATM    3  C   UNL     1      -7.581   6.252  72.054  1.00  0.00    -0.096 C  
HETATM    4  C   UNL     1      -6.591   6.049  69.395  1.00  0.00    -0.044 C  
HETATM    5  C   UNL     1      -6.282   4.937  70.378  1.00  0.00    -0.022 C  
HETATM    6  C   UNL     1     -11.019   7.425  73.325  1.00  0.00    -0.367 C  
HETATM    7  C   UNL     1      -9.360   8.039  71.392  1.00  0.00    -0.182 C  
HETATM    8  C   UNL     1      -6.589   5.385  71.765  1.00  0.00    -0.048 C  
HETATM    9  O   UNL     1      -7.015   3.768  70.055  1.00  0.00    -0.040 OA 
HETATM   10  C   UNL     1      -9.710   8.113  72.919  1.00  0.00    -0.340 C  
HETATM   11  C   UNL     1      -8.623   7.594  73.807  1.00  0.00    -0.277 C  
HETATM   12  H   UNL     1      -6.822   3.070  70.671  1.00  0.00     0.000 HD 
HETATM   13  C   UNL     1      -7.677   6.745  73.410  1.00  0.00    -0.092 C  
ENDROOT
BRANCH   2  14
HETATM   14  O   UNL     1      -8.143   7.824  68.738  1.00  0.00    -0.123 OA 
BRANCH  14  15
HETATM   15  C   UNL     1      -9.030   7.867  67.704  1.00  0.00    -0.131 C  
HETATM   16  C   UNL     1     -10.919   6.303  67.302  1.00  0.00    -0.455 C  
HETATM   17  C   UNL     1      -8.825   6.134  65.910  1.00  0.00    -0.151 C  
HETATM   18  O   UNL     1      -9.452   8.883  67.166  1.00  0.00    -0.146 OA 
HETATM   19  C   UNL     1      -9.400   6.455  67.294  1.00  0.00    -0.125 C  
HETATM   20  C   UNL     1      -7.303   6.084  65.902  1.00  0.00    -0.076 C  
ENDBRANCH  14  15
ENDBRANCH   2  14
BRANCH   7  21
HETATM   21  C   UNL     1     -10.618   8.365  70.515  1.00  0.00    -0.236 C  
BRANCH  21  22
HETATM   22  C   UNL     1     -10.869   9.888  70.487  1.00  0.00    -0.391 C  
BRANCH  22  23
HETATM   23  C   UNL     1     -12.217  10.397  69.959  1.00  0.00    -0.189 C  
HETATM   24  O   UNL     1     -13.287   9.995  70.815  1.00  0.00    -0.573 OA 
HETATM   25  H   UNL     1     -14.121  10.310  70.488  1.00  0.00     0.000 HD 
BRANCH  23  26
HETATM   26  C   UNL     1     -12.174  11.942  69.956  1.00  0.00    -0.291 C  
BRANCH  26  27
HETATM   27  C   UNL     1     -11.563  12.567  68.696  1.00  0.00    -0.314 C  
HETATM   28  O   UNL     1     -11.866  11.778  67.535  1.00  0.00    -0.577 OA 
HETATM   29  H   UNL     1     -11.487  12.165  66.755  1.00  0.00     0.000 HD 
BRANCH  27  30
HETATM   30  C   UNL     1     -12.143  13.964  68.453  1.00  0.00    -0.327 C  
HETATM   31  C   UNL     1     -11.206  14.873  67.692  1.00  0.00    -0.323 C  
HETATM   32  O   UNL     1     -10.517  14.266  66.701  1.00  0.00    -0.273 OA 
HETATM   33  O   UNL     1     -11.132  16.076  67.898  1.00  0.00    -0.338 OA 
ENDBRANCH  27  30
ENDBRANCH  26  27
ENDBRANCH  23  26
ENDBRANCH  22  23
ENDBRANCH  21  22
ENDBRANCH   7  21
TORSDOF 8
ENDMDL
MODEL      169
REMARK 921   NORMALIZED FREE ENERGY PREDICTED BY IDOCK:   -4.73 KCAL/MOL
REMARK 922        TOTAL FREE ENERGY PREDICTED BY IDOCK:   -8.40 KCAL/MOL
REMARK 923 INTER-LIGAND FREE ENERGY PREDICTED BY IDOCK:   -7.23 KCAL/MOL
REMARK 924 INTRA-LIGAND FREE ENERGY PREDICTED BY IDOCK:   -1.18 KCAL/MOL
REMARK 927      BINDING AFFINITY PREDICTED BY RF-SCORE:    0.00 PKD
ROOT
HETATM    1  C   UNL     1      -9.782   5.551  69.239  1.00  0.00    -0.214 C  
HETATM    2  C   UNL     1      -9.992   5.256  70.775  1.00  0.00    -0.211 C  
HETATM    3  C   UNL     1      -9.568   4.255  68.447  1.00  0.00    -0.197 C  
HETATM    4  C   UNL     1      -9.871   3.787  71.237  1.00  0.00    -0.219 C  
HETATM    5  C   UNL     1      -8.829   2.996  70.471  1.00  0.00    -0.085 C  
HETATM    6  C   UNL     1      -9.570   7.566  66.486  1.00  0.00    -0.239 C  
HETATM    7  C   UNL     1     -10.794   6.553  68.570  1.00  0.00    -0.353 C  
HETATM    8  C   UNL     1      -9.058   3.138  69.006  1.00  0.00    -0.208 C  
HETATM    9  O   UNL     1      -7.523   3.425  70.816  1.00  0.00    -0.040 OA 
HETATM   10  C   UNL     1     -10.644   6.605  67.010  1.00  0.00    -0.404 C  
HETATM   11  C   UNL     1     -10.404   5.265  66.388  1.00  0.00    -0.315 C  
HETATM   12  H   UNL     1      -6.869   2.929  70.336  1.00  0.00     0.000 HD 
HETATM   13  C   UNL     1      -9.907   4.218  67.042  1.00  0.00    -0.216 C  
ENDROOT
BRANCH   2  14
HETATM   14  O   UNL     1     -11.151   5.867  71.393  1.00  0.00    -0.276 OA 
BRANCH  14  15
HETATM   15  C   UNL     1     -11.002   6.802  72.374  1.00  0.00    -0.246 C  
HETATM   16  C   UNL     1      -8.904   7.975  73.002  1.00  0.00    -0.302 C  
HETATM   17  C   UNL     1      -9.802   6.129  74.465  1.00  0.00    -0.319 C  
HETATM   18  O   UNL     1     -11.839   7.634  72.701  1.00  0.00    -0.298 OA 
HETATM   19  C   UNL     1      -9.644   6.640  73.028  1.00  0.00    -0.162 C  
HETATM   20  C   UNL     1     -10.361   4.715  74.528  1.00  0.00    -0.318 C  
ENDBRANCH  14  15
ENDBRANCH   2  14
BRANCH   7  21
HETATM   21  C   UNL     1     -10.797   7.999  69.178  1.00  0.00    -0.038 C  
BRANCH  21  22
HETATM   22  C   UNL     1      -9.349   8.513  69.337  1.00  0.00    -0.154 C  
BRANCH  22  23
HETATM   23  C   UNL     1      -9.136   9.981  69.729  1.00  0.00    -0.193 C  
HETATM   24  O   UNL     1      -7.973  10.129  70.546  1.00  0.00    -0.423 OA 
HETATM   25  H   UNL     1      -7.841  11.038  70.788  1.00  0.00     0.000 HD 
BRANCH  23  26
HETATM   26  C   UNL     1      -8.903  10.790  68.432  1.00  0.00    -0.146 C  
BRANCH  26  27
HETATM   27  C   UNL     1     -10.180  11.167  67.671  1.00  0.00    -0.181 C  
HETATM   28  O   UNL     1     -10.696  12.426  68.130  1.00  0.00    -0.207 OA 
HETATM   29  H   UNL     1     -11.487  12.659  67.659  1.00  0.00     0.000 HD 
BRANCH  27  30
HETATM   30  C   UNL     1      -9.888  11.321  66.175  1.00  0.00    -0.262 C  
HETATM   31  C   UNL     1     -11.124  11.609  65.355  1.00  0.00    -0.239 C  
HETATM   32  O   UNL     1     -12.004  12.449  65.942  1.00  0.00    -0.516 OA 
HETATM   33  O   UNL     1     -11.283  11.185  64.219  1.00  0.00    -0.246 OA 
ENDBRANCH  27  30
ENDBRANCH  26  27
ENDBRANCH  23  26
ENDBRANCH  22  23
ENDBRANCH  21  22
ENDBRANCH   7  21
TORSDOF 8
ENDMDL
MODEL      170
REMARK 921   NORMALIZED FREE ENERGY PREDICTED BY IDOCK:   -4.72 KCAL/MOL
REMARK 922        TOTAL FREE ENERGY PREDICTED BY IDOCK:   -8.39 KCAL/MOL
REMARK 923 INTER-LIGAND FREE ENERGY PREDICTED BY IDOCK:   -7.74 KCAL/MOL
REMARK 924 INTRA-LIGAND FREE ENERGY PREDICTED BY IDOCK:   -0.65 KCAL/MOL
REMARK 927      BINDING AFFINITY PREDICTED BY RF-SCORE:    0.00 PKD
ROOT
HETATM    1  C   UNL     1      -8.882   9.837  65.807  1.00  0.00    -0.180 C  
HETATM    2  C   UNL     1     -10.151  10.382  65.044  1.00  0.00    -0.309 C  
HETATM    3  C   UNL     1      -7.605  10.042  64.981  1.00  0.00    -0.139 C  
HETATM    4  C   UNL     1      -9.937  10.934  63.617  1.00  0.00    -0.415 C  
HETATM    5  C   UNL     1      -8.871  10.193  62.836  1.00  0.00    -0.229 C  
HETATM    6  C   UNL     1      -7.246   8.410  68.448  1.00  0.00    -0.085 C  
HETATM    7  C   UNL     1      -8.741  10.243  67.320  1.00  0.00    -0.125 C  
HETATM    8  C   UNL     1      -7.615  10.117  63.635  1.00  0.00    -0.139 C  
HETATM    9  O   UNL     1      -9.320   8.895  62.485  1.00  0.00    -0.516 OA 
HETATM   10  C   UNL     1      -7.347   9.846  67.921  1.00  0.00    -0.088 C  
HETATM   11  C   UNL     1      -6.206  10.072  66.981  1.00  0.00    -0.063 C  
HETATM   12  H   UNL     1      -8.652   8.430  61.995  1.00  0.00     0.000 HD 
HETATM   13  C   UNL     1      -6.332  10.145  65.658  1.00  0.00    -0.102 C  
ENDROOT
BRANCH   2  14
HETATM   14  O   UNL     1     -11.012  11.278  65.790  1.00  0.00    -0.240 OA 
BRANCH  14  15
HETATM   15  C   UNL     1     -10.729  12.609  65.865  1.00  0.00    -0.266 C  
HETATM   16  C   UNL     1     -12.023  14.334  67.100  1.00  0.00    -0.449 C  
HETATM   17  C   UNL     1     -12.188  14.193  64.589  1.00  0.00    -0.465 C  
HETATM   18  O   UNL     1      -9.609  13.102  65.886  1.00  0.00    -0.218 OA 
HETATM   19  C   UNL     1     -12.022  13.401  65.892  1.00  0.00    -0.452 C  
HETATM   20  C   UNL     1     -12.386  13.294  63.376  1.00  0.00    -0.402 C  
ENDBRANCH  14  15
ENDBRANCH   2  14
BRANCH   7  21
HETATM   21  C   UNL     1      -9.908   9.759  68.249  1.00  0.00    -0.167 C  
BRANCH  21  22
HETATM   22  C   UNL     1     -10.627   8.549  67.615  1.00  0.00    -0.268 C  
BRANCH  22  23
HETATM   23  C   UNL     1     -10.242   7.141  68.089  1.00  0.00    -0.188 C  
HETATM   24  O   UNL     1     -11.346   6.497  68.727  1.00  0.00    -0.547 OA 
HETATM   25  H   UNL     1     -11.108   5.625  69.020  1.00  0.00     0.000 HD 
BRANCH  23  26
HETATM   26  C   UNL     1      -9.868   6.306  66.843  1.00  0.00    -0.196 C  
BRANCH  26  27
HETATM   27  C   UNL     1     -10.497   4.907  66.793  1.00  0.00    -0.182 C  
HETATM   28  O   UNL     1     -10.976   4.609  65.473  1.00  0.00    -0.756 OA 
HETATM   29  H   UNL     1     -11.365   3.743  65.442  1.00  0.00     0.000 HD 
BRANCH  27  30
HETATM   30  C   UNL     1      -9.457   3.839  67.145  1.00  0.00    -0.234 C  
HETATM   31  C   UNL     1      -8.688   3.340  65.944  1.00  0.00    -0.127 C  
HETATM   32  O   UNL     1      -8.368   4.296  65.045  1.00  0.00    -0.110 OA 
HETATM   33  O   UNL     1      -8.312   2.182  65.828  1.00  0.00    -0.086 OA 
ENDBRANCH  27  30
ENDBRANCH  26  27
ENDBRANCH  23  26
ENDBRANCH  22  23
ENDBRANCH  21  22
ENDBRANCH   7  21
TORSDOF 8
ENDMDL
MODEL      171
REMARK 921   NORMALIZED FREE ENERGY PREDICTED BY IDOCK:   -4.69 KCAL/MOL
REMARK 922        TOTAL FREE ENERGY PREDICTED BY IDOCK:   -8.35 KCAL/MOL
REMARK 923 INTER-LIGAND FREE ENERGY PREDICTED BY IDOCK:   -7.61 KCAL/MOL
REMARK 924 INTRA-LIGAND FREE ENERGY PREDICTED BY IDOCK:   -0.74 KCAL/MOL
REMARK 927      BINDING AFFINITY PREDICTED BY RF-SCORE:    0.00 PKD
ROOT
HETATM    1  C   UNL     1      -8.169   9.137  68.854  1.00  0.00    -0.112 C  
HETATM    2  C   UNL     1      -8.293  10.414  67.937  1.00  0.00    -0.114 C  
HETATM    3  C   UNL     1      -6.701   8.775  69.111  1.00  0.00    -0.051 C  
HETATM    4  C   UNL     1      -6.982  11.026  67.394  1.00  0.00    -0.086 C  
HETATM    5  C   UNL     1      -5.919   9.993  67.078  1.00  0.00    -0.051 C  
HETATM    6  C   UNL     1      -9.395   6.577  70.761  1.00  0.00    -0.162 C  
HETATM    7  C   UNL     1      -9.073   9.103  70.141  1.00  0.00    -0.229 C  
HETATM    8  C   UNL     1      -5.712   9.100  68.253  1.00  0.00    -0.038 C  
HETATM    9  O   UNL     1      -6.279   9.239  65.934  1.00  0.00    -0.055 OA 
HETATM   10  C   UNL     1      -8.716   7.911  71.095  1.00  0.00    -0.146 C  
HETATM   11  C   UNL     1      -7.246   7.660  71.213  1.00  0.00    -0.062 C  
HETATM   12  H   UNL     1      -5.612   8.592  65.735  1.00  0.00     0.000 HD 
HETATM   13  C   UNL     1      -6.349   8.043  70.307  1.00  0.00    -0.036 C  
ENDROOT
BRANCH   2  14
HETATM   14  O   UNL     1      -9.159  11.470  68.421  1.00  0.00    -0.178 OA 
BRANCH  14  15
HETATM   15  C   UNL     1      -9.583  12.459  67.584  1.00  0.00    -0.193 C  
HETATM   16  C   UNL     1     -11.884  13.383  67.422  1.00  0.00    -0.418 C  
HETATM   17  C   UNL     1     -11.026  11.817  65.643  1.00  0.00    -0.348 C  
HETATM   18  O   UNL     1      -8.920  13.425  67.226  1.00  0.00    -0.202 OA 
HETATM   19  C   UNL     1     -11.002  12.171  67.135  1.00  0.00    -0.316 C  
HETATM   20  C   UNL     1     -10.318  10.504  65.338  1.00  0.00    -0.292 C  
ENDBRANCH  14  15
ENDBRANCH   2  14
BRANCH   7  21
HETATM   21  C   UNL     1     -10.617   9.157  69.870  1.00  0.00    -0.246 C  
BRANCH  21  22
HETATM   22  C   UNL     1     -11.318  10.009  70.951  1.00  0.00    -0.439 C  
BRANCH  22  23
HETATM   23  C   UNL     1     -12.152  11.216  70.502  1.00  0.00    -0.381 C  
HETATM   24  O   UNL     1     -13.035  10.859  69.437  1.00  0.00    -0.425 OA 
HETATM   25  H   UNL     1     -13.552  11.606  69.159  1.00  0.00     0.000 HD 
BRANCH  23  26
HETATM   26  C   UNL     1     -13.021  11.666  71.699  1.00  0.00    -0.483 C  
BRANCH  26  27
HETATM   27  C   UNL     1     -13.318  13.169  71.750  1.00  0.00    -0.389 C  
HETATM   28  O   UNL     1     -13.394  13.630  73.107  1.00  0.00    -0.518 OA 
HETATM   29  H   UNL     1     -13.579  14.561  73.138  1.00  0.00     0.000 HD 
BRANCH  27  30
HETATM   30  C   UNL     1     -12.198  13.962  71.069  1.00  0.00    -0.421 C  
HETATM   31  C   UNL     1     -11.865  15.252  71.782  1.00  0.00    -0.406 C  
HETATM   32  O   UNL     1     -11.886  15.170  73.130  1.00  0.00    -0.392 OA 
HETATM   33  O   UNL     1     -11.525  16.269  71.195  1.00  0.00    -0.420 OA 
ENDBRANCH  27  30
ENDBRANCH  26  27
ENDBRANCH  23  26
ENDBRANCH  22  23
ENDBRANCH  21  22
ENDBRANCH   7  21
TORSDOF 8
ENDMDL
MODEL      172
REMARK 921   NORMALIZED FREE ENERGY PREDICTED BY IDOCK:   -4.67 KCAL/MOL
REMARK 922        TOTAL FREE ENERGY PREDICTED BY IDOCK:   -8.31 KCAL/MOL
REMARK 923 INTER-LIGAND FREE ENERGY PREDICTED BY IDOCK:   -6.65 KCAL/MOL
REMARK 924 INTRA-LIGAND FREE ENERGY PREDICTED BY IDOCK:   -1.65 KCAL/MOL
REMARK 927      BINDING AFFINITY PREDICTED BY RF-SCORE:    0.00 PKD
ROOT
HETATM    1  C   UNL     1      -7.891  11.569  67.409  1.00  0.00    -0.143 C  
HETATM    2  C   UNL     1      -8.939  12.735  67.238  1.00  0.00    -0.199 C  
HETATM    3  C   UNL     1      -6.850  11.909  68.483  1.00  0.00    -0.076 C  
HETATM    4  C   UNL     1      -8.719  14.014  68.075  1.00  0.00    -0.180 C  
HETATM    5  C   UNL     1      -7.257  14.362  68.275  1.00  0.00    -0.122 C  
HETATM    6  C   UNL     1      -6.563   8.491  66.737  1.00  0.00    -0.057 C  
HETATM    7  C   UNL     1      -8.471  10.110  67.515  1.00  0.00    -0.118 C  
HETATM    8  C   UNL     1      -6.520  13.178  68.799  1.00  0.00    -0.095 C  
HETATM    9  O   UNL     1      -6.681  14.813  67.062  1.00  0.00    -0.334 OA 
HETATM   10  C   UNL     1      -7.378   9.056  67.907  1.00  0.00    -0.084 C  
HETATM   11  C   UNL     1      -6.415   9.551  68.940  1.00  0.00    -0.046 C  
HETATM   12  H   UNL     1      -5.765  15.032  67.186  1.00  0.00     0.000 HD 
HETATM   13  C   UNL     1      -6.176  10.838  69.182  1.00  0.00    -0.045 C  
ENDROOT
BRANCH   2  14
HETATM   14  O   UNL     1     -10.337  12.354  67.288  1.00  0.00    -0.214 OA 
BRANCH  14  15
HETATM   15  C   UNL     1     -11.120  12.438  66.175  1.00  0.00    -0.302 C  
HETATM   16  C   UNL     1     -10.365  12.276  63.813  1.00  0.00    -0.464 C  
HETATM   17  C   UNL     1     -10.973  14.518  64.791  1.00  0.00    -0.404 C  
HETATM   18  O   UNL     1     -12.270  12.031  66.078  1.00  0.00    -0.546 OA 
HETATM   19  C   UNL     1     -10.357  13.143  65.070  1.00  0.00    -0.346 C  
HETATM   20  C   UNL     1     -10.813  15.483  65.958  1.00  0.00    -0.301 C  
ENDBRANCH  14  15
ENDBRANCH   2  14
BRANCH   7  21
HETATM   21  C   UNL     1      -9.289   9.628  66.267  1.00  0.00    -0.238 C  
BRANCH  21  22
HETATM   22  C   UNL     1     -10.564   8.885  66.721  1.00  0.00    -0.212 C  
BRANCH  22  23
HETATM   23  C   UNL     1     -10.412   7.684  67.664  1.00  0.00    -0.244 C  
HETATM   24  O   UNL     1     -11.014   7.949  68.932  1.00  0.00    -0.423 OA 
HETATM   25  H   UNL     1     -10.920   7.205  69.515  1.00  0.00     0.000 HD 
BRANCH  23  26
HETATM   26  C   UNL     1     -11.158   6.486  67.032  1.00  0.00    -0.411 C  
BRANCH  26  27
HETATM   27  C   UNL     1     -10.272   5.278  66.702  1.00  0.00    -0.253 C  
HETATM   28  O   UNL     1     -10.342   4.960  65.304  1.00  0.00    -0.419 OA 
HETATM   29  H   UNL     1      -9.794   4.212  65.099  1.00  0.00     0.000 HD 
BRANCH  27  30
HETATM   30  C   UNL     1      -8.805   5.585  67.019  1.00  0.00    -0.110 C  
HETATM   31  C   UNL     1      -8.330   4.951  68.306  1.00  0.00    -0.091 C  
HETATM   32  O   UNL     1      -8.803   3.705  68.526  1.00  0.00    -0.097 OA 
HETATM   33  O   UNL     1      -7.521   5.484  69.052  1.00  0.00    -0.078 OA 
ENDBRANCH  27  30
ENDBRANCH  26  27
ENDBRANCH  23  26
ENDBRANCH  22  23
ENDBRANCH  21  22
ENDBRANCH   7  21
TORSDOF 8
ENDMDL
MODEL      173
REMARK 921   NORMALIZED FREE ENERGY PREDICTED BY IDOCK:   -4.66 KCAL/MOL
REMARK 922        TOTAL FREE ENERGY PREDICTED BY IDOCK:   -8.30 KCAL/MOL
REMARK 923 INTER-LIGAND FREE ENERGY PREDICTED BY IDOCK:   -7.12 KCAL/MOL
REMARK 924 INTRA-LIGAND FREE ENERGY PREDICTED BY IDOCK:   -1.18 KCAL/MOL
REMARK 927      BINDING AFFINITY PREDICTED BY RF-SCORE:    0.00 PKD
ROOT
HETATM    1  C   UNL     1     -10.043  10.951  67.857  1.00  0.00    -0.199 C  
HETATM    2  C   UNL     1     -11.473  10.903  68.521  1.00  0.00    -0.310 C  
HETATM    3  C   UNL     1      -9.359  12.301  68.105  1.00  0.00    -0.205 C  
HETATM    4  C   UNL     1     -11.977  12.189  69.213  1.00  0.00    -0.318 C  
HETATM    5  C   UNL     1     -11.528  13.462  68.522  1.00  0.00    -0.310 C  
HETATM    6  C   UNL     1      -7.409   9.652  66.106  1.00  0.00    -0.098 C  
HETATM    7  C   UNL     1      -9.112   9.705  68.097  1.00  0.00    -0.123 C  
HETATM    8  C   UNL     1     -10.052  13.438  68.321  1.00  0.00    -0.247 C  
HETATM    9  O   UNL     1     -12.199  13.622  67.285  1.00  0.00    -0.366 OA 
HETATM   10  C   UNL     1      -7.647   9.945  67.593  1.00  0.00    -0.091 C  
HETATM   11  C   UNL     1      -7.135  11.321  67.877  1.00  0.00    -0.078 C  
HETATM   12  H   UNL     1     -11.919  14.420  66.851  1.00  0.00     0.000 HD 
HETATM   13  C   UNL     1      -7.915  12.378  68.093  1.00  0.00    -0.153 C  
ENDROOT
BRANCH   2  14
HETATM   14  O   UNL     1     -11.752   9.756  69.362  1.00  0.00     0.026 OA 
BRANCH  14  15
HETATM   15  C   UNL     1     -11.552   9.818  70.709  1.00  0.00    -0.339 C  
HETATM   16  C   UNL     1      -9.656   8.830  71.976  1.00  0.00    -0.356 C  
HETATM   17  C   UNL     1     -11.927   7.738  72.049  1.00  0.00    -0.350 C  
HETATM   18  O   UNL     1     -11.846  10.761  71.432  1.00  0.00    -0.206 OA 
HETATM   19  C   UNL     1     -10.929   8.522  71.190  1.00  0.00    -0.306 C  
HETATM   20  C   UNL     1     -13.127   7.243  71.253  1.00  0.00    -0.363 C  
ENDBRANCH  14  15
ENDBRANCH   2  14
BRANCH   7  21
HETATM   21  C   UNL     1      -9.673   8.343  67.558  1.00  0.00    -0.209 C  
BRANCH  21  22
HETATM   22  C   UNL     1      -9.259   7.189  68.496  1.00  0.00    -0.134 C  
BRANCH  22  23
HETATM   23  C   UNL     1      -9.876   5.803  68.264  1.00  0.00    -0.139 C  
HETATM   24  O   UNL     1     -10.805   5.477  69.298  1.00  0.00    -0.269 OA 
HETATM   25  H   UNL     1     -11.187   4.619  69.153  1.00  0.00     0.000 HD 
BRANCH  23  26
HETATM   26  C   UNL     1     -10.655   5.848  66.930  1.00  0.00    -0.384 C  
BRANCH  26  27
HETATM   27  C   UNL     1     -10.330   4.710  65.955  1.00  0.00    -0.283 C  
HETATM   28  O   UNL     1     -11.468   4.394  65.139  1.00  0.00    -1.069 OA 
HETATM   29  H   UNL     1     -11.266   3.689  64.535  1.00  0.00     0.000 HD 
BRANCH  27  30
HETATM   30  C   UNL     1      -9.199   5.122  65.007  1.00  0.00    -0.024 C  
HETATM   31  C   UNL     1      -7.906   4.386  65.270  1.00  0.00    -0.086 C  
HETATM   32  O   UNL     1      -8.056   3.081  65.585  1.00  0.00    -0.085 OA 
HETATM   33  O   UNL     1      -6.805   4.902  65.132  1.00  0.00    -0.051 OA 
ENDBRANCH  27  30
ENDBRANCH  26  27
ENDBRANCH  23  26
ENDBRANCH  22  23
ENDBRANCH  21  22
ENDBRANCH   7  21
TORSDOF 8
ENDMDL
MODEL      174
REMARK 921   NORMALIZED FREE ENERGY PREDICTED BY IDOCK:   -4.65 KCAL/MOL
REMARK 922        TOTAL FREE ENERGY PREDICTED BY IDOCK:   -8.28 KCAL/MOL
REMARK 923 INTER-LIGAND FREE ENERGY PREDICTED BY IDOCK:   -8.01 KCAL/MOL
REMARK 924 INTRA-LIGAND FREE ENERGY PREDICTED BY IDOCK:   -0.27 KCAL/MOL
REMARK 927      BINDING AFFINITY PREDICTED BY RF-SCORE:    0.00 PKD
ROOT
HETATM    1  C   UNL     1      -8.853   9.812  68.192  1.00  0.00    -0.119 C  
HETATM    2  C   UNL     1      -8.932   9.876  69.767  1.00  0.00    -0.221 C  
HETATM    3  C   UNL     1      -7.911   8.694  67.727  1.00  0.00    -0.107 C  
HETATM    4  C   UNL     1      -8.028   8.907  70.561  1.00  0.00    -0.133 C  
HETATM    5  C   UNL     1      -6.688   8.652  69.901  1.00  0.00    -0.042 C  
HETATM    6  C   UNL     1      -9.681  10.781  65.020  1.00  0.00    -0.323 C  
HETATM    7  C   UNL     1     -10.220   9.865  67.416  1.00  0.00    -0.275 C  
HETATM    8  C   UNL     1      -6.889   8.244  68.482  1.00  0.00    -0.064 C  
HETATM    9  O   UNL     1      -5.866   9.804  69.978  1.00  0.00    -0.039 OA 
HETATM   10  C   UNL     1     -10.053   9.570  65.884  1.00  0.00    -0.284 C  
HETATM   11  C   UNL     1      -9.073   8.478  65.591  1.00  0.00    -0.189 C  
HETATM   12  H   UNL     1      -5.025   9.645  69.565  1.00  0.00     0.000 HD 
HETATM   13  C   UNL     1      -8.104   8.101  66.422  1.00  0.00    -0.106 C  
ENDROOT
BRANCH   2  14
HETATM   14  O   UNL     1     -10.262   9.885  70.342  1.00  0.00    -0.277 OA 
BRANCH  14  15
HETATM   15  C   UNL     1     -10.936   8.718  70.552  1.00  0.00    -0.239 C  
HETATM   16  C   UNL     1     -13.128   8.454  71.691  1.00  0.00    -0.355 C  
HETATM   17  C   UNL     1     -11.004   7.804  72.880  1.00  0.00    -0.467 C  
HETATM   18  O   UNL     1     -10.951   7.756  69.795  1.00  0.00    -0.237 OA 
HETATM   19  C   UNL     1     -11.649   8.778  71.888  1.00  0.00    -0.432 C  
HETATM   20  C   UNL     1      -9.583   8.202  73.256  1.00  0.00    -0.261 C  
ENDBRANCH  14  15
ENDBRANCH   2  14
BRANCH   7  21
HETATM   21  C   UNL     1     -11.063  11.168  67.643  1.00  0.00    -0.348 C  
BRANCH  21  22
HETATM   22  C   UNL     1     -10.175  12.417  67.451  1.00  0.00    -0.215 C  
BRANCH  22  23
HETATM   23  C   UNL     1     -10.312  13.571  68.453  1.00  0.00    -0.248 C  
HETATM   24  O   UNL     1      -9.050  13.893  69.038  1.00  0.00    -0.388 OA 
HETATM   25  H   UNL     1      -9.135  14.608  69.658  1.00  0.00     0.000 HD 
BRANCH  23  26
HETATM   26  C   UNL     1     -10.802  14.817  67.679  1.00  0.00    -0.285 C  
BRANCH  26  27
HETATM   27  C   UNL     1     -11.621  15.811  68.512  1.00  0.00    -0.362 C  
HETATM   28  O   UNL     1     -12.459  15.122  69.453  1.00  0.00    -0.567 OA 
HETATM   29  H   UNL     1     -12.966  15.738  69.968  1.00  0.00     0.000 HD 
BRANCH  27  30
HETATM   30  C   UNL     1     -10.696  16.725  69.321  1.00  0.00    -0.324 C  
HETATM   31  C   UNL     1     -10.073  17.824  68.491  1.00  0.00    -0.377 C  
HETATM   32  O   UNL     1     -10.899  18.371  67.573  1.00  0.00    -0.408 OA 
HETATM   33  O   UNL     1      -8.940  18.243  68.684  1.00  0.00    -0.319 OA 
ENDBRANCH  27  30
ENDBRANCH  26  27
ENDBRANCH  23  26
ENDBRANCH  22  23
ENDBRANCH  21  22
ENDBRANCH   7  21
TORSDOF 8
ENDMDL
MODEL      175
REMARK 921   NORMALIZED FREE ENERGY PREDICTED BY IDOCK:   -4.65 KCAL/MOL
REMARK 922        TOTAL FREE ENERGY PREDICTED BY IDOCK:   -8.28 KCAL/MOL
REMARK 923 INTER-LIGAND FREE ENERGY PREDICTED BY IDOCK:   -6.79 KCAL/MOL
REMARK 924 INTRA-LIGAND FREE ENERGY PREDICTED BY IDOCK:   -1.49 KCAL/MOL
REMARK 927      BINDING AFFINITY PREDICTED BY RF-SCORE:    0.00 PKD
ROOT
HETATM    1  C   UNL     1      -8.200  12.347  67.946  1.00  0.00    -0.163 C  
HETATM    2  C   UNL     1      -9.453  12.841  67.124  1.00  0.00    -0.223 C  
HETATM    3  C   UNL     1      -7.684  11.001  67.420  1.00  0.00    -0.114 C  
HETATM    4  C   UNL     1      -9.995  11.901  66.025  1.00  0.00    -0.258 C  
HETATM    5  C   UNL     1      -9.877  10.430  66.376  1.00  0.00    -0.213 C  
HETATM    6  C   UNL     1      -5.792  12.614  70.358  1.00  0.00    -0.155 C  
HETATM    7  C   UNL     1      -7.069  13.408  68.212  1.00  0.00    -0.109 C  
HETATM    8  C   UNL     1      -8.480  10.116  66.787  1.00  0.00    -0.126 C  
HETATM    9  O   UNL     1     -10.790  10.088  67.404  1.00  0.00    -0.282 OA 
HETATM   10  C   UNL     1      -5.778  12.768  68.832  1.00  0.00    -0.072 C  
HETATM   11  C   UNL     1      -5.427  11.440  68.239  1.00  0.00    -0.042 C  
HETATM   12  H   UNL     1     -10.717   9.166  67.624  1.00  0.00     0.000 HD 
HETATM   13  C   UNL     1      -6.296  10.647  67.617  1.00  0.00    -0.056 C  
ENDROOT
BRANCH   2  14
HETATM   14  O   UNL     1      -9.394  14.198  66.619  1.00  0.00    -0.272 OA 
BRANCH  14  15
HETATM   15  C   UNL     1     -10.480  15.019  66.706  1.00  0.00    -0.283 C  
HETATM   16  C   UNL     1     -10.571  17.247  67.801  1.00  0.00    -0.367 C  
HETATM   17  C   UNL     1     -11.605  15.245  68.930  1.00  0.00    -0.365 C  
HETATM   18  O   UNL     1     -11.351  15.143  65.856  1.00  0.00    -0.319 OA 
HETATM   19  C   UNL     1     -10.462  15.743  68.038  1.00  0.00    -0.270 C  
HETATM   20  C   UNL     1     -11.432  13.792  69.351  1.00  0.00    -0.341 C  
ENDBRANCH  14  15
ENDBRANCH   2  14
BRANCH   7  21
HETATM   21  C   UNL     1      -7.519  14.666  69.035  1.00  0.00    -0.136 C  
BRANCH  21  22
HETATM   22  C   UNL     1      -6.708  15.905  68.598  1.00  0.00    -0.119 C  
BRANCH  22  23
HETATM   23  C   UNL     1      -6.594  17.083  69.575  1.00  0.00    -0.194 C  
HETATM   24  O   UNL     1      -5.602  16.828  70.570  1.00  0.00    -0.200 OA 
HETATM   25  H   UNL     1      -5.531  17.558  71.174  1.00  0.00     0.000 HD 
BRANCH  23  26
HETATM   26  C   UNL     1      -6.142  18.325  68.771  1.00  0.00    -0.207 C  
BRANCH  26  27
HETATM   27  C   UNL     1      -6.612  19.668  69.343  1.00  0.00    -0.348 C  
HETATM   28  O   UNL     1      -5.995  19.927  70.613  1.00  0.00    -0.294 OA 
HETATM   29  H   UNL     1      -6.287  20.758  70.968  1.00  0.00     0.000 HD 
BRANCH  27  30
HETATM   30  C   UNL     1      -6.217  20.817  68.410  1.00  0.00    -0.357 C  
HETATM   31  C   UNL     1      -6.892  20.745  67.060  1.00  0.00    -0.323 C  
HETATM   32  O   UNL     1      -8.182  20.343  67.098  1.00  0.00    -0.328 OA 
HETATM   33  O   UNL     1      -6.348  21.098  66.023  1.00  0.00    -0.252 OA 
ENDBRANCH  27  30
ENDBRANCH  26  27
ENDBRANCH  23  26
ENDBRANCH  22  23
ENDBRANCH  21  22
ENDBRANCH   7  21
TORSDOF 8
ENDMDL
MODEL      176
REMARK 921   NORMALIZED FREE ENERGY PREDICTED BY IDOCK:   -4.60 KCAL/MOL
REMARK 922        TOTAL FREE ENERGY PREDICTED BY IDOCK:   -8.20 KCAL/MOL
REMARK 923 INTER-LIGAND FREE ENERGY PREDICTED BY IDOCK:   -7.01 KCAL/MOL
REMARK 924 INTRA-LIGAND FREE ENERGY PREDICTED BY IDOCK:   -1.20 KCAL/MOL
REMARK 927      BINDING AFFINITY PREDICTED BY RF-SCORE:    0.00 PKD
ROOT
HETATM    1  C   UNL     1     -10.831  13.959  69.412  1.00  0.00    -0.109 C  
HETATM    2  C   UNL     1     -11.049  15.510  69.598  1.00  0.00    -0.279 C  
HETATM    3  C   UNL     1     -11.960  13.155  70.070  1.00  0.00    -0.391 C  
HETATM    4  C   UNL     1     -12.259  15.959  70.447  1.00  0.00    -0.292 C  
HETATM    5  C   UNL     1     -12.564  15.028  71.604  1.00  0.00    -0.339 C  
HETATM    6  C   UNL     1      -9.193  11.191  68.253  1.00  0.00    -0.169 C  
HETATM    7  C   UNL     1     -10.454  13.470  67.965  1.00  0.00    -0.245 C  
HETATM    8  C   UNL     1     -12.673  13.626  71.113  1.00  0.00    -0.432 C  
HETATM    9  O   UNL     1     -11.566  15.131  72.605  1.00  0.00    -0.412 OA 
HETATM   10  C   UNL     1     -10.482  11.907  67.832  1.00  0.00    -0.225 C  
HETATM   11  C   UNL     1     -11.622  11.267  68.560  1.00  0.00    -0.384 C  
HETATM   12  H   UNL     1     -11.757  14.548  73.330  1.00  0.00     0.000 HD 
HETATM   13  C   UNL     1     -12.271  11.833  69.575  1.00  0.00    -0.232 C  
ENDROOT
BRANCH   2  14
HETATM   14  O   UNL     1     -10.968  16.319  68.398  1.00  0.00    -0.320 OA 
BRANCH  14  15
HETATM   15  C   UNL     1     -10.352  17.534  68.420  1.00  0.00    -0.378 C  
HETATM   16  C   UNL     1     -11.014  19.557  67.138  1.00  0.00    -0.459 C  
HETATM   17  C   UNL     1      -9.011  18.207  66.417  1.00  0.00    -0.256 C  
HETATM   18  O   UNL     1      -9.811  18.044  69.393  1.00  0.00    -0.101 OA 
HETATM   19  C   UNL     1     -10.412  18.158  67.039  1.00  0.00    -0.385 C  
HETATM   20  C   UNL     1      -8.450  16.823  66.121  1.00  0.00    -0.298 C  
ENDBRANCH  14  15
ENDBRANCH   2  14
BRANCH   7  21
HETATM   21  C   UNL     1      -9.115  14.054  67.394  1.00  0.00    -0.209 C  
BRANCH  21  22
HETATM   22  C   UNL     1      -8.109  14.297  68.540  1.00  0.00    -0.147 C  
BRANCH  22  23
HETATM   23  C   UNL     1      -6.628  13.985  68.289  1.00  0.00    -0.110 C  
HETATM   24  O   UNL     1      -5.888  15.181  68.041  1.00  0.00    -0.124 OA 
HETATM   25  H   UNL     1      -4.970  14.988  67.886  1.00  0.00     0.000 HD 
BRANCH  23  26
HETATM   26  C   UNL     1      -6.054  13.337  69.571  1.00  0.00    -0.112 C  
BRANCH  26  27
HETATM   27  C   UNL     1      -6.012  11.804  69.553  1.00  0.00    -0.092 C  
HETATM   28  O   UNL     1      -5.330  11.325  68.384  1.00  0.00    -0.043 OA 
HETATM   29  H   UNL     1      -5.304  10.376  68.373  1.00  0.00     0.000 HD 
BRANCH  27  30
HETATM   30  C   UNL     1      -5.244  11.275  70.768  1.00  0.00    -0.119 C  
HETATM   31  C   UNL     1      -5.674   9.887  71.185  1.00  0.00    -0.071 C  
HETATM   32  O   UNL     1      -5.939   9.050  70.158  1.00  0.00    -0.033 OA 
HETATM   33  O   UNL     1      -5.706   9.521  72.351  1.00  0.00    -0.240 OA 
ENDBRANCH  27  30
ENDBRANCH  26  27
ENDBRANCH  23  26
ENDBRANCH  22  23
ENDBRANCH  21  22
ENDBRANCH   7  21
TORSDOF 8
ENDMDL
MODEL      177
REMARK 921   NORMALIZED FREE ENERGY PREDICTED BY IDOCK:   -4.59 KCAL/MOL
REMARK 922        TOTAL FREE ENERGY PREDICTED BY IDOCK:   -8.20 KCAL/MOL
REMARK 923 INTER-LIGAND FREE ENERGY PREDICTED BY IDOCK:   -6.31 KCAL/MOL
REMARK 924 INTRA-LIGAND FREE ENERGY PREDICTED BY IDOCK:   -1.88 KCAL/MOL
REMARK 927      BINDING AFFINITY PREDICTED BY RF-SCORE:    0.00 PKD
ROOT
HETATM    1  C   UNL     1      -8.667   8.031  71.587  1.00  0.00    -0.169 C  
HETATM    2  C   UNL     1      -7.350   8.753  71.106  1.00  0.00    -0.097 C  
HETATM    3  C   UNL     1      -8.432   7.248  72.885  1.00  0.00    -0.134 C  
HETATM    4  C   UNL     1      -6.065   8.504  71.928  1.00  0.00    -0.060 C  
HETATM    5  C   UNL     1      -5.972   7.101  72.494  1.00  0.00    -0.041 C  
HETATM    6  C   UNL     1     -11.980   7.207  71.394  1.00  0.00    -0.364 C  
HETATM    7  C   UNL     1      -9.983   8.894  71.587  1.00  0.00    -0.397 C  
HETATM    8  C   UNL     1      -7.221   6.766  73.233  1.00  0.00    -0.075 C  
HETATM    9  O   UNL     1      -5.735   6.161  71.460  1.00  0.00    -0.025 OA 
HETATM   10  C   UNL     1     -11.181   8.163  72.289  1.00  0.00    -0.425 C  
HETATM   11  C   UNL     1     -10.783   7.413  73.521  1.00  0.00    -0.347 C  
HETATM   12  H   UNL     1      -5.677   5.281  71.814  1.00  0.00     0.000 HD 
HETATM   13  C   UNL     1      -9.545   6.995  73.773  1.00  0.00    -0.281 C  
ENDROOT
BRANCH   2  14
HETATM   14  O   UNL     1      -7.466  10.164  70.800  1.00  0.00    -0.242 OA 
BRANCH  14  15
HETATM   15  C   UNL     1      -6.588  10.765  69.947  1.00  0.00    -0.149 C  
HETATM   16  C   UNL     1      -7.156  12.152  67.966  1.00  0.00    -0.096 C  
HETATM   17  C   UNL     1      -6.325   9.793  67.657  1.00  0.00    -0.060 C  
HETATM   18  O   UNL     1      -5.502  11.237  70.257  1.00  0.00    -0.085 OA 
HETATM   19  C   UNL     1      -7.149  10.737  68.539  1.00  0.00    -0.070 C  
HETATM   20  C   UNL     1      -6.446   8.335  68.081  1.00  0.00    -0.056 C  
ENDBRANCH  14  15
ENDBRANCH   2  14
BRANCH   7  21
HETATM   21  C   UNL     1     -10.413   9.449  70.185  1.00  0.00    -0.280 C  
BRANCH  21  22
HETATM   22  C   UNL     1      -9.989   8.468  69.070  1.00  0.00    -0.197 C  
BRANCH  22  23
HETATM   23  C   UNL     1     -10.219   8.879  67.610  1.00  0.00    -0.237 C  
HETATM   24  O   UNL     1     -11.150   8.002  66.973  1.00  0.00    -0.387 OA 
HETATM   25  H   UNL     1     -11.293   8.257  66.068  1.00  0.00     0.000 HD 
BRANCH  23  26
HETATM   26  C   UNL     1     -10.834  10.297  67.607  1.00  0.00    -0.363 C  
BRANCH  26  27
HETATM   27  C   UNL     1     -10.889  10.972  66.231  1.00  0.00    -0.170 C  
HETATM   28  O   UNL     1     -11.010  12.396  66.364  1.00  0.00    -0.257 OA 
HETATM   29  H   UNL     1     -11.045  12.814  65.512  1.00  0.00     0.000 HD 
BRANCH  27  30
HETATM   30  C   UNL     1      -9.600  10.703  65.448  1.00  0.00    -0.282 C  
HETATM   31  C   UNL     1      -9.791  10.758  63.950  1.00  0.00    -0.332 C  
HETATM   32  O   UNL     1     -10.626  11.732  63.526  1.00  0.00    -0.374 OA 
HETATM   33  O   UNL     1      -9.182  10.036  63.174  1.00  0.00    -0.260 OA 
ENDBRANCH  27  30
ENDBRANCH  26  27
ENDBRANCH  23  26
ENDBRANCH  22  23
ENDBRANCH  21  22
ENDBRANCH   7  21
TORSDOF 8
ENDMDL
MODEL      178
REMARK 921   NORMALIZED FREE ENERGY PREDICTED BY IDOCK:   -4.58 KCAL/MOL
REMARK 922        TOTAL FREE ENERGY PREDICTED BY IDOCK:   -8.18 KCAL/MOL
REMARK 923 INTER-LIGAND FREE ENERGY PREDICTED BY IDOCK:   -6.50 KCAL/MOL
REMARK 924 INTRA-LIGAND FREE ENERGY PREDICTED BY IDOCK:   -1.67 KCAL/MOL
REMARK 927      BINDING AFFINITY PREDICTED BY RF-SCORE:    0.00 PKD
ROOT
HETATM    1  C   UNL     1     -10.562   5.170  71.616  1.00  0.00    -0.226 C  
HETATM    2  C   UNL     1      -9.713   4.005  70.974  1.00  0.00    -0.182 C  
HETATM    3  C   UNL     1     -10.193   5.380  73.090  1.00  0.00    -0.216 C  
HETATM    4  C   UNL     1      -8.748   3.236  71.903  1.00  0.00    -0.113 C  
HETATM    5  C   UNL     1      -9.272   3.072  73.316  1.00  0.00    -0.089 C  
HETATM    6  C   UNL     1     -12.873   7.688  71.572  1.00  0.00    -0.376 C  
HETATM    7  C   UNL     1     -10.674   6.501  70.785  1.00  0.00    -0.290 C  
HETATM    8  C   UNL     1      -9.689   4.395  73.860  1.00  0.00    -0.147 C  
HETATM    9  O   UNL     1     -10.353   2.156  73.344  1.00  0.00    -0.103 OA 
HETATM   10  C   UNL     1     -11.340   7.663  71.600  1.00  0.00    -0.286 C  
HETATM   11  C   UNL     1     -10.905   7.714  73.031  1.00  0.00    -0.457 C  
HETATM   12  H   UNL     1     -10.682   2.053  74.230  1.00  0.00     0.000 HD 
HETATM   13  C   UNL     1     -10.402   6.676  73.695  1.00  0.00    -0.343 C  
ENDROOT
BRANCH   2  14
HETATM   14  O   UNL     1      -9.045   4.312  69.724  1.00  0.00    -0.096 OA 
BRANCH  14  15
HETATM   15  C   UNL     1      -7.684   4.319  69.648  1.00  0.00    -0.053 C  
HETATM   16  C   UNL     1      -6.138   5.856  70.841  1.00  0.00    -0.034 C  
HETATM   17  C   UNL     1      -6.589   6.180  68.382  1.00  0.00    -0.058 C  
HETATM   18  O   UNL     1      -6.971   3.333  69.512  1.00  0.00    -0.040 OA 
HETATM   19  C   UNL     1      -7.179   5.746  69.729  1.00  0.00    -0.069 C  
HETATM   20  C   UNL     1      -7.638   6.271  67.283  1.00  0.00    -0.093 C  
ENDBRANCH  14  15
ENDBRANCH   2  14
BRANCH   7  21
HETATM   21  C   UNL     1     -11.347   6.350  69.376  1.00  0.00    -0.443 C  
BRANCH  21  22
HETATM   22  C   UNL     1     -10.652   7.275  68.353  1.00  0.00    -0.209 C  
BRANCH  22  23
HETATM   23  C   UNL     1     -10.523   8.767  68.688  1.00  0.00    -0.183 C  
HETATM   24  O   UNL     1      -9.194   9.085  69.105  1.00  0.00    -0.142 OA 
HETATM   25  H   UNL     1      -9.114  10.009  69.312  1.00  0.00     0.000 HD 
BRANCH  23  26
HETATM   26  C   UNL     1     -10.815   9.570  67.400  1.00  0.00    -0.215 C  
BRANCH  26  27
HETATM   27  C   UNL     1     -11.329  10.997  67.633  1.00  0.00    -0.281 C  
HETATM   28  O   UNL     1     -10.630  11.620  68.721  1.00  0.00    -0.206 OA 
HETATM   29  H   UNL     1     -10.949  12.503  68.866  1.00  0.00     0.000 HD 
BRANCH  27  30
HETATM   30  C   UNL     1     -11.091  11.863  66.392  1.00  0.00    -0.359 C  
HETATM   31  C   UNL     1     -11.996  13.071  66.328  1.00  0.00    -0.414 C  
HETATM   32  O   UNL     1     -12.214  13.673  67.518  1.00  0.00    -0.342 OA 
HETATM   33  O   UNL     1     -12.435  13.520  65.279  1.00  0.00    -0.437 OA 
ENDBRANCH  27  30
ENDBRANCH  26  27
ENDBRANCH  23  26
ENDBRANCH  22  23
ENDBRANCH  21  22
ENDBRANCH   7  21
TORSDOF 8
ENDMDL
MODEL      179
REMARK 921   NORMALIZED FREE ENERGY PREDICTED BY IDOCK:   -4.57 KCAL/MOL
REMARK 922        TOTAL FREE ENERGY PREDICTED BY IDOCK:   -8.17 KCAL/MOL
REMARK 923 INTER-LIGAND FREE ENERGY PREDICTED BY IDOCK:   -7.31 KCAL/MOL
REMARK 924 INTRA-LIGAND FREE ENERGY PREDICTED BY IDOCK:   -0.86 KCAL/MOL
REMARK 927      BINDING AFFINITY PREDICTED BY RF-SCORE:    0.00 PKD
ROOT
HETATM    1  C   UNL     1      -9.538  12.898  66.103  1.00  0.00    -0.215 C  
HETATM    2  C   UNL     1      -8.396  11.993  66.708  1.00  0.00    -0.135 C  
HETATM    3  C   UNL     1     -10.858  12.126  65.988  1.00  0.00    -0.318 C  
HETATM    4  C   UNL     1      -8.741  10.516  66.999  1.00  0.00    -0.132 C  
HETATM    5  C   UNL     1      -9.706   9.913  65.997  1.00  0.00    -0.247 C  
HETATM    6  C   UNL     1     -10.840  15.807  64.867  1.00  0.00    -0.433 C  
HETATM    7  C   UNL     1      -9.689  14.342  66.709  1.00  0.00    -0.282 C  
HETATM    8  C   UNL     1     -10.906  10.784  65.858  1.00  0.00    -0.077 C  
HETATM    9  O   UNL     1      -9.073   9.728  64.743  1.00  0.00    -0.210 OA 
HETATM   10  C   UNL     1     -10.982  15.073  66.206  1.00  0.00    -0.338 C  
HETATM   11  C   UNL     1     -12.176  14.176  66.113  1.00  0.00    -0.465 C  
HETATM   12  H   UNL     1      -9.677   9.350  64.115  1.00  0.00     0.000 HD 
HETATM   13  C   UNL     1     -12.108  12.851  66.002  1.00  0.00    -0.484 C  
ENDROOT
BRANCH   2  14
HETATM   14  O   UNL     1      -7.660  12.551  67.825  1.00  0.00    -0.113 OA 
BRANCH  14  15
HETATM   15  C   UNL     1      -6.316  12.351  67.940  1.00  0.00    -0.096 C  
HETATM   16  C   UNL     1      -5.189  10.560  69.243  1.00  0.00    -0.038 C  
HETATM   17  C   UNL     1      -5.227  12.923  70.119  1.00  0.00    -0.101 C  
HETATM   18  O   UNL     1      -5.485  12.559  67.066  1.00  0.00    -0.326 OA 
HETATM   19  C   UNL     1      -5.996  11.853  69.336  1.00  0.00    -0.084 C  
HETATM   20  C   UNL     1      -6.067  14.161  70.404  1.00  0.00    -0.169 C  
ENDBRANCH  14  15
ENDBRANCH   2  14
BRANCH   7  21
HETATM   21  C   UNL     1      -8.430  15.264  66.551  1.00  0.00    -0.202 C  
BRANCH  21  22
HETATM   22  C   UNL     1      -8.128  15.985  67.883  1.00  0.00    -0.149 C  
BRANCH  22  23
HETATM   23  C   UNL     1      -6.871  16.861  67.969  1.00  0.00    -0.148 C  
HETATM   24  O   UNL     1      -6.609  17.505  66.721  1.00  0.00    -0.162 OA 
HETATM   25  H   UNL     1      -5.831  18.048  66.775  1.00  0.00     0.000 HD 
BRANCH  23  26
HETATM   26  C   UNL     1      -7.133  17.965  69.020  1.00  0.00    -0.229 C  
BRANCH  26  27
HETATM   27  C   UNL     1      -7.905  19.183  68.496  1.00  0.00    -0.345 C  
HETATM   28  O   UNL     1      -7.405  19.592  67.214  1.00  0.00    -0.222 OA 
HETATM   29  H   UNL     1      -7.883  20.347  66.890  1.00  0.00     0.000 HD 
BRANCH  27  30
HETATM   30  C   UNL     1      -9.386  18.840  68.311  1.00  0.00    -0.374 C  
HETATM   31  C   UNL     1      -9.881  19.080  66.904  1.00  0.00    -0.331 C  
HETATM   32  O   UNL     1      -9.002  18.742  65.935  1.00  0.00    -0.462 OA 
HETATM   33  O   UNL     1     -11.011  19.473  66.653  1.00  0.00    -0.418 OA 
ENDBRANCH  27  30
ENDBRANCH  26  27
ENDBRANCH  23  26
ENDBRANCH  22  23
ENDBRANCH  21  22
ENDBRANCH   7  21
TORSDOF 8
ENDMDL
MODEL      180
REMARK 921   NORMALIZED FREE ENERGY PREDICTED BY IDOCK:   -4.52 KCAL/MOL
REMARK 922        TOTAL FREE ENERGY PREDICTED BY IDOCK:   -8.09 KCAL/MOL
REMARK 923 INTER-LIGAND FREE ENERGY PREDICTED BY IDOCK:   -6.76 KCAL/MOL
REMARK 924 INTRA-LIGAND FREE ENERGY PREDICTED BY IDOCK:   -1.33 KCAL/MOL
REMARK 927      BINDING AFFINITY PREDICTED BY RF-SCORE:    0.00 PKD
ROOT
HETATM    1  C   UNL     1     -10.637  14.512  67.285  1.00  0.00    -0.280 C  
HETATM    2  C   UNL     1      -9.677  14.683  68.525  1.00  0.00    -0.225 C  
HETATM    3  C   UNL     1     -10.608  15.752  66.383  1.00  0.00    -0.307 C  
HETATM    4  C   UNL     1      -8.954  16.039  68.679  1.00  0.00    -0.210 C  
HETATM    5  C   UNL     1      -9.785  17.222  68.223  1.00  0.00    -0.294 C  
HETATM    6  C   UNL     1     -12.854  12.817  65.310  1.00  0.00    -0.140 C  
HETATM    7  C   UNL     1     -10.546  13.149  66.506  1.00  0.00    -0.290 C  
HETATM    8  C   UNL     1     -10.300  16.981  66.847  1.00  0.00    -0.303 C  
HETATM    9  O   UNL     1     -10.853  17.459  69.124  1.00  0.00    -0.329 OA 
HETATM   10  C   UNL     1     -11.367  13.164  65.170  1.00  0.00    -0.322 C  
HETATM   11  C   UNL     1     -11.266  14.456  64.422  1.00  0.00    -0.235 C  
HETATM   12  H   UNL     1     -11.374  18.201  68.838  1.00  0.00     0.000 HD 
HETATM   13  C   UNL     1     -10.936  15.618  64.981  1.00  0.00    -0.445 C  
ENDROOT
BRANCH   2  14
HETATM   14  O   UNL     1      -8.742  13.602  68.766  1.00  0.00    -0.075 OA 
BRANCH  14  15
HETATM   15  C   UNL     1      -7.420  13.861  68.975  1.00  0.00    -0.032 C  
HETATM   16  C   UNL     1      -5.938  15.259  67.552  1.00  0.00    -0.042 C  
HETATM   17  C   UNL     1      -5.754  12.746  67.476  1.00  0.00    -0.116 C  
HETATM   18  O   UNL     1      -6.881  13.990  70.066  1.00  0.00    -0.022 OA 
HETATM   19  C   UNL     1      -6.702  13.940  67.642  1.00  0.00    -0.189 C  
HETATM   20  C   UNL     1      -6.493  11.420  67.366  1.00  0.00    -0.083 C  
ENDBRANCH  14  15
ENDBRANCH   2  14
BRANCH   7  21
HETATM   21  C   UNL     1     -10.886  11.874  67.354  1.00  0.00    -0.289 C  
BRANCH  21  22
HETATM   22  C   UNL     1      -9.852  10.761  67.080  1.00  0.00    -0.221 C  
BRANCH  22  23
HETATM   23  C   UNL     1      -9.374   9.902  68.259  1.00  0.00    -0.132 C  
HETATM   24  O   UNL     1      -9.308  10.673  69.459  1.00  0.00    -0.388 OA 
HETATM   25  H   UNL     1      -9.013  10.141  70.189  1.00  0.00     0.000 HD 
BRANCH  23  26
HETATM   26  C   UNL     1     -10.412   8.778  68.480  1.00  0.00    -0.212 C  
BRANCH  26  27
HETATM   27  C   UNL     1      -9.913   7.596  69.321  1.00  0.00    -0.180 C  
HETATM   28  O   UNL     1      -9.350   8.052  70.560  1.00  0.00    -0.154 OA 
HETATM   29  H   UNL     1      -9.041   7.320  71.080  1.00  0.00     0.000 HD 
BRANCH  27  30
HETATM   30  C   UNL     1     -11.073   6.660  69.672  1.00  0.00    -0.390 C  
HETATM   31  C   UNL     1     -11.748   7.014  70.977  1.00  0.00    -0.333 C  
HETATM   32  O   UNL     1     -11.885   8.340  71.196  1.00  0.00    -0.281 OA 
HETATM   33  O   UNL     1     -12.208   6.175  71.738  1.00  0.00    -0.245 OA 
ENDBRANCH  27  30
ENDBRANCH  26  27
ENDBRANCH  23  26
ENDBRANCH  22  23
ENDBRANCH  21  22
ENDBRANCH   7  21
TORSDOF 8
ENDMDL
MODEL      181
REMARK 921   NORMALIZED FREE ENERGY PREDICTED BY IDOCK:   -4.52 KCAL/MOL
REMARK 922        TOTAL FREE ENERGY PREDICTED BY IDOCK:   -8.09 KCAL/MOL
REMARK 923 INTER-LIGAND FREE ENERGY PREDICTED BY IDOCK:   -6.66 KCAL/MOL
REMARK 924 INTRA-LIGAND FREE ENERGY PREDICTED BY IDOCK:   -1.42 KCAL/MOL
REMARK 927      BINDING AFFINITY PREDICTED BY RF-SCORE:    0.00 PKD
ROOT
HETATM    1  C   UNL     1      -9.083  10.291  67.348  1.00  0.00    -0.148 C  
HETATM    2  C   UNL     1     -10.394  10.379  66.473  1.00  0.00    -0.224 C  
HETATM    3  C   UNL     1      -7.831  10.556  66.503  1.00  0.00    -0.134 C  
HETATM    4  C   UNL     1     -10.219  10.623  64.958  1.00  0.00    -0.380 C  
HETATM    5  C   UNL     1      -8.988   9.954  64.377  1.00  0.00    -0.239 C  
HETATM    6  C   UNL     1      -7.339   9.866  70.258  1.00  0.00    -0.166 C  
HETATM    7  C   UNL     1      -9.103  11.052  68.725  1.00  0.00    -0.161 C  
HETATM    8  C   UNL     1      -7.786  10.318  65.177  1.00  0.00    -0.136 C  
HETATM    9  O   UNL     1      -9.156   8.548  64.337  1.00  0.00    -0.365 OA 
HETATM   10  C   UNL     1      -7.692  11.093  69.408  1.00  0.00     0.026 C  
HETATM   11  C   UNL     1      -6.570  11.324  68.447  1.00  0.00    -0.059 C  
HETATM   12  H   UNL     1      -8.385   8.128  63.972  1.00  0.00     0.000 HD 
HETATM   13  C   UNL     1      -6.639  11.067  67.143  1.00  0.00    -0.089 C  
ENDROOT
BRANCH   2  14
HETATM   14  O   UNL     1     -11.451  11.228  66.985  1.00  0.00    -0.455 OA 
BRANCH  14  15
HETATM   15  C   UNL     1     -11.719  12.430  66.401  1.00  0.00    -0.391 C  
HETATM   16  C   UNL     1     -10.063  14.157  65.730  1.00  0.00    -0.352 C  
HETATM   17  C   UNL     1     -11.469  14.494  67.794  1.00  0.00    -0.362 C  
HETATM   18  O   UNL     1     -12.620  12.651  65.603  1.00  0.00    -0.611 OA 
HETATM   19  C   UNL     1     -10.743  13.472  66.912  1.00  0.00    -0.274 C  
HETATM   20  C   UNL     1     -11.998  13.886  69.086  1.00  0.00    -0.404 C  
ENDBRANCH  14  15
ENDBRANCH   2  14
BRANCH   7  21
HETATM   21  C   UNL     1     -10.199  10.567  69.736  1.00  0.00    -0.168 C  
BRANCH  21  22
HETATM   22  C   UNL     1     -10.359   9.033  69.653  1.00  0.00    -0.217 C  
BRANCH  22  23
HETATM   23  C   UNL     1     -10.347   8.227  70.958  1.00  0.00    -0.191 C  
HETATM   24  O   UNL     1     -11.562   8.412  71.686  1.00  0.00    -0.260 OA 
HETATM   25  H   UNL     1     -11.554   7.912  72.494  1.00  0.00     0.000 HD 
BRANCH  23  26
HETATM   26  C   UNL     1     -10.245   6.728  70.590  1.00  0.00    -0.216 C  
BRANCH  26  27
HETATM   27  C   UNL     1      -9.929   5.796  71.767  1.00  0.00    -0.169 C  
HETATM   28  O   UNL     1     -10.516   4.502  71.566  1.00  0.00    -0.113 OA 
HETATM   29  H   UNL     1     -10.321   3.925  72.295  1.00  0.00     0.000 HD 
BRANCH  27  30
HETATM   30  C   UNL     1      -8.417   5.587  71.895  1.00  0.00    -0.123 C  
HETATM   31  C   UNL     1      -7.762   6.554  72.854  1.00  0.00    -0.101 C  
HETATM   32  O   UNL     1      -8.485   6.820  73.964  1.00  0.00    -0.125 OA 
HETATM   33  O   UNL     1      -6.636   7.001  72.685  1.00  0.00    -0.060 OA 
ENDBRANCH  27  30
ENDBRANCH  26  27
ENDBRANCH  23  26
ENDBRANCH  22  23
ENDBRANCH  21  22
ENDBRANCH   7  21
TORSDOF 8
ENDMDL
MODEL      182
REMARK 921   NORMALIZED FREE ENERGY PREDICTED BY IDOCK:   -4.52 KCAL/MOL
REMARK 922        TOTAL FREE ENERGY PREDICTED BY IDOCK:   -8.09 KCAL/MOL
REMARK 923 INTER-LIGAND FREE ENERGY PREDICTED BY IDOCK:   -7.59 KCAL/MOL
REMARK 924 INTRA-LIGAND FREE ENERGY PREDICTED BY IDOCK:   -0.50 KCAL/MOL
REMARK 927      BINDING AFFINITY PREDICTED BY RF-SCORE:    0.00 PKD
ROOT
HETATM    1  C   UNL     1      -8.327   9.815  65.760  1.00  0.00    -0.132 C  
HETATM    2  C   UNL     1      -9.761  10.171  65.206  1.00  0.00    -0.300 C  
HETATM    3  C   UNL     1      -7.242  10.076  64.707  1.00  0.00    -0.136 C  
HETATM    4  C   UNL     1      -9.858  10.626  63.733  1.00  0.00    -0.394 C  
HETATM    5  C   UNL     1      -8.867   9.931  62.819  1.00  0.00    -0.239 C  
HETATM    6  C   UNL     1      -6.114   8.770  68.147  1.00  0.00    -0.051 C  
HETATM    7  C   UNL     1      -7.972  10.353  67.195  1.00  0.00    -0.115 C  
HETATM    8  C   UNL     1      -7.492  10.042  63.382  1.00  0.00    -0.139 C  
HETATM    9  O   UNL     1      -9.225   8.573  62.636  1.00  0.00    -0.375 OA 
HETATM   10  C   UNL     1      -6.461  10.143  67.559  1.00  0.00    -0.066 C  
HETATM   11  C   UNL     1      -5.530  10.402  66.417  1.00  0.00    -0.059 C  
HETATM   12  H   UNL     1      -8.605   8.137  62.063  1.00  0.00     0.000 HD 
HETATM   13  C   UNL     1      -5.890  10.357  65.136  1.00  0.00    -0.135 C  
ENDROOT
BRANCH   2  14
HETATM   14  O   UNL     1     -10.573  11.036  66.038  1.00  0.00    -0.252 OA 
BRANCH  14  15
HETATM   15  C   UNL     1     -10.550  12.388  65.864  1.00  0.00    -0.258 C  
HETATM   16  C   UNL     1     -11.953  14.061  67.050  1.00  0.00    -0.472 C  
HETATM   17  C   UNL     1     -12.469  13.450  64.660  1.00  0.00    -0.385 C  
HETATM   18  O   UNL     1      -9.558  13.058  65.607  1.00  0.00    -0.153 OA 
HETATM   19  C   UNL     1     -11.953  12.942  66.011  1.00  0.00    -0.505 C  
HETATM   20  C   UNL     1     -12.670  12.330  63.648  1.00  0.00    -0.526 C  
ENDBRANCH  14  15
ENDBRANCH   2  14
BRANCH   7  21
HETATM   21  C   UNL     1      -8.901   9.834  68.348  1.00  0.00    -0.120 C  
BRANCH  21  22
HETATM   22  C   UNL     1      -9.379   8.398  68.040  1.00  0.00    -0.146 C  
BRANCH  22  23
HETATM   23  C   UNL     1     -10.674   7.904  68.698  1.00  0.00    -0.035 C  
HETATM   24  O   UNL     1     -11.227   6.803  67.976  1.00  0.00    -0.518 OA 
HETATM   25  H   UNL     1     -12.029   6.497  68.384  1.00  0.00     0.000 HD 
BRANCH  23  26
HETATM   26  C   UNL     1     -10.324   7.404  70.119  1.00  0.00    -0.219 C  
BRANCH  26  27
HETATM   27  C   UNL     1     -10.986   6.078  70.516  1.00  0.00    -0.319 C  
HETATM   28  O   UNL     1     -10.373   4.976  69.831  1.00  0.00    -0.279 OA 
HETATM   29  H   UNL     1     -10.783   4.155  70.077  1.00  0.00     0.000 HD 
BRANCH  27  30
HETATM   30  C   UNL     1     -10.818   5.823  72.017  1.00  0.00    -0.306 C  
HETATM   31  C   UNL     1     -11.043   7.057  72.859  1.00  0.00    -0.278 C  
HETATM   32  O   UNL     1     -12.054   7.849  72.436  1.00  0.00    -0.323 OA 
HETATM   33  O   UNL     1     -10.420   7.287  73.886  1.00  0.00    -0.353 OA 
ENDBRANCH  27  30
ENDBRANCH  26  27
ENDBRANCH  23  26
ENDBRANCH  22  23
ENDBRANCH  21  22
ENDBRANCH   7  21
TORSDOF 8
ENDMDL
MODEL      183
REMARK 921   NORMALIZED FREE ENERGY PREDICTED BY IDOCK:   -4.51 KCAL/MOL
REMARK 922        TOTAL FREE ENERGY PREDICTED BY IDOCK:   -8.08 KCAL/MOL
REMARK 923 INTER-LIGAND FREE ENERGY PREDICTED BY IDOCK:   -6.38 KCAL/MOL
REMARK 924 INTRA-LIGAND FREE ENERGY PREDICTED BY IDOCK:   -1.70 KCAL/MOL
REMARK 927      BINDING AFFINITY PREDICTED BY RF-SCORE:    0.00 PKD
ROOT
HETATM    1  C   UNL     1     -11.013   7.655  69.799  1.00  0.00    -0.178 C  
HETATM    2  C   UNL     1     -11.703   6.947  71.029  1.00  0.00    -0.345 C  
HETATM    3  C   UNL     1     -10.859   9.162  70.039  1.00  0.00    -0.256 C  
HETATM    4  C   UNL     1     -12.172   7.847  72.193  1.00  0.00    -0.353 C  
HETATM    5  C   UNL     1     -12.683   9.201  71.742  1.00  0.00    -0.373 C  
HETATM    6  C   UNL     1      -9.523   7.737  66.724  1.00  0.00    -0.251 C  
HETATM    7  C   UNL     1      -9.725   6.962  69.219  1.00  0.00    -0.156 C  
HETATM    8  C   UNL     1     -11.678   9.855  70.858  1.00  0.00    -0.449 C  
HETATM    9  O   UNL     1     -13.926   9.069  71.075  1.00  0.00    -0.581 OA 
HETATM   10  C   UNL     1      -8.991   7.853  68.157  1.00  0.00    -0.131 C  
HETATM   11  C   UNL     1      -8.956   9.305  68.517  1.00  0.00    -0.129 C  
HETATM   12  H   UNL     1     -14.246   9.918  70.792  1.00  0.00     0.000 HD 
HETATM   13  C   UNL     1      -9.811   9.886  69.356  1.00  0.00    -0.231 C  
ENDROOT
BRANCH   2  14
HETATM   14  O   UNL     1     -11.028   5.778  71.558  1.00  0.00    -0.262 OA 
BRANCH  14  15
HETATM   15  C   UNL     1     -10.484   5.797  72.808  1.00  0.00    -0.210 C  
HETATM   16  C   UNL     1      -9.041   7.575  73.772  1.00  0.00    -0.311 C  
HETATM   17  C   UNL     1      -8.023   5.394  73.023  1.00  0.00    -0.101 C  
HETATM   18  O   UNL     1     -11.005   5.347  73.820  1.00  0.00    -0.283 OA 
HETATM   19  C   UNL     1      -9.112   6.440  72.754  1.00  0.00    -0.135 C  
HETATM   20  C   UNL     1      -7.931   4.345  71.924  1.00  0.00    -0.097 C  
ENDBRANCH  14  15
ENDBRANCH   2  14
BRANCH   7  21
HETATM   21  C   UNL     1      -9.942   5.508  68.673  1.00  0.00    -0.222 C  
BRANCH  21  22
HETATM   22  C   UNL     1      -8.594   4.757  68.611  1.00  0.00    -0.101 C  
BRANCH  22  23
HETATM   23  C   UNL     1      -8.615   3.238  68.390  1.00  0.00    -0.093 C  
HETATM   24  O   UNL     1      -9.508   2.601  69.305  1.00  0.00    -0.141 OA 
HETATM   25  H   UNL     1      -9.521   1.661  69.168  1.00  0.00     0.000 HD 
BRANCH  23  26
HETATM   26  C   UNL     1      -9.140   2.973  66.961  1.00  0.00    -0.196 C  
BRANCH  26  27
HETATM   27  C   UNL     1      -8.411   3.743  65.853  1.00  0.00    -0.109 C  
HETATM   28  O   UNL     1      -7.594   2.860  65.069  1.00  0.00    -0.074 OA 
HETATM   29  H   UNL     1      -7.142   3.338  64.384  1.00  0.00     0.000 HD 
BRANCH  27  30
HETATM   30  C   UNL     1      -9.417   4.391  64.897  1.00  0.00    -0.164 C  
HETATM   31  C   UNL     1      -9.818   3.487  63.754  1.00  0.00    -0.166 C  
HETATM   32  O   UNL     1      -9.976   2.189  64.094  1.00  0.00    -0.127 OA 
HETATM   33  O   UNL     1     -10.059   3.901  62.630  1.00  0.00    -0.155 OA 
ENDBRANCH  27  30
ENDBRANCH  26  27
ENDBRANCH  23  26
ENDBRANCH  22  23
ENDBRANCH  21  22
ENDBRANCH   7  21
TORSDOF 8
ENDMDL
MODEL      184
REMARK 921   NORMALIZED FREE ENERGY PREDICTED BY IDOCK:   -4.50 KCAL/MOL
REMARK 922        TOTAL FREE ENERGY PREDICTED BY IDOCK:   -8.06 KCAL/MOL
REMARK 923 INTER-LIGAND FREE ENERGY PREDICTED BY IDOCK:   -6.35 KCAL/MOL
REMARK 924 INTRA-LIGAND FREE ENERGY PREDICTED BY IDOCK:   -1.70 KCAL/MOL
REMARK 927      BINDING AFFINITY PREDICTED BY RF-SCORE:    0.00 PKD
ROOT
HETATM    1  C   UNL     1     -10.012   4.929  70.412  1.00  0.00    -0.316 C  
HETATM    2  C   UNL     1      -8.932   4.338  69.425  1.00  0.00    -0.101 C  
HETATM    3  C   UNL     1      -9.897   4.298  71.806  1.00  0.00    -0.250 C  
HETATM    4  C   UNL     1      -8.024   3.209  69.961  1.00  0.00    -0.054 C  
HETATM    5  C   UNL     1      -8.727   2.276  70.928  1.00  0.00    -0.063 C  
HETATM    6  C   UNL     1     -12.600   6.987  71.281  1.00  0.00    -0.418 C  
HETATM    7  C   UNL     1     -10.172   6.494  70.427  1.00  0.00    -0.227 C  
HETATM    8  C   UNL     1      -9.389   3.064  72.005  1.00  0.00    -0.189 C  
HETATM    9  O   UNL     1      -9.671   1.469  70.245  1.00  0.00    -0.075 OA 
HETATM   10  C   UNL     1     -11.098   6.992  71.591  1.00  0.00    -0.264 C  
HETATM   11  C   UNL     1     -10.892   6.253  72.876  1.00  0.00    -0.284 C  
HETATM   12  H   UNL     1     -10.112   0.884  70.850  1.00  0.00     0.000 HD 
HETATM   13  C   UNL     1     -10.362   5.035  72.959  1.00  0.00    -0.233 C  
ENDROOT
BRANCH   2  14
HETATM   14  O   UNL     1      -8.132   5.303  68.698  1.00  0.00    -0.089 OA 
BRANCH  14  15
HETATM   15  C   UNL     1      -7.679   5.025  67.443  1.00  0.00    -0.092 C  
HETATM   16  C   UNL     1      -7.122   6.670  65.666  1.00  0.00    -0.061 C  
HETATM   17  C   UNL     1      -9.259   5.341  65.528  1.00  0.00    -0.122 C  
HETATM   18  O   UNL     1      -6.940   4.098  67.139  1.00  0.00    -0.057 OA 
HETATM   19  C   UNL     1      -8.255   6.027  66.462  1.00  0.00    -0.107 C  
HETATM   20  C   UNL     1     -10.503   4.853  66.258  1.00  0.00    -0.349 C  
ENDBRANCH  14  15
ENDBRANCH   2  14
BRANCH   7  21
HETATM   21  C   UNL     1     -10.602   7.131  69.060  1.00  0.00    -0.225 C  
BRANCH  21  22
HETATM   22  C   UNL     1      -9.677   8.317  68.711  1.00  0.00    -0.160 C  
BRANCH  22  23
HETATM   23  C   UNL     1     -10.053   9.712  69.229  1.00  0.00    -0.193 C  
HETATM   24  O   UNL     1      -8.981  10.286  69.978  1.00  0.00    -0.388 OA 
HETATM   25  H   UNL     1      -9.214  11.150  70.298  1.00  0.00     0.000 HD 
BRANCH  23  26
HETATM   26  C   UNL     1     -10.308  10.621  68.004  1.00  0.00    -0.208 C  
BRANCH  26  27
HETATM   27  C   UNL     1     -10.852  12.015  68.339  1.00  0.00    -0.233 C  
HETATM   28  O   UNL     1     -11.380  12.653  67.167  1.00  0.00    -0.283 OA 
HETATM   29  H   UNL     1     -11.717  13.516  67.374  1.00  0.00     0.000 HD 
BRANCH  27  30
HETATM   30  C   UNL     1     -11.998  11.915  69.350  1.00  0.00    -0.350 C  
HETATM   31  C   UNL     1     -12.212  13.189  70.134  1.00  0.00    -0.290 C  
HETATM   32  O   UNL     1     -12.068  14.323  69.413  1.00  0.00    -0.316 OA 
HETATM   33  O   UNL     1     -12.564  13.200  71.305  1.00  0.00    -0.357 OA 
ENDBRANCH  27  30
ENDBRANCH  26  27
ENDBRANCH  23  26
ENDBRANCH  22  23
ENDBRANCH  21  22
ENDBRANCH   7  21
TORSDOF 8
ENDMDL
MODEL      185
REMARK 921   NORMALIZED FREE ENERGY PREDICTED BY IDOCK:   -4.49 KCAL/MOL
REMARK 922        TOTAL FREE ENERGY PREDICTED BY IDOCK:   -8.04 KCAL/MOL
REMARK 923 INTER-LIGAND FREE ENERGY PREDICTED BY IDOCK:   -6.37 KCAL/MOL
REMARK 924 INTRA-LIGAND FREE ENERGY PREDICTED BY IDOCK:   -1.67 KCAL/MOL
REMARK 927      BINDING AFFINITY PREDICTED BY RF-SCORE:    0.00 PKD
ROOT
HETATM    1  C   UNL     1      -7.739   5.452  68.968  1.00  0.00    -0.089 C  
HETATM    2  C   UNL     1      -7.421   6.664  68.010  1.00  0.00    -0.098 C  
HETATM    3  C   UNL     1      -6.556   4.479  69.047  1.00  0.00    -0.045 C  
HETATM    4  C   UNL     1      -6.067   6.644  67.267  1.00  0.00    -0.028 C  
HETATM    5  C   UNL     1      -5.617   5.252  66.868  1.00  0.00    -0.017 C  
HETATM    6  C   UNL     1      -9.675   3.671  71.152  1.00  0.00    -0.245 C  
HETATM    7  C   UNL     1      -8.375   5.805  70.363  1.00  0.00    -0.121 C  
HETATM    8  C   UNL     1      -5.657   4.346  68.050  1.00  0.00    -0.017 C  
HETATM    9  O   UNL     1      -6.429   4.746  65.822  1.00  0.00    -0.038 OA 
HETATM   10  C   UNL     1      -8.442   4.567  71.323  1.00  0.00    -0.116 C  
HETATM   11  C   UNL     1      -7.229   3.694  71.258  1.00  0.00    -0.033 C  
HETATM   12  H   UNL     1      -6.147   3.874  65.572  1.00  0.00     0.000 HD 
HETATM   13  C   UNL     1      -6.393   3.653  70.223  1.00  0.00    -0.027 C  
ENDROOT
BRANCH   2  14
HETATM   14  O   UNL     1      -7.662   7.988  68.548  1.00  0.00    -0.102 OA 
BRANCH  14  15
HETATM   15  C   UNL     1      -8.767   8.697  68.180  1.00  0.00    -0.142 C  
HETATM   16  C   UNL     1     -10.785   7.810  67.034  1.00  0.00    -0.316 C  
HETATM   17  C   UNL     1      -9.100   9.173  65.747  1.00  0.00    -0.265 C  
HETATM   18  O   UNL     1      -9.246   9.642  68.793  1.00  0.00    -0.136 OA 
HETATM   19  C   UNL     1      -9.306   8.153  66.872  1.00  0.00    -0.219 C  
HETATM   20  C   UNL     1      -7.631   9.400  65.420  1.00  0.00    -0.100 C  
ENDBRANCH  14  15
ENDBRANCH   2  14
BRANCH   7  21
HETATM   21  C   UNL     1      -9.761   6.535  70.296  1.00  0.00    -0.181 C  
BRANCH  21  22
HETATM   22  C   UNL     1      -9.975   7.389  71.565  1.00  0.00    -0.193 C  
BRANCH  22  23
HETATM   23  C   UNL     1     -11.386   7.914  71.862  1.00  0.00    -0.276 C  
HETATM   24  O   UNL     1     -11.761   7.639  73.213  1.00  0.00    -0.649 OA 
HETATM   25  H   UNL     1     -12.634   7.964  73.396  1.00  0.00     0.000 HD 
BRANCH  23  26
HETATM   26  C   UNL     1     -11.369   9.450  71.685  1.00  0.00    -0.452 C  
BRANCH  26  27
HETATM   27  C   UNL     1     -12.264   9.978  70.557  1.00  0.00    -0.222 C  
HETATM   28  O   UNL     1     -13.636   9.617  70.782  1.00  0.00    -0.596 OA 
HETATM   29  H   UNL     1     -14.190   9.943  70.083  1.00  0.00     0.000 HD 
BRANCH  27  30
HETATM   30  C   UNL     1     -12.207  11.507  70.497  1.00  0.00    -0.469 C  
HETATM   31  C   UNL     1     -11.762  12.033  69.153  1.00  0.00    -0.330 C  
HETATM   32  O   UNL     1     -12.250  11.352  68.093  1.00  0.00    -0.602 OA 
HETATM   33  O   UNL     1     -11.080  13.040  69.024  1.00  0.00    -0.249 OA 
ENDBRANCH  27  30
ENDBRANCH  26  27
ENDBRANCH  23  26
ENDBRANCH  22  23
ENDBRANCH  21  22
ENDBRANCH   7  21
TORSDOF 8
ENDMDL
MODEL      186
REMARK 921   NORMALIZED FREE ENERGY PREDICTED BY IDOCK:   -4.49 KCAL/MOL
REMARK 922        TOTAL FREE ENERGY PREDICTED BY IDOCK:   -8.04 KCAL/MOL
REMARK 923 INTER-LIGAND FREE ENERGY PREDICTED BY IDOCK:   -6.55 KCAL/MOL
REMARK 924 INTRA-LIGAND FREE ENERGY PREDICTED BY IDOCK:   -1.49 KCAL/MOL
REMARK 927      BINDING AFFINITY PREDICTED BY RF-SCORE:    0.00 PKD
ROOT
HETATM    1  C   UNL     1      -9.081   5.037  69.645  1.00  0.00    -0.151 C  
HETATM    2  C   UNL     1      -9.669   5.341  71.076  1.00  0.00    -0.182 C  
HETATM    3  C   UNL     1      -9.255   3.559  69.274  1.00  0.00    -0.230 C  
HETATM    4  C   UNL     1     -10.227   4.147  71.882  1.00  0.00    -0.180 C  
HETATM    5  C   UNL     1      -9.460   2.858  71.660  1.00  0.00    -0.141 C  
HETATM    6  C   UNL     1      -7.585   5.865  66.684  1.00  0.00    -0.095 C  
HETATM    7  C   UNL     1      -9.471   6.038  68.495  1.00  0.00    -0.127 C  
HETATM    8  C   UNL     1      -9.340   2.583  70.200  1.00  0.00    -0.187 C  
HETATM    9  O   UNL     1      -8.180   2.928  72.262  1.00  0.00    -0.055 OA 
HETATM   10  C   UNL     1      -9.028   5.529  67.079  1.00  0.00    -0.113 C  
HETATM   11  C   UNL     1      -9.227   4.059  66.885  1.00  0.00    -0.182 C  
HETATM   12  H   UNL     1      -7.699   2.121  72.124  1.00  0.00     0.000 HD 
HETATM   13  C   UNL     1      -9.314   3.179  67.880  1.00  0.00    -0.252 C  
ENDROOT
BRANCH   2  14
HETATM   14  O   UNL     1     -10.585   6.461  71.169  1.00  0.00    -0.222 OA 
BRANCH  14  15
HETATM   15  C   UNL     1     -10.215   7.610  71.804  1.00  0.00    -0.188 C  
HETATM   16  C   UNL     1      -7.896   8.427  72.162  1.00  0.00    -0.167 C  
HETATM   17  C   UNL     1      -9.187   7.416  74.077  1.00  0.00    -0.292 C  
HETATM   18  O   UNL     1     -10.833   8.666  71.785  1.00  0.00    -0.274 OA 
HETATM   19  C   UNL     1      -8.926   7.375  72.566  1.00  0.00    -0.165 C  
HETATM   20  C   UNL     1     -10.058   6.263  74.555  1.00  0.00    -0.353 C  
ENDBRANCH  14  15
ENDBRANCH   2  14
BRANCH   7  21
HETATM   21  C   UNL     1      -9.015   7.521  68.723  1.00  0.00    -0.129 C  
BRANCH  21  22
HETATM   22  C   UNL     1     -10.036   8.494  68.093  1.00  0.00    -0.214 C  
BRANCH  22  23
HETATM   23  C   UNL     1      -9.512   9.610  67.180  1.00  0.00    -0.148 C  
HETATM   24  O   UNL     1      -8.671   9.080  66.155  1.00  0.00    -0.133 OA 
HETATM   25  H   UNL     1      -8.347   9.772  65.589  1.00  0.00     0.000 HD 
BRANCH  23  26
HETATM   26  C   UNL     1     -10.729  10.272  66.492  1.00  0.00    -0.148 C  
BRANCH  26  27
HETATM   27  C   UNL     1     -10.759  11.803  66.569  1.00  0.00    -0.265 C  
HETATM   28  O   UNL     1     -12.041  12.310  66.171  1.00  0.00    -0.625 OA 
HETATM   29  H   UNL     1     -12.059  13.259  66.219  1.00  0.00     0.000 HD 
BRANCH  27  30
HETATM   30  C   UNL     1     -10.517  12.273  68.007  1.00  0.00    -0.231 C  
HETATM   31  C   UNL     1     -11.742  12.156  68.884  1.00  0.00    -0.327 C  
HETATM   32  O   UNL     1     -12.481  11.045  68.671  1.00  0.00    -0.462 OA 
HETATM   33  O   UNL     1     -12.006  12.956  69.771  1.00  0.00    -0.313 OA 
ENDBRANCH  27  30
ENDBRANCH  26  27
ENDBRANCH  23  26
ENDBRANCH  22  23
ENDBRANCH  21  22
ENDBRANCH   7  21
TORSDOF 8
ENDMDL
MODEL      187
REMARK 921   NORMALIZED FREE ENERGY PREDICTED BY IDOCK:   -4.48 KCAL/MOL
REMARK 922        TOTAL FREE ENERGY PREDICTED BY IDOCK:   -8.03 KCAL/MOL
REMARK 923 INTER-LIGAND FREE ENERGY PREDICTED BY IDOCK:   -6.82 KCAL/MOL
REMARK 924 INTRA-LIGAND FREE ENERGY PREDICTED BY IDOCK:   -1.22 KCAL/MOL
REMARK 927      BINDING AFFINITY PREDICTED BY RF-SCORE:    0.00 PKD
ROOT
HETATM    1  C   UNL     1      -9.808  14.321  67.157  1.00  0.00    -0.252 C  
HETATM    2  C   UNL     1      -8.540  15.260  67.158  1.00  0.00    -0.211 C  
HETATM    3  C   UNL     1     -10.924  14.893  66.273  1.00  0.00    -0.338 C  
HETATM    4  C   UNL     1      -8.641  16.588  66.376  1.00  0.00    -0.347 C  
HETATM    5  C   UNL     1     -10.021  17.214  66.425  1.00  0.00    -0.306 C  
HETATM    6  C   UNL     1     -11.579  11.528  68.023  1.00  0.00    -0.370 C  
HETATM    7  C   UNL     1      -9.546  12.784  66.947  1.00  0.00    -0.235 C  
HETATM    8  C   UNL     1     -11.049  16.212  66.024  1.00  0.00     0.064 C  
HETATM    9  O   UNL     1     -10.294  17.721  67.719  1.00  0.00    -0.346 OA 
HETATM   10  C   UNL     1     -10.872  11.972  66.737  1.00  0.00    -0.307 C  
HETATM   11  C   UNL     1     -11.875  12.679  65.882  1.00  0.00    -0.499 C  
HETATM   12  H   UNL     1     -11.159  18.113  67.750  1.00  0.00     0.000 HD 
HETATM   13  C   UNL     1     -11.897  13.996  65.690  1.00  0.00    -0.384 C  
ENDROOT
BRANCH   2  14
HETATM   14  O   UNL     1      -7.270  14.623  66.874  1.00  0.00    -0.001 OA 
BRANCH  14  15
HETATM   15  C   UNL     1      -6.343  14.452  67.859  1.00  0.00    -0.162 C  
HETATM   16  C   UNL     1      -6.772  14.377  70.305  1.00  0.00    -0.005 C  
HETATM   17  C   UNL     1      -5.749  16.434  69.267  1.00  0.00    -0.137 C  
HETATM   18  O   UNL     1      -5.335  13.762  67.779  1.00  0.00    -0.224 OA 
HETATM   19  C   UNL     1      -6.733  15.275  69.071  1.00  0.00    -0.122 C  
HETATM   20  C   UNL     1      -5.817  17.461  68.145  1.00  0.00    -0.147 C  
ENDBRANCH  14  15
ENDBRANCH   2  14
BRANCH   7  21
HETATM   21  C   UNL     1      -8.646  12.108  68.039  1.00  0.00    -0.175 C  
BRANCH  21  22
HETATM   22  C   UNL     1      -7.921  10.880  67.446  1.00  0.00    -0.113 C  
BRANCH  22  23
HETATM   23  C   UNL     1      -7.588  10.884  65.948  1.00  0.00    -0.057 C  
HETATM   24  O   UNL     1      -6.265  11.371  65.718  1.00  0.00    -0.391 OA 
HETATM   25  H   UNL     1      -6.059  11.373  64.791  1.00  0.00     0.000 HD 
BRANCH  23  26
HETATM   26  C   UNL     1      -7.642   9.423  65.445  1.00  0.00    -0.100 C  
BRANCH  26  27
HETATM   27  C   UNL     1      -9.005   8.980  64.899  1.00  0.00    -0.118 C  
HETATM   28  O   UNL     1      -9.645   8.064  65.802  1.00  0.00    -0.430 OA 
HETATM   29  H   UNL     1     -10.488   7.790  65.463  1.00  0.00     0.000 HD 
BRANCH  27  30
HETATM   30  C   UNL     1      -9.939  10.184  64.746  1.00  0.00    -0.334 C  
HETATM   31  C   UNL     1      -9.908  10.787  63.361  1.00  0.00    -0.349 C  
HETATM   32  O   UNL     1      -9.828   9.886  62.357  1.00  0.00    -0.012 OA 
HETATM   33  O   UNL     1     -10.027  11.986  63.153  1.00  0.00    -0.407 OA 
ENDBRANCH  27  30
ENDBRANCH  26  27
ENDBRANCH  23  26
ENDBRANCH  22  23
ENDBRANCH  21  22
ENDBRANCH   7  21
TORSDOF 8
ENDMDL
MODEL      188
REMARK 921   NORMALIZED FREE ENERGY PREDICTED BY IDOCK:   -4.48 KCAL/MOL
REMARK 922        TOTAL FREE ENERGY PREDICTED BY IDOCK:   -8.03 KCAL/MOL
REMARK 923 INTER-LIGAND FREE ENERGY PREDICTED BY IDOCK:   -6.55 KCAL/MOL
REMARK 924 INTRA-LIGAND FREE ENERGY PREDICTED BY IDOCK:   -1.48 KCAL/MOL
REMARK 927      BINDING AFFINITY PREDICTED BY RF-SCORE:    0.00 PKD
ROOT
HETATM    1  C   UNL     1      -8.457   8.454  65.723  1.00  0.00    -0.169 C  
HETATM    2  C   UNL     1      -8.144   7.011  66.280  1.00  0.00    -0.115 C  
HETATM    3  C   UNL     1      -8.265   8.517  64.202  1.00  0.00    -0.141 C  
HETATM    4  C   UNL     1      -7.636   5.957  65.272  1.00  0.00    -0.086 C  
HETATM    5  C   UNL     1      -6.747   6.537  64.189  1.00  0.00    -0.038 C  
HETATM    6  C   UNL     1      -9.431  11.720  65.990  1.00  0.00    -0.245 C  
HETATM    7  C   UNL     1      -9.781   9.134  66.232  1.00  0.00    -0.344 C  
HETATM    8  C   UNL     1      -7.424   7.695  63.542  1.00  0.00    -0.108 C  
HETATM    9  O   UNL     1      -5.494   6.925  64.725  1.00  0.00    -0.030 OA 
HETATM   10  C   UNL     1     -10.114  10.455  65.455  1.00  0.00    -0.352 C  
HETATM   11  C   UNL     1      -9.839  10.370  63.987  1.00  0.00    -0.355 C  
HETATM   12  H   UNL     1      -4.937   7.288  64.046  1.00  0.00     0.000 HD 
HETATM   13  C   UNL     1      -8.994   9.502  63.435  1.00  0.00    -0.205 C  
ENDROOT
BRANCH   2  14
HETATM   14  O   UNL     1      -9.155   6.420  67.134  1.00  0.00    -0.118 OA 
BRANCH  14  15
HETATM   15  C   UNL     1      -8.799   5.692  68.230  1.00  0.00    -0.108 C  
HETATM   16  C   UNL     1      -9.535   3.383  68.781  1.00  0.00    -0.201 C  
HETATM   17  C   UNL     1     -10.514   5.348  70.019  1.00  0.00    -0.373 C  
HETATM   18  O   UNL     1      -7.710   5.727  68.787  1.00  0.00    -0.087 OA 
HETATM   19  C   UNL     1      -9.972   4.842  68.677  1.00  0.00    -0.195 C  
HETATM   20  C   UNL     1     -11.139   6.733  69.918  1.00  0.00    -0.374 C  
ENDBRANCH  14  15
ENDBRANCH   2  14
BRANCH   7  21
HETATM   21  C   UNL     1      -9.856   9.364  67.782  1.00  0.00    -0.207 C  
BRANCH  21  22
HETATM   22  C   UNL     1     -11.248   9.908  68.172  1.00  0.00    -0.142 C  
BRANCH  22  23
HETATM   23  C   UNL     1     -11.440  10.472  69.586  1.00  0.00    -0.282 C  
HETATM   24  O   UNL     1     -10.190  10.858  70.158  1.00  0.00    -0.332 OA 
HETATM   25  H   UNL     1     -10.309  11.207  71.033  1.00  0.00     0.000 HD 
BRANCH  23  26
HETATM   26  C   UNL     1     -12.316  11.742  69.476  1.00  0.00    -0.120 C  
BRANCH  26  27
HETATM   27  C   UNL     1     -11.608  13.048  69.856  1.00  0.00    -0.179 C  
HETATM   28  O   UNL     1     -10.486  13.291  68.992  1.00  0.00    -0.405 OA 
HETATM   29  H   UNL     1     -10.048  14.100  69.228  1.00  0.00     0.000 HD 
BRANCH  27  30
HETATM   30  C   UNL     1     -12.558  14.239  69.702  1.00  0.00    -0.095 C  
HETATM   31  C   UNL     1     -13.096  14.745  71.020  1.00  0.00    -0.375 C  
HETATM   32  O   UNL     1     -12.197  14.747  72.029  1.00  0.00    -0.337 OA 
HETATM   33  O   UNL     1     -14.227  15.192  71.152  1.00  0.00    -0.429 OA 
ENDBRANCH  27  30
ENDBRANCH  26  27
ENDBRANCH  23  26
ENDBRANCH  22  23
ENDBRANCH  21  22
ENDBRANCH   7  21
TORSDOF 8
ENDMDL
MODEL      189
REMARK 921   NORMALIZED FREE ENERGY PREDICTED BY IDOCK:   -4.46 KCAL/MOL
REMARK 922        TOTAL FREE ENERGY PREDICTED BY IDOCK:   -8.00 KCAL/MOL
REMARK 923 INTER-LIGAND FREE ENERGY PREDICTED BY IDOCK:   -6.90 KCAL/MOL
REMARK 924 INTRA-LIGAND FREE ENERGY PREDICTED BY IDOCK:   -1.10 KCAL/MOL
REMARK 927      BINDING AFFINITY PREDICTED BY RF-SCORE:    0.00 PKD
ROOT
HETATM    1  C   UNL     1     -10.093  12.837  66.928  1.00  0.00    -0.234 C  
HETATM    2  C   UNL     1      -9.523  14.114  67.659  1.00  0.00    -0.213 C  
HETATM    3  C   UNL     1     -11.266  13.199  66.008  1.00  0.00    -0.316 C  
HETATM    4  C   UNL     1     -10.252  15.454  67.416  1.00  0.00    -0.249 C  
HETATM    5  C   UNL     1     -11.752  15.306  67.254  1.00  0.00    -0.078 C  
HETATM    6  C   UNL     1     -10.171   9.512  66.138  1.00  0.00    -0.272 C  
HETATM    7  C   UNL     1      -9.038  11.871  66.273  1.00  0.00    -0.188 C  
HETATM    8  C   UNL     1     -12.053  14.273  66.224  1.00  0.00    -0.433 C  
HETATM    9  O   UNL     1     -12.356  14.969  68.491  1.00  0.00    -0.586 OA 
HETATM   10  C   UNL     1      -9.707  10.765  65.385  1.00  0.00    -0.297 C  
HETATM   11  C   UNL     1     -10.860  11.266  64.574  1.00  0.00    -0.354 C  
HETATM   12  H   UNL     1     -13.297  14.876  68.391  1.00  0.00     0.000 HD 
HETATM   13  C   UNL     1     -11.563  12.357  64.871  1.00  0.00    -0.392 C  
ENDROOT
BRANCH   2  14
HETATM   14  O   UNL     1      -8.091  14.316  67.575  1.00  0.00    -0.160 OA 
BRANCH  14  15
HETATM   15  C   UNL     1      -7.447  15.111  68.476  1.00  0.00    -0.121 C  
HETATM   16  C   UNL     1      -5.510  16.600  68.025  1.00  0.00    -0.127 C  
HETATM   17  C   UNL     1      -5.167  14.416  69.237  1.00  0.00    -0.078 C  
HETATM   18  O   UNL     1      -7.971  15.692  69.418  1.00  0.00    -0.226 OA 
HETATM   19  C   UNL     1      -5.967  15.148  68.153  1.00  0.00    -0.142 C  
HETATM   20  C   UNL     1      -5.451  12.921  69.269  1.00  0.00    -0.073 C  
ENDBRANCH  14  15
ENDBRANCH   2  14
BRANCH   7  21
HETATM   21  C   UNL     1      -8.008  11.237  67.272  1.00  0.00    -0.141 C  
BRANCH  21  22
HETATM   22  C   UNL     1      -8.568  11.276  68.710  1.00  0.00    -0.109 C  
BRANCH  22  23
HETATM   23  C   UNL     1      -8.712   9.952  69.473  1.00  0.00    -0.190 C  
HETATM   24  O   UNL     1      -8.018  10.002  70.720  1.00  0.00    -0.395 OA 
HETATM   25  H   UNL     1      -8.107   9.182  71.192  1.00  0.00     0.000 HD 
BRANCH  23  26
HETATM   26  C   UNL     1     -10.212   9.741  69.779  1.00  0.00    -0.271 C  
BRANCH  26  27
HETATM   27  C   UNL     1     -10.551   8.400  70.444  1.00  0.00    -0.223 C  
HETATM   28  O   UNL     1     -11.959   8.301  70.705  1.00  0.00    -0.442 OA 
HETATM   29  H   UNL     1     -12.169   7.471  71.117  1.00  0.00     0.000 HD 
BRANCH  27  30
HETATM   30  C   UNL     1     -10.183   7.235  69.520  1.00  0.00    -0.200 C  
HETATM   31  C   UNL     1      -8.959   6.477  69.979  1.00  0.00    -0.144 C  
HETATM   32  O   UNL     1      -8.872   6.308  71.317  1.00  0.00    -0.138 OA 
HETATM   33  O   UNL     1      -8.152   5.984  69.204  1.00  0.00    -0.108 OA 
ENDBRANCH  27  30
ENDBRANCH  26  27
ENDBRANCH  23  26
ENDBRANCH  22  23
ENDBRANCH  21  22
ENDBRANCH   7  21
TORSDOF 8
ENDMDL
MODEL      190
REMARK 921   NORMALIZED FREE ENERGY PREDICTED BY IDOCK:   -4.45 KCAL/MOL
REMARK 922        TOTAL FREE ENERGY PREDICTED BY IDOCK:   -7.99 KCAL/MOL
REMARK 923 INTER-LIGAND FREE ENERGY PREDICTED BY IDOCK:   -7.05 KCAL/MOL
REMARK 924 INTRA-LIGAND FREE ENERGY PREDICTED BY IDOCK:   -0.93 KCAL/MOL
REMARK 927      BINDING AFFINITY PREDICTED BY RF-SCORE:    0.00 PKD
ROOT
HETATM    1  C   UNL     1      -9.094   8.089  65.379  1.00  0.00     0.096 C  
HETATM    2  C   UNL     1      -9.319   9.645  65.516  1.00  0.00    -0.248 C  
HETATM    3  C   UNL     1      -7.790   7.778  64.635  1.00  0.00    -0.130 C  
HETATM    4  C   UNL     1      -8.285  10.572  64.839  1.00  0.00    -0.117 C  
HETATM    5  C   UNL     1      -7.738  10.019  63.538  1.00  0.00    -0.146 C  
HETATM    6  C   UNL     1      -9.891   4.802  65.875  1.00  0.00    -0.225 C  
HETATM    7  C   UNL     1      -9.314   7.229  66.677  1.00  0.00    -0.215 C  
HETATM    8  C   UNL     1      -7.240   8.630  63.745  1.00  0.00    -0.097 C  
HETATM    9  O   UNL     1      -8.730  10.049  62.526  1.00  0.00    -0.168 OA 
HETATM   10  C   UNL     1      -8.851   5.741  66.498  1.00  0.00    -0.126 C  
HETATM   11  C   UNL     1      -7.581   5.601  65.719  1.00  0.00    -0.086 C  
HETATM   12  H   UNL     1      -8.387   9.703  61.711  1.00  0.00     0.000 HD 
HETATM   13  C   UNL     1      -7.120   6.519  64.873  1.00  0.00    -0.057 C  
ENDROOT
BRANCH   2  14
HETATM   14  O   UNL     1      -9.615  10.135  66.847  1.00  0.00    -0.167 OA 
BRANCH  14  15
HETATM   15  C   UNL     1     -10.684  10.953  67.064  1.00  0.00    -0.271 C  
HETATM   16  C   UNL     1     -11.591  12.656  65.498  1.00  0.00    -0.409 C  
HETATM   17  C   UNL     1     -10.239  13.377  67.499  1.00  0.00    -0.226 C  
HETATM   18  O   UNL     1     -11.691  10.661  67.696  1.00  0.00    -0.480 OA 
HETATM   19  C   UNL     1     -10.428  12.303  66.422  1.00  0.00    -0.263 C  
HETATM   20  C   UNL     1      -8.976  13.168  68.323  1.00  0.00    -0.175 C  
ENDBRANCH  14  15
ENDBRANCH   2  14
BRANCH   7  21
HETATM   21  C   UNL     1     -10.760   7.294  67.281  1.00  0.00    -0.391 C  
BRANCH  21  22
HETATM   22  C   UNL     1     -10.970   6.139  68.285  1.00  0.00    -0.397 C  
BRANCH  22  23
HETATM   23  C   UNL     1     -11.003   6.471  69.783  1.00  0.00    -0.338 C  
HETATM   24  O   UNL     1     -10.273   5.504  70.538  1.00  0.00    -0.208 OA 
HETATM   25  H   UNL     1     -10.293   5.711  71.465  1.00  0.00     0.000 HD 
BRANCH  23  26
HETATM   26  C   UNL     1     -10.312   7.840  69.981  1.00  0.00    -0.221 C  
BRANCH  26  27
HETATM   27  C   UNL     1     -11.065   8.816  70.894  1.00  0.00    -0.268 C  
HETATM   28  O   UNL     1     -12.272   9.275  70.267  1.00  0.00    -0.466 OA 
HETATM   29  H   UNL     1     -12.737   9.880  70.832  1.00  0.00     0.000 HD 
BRANCH  27  30
HETATM   30  C   UNL     1     -11.472   8.125  72.199  1.00  0.00    -0.412 C  
HETATM   31  C   UNL     1     -10.292   7.730  73.056  1.00  0.00    -0.347 C  
HETATM   32  O   UNL     1      -9.287   8.633  73.076  1.00  0.00    -0.213 OA 
HETATM   33  O   UNL     1     -10.275   6.718  73.741  1.00  0.00    -0.281 OA 
ENDBRANCH  27  30
ENDBRANCH  26  27
ENDBRANCH  23  26
ENDBRANCH  22  23
ENDBRANCH  21  22
ENDBRANCH   7  21
TORSDOF 8
ENDMDL
MODEL      191
REMARK 921   NORMALIZED FREE ENERGY PREDICTED BY IDOCK:   -4.45 KCAL/MOL
REMARK 922        TOTAL FREE ENERGY PREDICTED BY IDOCK:   -7.99 KCAL/MOL
REMARK 923 INTER-LIGAND FREE ENERGY PREDICTED BY IDOCK:   -6.45 KCAL/MOL
REMARK 924 INTRA-LIGAND FREE ENERGY PREDICTED BY IDOCK:   -1.54 KCAL/MOL
REMARK 927      BINDING AFFINITY PREDICTED BY RF-SCORE:    0.00 PKD
ROOT
HETATM    1  C   UNL     1     -10.824   7.590  69.993  1.00  0.00    -0.260 C  
HETATM    2  C   UNL     1     -11.221   6.357  70.893  1.00  0.00    -0.326 C  
HETATM    3  C   UNL     1     -10.059   8.646  70.801  1.00  0.00    -0.244 C  
HETATM    4  C   UNL     1     -10.873   6.435  72.396  1.00  0.00    -0.267 C  
HETATM    5  C   UNL     1     -10.987   7.834  72.970  1.00  0.00    -0.381 C  
HETATM    6  C   UNL     1     -10.641   9.337  67.060  1.00  0.00    -0.263 C  
HETATM    7  C   UNL     1     -10.182   7.263  68.594  1.00  0.00    -0.191 C  
HETATM    8  C   UNL     1     -10.212   8.792  72.133  1.00  0.00    -0.371 C  
HETATM    9  O   UNL     1     -12.344   8.229  73.057  1.00  0.00    -0.658 OA 
HETATM   10  C   UNL     1      -9.619   8.540  67.878  1.00  0.00    -0.177 C  
HETATM   11  C   UNL     1      -8.932   9.491  68.807  1.00  0.00    -0.133 C  
HETATM   12  H   UNL     1     -12.416   9.105  73.417  1.00  0.00     0.000 HD 
HETATM   13  C   UNL     1      -9.148   9.539  70.120  1.00  0.00    -0.276 C  
ENDROOT
BRANCH   2  14
HETATM   14  O   UNL     1     -10.871   5.048  70.379  1.00  0.00    -0.086 OA 
BRANCH  14  15
HETATM   15  C   UNL     1      -9.675   4.476  70.694  1.00  0.00    -0.212 C  
HETATM   16  C   UNL     1      -8.854   2.249  69.957  1.00  0.00    -0.134 C  
HETATM   17  C   UNL     1      -9.676   2.571  72.318  1.00  0.00    -0.205 C  
HETATM   18  O   UNL     1      -8.617   5.072  70.851  1.00  0.00    -0.116 OA 
HETATM   19  C   UNL     1      -9.855   2.978  70.851  1.00  0.00    -0.049 C  
HETATM   20  C   UNL     1     -10.773   3.123  73.219  1.00  0.00    -0.288 C  
ENDBRANCH  14  15
ENDBRANCH   2  14
BRANCH   7  21
HETATM   21  C   UNL     1     -11.093   6.435  67.622  1.00  0.00    -0.388 C  
BRANCH  21  22
HETATM   22  C   UNL     1     -10.222   5.610  66.650  1.00  0.00    -0.276 C  
BRANCH  22  23
HETATM   23  C   UNL     1      -9.403   4.442  67.216  1.00  0.00    -0.155 C  
HETATM   24  O   UNL     1      -9.901   3.190  66.743  1.00  0.00    -0.400 OA 
HETATM   25  H   UNL     1      -9.394   2.468  67.094  1.00  0.00     0.000 HD 
BRANCH  23  26
HETATM   26  C   UNL     1      -7.950   4.590  66.709  1.00  0.00    -0.102 C  
BRANCH  26  27
HETATM   27  C   UNL     1      -7.821   5.019  65.242  1.00  0.00    -0.089 C  
HETATM   28  O   UNL     1      -6.648   5.822  65.045  1.00  0.00    -0.041 OA 
HETATM   29  H   UNL     1      -6.568   6.088  64.136  1.00  0.00     0.000 HD 
BRANCH  27  30
HETATM   30  C   UNL     1      -7.682   3.792  64.334  1.00  0.00    -0.081 C  
HETATM   31  C   UNL     1      -8.865   3.595  63.416  1.00  0.00    -0.097 C  
HETATM   32  O   UNL     1      -9.375   4.737  62.904  1.00  0.00    -0.093 OA 
HETATM   33  O   UNL     1      -9.282   2.492  63.094  1.00  0.00    -0.091 OA 
ENDBRANCH  27  30
ENDBRANCH  26  27
ENDBRANCH  23  26
ENDBRANCH  22  23
ENDBRANCH  21  22
ENDBRANCH   7  21
TORSDOF 8
ENDMDL
MODEL      192
REMARK 921   NORMALIZED FREE ENERGY PREDICTED BY IDOCK:   -4.45 KCAL/MOL
REMARK 922        TOTAL FREE ENERGY PREDICTED BY IDOCK:   -7.99 KCAL/MOL
REMARK 923 INTER-LIGAND FREE ENERGY PREDICTED BY IDOCK:   -6.59 KCAL/MOL
REMARK 924 INTRA-LIGAND FREE ENERGY PREDICTED BY IDOCK:   -1.40 KCAL/MOL
REMARK 927      BINDING AFFINITY PREDICTED BY RF-SCORE:    0.00 PKD
ROOT
HETATM    1  C   UNL     1      -7.435   7.028  65.226  1.00  0.00    -0.092 C  
HETATM    2  C   UNL     1      -8.156   5.772  65.852  1.00  0.00    -0.113 C  
HETATM    3  C   UNL     1      -6.659   6.651  63.958  1.00  0.00    -0.044 C  
HETATM    4  C   UNL     1      -7.913   4.405  65.174  1.00  0.00    -0.097 C  
HETATM    5  C   UNL     1      -6.512   4.248  64.616  1.00  0.00    -0.042 C  
HETATM    6  C   UNL     1      -6.608  10.341  65.051  1.00  0.00    -0.114 C  
HETATM    7  C   UNL     1      -8.297   8.337  65.086  1.00  0.00    -0.167 C  
HETATM    8  C   UNL     1      -6.180   5.409  63.742  1.00  0.00    -0.022 C  
HETATM    9  O   UNL     1      -5.567   4.125  65.664  1.00  0.00    -0.016 OA 
HETATM   10  C   UNL     1      -7.569   9.449  64.254  1.00  0.00    -0.115 C  
HETATM   11  C   UNL     1      -6.826   8.918  63.069  1.00  0.00    -0.089 C  
HETATM   12  H   UNL     1      -4.689   4.027  65.315  1.00  0.00     0.000 HD 
HETATM   13  C   UNL     1      -6.409   7.659  62.952  1.00  0.00    -0.063 C  
ENDROOT
BRANCH   2  14
HETATM   14  O   UNL     1      -9.566   5.923  66.150  1.00  0.00    -0.149 OA 
BRANCH  14  15
HETATM   15  C   UNL     1      -9.998   5.999  67.441  1.00  0.00    -0.141 C  
HETATM   16  C   UNL     1      -8.643   6.632  69.425  1.00  0.00    -0.135 C  
HETATM   17  C   UNL     1      -9.255   4.218  69.034  1.00  0.00    -0.207 C  
HETATM   18  O   UNL     1     -11.114   6.351  67.801  1.00  0.00    -0.328 OA 
HETATM   19  C   UNL     1      -8.890   5.553  68.374  1.00  0.00    -0.107 C  
HETATM   20  C   UNL     1      -9.322   3.068  68.039  1.00  0.00    -0.255 C  
ENDBRANCH  14  15
ENDBRANCH   2  14
BRANCH   7  21
HETATM   21  C   UNL     1      -8.845   8.919  66.435  1.00  0.00    -0.178 C  
BRANCH  21  22
HETATM   22  C   UNL     1     -10.111   9.764  66.175  1.00  0.00    -0.315 C  
BRANCH  22  23
HETATM   23  C   UNL     1     -10.279  11.082  66.942  1.00  0.00    -0.222 C  
HETATM   24  O   UNL     1      -9.077  11.854  66.903  1.00  0.00    -0.184 OA 
HETATM   25  H   UNL     1      -9.181  12.670  67.377  1.00  0.00     0.000 HD 
BRANCH  23  26
HETATM   26  C   UNL     1     -11.386  11.903  66.242  1.00  0.00    -0.394 C  
BRANCH  26  27
HETATM   27  C   UNL     1     -11.056  12.338  64.808  1.00  0.00    -0.311 C  
HETATM   28  O   UNL     1     -12.109  11.967  63.906  1.00  0.00    -0.440 OA 
HETATM   29  H   UNL     1     -11.904  12.236  63.018  1.00  0.00     0.000 HD 
BRANCH  27  30
HETATM   30  C   UNL     1     -10.911  13.860  64.728  1.00  0.00    -0.407 C  
HETATM   31  C   UNL     1     -12.225  14.571  64.500  1.00  0.00    -0.465 C  
HETATM   32  O   UNL     1     -13.272  14.044  65.173  1.00  0.00    -0.768 OA 
HETATM   33  O   UNL     1     -12.326  15.587  63.828  1.00  0.00    -0.606 OA 
ENDBRANCH  27  30
ENDBRANCH  26  27
ENDBRANCH  23  26
ENDBRANCH  22  23
ENDBRANCH  21  22
ENDBRANCH   7  21
TORSDOF 8
ENDMDL
MODEL      193
REMARK 921   NORMALIZED FREE ENERGY PREDICTED BY IDOCK:   -4.41 KCAL/MOL
REMARK 922        TOTAL FREE ENERGY PREDICTED BY IDOCK:   -7.93 KCAL/MOL
REMARK 923 INTER-LIGAND FREE ENERGY PREDICTED BY IDOCK:   -6.41 KCAL/MOL
REMARK 924 INTRA-LIGAND FREE ENERGY PREDICTED BY IDOCK:   -1.52 KCAL/MOL
REMARK 927      BINDING AFFINITY PREDICTED BY RF-SCORE:    0.00 PKD
ROOT
HETATM    1  C   UNL     1      -8.168  14.900  67.347  1.00  0.00    -0.217 C  
HETATM    2  C   UNL     1      -9.542  15.021  66.582  1.00  0.00    -0.263 C  
HETATM    3  C   UNL     1      -7.927  16.113  68.255  1.00  0.00    -0.152 C  
HETATM    4  C   UNL     1     -10.356  16.318  66.788  1.00  0.00    -0.296 C  
HETATM    5  C   UNL     1      -9.492  17.553  66.952  1.00  0.00    -0.274 C  
HETATM    6  C   UNL     1      -5.254  13.344  68.228  1.00  0.00    -0.095 C  
HETATM    7  C   UNL     1      -7.861  13.516  68.029  1.00  0.00    -0.147 C  
HETATM    8  C   UNL     1      -8.470  17.323  68.010  1.00  0.00    -0.229 C  
HETATM    9  O   UNL     1      -8.874  17.896  65.724  1.00  0.00    -0.495 OA 
HETATM   10  C   UNL     1      -6.590  13.567  68.947  1.00  0.00    -0.106 C  
HETATM   11  C   UNL     1      -6.478  14.829  69.742  1.00  0.00    -0.160 C  
HETATM   12  H   UNL     1      -8.332  18.670  65.826  1.00  0.00     0.000 HD 
HETATM   13  C   UNL     1      -7.074  15.973  69.414  1.00  0.00    -0.217 C  
ENDROOT
BRANCH   2  14
HETATM   14  O   UNL     1     -10.425  13.874  66.663  1.00  0.00    -0.268 OA 
BRANCH  14  15
HETATM   15  C   UNL     1     -11.554  13.919  67.425  1.00  0.00    -0.368 C  
HETATM   16  C   UNL     1     -11.750  14.812  69.736  1.00  0.00    -0.354 C  
HETATM   17  C   UNL     1     -11.739  12.322  69.343  1.00  0.00    -0.392 C  
HETATM   18  O   UNL     1     -12.690  14.103  67.009  1.00  0.00    -0.060 OA 
HETATM   19  C   UNL     1     -11.194  13.678  68.878  1.00  0.00    -0.309 C  
HETATM   20  C   UNL     1     -11.067  11.148  68.646  1.00  0.00    -0.293 C  
ENDBRANCH  14  15
ENDBRANCH   2  14
BRANCH   7  21
HETATM   21  C   UNL     1      -7.794  12.293  67.050  1.00  0.00    -0.108 C  
BRANCH  21  22
HETATM   22  C   UNL     1      -7.571  10.987  67.844  1.00  0.00    -0.095 C  
BRANCH  22  23
HETATM   23  C   UNL     1      -8.101   9.674  67.251  1.00  0.00    -0.110 C  
HETATM   24  O   UNL     1      -7.037   8.895  66.701  1.00  0.00    -0.082 OA 
HETATM   25  H   UNL     1      -7.365   8.082  66.335  1.00  0.00     0.000 HD 
BRANCH  23  26
HETATM   26  C   UNL     1      -8.735   8.856  68.400  1.00  0.00    -0.134 C  
BRANCH  26  27
HETATM   27  C   UNL     1      -8.222   7.416  68.524  1.00  0.00    -0.125 C  
HETATM   28  O   UNL     1      -6.917   7.388  69.122  1.00  0.00    -0.071 OA 
HETATM   29  H   UNL     1      -6.600   6.496  69.199  1.00  0.00     0.000 HD 
BRANCH  27  30
HETATM   30  C   UNL     1      -9.147   6.593  69.427  1.00  0.00    -0.143 C  
HETATM   31  C   UNL     1     -10.481   6.286  68.788  1.00  0.00    -0.233 C  
HETATM   32  O   UNL     1     -10.419   5.995  67.470  1.00  0.00    -0.182 OA 
HETATM   33  O   UNL     1     -11.526   6.225  69.422  1.00  0.00    -0.427 OA 
ENDBRANCH  27  30
ENDBRANCH  26  27
ENDBRANCH  23  26
ENDBRANCH  22  23
ENDBRANCH  21  22
ENDBRANCH   7  21
TORSDOF 8
ENDMDL
MODEL      194
REMARK 921   NORMALIZED FREE ENERGY PREDICTED BY IDOCK:   -4.40 KCAL/MOL
REMARK 922        TOTAL FREE ENERGY PREDICTED BY IDOCK:   -7.92 KCAL/MOL
REMARK 923 INTER-LIGAND FREE ENERGY PREDICTED BY IDOCK:   -6.41 KCAL/MOL
REMARK 924 INTRA-LIGAND FREE ENERGY PREDICTED BY IDOCK:   -1.50 KCAL/MOL
REMARK 927      BINDING AFFINITY PREDICTED BY RF-SCORE:    0.00 PKD
ROOT
HETATM    1  C   UNL     1      -8.896   7.992  71.113  1.00  0.00    -0.159 C  
HETATM    2  C   UNL     1      -8.288   8.983  70.046  1.00  0.00    -0.142 C  
HETATM    3  C   UNL     1      -8.183   8.123  72.465  1.00  0.00    -0.215 C  
HETATM    4  C   UNL     1      -7.072   9.832  70.480  1.00  0.00    -0.130 C  
HETATM    5  C   UNL     1      -6.137   9.107  71.429  1.00  0.00    -0.072 C  
HETATM    6  C   UNL     1     -11.075   5.597  72.208  1.00  0.00    -0.318 C  
HETATM    7  C   UNL     1     -10.465   7.944  71.216  1.00  0.00    -0.233 C  
HETATM    8  C   UNL     1      -6.909   8.550  72.576  1.00  0.00    -0.077 C  
HETATM    9  O   UNL     1      -5.435   8.080  70.752  1.00  0.00    -0.029 OA 
HETATM   10  C   UNL     1     -10.961   7.108  72.446  1.00  0.00    -0.286 C  
HETATM   11  C   UNL     1     -10.141   7.317  73.680  1.00  0.00    -0.387 C  
HETATM   12  H   UNL     1      -4.849   7.626  71.346  1.00  0.00     0.000 HD 
HETATM   13  C   UNL     1      -8.886   7.762  73.676  1.00  0.00    -0.323 C  
ENDROOT
BRANCH   2  14
HETATM   14  O   UNL     1      -9.234   9.817  69.333  1.00  0.00    -0.178 OA 
BRANCH  14  15
HETATM   15  C   UNL     1      -8.911  10.355  68.122  1.00  0.00    -0.132 C  
HETATM   16  C   UNL     1     -10.245  10.213  66.031  1.00  0.00    -0.288 C  
HETATM   17  C   UNL     1      -8.176   8.799  66.305  1.00  0.00    -0.115 C  
HETATM   18  O   UNL     1      -8.315  11.410  67.946  1.00  0.00    -0.127 OA 
HETATM   19  C   UNL     1      -9.379   9.431  67.016  1.00  0.00    -0.185 C  
HETATM   20  C   UNL     1      -7.392   7.854  67.204  1.00  0.00    -0.091 C  
ENDBRANCH  14  15
ENDBRANCH   2  14
BRANCH   7  21
HETATM   21  C   UNL     1     -11.203   7.500  69.905  1.00  0.00    -0.124 C  
BRANCH  21  22
HETATM   22  C   UNL     1     -10.337   6.490  69.122  1.00  0.00    -0.226 C  
BRANCH  22  23
HETATM   23  C   UNL     1     -10.920   5.863  67.849  1.00  0.00    -0.149 C  
HETATM   24  O   UNL     1     -11.596   6.842  67.059  1.00  0.00    -0.681 OA 
HETATM   25  H   UNL     1     -11.956   6.453  66.270  1.00  0.00     0.000 HD 
BRANCH  23  26
HETATM   26  C   UNL     1      -9.744   5.313  67.009  1.00  0.00    -0.167 C  
BRANCH  26  27
HETATM   27  C   UNL     1     -10.138   4.275  65.950  1.00  0.00    -0.205 C  
HETATM   28  O   UNL     1     -11.440   4.559  65.416  1.00  0.00    -0.985 OA 
HETATM   29  H   UNL     1     -11.684   3.916  64.761  1.00  0.00     0.000 HD 
BRANCH  27  30
HETATM   30  C   UNL     1      -9.154   4.305  64.777  1.00  0.00    -0.149 C  
HETATM   31  C   UNL     1      -8.155   3.172  64.810  1.00  0.00    -0.086 C  
HETATM   32  O   UNL     1      -8.663   1.986  65.212  1.00  0.00    -0.105 OA 
HETATM   33  O   UNL     1      -6.999   3.292  64.430  1.00  0.00    -0.049 OA 
ENDBRANCH  27  30
ENDBRANCH  26  27
ENDBRANCH  23  26
ENDBRANCH  22  23
ENDBRANCH  21  22
ENDBRANCH   7  21
TORSDOF 8
ENDMDL
MODEL      195
REMARK 921   NORMALIZED FREE ENERGY PREDICTED BY IDOCK:   -4.40 KCAL/MOL
REMARK 922        TOTAL FREE ENERGY PREDICTED BY IDOCK:   -7.91 KCAL/MOL
REMARK 923 INTER-LIGAND FREE ENERGY PREDICTED BY IDOCK:   -6.55 KCAL/MOL
REMARK 924 INTRA-LIGAND FREE ENERGY PREDICTED BY IDOCK:   -1.36 KCAL/MOL
REMARK 927      BINDING AFFINITY PREDICTED BY RF-SCORE:    0.00 PKD
ROOT
HETATM    1  C   UNL     1      -7.754   8.790  66.613  1.00  0.00    -0.093 C  
HETATM    2  C   UNL     1      -8.185  10.304  66.720  1.00  0.00    -0.124 C  
HETATM    3  C   UNL     1      -6.257   8.616  66.897  1.00  0.00    -0.059 C  
HETATM    4  C   UNL     1      -7.073  11.340  66.997  1.00  0.00    -0.129 C  
HETATM    5  C   UNL     1      -5.750  10.995  66.341  1.00  0.00    -0.132 C  
HETATM    6  C   UNL     1      -8.307   5.452  66.125  1.00  0.00    -0.117 C  
HETATM    7  C   UNL     1      -8.673   7.743  67.343  1.00  0.00    -0.128 C  
HETATM    8  C   UNL     1      -5.359   9.600  66.688  1.00  0.00    -0.045 C  
HETATM    9  O   UNL     1      -5.832  11.158  64.936  1.00  0.00    -0.431 OA 
HETATM   10  C   UNL     1      -8.043   6.307  67.370  1.00  0.00    -0.109 C  
HETATM   11  C   UNL     1      -6.568   6.306  67.623  1.00  0.00    -0.055 C  
HETATM   12  H   UNL     1      -5.003  10.942  64.525  1.00  0.00     0.000 HD 
HETATM   13  C   UNL     1      -5.772   7.348  67.394  1.00  0.00    -0.034 C  
ENDROOT
BRANCH   2  14
HETATM   14  O   UNL     1      -9.334  10.586  67.557  1.00  0.00    -0.148 OA 
BRANCH  14  15
HETATM   15  C   UNL     1     -10.260  11.512  67.177  1.00  0.00    -0.204 C  
HETATM   16  C   UNL     1     -10.157  13.963  67.569  1.00  0.00    -0.244 C  
HETATM   17  C   UNL     1     -11.701  12.529  68.952  1.00  0.00    -0.367 C  
HETATM   18  O   UNL     1     -10.935  11.469  66.157  1.00  0.00    -0.287 OA 
HETATM   19  C   UNL     1     -10.351  12.600  68.229  1.00  0.00    -0.246 C  
HETATM   20  C   UNL     1     -11.856  11.264  69.784  1.00  0.00    -0.437 C  
ENDBRANCH  14  15
ENDBRANCH   2  14
BRANCH   7  21
HETATM   21  C   UNL     1     -10.156   7.692  66.836  1.00  0.00    -0.348 C  
BRANCH  21  22
HETATM   22  C   UNL     1     -10.905   6.516  67.500  1.00  0.00    -0.433 C  
BRANCH  22  23
HETATM   23  C   UNL     1     -11.347   6.664  68.962  1.00  0.00    -0.160 C  
HETATM   24  O   UNL     1     -10.846   5.591  69.760  1.00  0.00    -0.331 OA 
HETATM   25  H   UNL     1     -11.119   5.683  70.665  1.00  0.00     0.000 HD 
BRANCH  23  26
HETATM   26  C   UNL     1     -10.741   7.977  69.510  1.00  0.00    -0.185 C  
BRANCH  26  27
HETATM   27  C   UNL     1      -9.975   7.831  70.831  1.00  0.00    -0.183 C  
HETATM   28  O   UNL     1      -8.637   8.335  70.705  1.00  0.00    -0.126 OA 
HETATM   29  H   UNL     1      -8.162   8.243  71.523  1.00  0.00     0.000 HD 
BRANCH  27  30
HETATM   30  C   UNL     1     -10.656   8.639  71.940  1.00  0.00    -0.411 C  
HETATM   31  C   UNL     1     -11.989   8.066  72.360  1.00  0.00    -0.350 C  
HETATM   32  O   UNL     1     -12.029   6.716  72.412  1.00  0.00    -0.244 OA 
HETATM   33  O   UNL     1     -12.935   8.761  72.704  1.00  0.00    -0.389 OA 
ENDBRANCH  27  30
ENDBRANCH  26  27
ENDBRANCH  23  26
ENDBRANCH  22  23
ENDBRANCH  21  22
ENDBRANCH   7  21
TORSDOF 8
ENDMDL
MODEL      196
REMARK 921   NORMALIZED FREE ENERGY PREDICTED BY IDOCK:   -4.38 KCAL/MOL
REMARK 922        TOTAL FREE ENERGY PREDICTED BY IDOCK:   -7.89 KCAL/MOL
REMARK 923 INTER-LIGAND FREE ENERGY PREDICTED BY IDOCK:   -7.40 KCAL/MOL
REMARK 924 INTRA-LIGAND FREE ENERGY PREDICTED BY IDOCK:   -0.49 KCAL/MOL
REMARK 927      BINDING AFFINITY PREDICTED BY RF-SCORE:    0.00 PKD
ROOT
HETATM    1  C   UNL     1      -9.935  10.893  66.262  1.00  0.00    -0.274 C  
HETATM    2  C   UNL     1     -10.114  12.379  66.761  1.00  0.00    -0.214 C  
HETATM    3  C   UNL     1      -9.958  10.813  64.730  1.00  0.00    -0.382 C  
HETATM    4  C   UNL     1     -10.358  13.462  65.688  1.00  0.00    -0.295 C  
HETATM    5  C   UNL     1     -11.185  12.975  64.514  1.00  0.00    -0.339 C  
HETATM    6  C   UNL     1      -9.444   7.536  66.681  1.00  0.00    -0.246 C  
HETATM    7  C   UNL     1      -8.782  10.059  66.932  1.00  0.00    -0.135 C  
HETATM    8  C   UNL     1     -10.599  11.720  63.965  1.00  0.00    -0.425 C  
HETATM    9  O   UNL     1     -12.532  12.770  64.904  1.00  0.00    -0.472 OA 
HETATM   10  C   UNL     1      -8.541   8.684  66.215  1.00  0.00    -0.151 C  
HETATM   11  C   UNL     1      -8.631   8.764  64.724  1.00  0.00    -0.161 C  
HETATM   12  H   UNL     1     -13.051  12.465  64.169  1.00  0.00     0.000 HD 
HETATM   13  C   UNL     1      -9.283   9.721  64.066  1.00  0.00    -0.267 C  
ENDROOT
BRANCH   2  14
HETATM   14  O   UNL     1      -9.139  12.854  67.722  1.00  0.00    -0.179 OA 
BRANCH  14  15
HETATM   15  C   UNL     1      -9.109  14.167  68.089  1.00  0.00    -0.193 C  
HETATM   16  C   UNL     1      -7.841  15.991  66.976  1.00  0.00    -0.263 C  
HETATM   17  C   UNL     1      -7.023  15.039  69.162  1.00  0.00    -0.139 C  
HETATM   18  O   UNL     1     -10.042  14.795  68.571  1.00  0.00    -0.218 OA 
HETATM   19  C   UNL     1      -7.726  14.734  67.834  1.00  0.00    -0.146 C  
HETATM   20  C   UNL     1      -6.713  13.784  69.966  1.00  0.00     0.131 C  
ENDBRANCH  14  15
ENDBRANCH   2  14
BRANCH   7  21
HETATM   21  C   UNL     1      -8.917   9.863  68.482  1.00  0.00    -0.122 C  
BRANCH  21  22
HETATM   22  C   UNL     1     -10.112   8.939  68.800  1.00  0.00    -0.215 C  
BRANCH  22  23
HETATM   23  C   UNL     1     -10.393   8.588  70.267  1.00  0.00    -0.205 C  
HETATM   24  O   UNL     1      -9.178   8.337  70.975  1.00  0.00    -0.145 OA 
HETATM   25  H   UNL     1      -9.353   8.120  71.884  1.00  0.00     0.000 HD 
BRANCH  23  26
HETATM   26  C   UNL     1     -11.074   9.810  70.925  1.00  0.00    -0.428 C  
BRANCH  26  27
HETATM   27  C   UNL     1     -12.061  10.561  70.023  1.00  0.00    -0.274 C  
HETATM   28  O   UNL     1     -13.416  10.310  70.426  1.00  0.00    -0.452 OA 
HETATM   29  H   UNL     1     -14.027  10.775  69.867  1.00  0.00     0.000 HD 
BRANCH  27  30
HETATM   30  C   UNL     1     -11.836  12.073  70.121  1.00  0.00    -0.383 C  
HETATM   31  C   UNL     1     -12.758  12.748  71.110  1.00  0.00    -0.263 C  
HETATM   32  O   UNL     1     -12.983  12.042  72.240  1.00  0.00    -0.294 OA 
HETATM   33  O   UNL     1     -13.203  13.875  70.945  1.00  0.00    -0.249 OA 
ENDBRANCH  27  30
ENDBRANCH  26  27
ENDBRANCH  23  26
ENDBRANCH  22  23
ENDBRANCH  21  22
ENDBRANCH   7  21
TORSDOF 8
ENDMDL
MODEL      197
REMARK 921   NORMALIZED FREE ENERGY PREDICTED BY IDOCK:   -4.38 KCAL/MOL
REMARK 922        TOTAL FREE ENERGY PREDICTED BY IDOCK:   -7.88 KCAL/MOL
REMARK 923 INTER-LIGAND FREE ENERGY PREDICTED BY IDOCK:   -6.22 KCAL/MOL
REMARK 924 INTRA-LIGAND FREE ENERGY PREDICTED BY IDOCK:   -1.67 KCAL/MOL
REMARK 927      BINDING AFFINITY PREDICTED BY RF-SCORE:    0.00 PKD
ROOT
HETATM    1  C   UNL     1      -7.875  14.769  68.194  1.00  0.00    -0.125 C  
HETATM    2  C   UNL     1      -9.330  15.343  67.988  1.00  0.00    -0.196 C  
HETATM    3  C   UNL     1      -6.999  15.746  68.989  1.00  0.00    -0.150 C  
HETATM    4  C   UNL     1      -9.612  16.766  68.517  1.00  0.00    -0.245 C  
HETATM    5  C   UNL     1      -8.427  17.703  68.393  1.00  0.00    -0.287 C  
HETATM    6  C   UNL     1      -5.418  12.410  67.900  1.00  0.00    -0.087 C  
HETATM    7  C   UNL     1      -7.768  13.275  68.673  1.00  0.00    -0.080 C  
HETATM    8  C   UNL     1      -7.218  17.077  68.997  1.00  0.00    -0.229 C  
HETATM    9  O   UNL     1      -8.193  18.035  67.035  1.00  0.00    -0.216 OA 
HETATM   10  C   UNL     1      -6.304  12.872  69.064  1.00  0.00    -0.100 C  
HETATM   11  C   UNL     1      -5.567  13.944  69.803  1.00  0.00    -0.103 C  
HETATM   12  H   UNL     1      -7.451  18.623  66.957  1.00  0.00     0.000 HD 
HETATM   13  C   UNL     1      -5.881  15.237  69.752  1.00  0.00    -0.128 C  
ENDROOT
BRANCH   2  14
HETATM   14  O   UNL     1     -10.424  14.463  68.349  1.00  0.00    -0.233 OA 
BRANCH  14  15
HETATM   15  C   UNL     1     -11.488  14.933  69.060  1.00  0.00    -0.301 C  
HETATM   16  C   UNL     1     -11.436  15.878  71.357  1.00  0.00    -0.484 C  
HETATM   17  C   UNL     1     -12.326  13.551  70.970  1.00  0.00    -0.422 C  
HETATM   18  O   UNL     1     -12.459  15.514  68.592  1.00  0.00     0.081 OA 
HETATM   19  C   UNL     1     -11.302  14.603  70.528  1.00  0.00    -0.209 C  
HETATM   20  C   UNL     1     -12.105  12.199  70.306  1.00  0.00    -0.385 C  
ENDBRANCH  14  15
ENDBRANCH   2  14
BRANCH   7  21
HETATM   21  C   UNL     1      -8.396  12.218  67.699  1.00  0.00    -0.166 C  
BRANCH  21  22
HETATM   22  C   UNL     1      -8.813  10.954  68.482  1.00  0.00    -0.153 C  
BRANCH  22  23
HETATM   23  C   UNL     1      -8.086   9.637  68.181  1.00  0.00    -0.105 C  
HETATM   24  O   UNL     1      -6.957   9.468  69.041  1.00  0.00    -0.057 OA 
HETATM   25  H   UNL     1      -6.507   8.652  68.855  1.00  0.00     0.000 HD 
BRANCH  23  26
HETATM   26  C   UNL     1      -9.068   8.476  68.464  1.00  0.00    -0.135 C  
BRANCH  26  27
HETATM   27  C   UNL     1      -9.949   8.666  69.705  1.00  0.00    -0.191 C  
HETATM   28  O   UNL     1     -11.306   8.284  69.431  1.00  0.00    -0.425 OA 
HETATM   29  H   UNL     1     -11.851   8.402  70.200  1.00  0.00     0.000 HD 
BRANCH  27  30
HETATM   30  C   UNL     1      -9.456   7.781  70.854  1.00  0.00    -0.165 C  
HETATM   31  C   UNL     1      -9.954   8.233  72.207  1.00  0.00    -0.296 C  
HETATM   32  O   UNL     1     -11.231   8.673  72.218  1.00  0.00    -0.353 OA 
HETATM   33  O   UNL     1      -9.288   8.136  73.228  1.00  0.00    -0.271 OA 
ENDBRANCH  27  30
ENDBRANCH  26  27
ENDBRANCH  23  26
ENDBRANCH  22  23
ENDBRANCH  21  22
ENDBRANCH   7  21
TORSDOF 8
ENDMDL
MODEL      198
REMARK 921   NORMALIZED FREE ENERGY PREDICTED BY IDOCK:   -4.38 KCAL/MOL
REMARK 922        TOTAL FREE ENERGY PREDICTED BY IDOCK:   -7.88 KCAL/MOL
REMARK 923 INTER-LIGAND FREE ENERGY PREDICTED BY IDOCK:   -7.08 KCAL/MOL
REMARK 924 INTRA-LIGAND FREE ENERGY PREDICTED BY IDOCK:   -0.80 KCAL/MOL
REMARK 927      BINDING AFFINITY PREDICTED BY RF-SCORE:    0.00 PKD
ROOT
HETATM    1  C   UNL     1     -10.094  12.830  67.170  1.00  0.00    -0.234 C  
HETATM    2  C   UNL     1      -9.685  14.095  68.019  1.00  0.00    -0.226 C  
HETATM    3  C   UNL     1     -11.360  13.098  66.346  1.00  0.00    -0.349 C  
HETATM    4  C   UNL     1     -10.623  15.321  67.961  1.00  0.00    -0.261 C  
HETATM    5  C   UNL     1     -12.089  14.955  67.844  1.00  0.00    -0.055 C  
HETATM    6  C   UNL     1      -9.709   9.638  66.007  1.00  0.00    -0.331 C  
HETATM    7  C   UNL     1      -8.944  12.119  66.367  1.00  0.00    -0.138 C  
HETATM    8  C   UNL     1     -12.288  14.005  66.715  1.00  0.00    -0.368 C  
HETATM    9  O   UNL     1     -12.563  14.397  69.057  1.00  0.00    -0.553 OA 
HETATM   10  C   UNL     1      -9.486  11.022  65.385  1.00  0.00    -0.257 C  
HETATM   11  C   UNL     1     -10.746  11.419  64.684  1.00  0.00    -0.378 C  
HETATM   12  H   UNL     1     -13.482  14.168  68.985  1.00  0.00     0.000 HD 
HETATM   13  C   UNL     1     -11.590  12.346  65.133  1.00  0.00    -0.408 C  
ENDROOT
BRANCH   2  14
HETATM   14  O   UNL     1      -8.307  14.529  67.901  1.00  0.00    -0.141 OA 
BRANCH  14  15
HETATM   15  C   UNL     1      -7.975  15.572  67.089  1.00  0.00    -0.221 C  
HETATM   16  C   UNL     1      -5.751  16.666  66.912  1.00  0.00    -0.116 C  
HETATM   17  C   UNL     1      -7.627  17.815  68.141  1.00  0.00    -0.250 C  
HETATM   18  O   UNL     1      -8.422  15.774  65.967  1.00  0.00    -0.227 OA 
HETATM   19  C   UNL     1      -6.979  16.469  67.797  1.00  0.00    -0.160 C  
HETATM   20  C   UNL     1      -8.737  17.687  69.176  1.00  0.00     0.125 C  
ENDBRANCH  14  15
ENDBRANCH   2  14
BRANCH   7  21
HETATM   21  C   UNL     1      -7.773  11.553  67.244  1.00  0.00    -0.150 C  
BRANCH  21  22
HETATM   22  C   UNL     1      -8.212  11.459  68.721  1.00  0.00    -0.107 C  
BRANCH  22  23
HETATM   23  C   UNL     1      -8.234  10.077  69.389  1.00  0.00    -0.155 C  
HETATM   24  O   UNL     1      -7.557  10.105  70.646  1.00  0.00    -0.418 OA 
HETATM   25  H   UNL     1      -7.572   9.250  71.059  1.00  0.00     0.000 HD 
BRANCH  23  26
HETATM   26  C   UNL     1      -9.710   9.704  69.660  1.00  0.00    -0.230 C  
BRANCH  26  27
HETATM   27  C   UNL     1     -10.018   8.203  69.589  1.00  0.00    -0.193 C  
HETATM   28  O   UNL     1      -9.066   7.525  68.756  1.00  0.00    -0.136 OA 
HETATM   29  H   UNL     1      -9.258   6.595  68.712  1.00  0.00     0.000 HD 
BRANCH  27  30
HETATM   30  C   UNL     1      -9.928   7.571  70.981  1.00  0.00    -0.189 C  
HETATM   31  C   UNL     1     -11.143   7.843  71.838  1.00  0.00    -0.267 C  
HETATM   32  O   UNL     1     -12.319   7.804  71.173  1.00  0.00    -0.304 OA 
HETATM   33  O   UNL     1     -11.082   8.006  73.048  1.00  0.00    -0.382 OA 
ENDBRANCH  27  30
ENDBRANCH  26  27
ENDBRANCH  23  26
ENDBRANCH  22  23
ENDBRANCH  21  22
ENDBRANCH   7  21
TORSDOF 8
ENDMDL
MODEL      199
REMARK 921   NORMALIZED FREE ENERGY PREDICTED BY IDOCK:   -4.38 KCAL/MOL
REMARK 922        TOTAL FREE ENERGY PREDICTED BY IDOCK:   -7.88 KCAL/MOL
REMARK 923 INTER-LIGAND FREE ENERGY PREDICTED BY IDOCK:   -5.91 KCAL/MOL
REMARK 924 INTRA-LIGAND FREE ENERGY PREDICTED BY IDOCK:   -1.97 KCAL/MOL
REMARK 927      BINDING AFFINITY PREDICTED BY RF-SCORE:    0.00 PKD
ROOT
HETATM    1  C   UNL     1      -9.351  15.562  68.136  1.00  0.00    -0.197 C  
HETATM    2  C   UNL     1      -8.254  15.858  69.231  1.00  0.00    -0.227 C  
HETATM    3  C   UNL     1      -9.068  16.335  66.842  1.00  0.00    -0.242 C  
HETATM    4  C   UNL     1      -7.164  16.895  68.880  1.00  0.00    -0.231 C  
HETATM    5  C   UNL     1      -7.671  18.035  68.017  1.00  0.00    -0.250 C  
HETATM    6  C   UNL     1     -12.155  14.037  66.913  1.00  0.00    -0.465 C  
HETATM    7  C   UNL     1      -9.733  14.052  67.913  1.00  0.00    -0.229 C  
HETATM    8  C   UNL     1      -8.378  17.493  66.823  1.00  0.00    -0.277 C  
HETATM    9  O   UNL     1      -8.525  18.884  68.762  1.00  0.00    -0.346 OA 
HETATM   10  C   UNL     1     -10.655  13.845  66.661  1.00  0.00    -0.274 C  
HETATM   11  C   UNL     1     -10.273  14.696  65.491  1.00  0.00    -0.395 C  
HETATM   12  H   UNL     1      -8.842  19.599  68.222  1.00  0.00     0.000 HD 
HETATM   13  C   UNL     1      -9.569  15.822  65.586  1.00  0.00    -0.299 C  
ENDROOT
BRANCH   2  14
HETATM   14  O   UNL     1      -7.643  14.703  69.856  1.00  0.00    -0.018 OA 
BRANCH  14  15
HETATM   15  C   UNL     1      -6.324  14.421  69.657  1.00  0.00    -0.140 C  
HETATM   16  C   UNL     1      -5.255  13.758  67.514  1.00  0.00     0.165 C  
HETATM   17  C   UNL     1      -5.674  12.031  69.302  1.00  0.00    -0.072 C  
HETATM   18  O   UNL     1      -5.384  14.961  70.227  1.00  0.00    -0.107 OA 
HETATM   19  C   UNL     1      -6.191  13.310  68.634  1.00  0.00    -0.084 C  
HETATM   20  C   UNL     1      -6.668  11.440  70.291  1.00  0.00     0.324 C  
ENDBRANCH  14  15
ENDBRANCH   2  14
BRANCH   7  21
HETATM   21  C   UNL     1     -10.326  13.324  69.169  1.00  0.00     0.121 C  
BRANCH  21  22
HETATM   22  C   UNL     1     -10.174  11.795  69.019  1.00  0.00    -0.044 C  
BRANCH  22  23
HETATM   23  C   UNL     1     -11.431  10.922  69.134  1.00  0.00    -0.303 C  
HETATM   24  O   UNL     1     -11.777  10.355  67.869  1.00  0.00    -0.714 OA 
HETATM   25  H   UNL     1     -12.555   9.814  67.940  1.00  0.00     0.000 HD 
BRANCH  23  26
HETATM   26  C   UNL     1     -11.114   9.757  70.099  1.00  0.00    -0.335 C  
BRANCH  26  27
HETATM   27  C   UNL     1      -9.756   9.081  69.870  1.00  0.00    -0.183 C  
HETATM   28  O   UNL     1      -8.974   9.085  71.073  1.00  0.00    -0.211 OA 
HETATM   29  H   UNL     1      -8.133   8.667  70.931  1.00  0.00     0.000 HD 
BRANCH  27  30
HETATM   30  C   UNL     1      -9.946   7.617  69.463  1.00  0.00    -0.182 C  
HETATM   31  C   UNL     1     -10.462   7.454  68.052  1.00  0.00    -0.199 C  
HETATM   32  O   UNL     1      -9.936   8.321  67.159  1.00  0.00    -0.191 OA 
HETATM   33  O   UNL     1     -11.230   6.562  67.722  1.00  0.00    -0.305 OA 
ENDBRANCH  27  30
ENDBRANCH  26  27
ENDBRANCH  23  26
ENDBRANCH  22  23
ENDBRANCH  21  22
ENDBRANCH   7  21
TORSDOF 8
ENDMDL
MODEL      200
REMARK 921   NORMALIZED FREE ENERGY PREDICTED BY IDOCK:   -4.36 KCAL/MOL
REMARK 922        TOTAL FREE ENERGY PREDICTED BY IDOCK:   -7.86 KCAL/MOL
REMARK 923 INTER-LIGAND FREE ENERGY PREDICTED BY IDOCK:   -5.70 KCAL/MOL
REMARK 924 INTRA-LIGAND FREE ENERGY PREDICTED BY IDOCK:   -2.16 KCAL/MOL
REMARK 927      BINDING AFFINITY PREDICTED BY RF-SCORE:    0.00 PKD
ROOT
HETATM    1  C   UNL     1      -8.236  12.268  67.137  1.00  0.00    -0.179 C  
HETATM    2  C   UNL     1      -8.865  13.471  67.941  1.00  0.00    -0.190 C  
HETATM    3  C   UNL     1      -6.711  12.229  67.299  1.00  0.00    -0.143 C  
HETATM    4  C   UNL     1      -7.891  14.429  68.662  1.00  0.00    -0.140 C  
HETATM    5  C   UNL     1      -6.590  14.644  67.914  1.00  0.00    -0.164 C  
HETATM    6  C   UNL     1      -8.351   9.488  65.152  1.00  0.00    -0.148 C  
HETATM    7  C   UNL     1      -8.936  10.869  67.301  1.00  0.00    -0.139 C  
HETATM    8  C   UNL     1      -5.980  13.330  67.568  1.00  0.00    -0.073 C  
HETATM    9  O   UNL     1      -6.807  15.418  66.747  1.00  0.00    -0.240 OA 
HETATM   10  C   UNL     1      -8.110   9.705  66.651  1.00  0.00    -0.119 C  
HETATM   11  C   UNL     1      -6.634   9.827  66.865  1.00  0.00    -0.067 C  
HETATM   12  H   UNL     1      -5.992  15.553  66.278  1.00  0.00     0.000 HD 
HETATM   13  C   UNL     1      -6.013  10.972  67.144  1.00  0.00    -0.072 C  
ENDROOT
BRANCH   2  14
HETATM   14  O   UNL     1      -9.971  13.147  68.820  1.00  0.00    -0.157 OA 
BRANCH  14  15
HETATM   15  C   UNL     1     -11.237  13.558  68.525  1.00  0.00    -0.278 C  
HETATM   16  C   UNL     1     -12.144  14.067  66.269  1.00  0.00    -0.482 C  
HETATM   17  C   UNL     1     -11.568  15.944  67.848  1.00  0.00    -0.109 C  
HETATM   18  O   UNL     1     -12.254  13.214  69.112  1.00  0.00    -0.247 OA 
HETATM   19  C   UNL     1     -11.195  14.537  67.368  1.00  0.00    -0.337 C  
HETATM   20  C   UNL     1     -10.539  16.532  68.804  1.00  0.00    -0.322 C  
ENDBRANCH  14  15
ENDBRANCH   2  14
BRANCH   7  21
HETATM   21  C   UNL     1     -10.433  10.817  66.837  1.00  0.00    -0.304 C  
BRANCH  21  22
HETATM   22  C   UNL     1     -11.234   9.847  67.733  1.00  0.00    -0.075 C  
BRANCH  22  23
HETATM   23  C   UNL     1     -11.092   9.976  69.256  1.00  0.00    -0.206 C  
HETATM   24  O   UNL     1     -12.356  10.240  69.867  1.00  0.00    -0.501 OA 
HETATM   25  H   UNL     1     -12.268  10.319  70.810  1.00  0.00     0.000 HD 
BRANCH  23  26
HETATM   26  C   UNL     1     -10.581   8.622  69.802  1.00  0.00    -0.224 C  
BRANCH  26  27
HETATM   27  C   UNL     1      -9.373   8.722  70.741  1.00  0.00    -0.208 C  
HETATM   28  O   UNL     1      -9.569   7.915  71.913  1.00  0.00    -0.158 OA 
HETATM   29  H   UNL     1      -8.821   7.977  72.495  1.00  0.00     0.000 HD 
BRANCH  27  30
HETATM   30  C   UNL     1      -8.109   8.206  70.047  1.00  0.00    -0.114 C  
HETATM   31  C   UNL     1      -7.925   6.712  70.182  1.00  0.00    -0.112 C  
HETATM   32  O   UNL     1      -9.066   5.995  70.087  1.00  0.00    -0.144 OA 
HETATM   33  O   UNL     1      -6.828   6.183  70.288  1.00  0.00    -0.051 OA 
ENDBRANCH  27  30
ENDBRANCH  26  27
ENDBRANCH  23  26
ENDBRANCH  22  23
ENDBRANCH  21  22
ENDBRANCH   7  21
TORSDOF 8
ENDMDL
MODEL      201
REMARK 921   NORMALIZED FREE ENERGY PREDICTED BY IDOCK:   -4.35 KCAL/MOL
REMARK 922        TOTAL FREE ENERGY PREDICTED BY IDOCK:   -7.85 KCAL/MOL
REMARK 923 INTER-LIGAND FREE ENERGY PREDICTED BY IDOCK:   -6.54 KCAL/MOL
REMARK 924 INTRA-LIGAND FREE ENERGY PREDICTED BY IDOCK:   -1.30 KCAL/MOL
REMARK 927      BINDING AFFINITY PREDICTED BY RF-SCORE:    0.00 PKD
ROOT
HETATM    1  C   UNL     1      -9.823   5.428  69.197  1.00  0.00    -0.242 C  
HETATM    2  C   UNL     1      -9.993   5.111  70.733  1.00  0.00    -0.215 C  
HETATM    3  C   UNL     1      -9.385   4.182  68.416  1.00  0.00    -0.213 C  
HETATM    4  C   UNL     1      -9.629   3.686  71.207  1.00  0.00    -0.244 C  
HETATM    5  C   UNL     1      -8.461   3.079  70.455  1.00  0.00    -0.060 C  
HETATM    6  C   UNL     1      -9.930   7.433  66.430  1.00  0.00    -0.107 C  
HETATM    7  C   UNL     1     -10.983   6.240  68.513  1.00  0.00    -0.421 C  
HETATM    8  C   UNL     1      -8.699   3.171  68.987  1.00  0.00    -0.135 C  
HETATM    9  O   UNL     1      -7.250   3.725  70.807  1.00  0.00    -0.036 OA 
HETATM   10  C   UNL     1     -10.831   6.307  66.953  1.00  0.00    -0.428 C  
HETATM   11  C   UNL     1     -10.361   5.024  66.343  1.00  0.00    -0.335 C  
HETATM   12  H   UNL     1      -6.518   3.344  70.336  1.00  0.00     0.000 HD 
HETATM   13  C   UNL     1      -9.700   4.079  67.009  1.00  0.00    -0.214 C  
ENDROOT
BRANCH   2  14
HETATM   14  O   UNL     1     -11.244   5.521  71.338  1.00  0.00    -0.160 OA 
BRANCH  14  15
HETATM   15  C   UNL     1     -11.281   6.557  72.223  1.00  0.00    -0.273 C  
HETATM   16  C   UNL     1      -9.442   8.152  72.718  1.00  0.00    -0.349 C  
HETATM   17  C   UNL     1     -10.000   6.323  74.359  1.00  0.00    -0.346 C  
HETATM   18  O   UNL     1     -12.260   7.248  72.473  1.00  0.00    -0.131 OA 
HETATM   19  C   UNL     1      -9.923   6.712  72.879  1.00  0.00    -0.187 C  
HETATM   20  C   UNL     1     -10.289   4.842  74.564  1.00  0.00    -0.324 C  
ENDBRANCH  14  15
ENDBRANCH   2  14
BRANCH   7  21
HETATM   21  C   UNL     1     -11.237   7.668  69.110  1.00  0.00     0.233 C  
BRANCH  21  22
HETATM   22  C   UNL     1      -9.915   8.466  69.161  1.00  0.00    -0.197 C  
BRANCH  22  23
HETATM   23  C   UNL     1      -9.983   9.996  69.060  1.00  0.00    -0.196 C  
HETATM   24  O   UNL     1     -10.345  10.576  70.314  1.00  0.00    -0.434 OA 
HETATM   25  H   UNL     1     -10.386  11.523  70.251  1.00  0.00     0.000 HD 
BRANCH  23  26
HETATM   26  C   UNL     1      -8.571  10.511  68.695  1.00  0.00    -0.139 C  
BRANCH  26  27
HETATM   27  C   UNL     1      -8.519  11.971  68.229  1.00  0.00    -0.167 C  
HETATM   28  O   UNL     1      -9.529  12.753  68.883  1.00  0.00    -0.402 OA 
HETATM   29  H   UNL     1      -9.497  13.657  68.594  1.00  0.00     0.000 HD 
BRANCH  27  30
HETATM   30  C   UNL     1      -7.167  12.599  68.580  1.00  0.00    -0.113 C  
HETATM   31  C   UNL     1      -6.788  13.743  67.668  1.00  0.00    -0.175 C  
HETATM   32  O   UNL     1      -7.817  14.548  67.320  1.00  0.00    -0.192 OA 
HETATM   33  O   UNL     1      -5.635  13.975  67.333  1.00  0.00    -0.345 OA 
ENDBRANCH  27  30
ENDBRANCH  26  27
ENDBRANCH  23  26
ENDBRANCH  22  23
ENDBRANCH  21  22
ENDBRANCH   7  21
TORSDOF 8
ENDMDL
MODEL      202
REMARK 921   NORMALIZED FREE ENERGY PREDICTED BY IDOCK:   -4.34 KCAL/MOL
REMARK 922        TOTAL FREE ENERGY PREDICTED BY IDOCK:   -7.82 KCAL/MOL
REMARK 923 INTER-LIGAND FREE ENERGY PREDICTED BY IDOCK:   -6.53 KCAL/MOL
REMARK 924 INTRA-LIGAND FREE ENERGY PREDICTED BY IDOCK:   -1.29 KCAL/MOL
REMARK 927      BINDING AFFINITY PREDICTED BY RF-SCORE:    0.00 PKD
ROOT
HETATM    1  C   UNL     1      -7.958  10.266  68.784  1.00  0.00    -0.113 C  
HETATM    2  C   UNL     1      -8.707  11.398  67.980  1.00  0.00    -0.148 C  
HETATM    3  C   UNL     1      -6.512  10.670  69.099  1.00  0.00    -0.056 C  
HETATM    4  C   UNL     1      -7.885  12.643  67.577  1.00  0.00    -0.175 C  
HETATM    5  C   UNL     1      -6.442  12.329  67.237  1.00  0.00    -0.152 C  
HETATM    6  C   UNL     1      -7.728   7.248  70.373  1.00  0.00    -0.094 C  
HETATM    7  C   UNL     1      -8.730   9.640  70.004  1.00  0.00    -0.256 C  
HETATM    8  C   UNL     1      -5.819  11.541  68.337  1.00  0.00    -0.045 C  
HETATM    9  O   UNL     1      -6.359  11.627  66.009  1.00  0.00    -0.414 OA 
HETATM   10  C   UNL     1      -7.824   8.696  70.868  1.00  0.00    -0.129 C  
HETATM   11  C   UNL     1      -6.432   9.211  71.054  1.00  0.00    -0.081 C  
HETATM   12  H   UNL     1      -5.454  11.431  65.795  1.00  0.00     0.000 HD 
HETATM   13  C   UNL     1      -5.846  10.090  70.244  1.00  0.00    -0.064 C  
ENDROOT
BRANCH   2  14
HETATM   14  O   UNL     1      -9.994  11.812  68.502  1.00  0.00    -0.205 OA 
BRANCH  14  15
HETATM   15  C   UNL     1     -11.108  11.769  67.717  1.00  0.00    -0.243 C  
HETATM   16  C   UNL     1     -11.199  12.071  65.252  1.00  0.00    -0.374 C  
HETATM   17  C   UNL     1     -11.966  13.924  66.778  1.00  0.00    -0.472 C  
HETATM   18  O   UNL     1     -12.082  11.051  67.898  1.00  0.00    -0.600 OA 
HETATM   19  C   UNL     1     -10.972  12.773  66.589  1.00  0.00    -0.300 C  
HETATM   20  C   UNL     1     -11.657  14.773  68.004  1.00  0.00    -0.367 C  
ENDBRANCH  14  15
ENDBRANCH   2  14
BRANCH   7  21
HETATM   21  C   UNL     1     -10.085   8.937  69.643  1.00  0.00    -0.202 C  
BRANCH  21  22
HETATM   22  C   UNL     1      -9.957   8.196  68.294  1.00  0.00    -0.212 C  
BRANCH  22  23
HETATM   23  C   UNL     1     -10.822   6.951  68.061  1.00  0.00    -0.200 C  
HETATM   24  O   UNL     1     -11.557   7.059  66.841  1.00  0.00    -0.476 OA 
HETATM   25  H   UNL     1     -12.092   6.288  66.696  1.00  0.00     0.000 HD 
BRANCH  23  26
HETATM   26  C   UNL     1      -9.878   5.733  67.933  1.00  0.00    -0.147 C  
BRANCH  26  27
HETATM   27  C   UNL     1      -9.761   5.155  66.517  1.00  0.00    -0.171 C  
HETATM   28  O   UNL     1      -9.350   6.166  65.584  1.00  0.00    -0.367 OA 
HETATM   29  H   UNL     1      -9.278   5.807  64.708  1.00  0.00     0.000 HD 
BRANCH  27  30
HETATM   30  C   UNL     1      -8.703   4.048  66.475  1.00  0.00    -0.116 C  
HETATM   31  C   UNL     1      -8.887   3.093  65.318  1.00  0.00    -0.134 C  
HETATM   32  O   UNL     1      -9.273   3.679  64.163  1.00  0.00    -0.120 OA 
HETATM   33  O   UNL     1      -8.633   1.899  65.392  1.00  0.00    -0.099 OA 
ENDBRANCH  27  30
ENDBRANCH  26  27
ENDBRANCH  23  26
ENDBRANCH  22  23
ENDBRANCH  21  22
ENDBRANCH   7  21
TORSDOF 8
ENDMDL
MODEL      203
REMARK 921   NORMALIZED FREE ENERGY PREDICTED BY IDOCK:   -4.34 KCAL/MOL
REMARK 922        TOTAL FREE ENERGY PREDICTED BY IDOCK:   -7.82 KCAL/MOL
REMARK 923 INTER-LIGAND FREE ENERGY PREDICTED BY IDOCK:   -6.23 KCAL/MOL
REMARK 924 INTRA-LIGAND FREE ENERGY PREDICTED BY IDOCK:   -1.59 KCAL/MOL
REMARK 927      BINDING AFFINITY PREDICTED BY RF-SCORE:    0.00 PKD
ROOT
HETATM    1  C   UNL     1      -8.560   9.817  68.761  1.00  0.00    -0.127 C  
HETATM    2  C   UNL     1      -9.841  10.733  68.675  1.00  0.00    -0.184 C  
HETATM    3  C   UNL     1      -7.345  10.495  68.117  1.00  0.00    -0.088 C  
HETATM    4  C   UNL     1      -9.704  12.072  67.917  1.00  0.00    -0.194 C  
HETATM    5  C   UNL     1      -8.770  12.000  66.726  1.00  0.00    -0.192 C  
HETATM    6  C   UNL     1      -6.828   7.014  69.673  1.00  0.00    -0.050 C  
HETATM    7  C   UNL     1      -8.261   9.154  70.156  1.00  0.00    -0.161 C  
HETATM    8  C   UNL     1      -7.462  11.419  67.141  1.00  0.00    -0.138 C  
HETATM    9  O   UNL     1      -9.349  11.235  65.683  1.00  0.00    -0.216 OA 
HETATM   10  C   UNL     1      -6.858   8.453  70.200  1.00  0.00    -0.042 C  
HETATM   11  C   UNL     1      -5.785   9.222  69.496  1.00  0.00    -0.034 C  
HETATM   12  H   UNL     1      -8.763  11.189  64.936  1.00  0.00     0.000 HD 
HETATM   13  C   UNL     1      -6.015  10.130  68.550  1.00  0.00    -0.041 C  
ENDROOT
BRANCH   2  14
HETATM   14  O   UNL     1     -10.562  10.946  69.914  1.00  0.00    -0.158 OA 
BRANCH  14  15
HETATM   15  C   UNL     1     -11.905  11.179  69.905  1.00  0.00    -0.363 C  
HETATM   16  C   UNL     1     -13.145  12.777  71.349  1.00  0.00    -0.318 C  
HETATM   17  C   UNL     1     -13.263  10.302  71.815  1.00  0.00    -0.534 C  
HETATM   18  O   UNL     1     -12.628  11.152  68.917  1.00  0.00    -0.358 OA 
HETATM   19  C   UNL     1     -12.382  11.454  71.317  1.00  0.00    -0.344 C  
HETATM   20  C   UNL     1     -12.490   9.002  71.984  1.00  0.00    -0.460 C  
ENDBRANCH  14  15
ENDBRANCH   2  14
BRANCH   7  21
HETATM   21  C   UNL     1      -9.380   8.194  70.690  1.00  0.00    -0.165 C  
BRANCH  21  22
HETATM   22  C   UNL     1     -10.145   7.559  69.508  1.00  0.00    -0.189 C  
BRANCH  22  23
HETATM   23  C   UNL     1     -10.965   6.288  69.769  1.00  0.00    -0.378 C  
HETATM   24  O   UNL     1     -10.445   5.183  69.029  1.00  0.00    -0.180 OA 
HETATM   25  H   UNL     1     -10.953   4.396  69.191  1.00  0.00     0.000 HD 
BRANCH  23  26
HETATM   26  C   UNL     1     -10.845   5.945  71.271  1.00  0.00    -0.333 C  
BRANCH  26  27
HETATM   27  C   UNL     1     -10.161   4.606  71.574  1.00  0.00    -0.185 C  
HETATM   28  O   UNL     1      -8.732   4.746  71.548  1.00  0.00    -0.118 OA 
HETATM   29  H   UNL     1      -8.308   3.916  71.735  1.00  0.00     0.000 HD 
BRANCH  27  30
HETATM   30  C   UNL     1     -10.539   4.114  72.974  1.00  0.00    -0.256 C  
HETATM   31  C   UNL     1     -10.680   2.612  73.058  1.00  0.00    -0.134 C  
HETATM   32  O   UNL     1      -9.764   1.922  72.344  1.00  0.00    -0.090 OA 
HETATM   33  O   UNL     1     -11.501   2.059  73.775  1.00  0.00    -0.201 OA 
ENDBRANCH  27  30
ENDBRANCH  26  27
ENDBRANCH  23  26
ENDBRANCH  22  23
ENDBRANCH  21  22
ENDBRANCH   7  21
TORSDOF 8
ENDMDL
MODEL      204
REMARK 921   NORMALIZED FREE ENERGY PREDICTED BY IDOCK:   -4.32 KCAL/MOL
REMARK 922        TOTAL FREE ENERGY PREDICTED BY IDOCK:   -7.80 KCAL/MOL
REMARK 923 INTER-LIGAND FREE ENERGY PREDICTED BY IDOCK:   -6.56 KCAL/MOL
REMARK 924 INTRA-LIGAND FREE ENERGY PREDICTED BY IDOCK:   -1.24 KCAL/MOL
REMARK 927      BINDING AFFINITY PREDICTED BY RF-SCORE:    0.00 PKD
ROOT
HETATM    1  C   UNL     1      -8.571  10.700  68.556  1.00  0.00    -0.137 C  
HETATM    2  C   UNL     1     -10.033  11.279  68.694  1.00  0.00    -0.204 C  
HETATM    3  C   UNL     1      -7.609  11.747  67.980  1.00  0.00    -0.116 C  
HETATM    4  C   UNL     1     -10.278  12.713  68.174  1.00  0.00    -0.240 C  
HETATM    5  C   UNL     1      -9.463  13.057  66.943  1.00  0.00    -0.242 C  
HETATM    6  C   UNL     1      -6.162   8.296  68.880  1.00  0.00    -0.044 C  
HETATM    7  C   UNL     1      -8.003   9.920  69.798  1.00  0.00    -0.181 C  
HETATM    8  C   UNL     1      -8.024  12.755  67.186  1.00  0.00    -0.112 C  
HETATM    9  O   UNL     1      -9.940  12.348  65.813  1.00  0.00    -0.252 OA 
HETATM   10  C   UNL     1      -6.478   9.584  69.650  1.00  0.00    -0.041 C  
HETATM   11  C   UNL     1      -5.679  10.692  69.038  1.00  0.00    -0.040 C  
HETATM   12  H   UNL     1      -9.429  12.564  65.042  1.00  0.00     0.000 HD 
HETATM   13  C   UNL     1      -6.198  11.653  68.277  1.00  0.00    -0.049 C  
ENDROOT
BRANCH   2  14
HETATM   14  O   UNL     1     -10.669  11.113  69.985  1.00  0.00    -0.049 OA 
BRANCH  14  15
HETATM   15  C   UNL     1     -12.028  11.132  70.097  1.00  0.00    -0.365 C  
HETATM   16  C   UNL     1     -13.361  12.363  71.794  1.00  0.00    -0.368 C  
HETATM   17  C   UNL     1     -13.068   9.868  71.989  1.00  0.00    -0.545 C  
HETATM   18  O   UNL     1     -12.822  11.089  69.166  1.00  0.00    -0.137 OA 
HETATM   19  C   UNL     1     -12.415  11.187  71.561  1.00  0.00    -0.356 C  
HETATM   20  C   UNL     1     -12.098   8.694  71.957  1.00  0.00    -0.442 C  
ENDBRANCH  14  15
ENDBRANCH   2  14
BRANCH   7  21
HETATM   21  C   UNL     1      -8.817   8.645  70.212  1.00  0.00    -0.158 C  
BRANCH  21  22
HETATM   22  C   UNL     1      -9.457   7.995  68.966  1.00  0.00    -0.151 C  
BRANCH  22  23
HETATM   23  C   UNL     1     -10.078   6.599  69.109  1.00  0.00    -0.169 C  
HETATM   24  O   UNL     1     -11.479   6.631  68.832  1.00  0.00    -0.582 OA 
HETATM   25  H   UNL     1     -11.863   5.766  68.921  1.00  0.00     0.000 HD 
BRANCH  23  26
HETATM   26  C   UNL     1      -9.414   5.674  68.063  1.00  0.00    -0.121 C  
BRANCH  26  27
HETATM   27  C   UNL     1     -10.395   4.904  67.170  1.00  0.00    -0.123 C  
HETATM   28  O   UNL     1     -11.095   5.796  66.290  1.00  0.00    -0.733 OA 
HETATM   29  H   UNL     1     -11.703   5.319  65.738  1.00  0.00     0.000 HD 
BRANCH  27  30
HETATM   30  C   UNL     1      -9.645   3.901  66.288  1.00  0.00    -0.198 C  
HETATM   31  C   UNL     1      -9.178   4.494  64.979  1.00  0.00    -0.157 C  
HETATM   32  O   UNL     1      -8.720   5.762  65.069  1.00  0.00    -0.127 OA 
HETATM   33  O   UNL     1      -9.139   3.859  63.935  1.00  0.00    -0.118 OA 
ENDBRANCH  27  30
ENDBRANCH  26  27
ENDBRANCH  23  26
ENDBRANCH  22  23
ENDBRANCH  21  22
ENDBRANCH   7  21
TORSDOF 8
ENDMDL
MODEL      205
REMARK 921   NORMALIZED FREE ENERGY PREDICTED BY IDOCK:   -4.31 KCAL/MOL
REMARK 922        TOTAL FREE ENERGY PREDICTED BY IDOCK:   -7.79 KCAL/MOL
REMARK 923 INTER-LIGAND FREE ENERGY PREDICTED BY IDOCK:   -6.03 KCAL/MOL
REMARK 924 INTRA-LIGAND FREE ENERGY PREDICTED BY IDOCK:   -1.76 KCAL/MOL
REMARK 927      BINDING AFFINITY PREDICTED BY RF-SCORE:    0.00 PKD
ROOT
HETATM    1  C   UNL     1      -8.636   5.227  67.244  1.00  0.00    -0.105 C  
HETATM    2  C   UNL     1      -8.810   6.503  66.332  1.00  0.00    -0.143 C  
HETATM    3  C   UNL     1      -7.684   4.210  66.602  1.00  0.00    -0.089 C  
HETATM    4  C   UNL     1      -8.098   6.497  64.961  1.00  0.00    -0.127 C  
HETATM    5  C   UNL     1      -8.051   5.128  64.311  1.00  0.00    -0.125 C  
HETATM    6  C   UNL     1      -9.170   3.340  70.044  1.00  0.00    -0.221 C  
HETATM    7  C   UNL     1      -8.365   5.485  68.772  1.00  0.00    -0.102 C  
HETATM    8  C   UNL     1      -7.499   4.129  65.269  1.00  0.00    -0.077 C  
HETATM    9  O   UNL     1      -9.340   4.739  63.871  1.00  0.00    -0.332 OA 
HETATM   10  C   UNL     1      -7.984   4.174  69.544  1.00  0.00    -0.056 C  
HETATM   11  C   UNL     1      -7.079   3.268  68.772  1.00  0.00    -0.049 C  
HETATM   12  H   UNL     1      -9.311   3.881  63.463  1.00  0.00     0.000 HD 
HETATM   13  C   UNL     1      -6.961   3.284  67.446  1.00  0.00    -0.050 C  
ENDROOT
BRANCH   2  14
HETATM   14  O   UNL     1      -8.612   7.785  66.978  1.00  0.00    -0.124 OA 
BRANCH  14  15
HETATM   15  C   UNL     1      -9.581   8.743  66.931  1.00  0.00    -0.190 C  
HETATM   16  C   UNL     1      -9.611  10.752  65.469  1.00  0.00    -0.269 C  
HETATM   17  C   UNL     1      -9.065  10.983  67.919  1.00  0.00    -0.147 C  
HETATM   18  O   UNL     1     -10.780   8.555  67.090  1.00  0.00    -0.280 OA 
HETATM   19  C   UNL     1      -8.944  10.095  66.676  1.00  0.00    -0.156 C  
HETATM   20  C   UNL     1      -8.252  10.462  69.096  1.00  0.00    -0.157 C  
ENDBRANCH  14  15
ENDBRANCH   2  14
BRANCH   7  21
HETATM   21  C   UNL     1      -9.497   6.266  69.525  1.00  0.00    -0.151 C  
BRANCH  21  22
HETATM   22  C   UNL     1      -8.889   7.132  70.650  1.00  0.00    -0.149 C  
BRANCH  22  23
HETATM   23  C   UNL     1      -9.843   7.865  71.603  1.00  0.00    -0.167 C  
HETATM   24  O   UNL     1      -9.240   9.053  72.117  1.00  0.00    -0.365 OA 
HETATM   25  H   UNL     1      -9.831   9.507  72.706  1.00  0.00     0.000 HD 
BRANCH  23  26
HETATM   26  C   UNL     1     -11.092   8.284  70.795  1.00  0.00    -0.280 C  
BRANCH  26  27
HETATM   27  C   UNL     1     -12.428   7.805  71.378  1.00  0.00    -0.320 C  
HETATM   28  O   UNL     1     -12.245   6.619  72.165  1.00  0.00    -0.432 OA 
HETATM   29  H   UNL     1     -13.073   6.322  72.526  1.00  0.00     0.000 HD 
BRANCH  27  30
HETATM   30  C   UNL     1     -13.023   8.871  72.304  1.00  0.00    -0.479 C  
HETATM   31  C   UNL     1     -13.216  10.207  71.625  1.00  0.00    -0.418 C  
HETATM   32  O   UNL     1     -13.649  10.130  70.347  1.00  0.00    -0.014 OA 
HETATM   33  O   UNL     1     -13.072  11.275  72.203  1.00  0.00    -0.458 OA 
ENDBRANCH  27  30
ENDBRANCH  26  27
ENDBRANCH  23  26
ENDBRANCH  22  23
ENDBRANCH  21  22
ENDBRANCH   7  21
TORSDOF 8
ENDMDL
MODEL      206
REMARK 921   NORMALIZED FREE ENERGY PREDICTED BY IDOCK:   -4.28 KCAL/MOL
REMARK 922        TOTAL FREE ENERGY PREDICTED BY IDOCK:   -7.74 KCAL/MOL
REMARK 923 INTER-LIGAND FREE ENERGY PREDICTED BY IDOCK:   -6.60 KCAL/MOL
REMARK 924 INTRA-LIGAND FREE ENERGY PREDICTED BY IDOCK:   -1.14 KCAL/MOL
REMARK 927      BINDING AFFINITY PREDICTED BY RF-SCORE:    0.00 PKD
ROOT
HETATM    1  C   UNL     1      -8.455   8.436  66.531  1.00  0.00    -0.116 C  
HETATM    2  C   UNL     1      -7.846   9.889  66.453  1.00  0.00    -0.107 C  
HETATM    3  C   UNL     1      -7.396   7.370  66.221  1.00  0.00    -0.082 C  
HETATM    4  C   UNL     1      -6.370  10.016  66.015  1.00  0.00    -0.087 C  
HETATM    5  C   UNL     1      -5.956   8.987  64.981  1.00  0.00    -0.060 C  
HETATM    6  C   UNL     1     -10.946   6.160  67.083  1.00  0.00    -0.420 C  
HETATM    7  C   UNL     1      -9.345   8.111  67.787  1.00  0.00    -0.149 C  
HETATM    8  C   UNL     1      -6.318   7.621  65.450  1.00  0.00    -0.038 C  
HETATM    9  O   UNL     1      -6.562   9.265  63.731  1.00  0.00    -0.089 OA 
HETATM   10  C   UNL     1      -9.712   6.589  67.886  1.00  0.00    -0.126 C  
HETATM   11  C   UNL     1      -8.585   5.678  67.517  1.00  0.00    -0.108 C  
HETATM   12  H   UNL     1      -6.303   8.621  63.082  1.00  0.00     0.000 HD 
HETATM   13  C   UNL     1      -7.553   6.036  66.756  1.00  0.00    -0.095 C  
ENDROOT
BRANCH   2  14
HETATM   14  O   UNL     1      -8.092  10.749  67.593  1.00  0.00    -0.113 OA 
BRANCH  14  15
HETATM   15  C   UNL     1      -8.264  12.092  67.425  1.00  0.00    -0.168 C  
HETATM   16  C   UNL     1     -10.002  13.510  68.493  1.00  0.00    -0.202 C  
HETATM   17  C   UNL     1     -10.218  12.864  66.066  1.00  0.00    -0.293 C  
HETATM   18  O   UNL     1      -7.370  12.910  67.255  1.00  0.00    -0.140 OA 
HETATM   19  C   UNL     1      -9.744  12.421  67.455  1.00  0.00    -0.193 C  
HETATM   20  C   UNL     1     -10.158  11.743  65.038  1.00  0.00    -0.302 C  
ENDBRANCH  14  15
ENDBRANCH   2  14
BRANCH   7  21
HETATM   21  C   UNL     1     -10.623   9.005  67.945  1.00  0.00    -0.256 C  
BRANCH  21  22
HETATM   22  C   UNL     1     -11.026   9.099  69.433  1.00  0.00    -0.108 C  
BRANCH  22  23
HETATM   23  C   UNL     1     -11.900  10.280  69.879  1.00  0.00    -0.193 C  
HETATM   24  O   UNL     1     -12.581  10.861  68.766  1.00  0.00    -0.699 OA 
HETATM   25  H   UNL     1     -13.122  11.592  69.043  1.00  0.00     0.000 HD 
BRANCH  23  26
HETATM   26  C   UNL     1     -12.971   9.737  70.853  1.00  0.00    -0.300 C  
BRANCH  26  27
HETATM   27  C   UNL     1     -12.523   9.644  72.317  1.00  0.00    -0.174 C  
HETATM   28  O   UNL     1     -13.579   9.133  73.143  1.00  0.00    -0.931 OA 
HETATM   29  H   UNL     1     -13.301   9.076  74.050  1.00  0.00     0.000 HD 
BRANCH  27  30
HETATM   30  C   UNL     1     -11.339   8.683  72.456  1.00  0.00    -0.265 C  
HETATM   31  C   UNL     1     -11.758   7.236  72.577  1.00  0.00    -0.204 C  
HETATM   32  O   UNL     1     -12.800   6.887  71.791  1.00  0.00    -0.362 OA 
HETATM   33  O   UNL     1     -11.159   6.424  73.267  1.00  0.00    -0.223 OA 
ENDBRANCH  27  30
ENDBRANCH  26  27
ENDBRANCH  23  26
ENDBRANCH  22  23
ENDBRANCH  21  22
ENDBRANCH   7  21
TORSDOF 8
ENDMDL
MODEL      207
REMARK 921   NORMALIZED FREE ENERGY PREDICTED BY IDOCK:   -4.27 KCAL/MOL
REMARK 922        TOTAL FREE ENERGY PREDICTED BY IDOCK:   -7.72 KCAL/MOL
REMARK 923 INTER-LIGAND FREE ENERGY PREDICTED BY IDOCK:   -6.25 KCAL/MOL
REMARK 924 INTRA-LIGAND FREE ENERGY PREDICTED BY IDOCK:   -1.47 KCAL/MOL
REMARK 927      BINDING AFFINITY PREDICTED BY RF-SCORE:    0.00 PKD
ROOT
HETATM    1  C   UNL     1     -10.608  13.812  67.183  1.00  0.00    -0.277 C  
HETATM    2  C   UNL     1      -9.727  13.705  68.487  1.00  0.00    -0.184 C  
HETATM    3  C   UNL     1     -10.488  15.200  66.541  1.00  0.00    -0.292 C  
HETATM    4  C   UNL     1      -8.981  14.978  68.944  1.00  0.00    -0.202 C  
HETATM    5  C   UNL     1      -9.749  16.257  68.677  1.00  0.00    -0.235 C  
HETATM    6  C   UNL     1     -12.734  12.612  64.789  1.00  0.00    -0.460 C  
HETATM    7  C   UNL     1     -10.501  12.620  66.161  1.00  0.00    -0.278 C  
HETATM    8  C   UNL     1     -10.180  16.304  67.252  1.00  0.00    -0.279 C  
HETATM    9  O   UNL     1     -10.868  16.358  69.541  1.00  0.00    -0.307 OA 
HETATM   10  C   UNL     1     -11.232  12.923  64.807  1.00  0.00    -0.336 C  
HETATM   11  C   UNL     1     -11.049  14.330  64.331  1.00  0.00    -0.235 C  
HETATM   12  H   UNL     1     -11.350  17.160  69.375  1.00  0.00     0.000 HD 
HETATM   13  C   UNL     1     -10.726  15.350  65.123  1.00  0.00    -0.460 C  
ENDROOT
BRANCH   2  14
HETATM   14  O   UNL     1      -8.839  12.563  68.569  1.00  0.00    -0.146 OA 
BRANCH  14  15
HETATM   15  C   UNL     1      -7.619  12.587  67.960  1.00  0.00    -0.127 C  
HETATM   16  C   UNL     1      -6.713  10.890  66.387  1.00  0.00    -0.134 C  
HETATM   17  C   UNL     1      -5.874  10.983  68.762  1.00  0.00    -0.039 C  
HETATM   18  O   UNL     1      -7.029  13.591  67.583  1.00  0.00    -0.147 OA 
HETATM   19  C   UNL     1      -7.084  11.173  67.840  1.00  0.00    -0.081 C  
HETATM   20  C   UNL     1      -6.239  11.066  70.238  1.00  0.00    -0.139 C  
ENDBRANCH  14  15
ENDBRANCH   2  14
BRANCH   7  21
HETATM   21  C   UNL     1     -10.929  11.221  66.725  1.00  0.00    -0.339 C  
BRANCH  21  22
HETATM   22  C   UNL     1     -10.161  10.096  65.996  1.00  0.00    -0.288 C  
BRANCH  22  23
HETATM   23  C   UNL     1      -9.802   8.830  66.784  1.00  0.00    -0.247 C  
HETATM   24  O   UNL     1     -10.977   8.110  67.160  1.00  0.00    -0.466 OA 
HETATM   25  H   UNL     1     -10.754   7.325  67.647  1.00  0.00     0.000 HD 
BRANCH  23  26
HETATM   26  C   UNL     1      -8.968   7.915  65.858  1.00  0.00    -0.166 C  
BRANCH  26  27
HETATM   27  C   UNL     1      -8.042   6.933  66.587  1.00  0.00    -0.110 C  
HETATM   28  O   UNL     1      -8.730   6.289  67.670  1.00  0.00    -0.114 OA 
HETATM   29  H   UNL     1      -8.156   5.682  68.122  1.00  0.00     0.000 HD 
BRANCH  27  30
HETATM   30  C   UNL     1      -7.573   5.828  65.634  1.00  0.00    -0.086 C  
HETATM   31  C   UNL     1      -6.266   5.198  66.052  1.00  0.00    -0.034 C  
HETATM   32  O   UNL     1      -6.130   5.018  67.385  1.00  0.00    -0.028 OA 
HETATM   33  O   UNL     1      -5.428   4.807  65.252  1.00  0.00    -0.013 OA 
ENDBRANCH  27  30
ENDBRANCH  26  27
ENDBRANCH  23  26
ENDBRANCH  22  23
ENDBRANCH  21  22
ENDBRANCH   7  21
TORSDOF 8
ENDMDL
MODEL      208
REMARK 921   NORMALIZED FREE ENERGY PREDICTED BY IDOCK:   -4.26 KCAL/MOL
REMARK 922        TOTAL FREE ENERGY PREDICTED BY IDOCK:   -7.71 KCAL/MOL
REMARK 923 INTER-LIGAND FREE ENERGY PREDICTED BY IDOCK:   -6.35 KCAL/MOL
REMARK 924 INTRA-LIGAND FREE ENERGY PREDICTED BY IDOCK:   -1.36 KCAL/MOL
REMARK 927      BINDING AFFINITY PREDICTED BY RF-SCORE:    0.00 PKD
ROOT
HETATM    1  C   UNL     1     -10.896   7.652  69.789  1.00  0.00    -0.222 C  
HETATM    2  C   UNL     1     -11.298   6.372  70.618  1.00  0.00    -0.357 C  
HETATM    3  C   UNL     1     -10.255   8.719  70.686  1.00  0.00    -0.247 C  
HETATM    4  C   UNL     1     -11.074   6.418  72.146  1.00  0.00    -0.302 C  
HETATM    5  C   UNL     1     -11.307   7.790  72.749  1.00  0.00    -0.389 C  
HETATM    6  C   UNL     1     -10.575   9.501  66.931  1.00  0.00    -0.241 C  
HETATM    7  C   UNL     1     -10.129   7.404  68.438  1.00  0.00    -0.196 C  
HETATM    8  C   UNL     1     -10.520   8.813  72.005  1.00  0.00    -0.414 C  
HETATM    9  O   UNL     1     -12.687   8.113  72.737  1.00  0.00    -0.599 OA 
HETATM   10  C   UNL     1      -9.579   8.731  67.807  1.00  0.00    -0.177 C  
HETATM   11  C   UNL     1      -9.020   9.684  68.814  1.00  0.00    -0.134 C  
HETATM   12  H   UNL     1     -12.833   8.972  73.115  1.00  0.00     0.000 HD 
HETATM   13  C   UNL     1      -9.342   9.678  70.106  1.00  0.00    -0.294 C  
ENDROOT
BRANCH   2  14
HETATM   14  O   UNL     1     -10.839   5.100  70.097  1.00  0.00    -0.173 OA 
BRANCH  14  15
HETATM   15  C   UNL     1      -9.551   4.695  70.288  1.00  0.00    -0.200 C  
HETATM   16  C   UNL     1      -8.430   2.754  69.215  1.00  0.00    -0.099 C  
HETATM   17  C   UNL     1      -9.159   2.615  71.623  1.00  0.00    -0.156 C  
HETATM   18  O   UNL     1      -8.594   5.431  70.492  1.00  0.00    -0.118 OA 
HETATM   19  C   UNL     1      -9.482   3.181  70.236  1.00  0.00    -0.224 C  
HETATM   20  C   UNL     1     -10.276   2.852  72.630  1.00  0.00    -0.234 C  
ENDBRANCH  14  15
ENDBRANCH   2  14
BRANCH   7  21
HETATM   21  C   UNL     1     -10.914   6.563  67.372  1.00  0.00    -0.458 C  
BRANCH  21  22
HETATM   22  C   UNL     1     -10.067   6.401  66.091  1.00  0.00     0.139 C  
BRANCH  22  23
HETATM   23  C   UNL     1      -8.946   5.353  66.086  1.00  0.00    -0.142 C  
HETATM   24  O   UNL     1      -9.421   4.098  65.597  1.00  0.00    -0.152 OA 
HETATM   25  H   UNL     1      -8.727   3.450  65.593  1.00  0.00     0.000 HD 
BRANCH  23  26
HETATM   26  C   UNL     1      -7.841   5.844  65.122  1.00  0.00    -0.107 C  
BRANCH  26  27
HETATM   27  C   UNL     1      -7.555   7.349  65.183  1.00  0.00    -0.104 C  
HETATM   28  O   UNL     1      -6.161   7.596  65.422  1.00  0.00    -0.038 OA 
HETATM   29  H   UNL     1      -5.985   8.529  65.461  1.00  0.00     0.000 HD 
BRANCH  27  30
HETATM   30  C   UNL     1      -7.906   8.017  63.850  1.00  0.00    -0.142 C  
HETATM   31  C   UNL     1      -8.332   9.459  64.001  1.00  0.00    -0.174 C  
HETATM   32  O   UNL     1      -7.632  10.157  64.922  1.00  0.00    -0.137 OA 
HETATM   33  O   UNL     1      -9.185   9.979  63.296  1.00  0.00    -0.262 OA 
ENDBRANCH  27  30
ENDBRANCH  26  27
ENDBRANCH  23  26
ENDBRANCH  22  23
ENDBRANCH  21  22
ENDBRANCH   7  21
TORSDOF 8
ENDMDL
MODEL      209
REMARK 921   NORMALIZED FREE ENERGY PREDICTED BY IDOCK:   -4.24 KCAL/MOL
REMARK 922        TOTAL FREE ENERGY PREDICTED BY IDOCK:   -7.68 KCAL/MOL
REMARK 923 INTER-LIGAND FREE ENERGY PREDICTED BY IDOCK:   -6.25 KCAL/MOL
REMARK 924 INTRA-LIGAND FREE ENERGY PREDICTED BY IDOCK:   -1.43 KCAL/MOL
REMARK 927      BINDING AFFINITY PREDICTED BY RF-SCORE:    0.00 PKD
ROOT
HETATM    1  C   UNL     1      -9.035   8.970  64.788  1.00  0.00    -0.146 C  
HETATM    2  C   UNL     1      -9.330  10.372  65.448  1.00  0.00    -0.204 C  
HETATM    3  C   UNL     1      -8.740   9.111  63.289  1.00  0.00    -0.148 C  
HETATM    4  C   UNL     1      -9.360  11.602  64.514  1.00  0.00     0.036 C  
HETATM    5  C   UNL     1      -9.922  11.303  63.138  1.00  0.00    -0.365 C  
HETATM    6  C   UNL     1      -8.602   5.579  64.812  1.00  0.00    -0.091 C  
HETATM    7  C   UNL     1      -8.035   8.027  65.554  1.00  0.00    -0.117 C  
HETATM    8  C   UNL     1      -9.221  10.129  62.547  1.00  0.00    -0.321 C  
HETATM    9  O   UNL     1     -11.317  11.070  63.209  1.00  0.00    -0.686 OA 
HETATM   10  C   UNL     1      -7.636   6.765  64.712  1.00  0.00    -0.104 C  
HETATM   11  C   UNL     1      -7.417   7.059  63.262  1.00  0.00    -0.092 C  
HETATM   12  H   UNL     1     -11.670  10.883  62.346  1.00  0.00     0.000 HD 
HETATM   13  C   UNL     1      -7.931   8.112  62.628  1.00  0.00    -0.156 C  
ENDROOT
BRANCH   2  14
HETATM   14  O   UNL     1      -8.579  10.688  66.647  1.00  0.00    -0.133 OA 
BRANCH  14  15
HETATM   15  C   UNL     1      -9.222  10.940  67.822  1.00  0.00    -0.153 C  
HETATM   16  C   UNL     1     -11.661  10.745  68.252  1.00  0.00    -0.205 C  
HETATM   17  C   UNL     1     -10.607  13.018  67.980  1.00  0.00    -0.246 C  
HETATM   18  O   UNL     1      -8.772  10.730  68.941  1.00  0.00    -0.153 OA 
HETATM   19  C   UNL     1     -10.580  11.551  67.537  1.00  0.00    -0.243 C  
HETATM   20  C   UNL     1      -9.678  13.899  67.157  1.00  0.00    -0.244 C  
ENDBRANCH  14  15
ENDBRANCH   2  14
BRANCH   7  21
HETATM   21  C   UNL     1      -8.485   7.615  66.998  1.00  0.00    -0.125 C  
BRANCH  21  22
HETATM   22  C   UNL     1     -10.019   7.441  67.049  1.00  0.00    -0.301 C  
BRANCH  22  23
HETATM   23  C   UNL     1     -10.720   7.545  68.411  1.00  0.00    -0.067 C  
HETATM   24  O   UNL     1     -11.630   6.462  68.602  1.00  0.00    -0.528 OA 
HETATM   25  H   UNL     1     -12.063   6.526  69.445  1.00  0.00     0.000 HD 
BRANCH  23  26
HETATM   26  C   UNL     1      -9.638   7.448  69.511  1.00  0.00    -0.155 C  
BRANCH  26  27
HETATM   27  C   UNL     1      -9.560   6.090  70.219  1.00  0.00    -0.163 C  
HETATM   28  O   UNL     1      -8.416   5.346  69.773  1.00  0.00    -0.098 OA 
HETATM   29  H   UNL     1      -8.368   4.504  70.212  1.00  0.00     0.000 HD 
BRANCH  27  30
HETATM   30  C   UNL     1      -9.410   6.280  71.731  1.00  0.00    -0.155 C  
HETATM   31  C   UNL     1     -10.703   6.659  72.414  1.00  0.00    -0.223 C  
HETATM   32  O   UNL     1     -11.796   6.024  71.937  1.00  0.00    -0.285 OA 
HETATM   33  O   UNL     1     -10.754   7.416  73.373  1.00  0.00    -0.379 OA 
ENDBRANCH  27  30
ENDBRANCH  26  27
ENDBRANCH  23  26
ENDBRANCH  22  23
ENDBRANCH  21  22
ENDBRANCH   7  21
TORSDOF 8
ENDMDL
MODEL      210
REMARK 921   NORMALIZED FREE ENERGY PREDICTED BY IDOCK:   -4.22 KCAL/MOL
REMARK 922        TOTAL FREE ENERGY PREDICTED BY IDOCK:   -7.65 KCAL/MOL
REMARK 923 INTER-LIGAND FREE ENERGY PREDICTED BY IDOCK:   -7.15 KCAL/MOL
REMARK 924 INTRA-LIGAND FREE ENERGY PREDICTED BY IDOCK:   -0.50 KCAL/MOL
REMARK 927      BINDING AFFINITY PREDICTED BY RF-SCORE:    0.00 PKD
ROOT
HETATM    1  C   UNL     1     -10.142  11.328  65.332  1.00  0.00    -0.314 C  
HETATM    2  C   UNL     1     -10.593  12.774  65.771  1.00  0.00    -0.273 C  
HETATM    3  C   UNL     1     -10.465  11.069  63.855  1.00  0.00    -0.422 C  
HETATM    4  C   UNL     1     -11.331  13.636  64.723  1.00  0.00    -0.365 C  
HETATM    5  C   UNL     1     -12.230  12.831  63.805  1.00  0.00    -0.489 C  
HETATM    6  C   UNL     1      -8.715   8.260  65.820  1.00  0.00    -0.196 C  
HETATM    7  C   UNL     1      -8.697  10.879  65.762  1.00  0.00    -0.196 C  
HETATM    8  C   UNL     1     -11.467  11.699  63.209  1.00  0.00    -0.266 C  
HETATM    9  O   UNL     1     -13.364  12.354  64.509  1.00  0.00    -0.800 OA 
HETATM   10  C   UNL     1      -8.262   9.530  65.090  1.00  0.00    -0.134 C  
HETATM   11  C   UNL     1      -8.682   9.413  63.659  1.00  0.00    -0.222 C  
HETATM   12  H   UNL     1     -13.928  11.850  63.934  1.00  0.00     0.000 HD 
HETATM   13  C   UNL     1      -9.684  10.101  63.117  1.00  0.00    -0.102 C  
ENDROOT
BRANCH   2  14
HETATM   14  O   UNL     1      -9.595  13.579  66.448  1.00  0.00    -0.270 OA 
BRANCH  14  15
HETATM   15  C   UNL     1      -9.828  14.896  66.712  1.00  0.00    -0.246 C  
HETATM   16  C   UNL     1      -8.788  16.256  68.513  1.00  0.00    -0.219 C  
HETATM   17  C   UNL     1     -11.170  15.467  68.745  1.00  0.00    -0.316 C  
HETATM   18  O   UNL     1     -10.067  15.760  65.878  1.00  0.00    -0.306 OA 
HETATM   19  C   UNL     1      -9.774  15.131  68.209  1.00  0.00    -0.219 C  
HETATM   20  C   UNL     1     -12.139  14.298  68.638  1.00  0.00    -0.295 C  
ENDBRANCH  14  15
ENDBRANCH   2  14
BRANCH   7  21
HETATM   21  C   UNL     1      -8.446  10.838  67.310  1.00  0.00    -0.124 C  
BRANCH  21  22
HETATM   22  C   UNL     1      -6.944  11.029  67.611  1.00  0.00    -0.083 C  
BRANCH  22  23
HETATM   23  C   UNL     1      -6.534  11.486  69.017  1.00  0.00    -0.076 C  
HETATM   24  O   UNL     1      -6.944  12.832  69.258  1.00  0.00    -0.252 OA 
HETATM   25  H   UNL     1      -6.691  13.115  70.129  1.00  0.00     0.000 HD 
BRANCH  23  26
HETATM   26  C   UNL     1      -7.262  10.584  70.041  1.00  0.00    -0.105 C  
BRANCH  26  27
HETATM   27  C   UNL     1      -7.203   9.083  69.733  1.00  0.00    -0.056 C  
HETATM   28  O   UNL     1      -6.487   8.378  70.759  1.00  0.00    -0.036 OA 
HETATM   29  H   UNL     1      -6.450   7.449  70.568  1.00  0.00     0.000 HD 
BRANCH  27  30
HETATM   30  C   UNL     1      -8.614   8.489  69.682  1.00  0.00    -0.131 C  
HETATM   31  C   UNL     1      -9.085   7.961  71.018  1.00  0.00    -0.143 C  
HETATM   32  O   UNL     1      -8.729   8.719  72.078  1.00  0.00    -0.319 OA 
HETATM   33  O   UNL     1      -9.799   6.975  71.130  1.00  0.00    -0.177 OA 
ENDBRANCH  27  30
ENDBRANCH  26  27
ENDBRANCH  23  26
ENDBRANCH  22  23
ENDBRANCH  21  22
ENDBRANCH   7  21
TORSDOF 8
ENDMDL
MODEL      211
REMARK 921   NORMALIZED FREE ENERGY PREDICTED BY IDOCK:   -4.22 KCAL/MOL
REMARK 922        TOTAL FREE ENERGY PREDICTED BY IDOCK:   -7.65 KCAL/MOL
REMARK 923 INTER-LIGAND FREE ENERGY PREDICTED BY IDOCK:   -7.05 KCAL/MOL
REMARK 924 INTRA-LIGAND FREE ENERGY PREDICTED BY IDOCK:   -0.59 KCAL/MOL
REMARK 927      BINDING AFFINITY PREDICTED BY RF-SCORE:    0.00 PKD
ROOT
HETATM    1  C   UNL     1      -8.356   8.347  69.750  1.00  0.00    -0.125 C  
HETATM    2  C   UNL     1      -8.462   8.839  71.245  1.00  0.00    -0.186 C  
HETATM    3  C   UNL     1      -7.177   7.383  69.563  1.00  0.00    -0.082 C  
HETATM    4  C   UNL     1      -7.366   8.366  72.226  1.00  0.00    -0.126 C  
HETATM    5  C   UNL     1      -5.997   8.241  71.587  1.00  0.00    -0.040 C  
HETATM    6  C   UNL     1      -9.357   8.156  66.487  1.00  0.00    -0.262 C  
HETATM    7  C   UNL     1      -9.691   7.868  69.070  1.00  0.00    -0.162 C  
HETATM    8  C   UNL     1      -6.085   7.410  70.354  1.00  0.00    -0.031 C  
HETATM    9  O   UNL     1      -5.465   9.520  71.291  1.00  0.00    -0.051 OA 
HETATM   10  C   UNL     1      -9.447   7.192  67.676  1.00  0.00    -0.141 C  
HETATM   11  C   UNL     1      -8.238   6.310  67.644  1.00  0.00    -0.117 C  
HETATM   12  H   UNL     1      -4.607   9.442  70.891  1.00  0.00     0.000 HD 
HETATM   13  C   UNL     1      -7.216   6.414  68.491  1.00  0.00    -0.085 C  
ENDROOT
BRANCH   2  14
HETATM   14  O   UNL     1      -9.763   8.714  71.871  1.00  0.00    -0.259 OA 
BRANCH  14  15
HETATM   15  C   UNL     1     -10.039   7.664  72.696  1.00  0.00    -0.242 C  
HETATM   16  C   UNL     1      -9.610   5.261  72.233  1.00  0.00    -0.180 C  
HETATM   17  C   UNL     1     -11.956   6.172  72.096  1.00  0.00    -0.314 C  
HETATM   18  O   UNL     1      -9.974   7.680  73.918  1.00  0.00    -0.233 OA 
HETATM   19  C   UNL     1     -10.469   6.469  71.869  1.00  0.00    -0.233 C  
HETATM   20  C   UNL     1     -12.864   7.274  71.566  1.00  0.00    -0.430 C  
ENDBRANCH  14  15
ENDBRANCH   2  14
BRANCH   7  21
HETATM   21  C   UNL     1     -10.815   8.958  68.972  1.00  0.00    -0.071 C  
BRANCH  21  22
HETATM   22  C   UNL     1     -10.189  10.345  68.710  1.00  0.00    -0.201 C  
BRANCH  22  23
HETATM   23  C   UNL     1     -10.885  11.282  67.713  1.00  0.00    -0.235 C  
HETATM   24  O   UNL     1     -12.280  11.391  68.001  1.00  0.00    -0.607 OA 
HETATM   25  H   UNL     1     -12.710  11.972  67.384  1.00  0.00     0.000 HD 
BRANCH  23  26
HETATM   26  C   UNL     1     -10.263  12.689  67.870  1.00  0.00    -0.220 C  
BRANCH  26  27
HETATM   27  C   UNL     1      -9.636  13.262  66.593  1.00  0.00    -0.262 C  
HETATM   28  O   UNL     1      -8.545  12.442  66.147  1.00  0.00    -0.403 OA 
HETATM   29  H   UNL     1      -8.156  12.798  65.357  1.00  0.00     0.000 HD 
BRANCH  27  30
HETATM   30  C   UNL     1     -10.664  13.297  65.459  1.00  0.00    -0.299 C  
HETATM   31  C   UNL     1     -12.063  13.612  65.934  1.00  0.00    -0.439 C  
HETATM   32  O   UNL     1     -12.128  14.546  66.909  1.00  0.00    -0.399 OA 
HETATM   33  O   UNL     1     -13.065  13.126  65.428  1.00  0.00    -0.618 OA 
ENDBRANCH  27  30
ENDBRANCH  26  27
ENDBRANCH  23  26
ENDBRANCH  22  23
ENDBRANCH  21  22
ENDBRANCH   7  21
TORSDOF 8
ENDMDL
MODEL      212
REMARK 921   NORMALIZED FREE ENERGY PREDICTED BY IDOCK:   -4.20 KCAL/MOL
REMARK 922        TOTAL FREE ENERGY PREDICTED BY IDOCK:   -7.62 KCAL/MOL
REMARK 923 INTER-LIGAND FREE ENERGY PREDICTED BY IDOCK:   -6.12 KCAL/MOL
REMARK 924 INTRA-LIGAND FREE ENERGY PREDICTED BY IDOCK:   -1.50 KCAL/MOL
REMARK 927      BINDING AFFINITY PREDICTED BY RF-SCORE:    0.00 PKD
ROOT
HETATM    1  C   UNL     1      -9.738  12.564  66.333  1.00  0.00    -0.253 C  
HETATM    2  C   UNL     1      -9.962  14.059  66.783  1.00  0.00    -0.268 C  
HETATM    3  C   UNL     1     -10.168  12.351  64.876  1.00  0.00    -0.301 C  
HETATM    4  C   UNL     1     -10.626  15.014  65.767  1.00  0.00    -0.351 C  
HETATM    5  C   UNL     1     -11.674  14.340  64.902  1.00  0.00    -0.397 C  
HETATM    6  C   UNL     1      -8.725   9.328  66.772  1.00  0.00    -0.138 C  
HETATM    7  C   UNL     1      -8.348  11.920  66.693  1.00  0.00    -0.117 C  
HETATM    8  C   UNL     1     -11.105  13.114  64.276  1.00  0.00    -0.426 C  
HETATM    9  O   UNL     1     -12.825  14.025  65.665  1.00  0.00    -0.545 OA 
HETATM   10  C   UNL     1      -8.138  10.523  66.011  1.00  0.00    -0.148 C  
HETATM   11  C   UNL     1      -8.643  10.464  64.604  1.00  0.00    -0.192 C  
HETATM   12  H   UNL     1     -13.482  13.604  65.124  1.00  0.00     0.000 HD 
HETATM   13  C   UNL     1      -9.567  11.284  64.107  1.00  0.00    -0.255 C  
ENDROOT
BRANCH   2  14
HETATM   14  O   UNL     1      -8.830  14.719  67.403  1.00  0.00    -0.174 OA 
BRANCH  14  15
HETATM   15  C   UNL     1      -8.899  16.035  67.752  1.00  0.00    -0.176 C  
HETATM   16  C   UNL     1      -7.684  17.920  66.683  1.00  0.00    -0.275 C  
HETATM   17  C   UNL     1      -6.931  17.044  68.923  1.00  0.00    -0.219 C  
HETATM   18  O   UNL     1      -9.893  16.610  68.175  1.00  0.00    -0.239 OA 
HETATM   19  C   UNL     1      -7.541  16.682  67.564  1.00  0.00    -0.177 C  
HETATM   20  C   UNL     1      -6.591  15.819  69.761  1.00  0.00    -0.154 C  
ENDBRANCH  14  15
ENDBRANCH   2  14
BRANCH   7  21
HETATM   21  C   UNL     1      -8.027  11.846  68.226  1.00  0.00    -0.148 C  
BRANCH  21  22
HETATM   22  C   UNL     1      -6.501  11.763  68.447  1.00  0.00    -0.053 C  
BRANCH  22  23
HETATM   23  C   UNL     1      -5.985  11.416  69.850  1.00  0.00    -0.122 C  
HETATM   24  O   UNL     1      -6.092  12.538  70.727  1.00  0.00    -0.514 OA 
HETATM   25  H   UNL     1      -5.773  12.322  71.596  1.00  0.00     0.000 HD 
BRANCH  23  26
HETATM   26  C   UNL     1      -6.879  10.290  70.420  1.00  0.00    -0.109 C  
BRANCH  26  27
HETATM   27  C   UNL     1      -6.364   8.868  70.163  1.00  0.00    -0.042 C  
HETATM   28  O   UNL     1      -5.662   8.363  71.309  1.00  0.00    -0.033 OA 
HETATM   29  H   UNL     1      -5.343   7.483  71.150  1.00  0.00     0.000 HD 
BRANCH  27  30
HETATM   30  C   UNL     1      -7.533   7.913  69.897  1.00  0.00    -0.080 C  
HETATM   31  C   UNL     1      -7.164   6.760  68.993  1.00  0.00    -0.091 C  
HETATM   32  O   UNL     1      -5.933   6.248  69.210  1.00  0.00    -0.019 OA 
HETATM   33  O   UNL     1      -7.941   6.274  68.183  1.00  0.00    -0.106 OA 
ENDBRANCH  27  30
ENDBRANCH  26  27
ENDBRANCH  23  26
ENDBRANCH  22  23
ENDBRANCH  21  22
ENDBRANCH   7  21
TORSDOF 8
ENDMDL
MODEL      213
REMARK 921   NORMALIZED FREE ENERGY PREDICTED BY IDOCK:   -4.19 KCAL/MOL
REMARK 922        TOTAL FREE ENERGY PREDICTED BY IDOCK:   -7.61 KCAL/MOL
REMARK 923 INTER-LIGAND FREE ENERGY PREDICTED BY IDOCK:   -6.00 KCAL/MOL
REMARK 924 INTRA-LIGAND FREE ENERGY PREDICTED BY IDOCK:   -1.61 KCAL/MOL
REMARK 927      BINDING AFFINITY PREDICTED BY RF-SCORE:    0.00 PKD
ROOT
HETATM    1  C   UNL     1      -8.493   6.999  68.723  1.00  0.00    -0.122 C  
HETATM    2  C   UNL     1      -7.626   6.810  70.028  1.00  0.00    -0.100 C  
HETATM    3  C   UNL     1      -8.787   5.652  68.050  1.00  0.00    -0.105 C  
HETATM    4  C   UNL     1      -7.157   5.377  70.365  1.00  0.00    -0.061 C  
HETATM    5  C   UNL     1      -6.837   4.542  69.141  1.00  0.00    -0.050 C  
HETATM    6  C   UNL     1     -10.246   8.819  66.420  1.00  0.00    -0.256 C  
HETATM    7  C   UNL     1      -9.744   7.946  68.840  1.00  0.00    -0.158 C  
HETATM    8  C   UNL     1      -7.980   4.580  68.187  1.00  0.00    -0.080 C  
HETATM    9  O   UNL     1      -5.650   5.002  68.519  1.00  0.00    -0.014 OA 
HETATM   10  C   UNL     1     -10.660   7.890  67.568  1.00  0.00    -0.312 C  
HETATM   11  C   UNL     1     -10.820   6.512  67.008  1.00  0.00    -0.465 C  
HETATM   12  H   UNL     1      -5.449   4.478  67.752  1.00  0.00     0.000 HD 
HETATM   13  C   UNL     1      -9.964   5.515  67.221  1.00  0.00    -0.190 C  
ENDROOT
BRANCH   2  14
HETATM   14  O   UNL     1      -8.122   7.456  71.226  1.00  0.00    -0.099 OA 
BRANCH  14  15
HETATM   15  C   UNL     1      -8.750   6.732  72.196  1.00  0.00    -0.132 C  
HETATM   16  C   UNL     1     -10.309   4.828  71.852  1.00  0.00    -0.242 C  
HETATM   17  C   UNL     1     -11.205   7.087  72.522  1.00  0.00    -0.312 C  
HETATM   18  O   UNL     1      -8.285   6.454  73.294  1.00  0.00    -0.114 OA 
HETATM   19  C   UNL     1     -10.134   6.339  71.720  1.00  0.00    -0.211 C  
HETATM   20  C   UNL     1     -11.190   8.588  72.268  1.00  0.00    -0.432 C  
ENDBRANCH  14  15
ENDBRANCH   2  14
BRANCH   7  21
HETATM   21  C   UNL     1      -9.420   9.430  69.229  1.00  0.00    -0.164 C  
BRANCH  21  22
HETATM   22  C   UNL     1      -8.151   9.909  68.490  1.00  0.00    -0.101 C  
BRANCH  22  23
HETATM   23  C   UNL     1      -7.697  11.362  68.686  1.00  0.00    -0.137 C  
HETATM   24  O   UNL     1      -6.272  11.452  68.725  1.00  0.00    -0.047 OA 
HETATM   25  H   UNL     1      -5.991  12.352  68.846  1.00  0.00     0.000 HD 
BRANCH  23  26
HETATM   26  C   UNL     1      -8.185  12.181  67.469  1.00  0.00    -0.167 C  
BRANCH  26  27
HETATM   27  C   UNL     1      -9.692  12.468  67.449  1.00  0.00    -0.194 C  
HETATM   28  O   UNL     1     -10.080  13.239  68.596  1.00  0.00    -0.317 OA 
HETATM   29  H   UNL     1     -11.013  13.417  68.584  1.00  0.00     0.000 HD 
BRANCH  27  30
HETATM   30  C   UNL     1     -10.066  13.288  66.210  1.00  0.00    -0.294 C  
HETATM   31  C   UNL     1     -11.465  13.009  65.713  1.00  0.00    -0.332 C  
HETATM   32  O   UNL     1     -12.384  12.836  66.689  1.00  0.00    -0.456 OA 
HETATM   33  O   UNL     1     -11.765  13.016  64.527  1.00  0.00    -0.335 OA 
ENDBRANCH  27  30
ENDBRANCH  26  27
ENDBRANCH  23  26
ENDBRANCH  22  23
ENDBRANCH  21  22
ENDBRANCH   7  21
TORSDOF 8
ENDMDL
MODEL      214
REMARK 921   NORMALIZED FREE ENERGY PREDICTED BY IDOCK:   -4.17 KCAL/MOL
REMARK 922        TOTAL FREE ENERGY PREDICTED BY IDOCK:   -7.58 KCAL/MOL
REMARK 923 INTER-LIGAND FREE ENERGY PREDICTED BY IDOCK:   -7.17 KCAL/MOL
REMARK 924 INTRA-LIGAND FREE ENERGY PREDICTED BY IDOCK:   -0.41 KCAL/MOL
REMARK 927      BINDING AFFINITY PREDICTED BY RF-SCORE:    0.00 PKD
ROOT
HETATM    1  C   UNL     1      -9.203   7.180  70.173  1.00  0.00    -0.155 C  
HETATM    2  C   UNL     1      -8.750   7.361  68.672  1.00  0.00    -0.128 C  
HETATM    3  C   UNL     1      -8.130   6.454  70.995  1.00  0.00    -0.121 C  
HETATM    4  C   UNL     1      -7.399   6.735  68.260  1.00  0.00    -0.093 C  
HETATM    5  C   UNL     1      -7.098   5.429  68.968  1.00  0.00    -0.057 C  
HETATM    6  C   UNL     1     -11.335   7.557  72.819  1.00  0.00    -0.388 C  
HETATM    7  C   UNL     1      -9.808   8.447  70.884  1.00  0.00    -0.223 C  
HETATM    8  C   UNL     1      -7.243   5.603  70.440  1.00  0.00    -0.071 C  
HETATM    9  O   UNL     1      -7.950   4.398  68.499  1.00  0.00    -0.077 OA 
HETATM   10  C   UNL     1     -10.015   8.230  72.423  1.00  0.00    -0.379 C  
HETATM   11  C   UNL     1      -8.901   7.473  73.074  1.00  0.00    -0.201 C  
HETATM   12  H   UNL     1      -7.761   3.579  68.942  1.00  0.00     0.000 HD 
HETATM   13  C   UNL     1      -8.066   6.666  72.423  1.00  0.00    -0.100 C  
ENDROOT
BRANCH   2  14
HETATM   14  O   UNL     1      -8.852   8.701  68.128  1.00  0.00    -0.140 OA 
BRANCH  14  15
HETATM   15  C   UNL     1      -9.466   8.918  66.930  1.00  0.00    -0.177 C  
HETATM   16  C   UNL     1      -8.472   8.601  64.675  1.00  0.00    -0.150 C  
HETATM   17  C   UNL     1      -8.774  10.925  65.605  1.00  0.00    -0.190 C  
HETATM   18  O   UNL     1     -10.651   8.729  66.690  1.00  0.00    -0.226 OA 
HETATM   19  C   UNL     1      -8.458   9.461  65.936  1.00  0.00    -0.135 C  
HETATM   20  C   UNL     1      -8.583  11.853  66.797  1.00  0.00    -0.181 C  
ENDBRANCH  14  15
ENDBRANCH   2  14
BRANCH   7  21
HETATM   21  C   UNL     1     -11.108   9.022  70.222  1.00  0.00    -0.263 C  
BRANCH  21  22
HETATM   22  C   UNL     1     -11.664  10.189  71.067  1.00  0.00    -0.470 C  
BRANCH  22  23
HETATM   23  C   UNL     1     -12.483  11.277  70.360  1.00  0.00    -0.271 C  
HETATM   24  O   UNL     1     -12.788  12.350  71.252  1.00  0.00    -0.353 OA 
HETATM   25  H   UNL     1     -13.294  13.023  70.813  1.00  0.00     0.000 HD 
BRANCH  23  26
HETATM   26  C   UNL     1     -11.618  11.852  69.214  1.00  0.00    -0.376 C  
BRANCH  26  27
HETATM   27  C   UNL     1     -11.413  13.372  69.262  1.00  0.00    -0.290 C  
HETATM   28  O   UNL     1     -10.050  13.713  68.971  1.00  0.00    -0.421 OA 
HETATM   29  H   UNL     1      -9.923  14.654  69.001  1.00  0.00     0.000 HD 
BRANCH  27  30
HETATM   30  C   UNL     1     -12.284  14.065  68.210  1.00  0.00    -0.195 C  
HETATM   31  C   UNL     1     -12.020  13.577  66.805  1.00  0.00    -0.404 C  
HETATM   32  O   UNL     1     -11.800  12.248  66.704  1.00  0.00    -0.536 OA 
HETATM   33  O   UNL     1     -12.077  14.306  65.824  1.00  0.00    -0.395 OA 
ENDBRANCH  27  30
ENDBRANCH  26  27
ENDBRANCH  23  26
ENDBRANCH  22  23
ENDBRANCH  21  22
ENDBRANCH   7  21
TORSDOF 8
ENDMDL
MODEL      215
REMARK 921   NORMALIZED FREE ENERGY PREDICTED BY IDOCK:   -4.15 KCAL/MOL
REMARK 922        TOTAL FREE ENERGY PREDICTED BY IDOCK:   -7.55 KCAL/MOL
REMARK 923 INTER-LIGAND FREE ENERGY PREDICTED BY IDOCK:   -6.61 KCAL/MOL
REMARK 924 INTRA-LIGAND FREE ENERGY PREDICTED BY IDOCK:   -0.94 KCAL/MOL
REMARK 927      BINDING AFFINITY PREDICTED BY RF-SCORE:    0.00 PKD
ROOT
HETATM    1  C   UNL     1      -9.954  13.671  67.700  1.00  0.00    -0.239 C  
HETATM    2  C   UNL     1      -9.458  15.027  68.336  1.00  0.00    -0.201 C  
HETATM    3  C   UNL     1     -11.407  13.780  67.220  1.00  0.00    -0.343 C  
HETATM    4  C   UNL     1     -10.486  16.174  68.451  1.00  0.00    -0.274 C  
HETATM    5  C   UNL     1     -11.895  15.695  68.743  1.00  0.00    -0.321 C  
HETATM    6  C   UNL     1      -9.591  10.432  66.668  1.00  0.00    -0.219 C  
HETATM    7  C   UNL     1      -8.987  12.982  66.668  1.00  0.00    -0.132 C  
HETATM    8  C   UNL     1     -12.288  14.645  67.763  1.00  0.00     0.100 C  
HETATM    9  O   UNL     1     -11.991  15.204  70.069  1.00  0.00    -0.295 OA 
HETATM   10  C   UNL     1      -9.660  11.773  65.928  1.00  0.00    -0.249 C  
HETATM   11  C   UNL     1     -11.088  12.021  65.558  1.00  0.00    -0.361 C  
HETATM   12  H   UNL     1     -12.873  14.904  70.253  1.00  0.00     0.000 HD 
HETATM   13  C   UNL     1     -11.870  12.918  66.155  1.00  0.00    -0.487 C  
ENDROOT
BRANCH   2  14
HETATM   14  O   UNL     1      -8.201  15.547  67.837  1.00  0.00    -0.138 OA 
BRANCH  14  15
HETATM   15  C   UNL     1      -8.179  16.443  66.810  1.00  0.00    -0.251 C  
HETATM   16  C   UNL     1      -6.172  17.536  65.836  1.00  0.00    -0.126 C  
HETATM   17  C   UNL     1      -7.707  18.840  67.351  1.00  0.00    -0.240 C  
HETATM   18  O   UNL     1      -8.933  16.441  65.845  1.00  0.00    -0.433 OA 
HETATM   19  C   UNL     1      -7.090  17.469  67.054  1.00  0.00    -0.210 C  
HETATM   20  C   UNL     1      -8.475  18.867  68.665  1.00  0.00    -0.381 C  
ENDBRANCH  14  15
ENDBRANCH   2  14
BRANCH   7  21
HETATM   21  C   UNL     1      -7.585  12.574  67.241  1.00  0.00    -0.131 C  
BRANCH  21  22
HETATM   22  C   UNL     1      -7.668  12.395  68.773  1.00  0.00    -0.007 C  
BRANCH  22  23
HETATM   23  C   UNL     1      -6.975  11.180  69.403  1.00  0.00    -0.124 C  
HETATM   24  O   UNL     1      -6.365  11.526  70.647  1.00  0.00    -0.509 OA 
HETATM   25  H   UNL     1      -5.937  10.774  71.038  1.00  0.00     0.000 HD 
BRANCH  23  26
HETATM   26  C   UNL     1      -8.056  10.113  69.692  1.00  0.00    -0.178 C  
BRANCH  26  27
HETATM   27  C   UNL     1      -7.567   8.901  70.495  1.00  0.00    -0.093 C  
HETATM   28  O   UNL     1      -7.792   9.094  71.900  1.00  0.00    -0.335 OA 
HETATM   29  H   UNL     1      -7.488   8.344  72.397  1.00  0.00     0.000 HD 
BRANCH  27  30
HETATM   30  C   UNL     1      -8.336   7.641  70.087  1.00  0.00    -0.130 C  
HETATM   31  C   UNL     1      -8.126   7.259  68.640  1.00  0.00    -0.125 C  
HETATM   32  O   UNL     1      -6.864   7.434  68.191  1.00  0.00    -0.059 OA 
HETATM   33  O   UNL     1      -9.002   6.758  67.949  1.00  0.00    -0.116 OA 
ENDBRANCH  27  30
ENDBRANCH  26  27
ENDBRANCH  23  26
ENDBRANCH  22  23
ENDBRANCH  21  22
ENDBRANCH   7  21
TORSDOF 8
ENDMDL
MODEL      216
REMARK 921   NORMALIZED FREE ENERGY PREDICTED BY IDOCK:   -4.14 KCAL/MOL
REMARK 922        TOTAL FREE ENERGY PREDICTED BY IDOCK:   -7.54 KCAL/MOL
REMARK 923 INTER-LIGAND FREE ENERGY PREDICTED BY IDOCK:   -5.35 KCAL/MOL
REMARK 924 INTRA-LIGAND FREE ENERGY PREDICTED BY IDOCK:   -2.18 KCAL/MOL
REMARK 927      BINDING AFFINITY PREDICTED BY RF-SCORE:    0.00 PKD
ROOT
HETATM    1  C   UNL     1      -9.797   7.422  71.685  1.00  0.00    -0.181 C  
HETATM    2  C   UNL     1     -10.292   7.249  70.197  1.00  0.00    -0.212 C  
HETATM    3  C   UNL     1     -10.748   6.733  72.672  1.00  0.00    -0.271 C  
HETATM    4  C   UNL     1     -11.637   6.521  69.978  1.00  0.00    -0.455 C  
HETATM    5  C   UNL     1     -12.656   6.795  71.066  1.00  0.00    -0.201 C  
HETATM    6  C   UNL     1      -7.640   8.486  74.115  1.00  0.00    -0.161 C  
HETATM    7  C   UNL     1      -8.273   7.140  71.958  1.00  0.00    -0.102 C  
HETATM    8  C   UNL     1     -12.054   6.535  72.404  1.00  0.00    -0.151 C  
HETATM    9  O   UNL     1     -13.131   8.128  70.981  1.00  0.00    -0.519 OA 
HETATM   10  C   UNL     1      -7.931   7.117  73.488  1.00  0.00    -0.127 C  
HETATM   11  C   UNL     1      -8.973   6.442  74.323  1.00  0.00    -0.171 C  
HETATM   12  H   UNL     1     -13.770   8.300  71.663  1.00  0.00     0.000 HD 
HETATM   13  C   UNL     1     -10.241   6.286  73.951  1.00  0.00    -0.307 C  
ENDROOT
BRANCH   2  14
HETATM   14  O   UNL     1      -9.312   6.758  69.248  1.00  0.00    -0.144 OA 
BRANCH  14  15
HETATM   15  C   UNL     1      -9.327   5.456  68.846  1.00  0.00    -0.127 C  
HETATM   16  C   UNL     1      -9.484   3.453  70.307  1.00  0.00    -0.247 C  
HETATM   17  C   UNL     1      -7.279   4.077  69.258  1.00  0.00    -0.050 C  
HETATM   18  O   UNL     1      -9.835   5.032  67.816  1.00  0.00    -0.146 OA 
HETATM   19  C   UNL     1      -8.588   4.604  69.859  1.00  0.00    -0.096 C  
HETATM   20  C   UNL     1      -6.274   5.185  68.974  1.00  0.00    -0.030 C  
ENDBRANCH  14  15
ENDBRANCH   2  14
BRANCH   7  21
HETATM   21  C   UNL     1      -7.276   8.065  71.177  1.00  0.00    -0.056 C  
BRANCH  21  22
HETATM   22  C   UNL     1      -7.977   9.380  70.771  1.00  0.00    -0.154 C  
BRANCH  22  23
HETATM   23  C   UNL     1      -7.450  10.139  69.546  1.00  0.00    -0.133 C  
HETATM   24  O   UNL     1      -6.166  10.705  69.808  1.00  0.00    -0.060 OA 
HETATM   25  H   UNL     1      -5.840  11.175  69.049  1.00  0.00     0.000 HD 
BRANCH  23  26
HETATM   26  C   UNL     1      -7.289   9.124  68.391  1.00  0.00    -0.078 C  
BRANCH  26  27
HETATM   27  C   UNL     1      -8.242   9.337  67.209  1.00  0.00    -0.121 C  
HETATM   28  O   UNL     1      -9.026   8.159  66.965  1.00  0.00    -0.134 OA 
HETATM   29  H   UNL     1      -9.616   8.291  66.232  1.00  0.00     0.000 HD 
BRANCH  27  30
HETATM   30  C   UNL     1      -9.224  10.474  67.508  1.00  0.00    -0.152 C  
HETATM   31  C   UNL     1      -9.828  11.081  66.263  1.00  0.00    -0.215 C  
HETATM   32  O   UNL     1     -10.131  10.189  65.294  1.00  0.00    -0.319 OA 
HETATM   33  O   UNL     1     -10.098  12.270  66.164  1.00  0.00    -0.234 OA 
ENDBRANCH  27  30
ENDBRANCH  26  27
ENDBRANCH  23  26
ENDBRANCH  22  23
ENDBRANCH  21  22
ENDBRANCH   7  21
TORSDOF 8
ENDMDL
MODEL      217
REMARK 921   NORMALIZED FREE ENERGY PREDICTED BY IDOCK:   -4.13 KCAL/MOL
REMARK 922        TOTAL FREE ENERGY PREDICTED BY IDOCK:   -7.52 KCAL/MOL
REMARK 923 INTER-LIGAND FREE ENERGY PREDICTED BY IDOCK:   -6.91 KCAL/MOL
REMARK 924 INTRA-LIGAND FREE ENERGY PREDICTED BY IDOCK:   -0.60 KCAL/MOL
REMARK 927      BINDING AFFINITY PREDICTED BY RF-SCORE:    0.00 PKD
ROOT
HETATM    1  C   UNL     1      -7.809  10.130  68.849  1.00  0.00    -0.100 C  
HETATM    2  C   UNL     1      -8.412   8.685  69.043  1.00  0.00    -0.124 C  
HETATM    3  C   UNL     1      -6.632  10.375  69.802  1.00  0.00    -0.103 C  
HETATM    4  C   UNL     1      -7.810   7.811  70.166  1.00  0.00    -0.095 C  
HETATM    5  C   UNL     1      -7.388   8.603  71.388  1.00  0.00    -0.102 C  
HETATM    6  C   UNL     1      -7.589  13.209  67.381  1.00  0.00    -0.137 C  
HETATM    7  C   UNL     1      -7.543  10.589  67.368  1.00  0.00    -0.094 C  
HETATM    8  C   UNL     1      -6.507   9.734  70.982  1.00  0.00    -0.017 C  
HETATM    9  O   UNL     1      -8.523   9.080  72.090  1.00  0.00    -0.365 OA 
HETATM   10  C   UNL     1      -6.741  11.935  67.292  1.00  0.00    -0.138 C  
HETATM   11  C   UNL     1      -5.649  12.038  68.309  1.00  0.00    -0.051 C  
HETATM   12  H   UNL     1      -8.259   9.577  72.856  1.00  0.00     0.000 HD 
HETATM   13  C   UNL     1      -5.617  11.340  69.443  1.00  0.00    -0.046 C  
ENDROOT
BRANCH   2  14
HETATM   14  O   UNL     1      -8.574   7.891  67.842  1.00  0.00    -0.125 OA 
BRANCH  14  15
HETATM   15  C   UNL     1      -9.752   7.255  67.584  1.00  0.00    -0.142 C  
HETATM   16  C   UNL     1     -11.062   5.856  69.166  1.00  0.00    -0.328 C  
HETATM   17  C   UNL     1      -9.713   4.765  67.338  1.00  0.00    -0.209 C  
HETATM   18  O   UNL     1     -10.640   7.667  66.850  1.00  0.00    -0.341 OA 
HETATM   19  C   UNL     1      -9.788   5.934  68.327  1.00  0.00    -0.162 C  
HETATM   20  C   UNL     1      -8.374   4.691  66.615  1.00  0.00    -0.106 C  
ENDBRANCH  14  15
ENDBRANCH   2  14
BRANCH   7  21
HETATM   21  C   UNL     1      -8.814  10.644  66.451  1.00  0.00    -0.164 C  
BRANCH  21  22
HETATM   22  C   UNL     1     -10.036  11.127  67.264  1.00  0.00    -0.211 C  
BRANCH  22  23
HETATM   23  C   UNL     1     -11.264  11.639  66.499  1.00  0.00    -0.294 C  
HETATM   24  O   UNL     1     -12.121  12.395  67.355  1.00  0.00    -0.505 OA 
HETATM   25  H   UNL     1     -12.881  12.712  66.881  1.00  0.00     0.000 HD 
BRANCH  23  26
HETATM   26  C   UNL     1     -10.767  12.584  65.381  1.00  0.00    -0.312 C  
BRANCH  26  27
HETATM   27  C   UNL     1     -11.682  13.782  65.096  1.00  0.00    -0.343 C  
HETATM   28  O   UNL     1     -13.050  13.364  64.979  1.00  0.00    -0.734 OA 
HETATM   29  H   UNL     1     -13.616  14.106  64.802  1.00  0.00     0.000 HD 
BRANCH  27  30
HETATM   30  C   UNL     1     -11.618  14.791  66.247  1.00  0.00    -0.298 C  
HETATM   31  C   UNL     1     -10.757  15.993  65.937  1.00  0.00    -0.280 C  
HETATM   32  O   UNL     1     -10.864  16.448  64.669  1.00  0.00    -0.717 OA 
HETATM   33  O   UNL     1     -10.078  16.562  66.779  1.00  0.00    -0.270 OA 
ENDBRANCH  27  30
ENDBRANCH  26  27
ENDBRANCH  23  26
ENDBRANCH  22  23
ENDBRANCH  21  22
ENDBRANCH   7  21
TORSDOF 8
ENDMDL
MODEL      218
REMARK 921   NORMALIZED FREE ENERGY PREDICTED BY IDOCK:   -4.11 KCAL/MOL
REMARK 922        TOTAL FREE ENERGY PREDICTED BY IDOCK:   -7.48 KCAL/MOL
REMARK 923 INTER-LIGAND FREE ENERGY PREDICTED BY IDOCK:   -6.13 KCAL/MOL
REMARK 924 INTRA-LIGAND FREE ENERGY PREDICTED BY IDOCK:   -1.35 KCAL/MOL
REMARK 927      BINDING AFFINITY PREDICTED BY RF-SCORE:    0.00 PKD
ROOT
HETATM    1  C   UNL     1      -8.912  10.040  65.022  1.00  0.00    -0.234 C  
HETATM    2  C   UNL     1      -8.472   8.600  65.495  1.00  0.00    -0.165 C  
HETATM    3  C   UNL     1      -8.366  10.358  63.624  1.00  0.00    -0.153 C  
HETATM    4  C   UNL     1      -7.534   7.804  64.561  1.00  0.00    -0.097 C  
HETATM    5  C   UNL     1      -6.536   8.674  63.822  1.00  0.00    -0.080 C  
HETATM    6  C   UNL     1     -10.541  13.028  65.342  1.00  0.00    -0.307 C  
HETATM    7  C   UNL     1     -10.428  10.413  65.220  1.00  0.00    -0.178 C  
HETATM    8  C   UNL     1      -7.245   9.790  63.136  1.00  0.00    -0.119 C  
HETATM    9  O   UNL     1      -5.555   9.176  64.713  1.00  0.00    -0.059 OA 
HETATM   10  C   UNL     1     -10.810  11.763  64.519  1.00  0.00    -0.377 C  
HETATM   11  C   UNL     1     -10.169  11.942  63.179  1.00  0.00    -0.334 C  
HETATM   12  H   UNL     1      -4.929   9.721  64.250  1.00  0.00     0.000 HD 
HETATM   13  C   UNL     1      -9.061  11.314  62.792  1.00  0.00    -0.327 C  
ENDROOT
BRANCH   2  14
HETATM   14  O   UNL     1      -9.527   7.734  65.980  1.00  0.00    -0.114 OA 
BRANCH  14  15
HETATM   15  C   UNL     1      -9.581   7.374  67.294  1.00  0.00    -0.150 C  
HETATM   16  C   UNL     1      -8.076   8.157  69.110  1.00  0.00    -0.121 C  
HETATM   17  C   UNL     1      -7.809   5.836  68.165  1.00  0.00    -0.104 C  
HETATM   18  O   UNL     1     -10.600   7.131  67.927  1.00  0.00    -0.202 OA 
HETATM   19  C   UNL     1      -8.175   7.293  67.856  1.00  0.00    -0.119 C  
HETATM   20  C   UNL     1      -7.706   4.977  66.912  1.00  0.00    -0.092 C  
ENDBRANCH  14  15
ENDBRANCH   2  14
BRANCH   7  21
HETATM   21  C   UNL     1     -10.927  10.396  66.707  1.00  0.00    -0.116 C  
BRANCH  21  22
HETATM   22  C   UNL     1      -9.806  10.881  67.651  1.00  0.00    -0.192 C  
BRANCH  22  23
HETATM   23  C   UNL     1     -10.188  11.325  69.069  1.00  0.00    -0.150 C  
HETATM   24  O   UNL     1     -10.433  12.731  69.117  1.00  0.00    -0.430 OA 
HETATM   25  H   UNL     1     -10.670  13.006  69.995  1.00  0.00     0.000 HD 
BRANCH  23  26
HETATM   26  C   UNL     1     -11.502  10.607  69.454  1.00  0.00    -0.356 C  
BRANCH  26  27
HETATM   27  C   UNL     1     -11.324   9.369  70.342  1.00  0.00    -0.248 C  
HETATM   28  O   UNL     1     -10.537   9.680  71.502  1.00  0.00    -0.266 OA 
HETATM   29  H   UNL     1     -10.427   8.913  72.051  1.00  0.00     0.000 HD 
BRANCH  27  30
HETATM   30  C   UNL     1     -12.682   8.867  70.842  1.00  0.00     0.015 C  
HETATM   31  C   UNL     1     -13.147   9.564  72.099  1.00  0.00    -0.436 C  
HETATM   32  O   UNL     1     -12.881  10.888  72.138  1.00  0.00    -0.341 OA 
HETATM   33  O   UNL     1     -13.783   9.000  72.978  1.00  0.00    -0.275 OA 
ENDBRANCH  27  30
ENDBRANCH  26  27
ENDBRANCH  23  26
ENDBRANCH  22  23
ENDBRANCH  21  22
ENDBRANCH   7  21
TORSDOF 8
ENDMDL
MODEL      219
REMARK 921   NORMALIZED FREE ENERGY PREDICTED BY IDOCK:   -4.10 KCAL/MOL
REMARK 922        TOTAL FREE ENERGY PREDICTED BY IDOCK:   -7.47 KCAL/MOL
REMARK 923 INTER-LIGAND FREE ENERGY PREDICTED BY IDOCK:   -6.98 KCAL/MOL
REMARK 924 INTRA-LIGAND FREE ENERGY PREDICTED BY IDOCK:   -0.49 KCAL/MOL
REMARK 927      BINDING AFFINITY PREDICTED BY RF-SCORE:    0.00 PKD
ROOT
HETATM    1  C   UNL     1      -9.861   5.097  69.179  1.00  0.00    -0.257 C  
HETATM    2  C   UNL     1      -9.903   4.498  70.638  1.00  0.00    -0.222 C  
HETATM    3  C   UNL     1      -9.510   4.019  68.145  1.00  0.00    -0.215 C  
HETATM    4  C   UNL     1      -9.521   3.011  70.805  1.00  0.00    -0.228 C  
HETATM    5  C   UNL     1      -8.430   2.557  69.855  1.00  0.00    -0.047 C  
HETATM    6  C   UNL     1     -10.176   7.583  66.854  1.00  0.00    -0.359 C  
HETATM    7  C   UNL     1     -11.064   6.020  68.761  1.00  0.00    -0.329 C  
HETATM    8  C   UNL     1      -8.791   2.921  68.456  1.00  0.00    -0.165 C  
HETATM    9  O   UNL     1      -7.184   3.128  70.215  1.00  0.00    -0.040 OA 
HETATM   10  C   UNL     1     -11.044   6.377  67.234  1.00  0.00    -0.416 C  
HETATM   11  C   UNL     1     -10.648   5.232  66.358  1.00  0.00    -0.338 C  
HETATM   12  H   UNL     1      -6.501   2.843  69.619  1.00  0.00     0.000 HD 
HETATM   13  C   UNL     1      -9.945   4.181  66.776  1.00  0.00    -0.140 C  
ENDROOT
BRANCH   2  14
HETATM   14  O   UNL     1     -11.092   4.786  71.415  1.00  0.00     0.222 OA 
BRANCH  14  15
HETATM   15  C   UNL     1     -10.991   5.233  72.699  1.00  0.00    -0.260 C  
HETATM   16  C   UNL     1     -10.802   7.599  73.436  1.00  0.00    -0.274 C  
HETATM   17  C   UNL     1      -8.775   6.102  73.469  1.00  0.00    -0.125 C  
HETATM   18  O   UNL     1     -11.531   4.729  73.675  1.00  0.00    -0.273 OA 
HETATM   19  C   UNL     1     -10.081   6.445  72.743  1.00  0.00    -0.195 C  
HETATM   20  C   UNL     1      -7.928   5.091  72.708  1.00  0.00    -0.101 C  
ENDBRANCH  14  15
ENDBRANCH   2  14
BRANCH   7  21
HETATM   21  C   UNL     1     -11.244   7.311  69.634  1.00  0.00    -0.109 C  
BRANCH  21  22
HETATM   22  C   UNL     1      -9.940   8.138  69.638  1.00  0.00    -0.193 C  
BRANCH  22  23
HETATM   23  C   UNL     1      -9.974   9.550  70.236  1.00  0.00    -0.259 C  
HETATM   24  O   UNL     1      -8.894   9.745  71.151  1.00  0.00    -0.299 OA 
HETATM   25  H   UNL     1      -8.915  10.619  71.521  1.00  0.00     0.000 HD 
BRANCH  23  26
HETATM   26  C   UNL     1      -9.795  10.561  69.080  1.00  0.00    -0.224 C  
BRANCH  26  27
HETATM   27  C   UNL     1     -11.004  11.470  68.827  1.00  0.00    -0.222 C  
HETATM   28  O   UNL     1     -11.996  10.795  68.039  1.00  0.00    -0.780 OA 
HETATM   29  H   UNL     1     -12.745  11.358  67.882  1.00  0.00     0.000 HD 
BRANCH  27  30
HETATM   30  C   UNL     1     -11.670  11.859  70.150  1.00  0.00    -0.337 C  
HETATM   31  C   UNL     1     -11.998  13.331  70.241  1.00  0.00    -0.300 C  
HETATM   32  O   UNL     1     -12.453  13.877  69.092  1.00  0.00    -0.231 OA 
HETATM   33  O   UNL     1     -11.937  13.964  71.285  1.00  0.00    -0.266 OA 
ENDBRANCH  27  30
ENDBRANCH  26  27
ENDBRANCH  23  26
ENDBRANCH  22  23
ENDBRANCH  21  22
ENDBRANCH   7  21
TORSDOF 8
ENDMDL
MODEL      220
REMARK 921   NORMALIZED FREE ENERGY PREDICTED BY IDOCK:   -4.09 KCAL/MOL
REMARK 922        TOTAL FREE ENERGY PREDICTED BY IDOCK:   -7.46 KCAL/MOL
REMARK 923 INTER-LIGAND FREE ENERGY PREDICTED BY IDOCK:   -6.92 KCAL/MOL
REMARK 924 INTRA-LIGAND FREE ENERGY PREDICTED BY IDOCK:   -0.54 KCAL/MOL
REMARK 927      BINDING AFFINITY PREDICTED BY RF-SCORE:    0.00 PKD
ROOT
HETATM    1  C   UNL     1      -9.357   7.370  70.065  1.00  0.00    -0.151 C  
HETATM    2  C   UNL     1      -9.397   7.410  68.488  1.00  0.00    -0.141 C  
HETATM    3  C   UNL     1      -7.961   6.990  70.576  1.00  0.00    -0.113 C  
HETATM    4  C   UNL     1      -8.113   6.998  67.735  1.00  0.00    -0.114 C  
HETATM    5  C   UNL     1      -7.337   5.893  68.424  1.00  0.00    -0.084 C  
HETATM    6  C   UNL     1     -10.685   7.720  73.195  1.00  0.00    -0.414 C  
HETATM    7  C   UNL     1     -10.007   8.588  70.817  1.00  0.00    -0.230 C  
HETATM    8  C   UNL     1      -7.097   6.252  69.850  1.00  0.00    -0.072 C  
HETATM    9  O   UNL     1      -8.031   4.661  68.328  1.00  0.00    -0.083 OA 
HETATM   10  C   UNL     1      -9.718   8.566  72.359  1.00  0.00    -0.357 C  
HETATM   11  C   UNL     1      -8.324   8.140  72.698  1.00  0.00    -0.236 C  
HETATM   12  H   UNL     1      -7.545   3.968  68.759  1.00  0.00     0.000 HD 
HETATM   13  C   UNL     1      -7.547   7.420  71.893  1.00  0.00    -0.084 C  
ENDROOT
BRANCH   2  14
HETATM   14  O   UNL     1      -9.949   8.610  67.891  1.00  0.00    -0.170 OA 
BRANCH  14  15
HETATM   15  C   UNL     1      -9.584   8.990  66.634  1.00  0.00    -0.213 C  
HETATM   16  C   UNL     1      -7.596  10.344  66.011  1.00  0.00    -0.137 C  
HETATM   17  C   UNL     1      -9.888  11.392  65.999  1.00  0.00    -0.256 C  
HETATM   18  O   UNL     1      -9.745   8.333  65.613  1.00  0.00     0.072 OA 
HETATM   19  C   UNL     1      -8.967  10.374  66.682  1.00  0.00    -0.155 C  
HETATM   20  C   UNL     1     -11.197  11.597  66.750  1.00  0.00    -0.371 C  
ENDBRANCH  14  15
ENDBRANCH   2  14
BRANCH   7  21
HETATM   21  C   UNL     1     -11.536   8.801  70.540  1.00  0.00    -0.170 C  
BRANCH  21  22
HETATM   22  C   UNL     1     -12.127   9.802  71.557  1.00  0.00    -0.493 C  
BRANCH  22  23
HETATM   23  C   UNL     1     -13.036  10.922  71.034  1.00  0.00    -0.206 C  
HETATM   24  O   UNL     1     -13.364  11.844  72.075  1.00  0.00    -0.487 OA 
HETATM   25  H   UNL     1     -13.926  12.537  71.751  1.00  0.00     0.000 HD 
BRANCH  23  26
HETATM   26  C   UNL     1     -12.257  11.699  69.948  1.00  0.00    -0.310 C  
BRANCH  26  27
HETATM   27  C   UNL     1     -11.821  13.112  70.355  1.00  0.00    -0.180 C  
HETATM   28  O   UNL     1     -10.626  13.499  69.660  1.00  0.00    -0.417 OA 
HETATM   29  H   UNL     1     -10.356  14.374  69.912  1.00  0.00     0.000 HD 
BRANCH  27  30
HETATM   30  C   UNL     1     -12.903  14.133  69.991  1.00  0.00    -0.020 C  
HETATM   31  C   UNL     1     -13.194  15.113  71.104  1.00  0.00    -0.469 C  
HETATM   32  O   UNL     1     -12.104  15.525  71.789  1.00  0.00    -0.325 OA 
HETATM   33  O   UNL     1     -14.310  15.562  71.322  1.00  0.00    -0.536 OA 
ENDBRANCH  27  30
ENDBRANCH  26  27
ENDBRANCH  23  26
ENDBRANCH  22  23
ENDBRANCH  21  22
ENDBRANCH   7  21
TORSDOF 8
ENDMDL
MODEL      221
REMARK 921   NORMALIZED FREE ENERGY PREDICTED BY IDOCK:   -4.09 KCAL/MOL
REMARK 922        TOTAL FREE ENERGY PREDICTED BY IDOCK:   -7.46 KCAL/MOL
REMARK 923 INTER-LIGAND FREE ENERGY PREDICTED BY IDOCK:   -6.47 KCAL/MOL
REMARK 924 INTRA-LIGAND FREE ENERGY PREDICTED BY IDOCK:   -0.98 KCAL/MOL
REMARK 927      BINDING AFFINITY PREDICTED BY RF-SCORE:    0.00 PKD
ROOT
HETATM    1  C   UNL     1      -7.756  14.904  67.551  1.00  0.00    -0.214 C  
HETATM    2  C   UNL     1      -9.029  15.081  66.636  1.00  0.00    -0.281 C  
HETATM    3  C   UNL     1      -7.470  16.175  68.359  1.00  0.00    -0.153 C  
HETATM    4  C   UNL     1      -9.710  16.468  66.630  1.00  0.00    -0.275 C  
HETATM    5  C   UNL     1      -8.734  17.620  66.765  1.00  0.00    -0.258 C  
HETATM    6  C   UNL     1      -5.130  13.164  68.880  1.00  0.00    -0.065 C  
HETATM    7  C   UNL     1      -7.671  13.576  68.391  1.00  0.00    -0.135 C  
HETATM    8  C   UNL     1      -7.848  17.401  67.943  1.00  0.00    -0.201 C  
HETATM    9  O   UNL     1      -7.966  17.766  65.583  1.00  0.00    -0.532 OA 
HETATM   10  C   UNL     1      -6.496  13.596  69.429  1.00  0.00    -0.106 C  
HETATM   11  C   UNL     1      -6.321  14.917  70.108  1.00  0.00    -0.162 C  
HETATM   12  H   UNL     1      -7.355  18.488  65.667  1.00  0.00     0.000 HD 
HETATM   13  C   UNL     1      -6.752  16.074  69.611  1.00  0.00    -0.171 C  
ENDROOT
BRANCH   2  14
HETATM   14  O   UNL     1     -10.037  14.044  66.732  1.00  0.00    -0.254 OA 
BRANCH  14  15
HETATM   15  C   UNL     1     -11.260  14.312  67.270  1.00  0.00    -0.318 C  
HETATM   16  C   UNL     1     -11.733  15.758  69.235  1.00  0.00    -0.384 C  
HETATM   17  C   UNL     1     -11.837  13.250  69.461  1.00  0.00    -0.388 C  
HETATM   18  O   UNL     1     -12.307  14.422  66.645  1.00  0.00    -0.409 OA 
HETATM   19  C   UNL     1     -11.137  14.429  68.777  1.00  0.00    -0.275 C  
HETATM   20  C   UNL     1     -11.153  11.918  69.185  1.00  0.00    -0.285 C  
ENDBRANCH  14  15
ENDBRANCH   2  14
BRANCH   7  21
HETATM   21  C   UNL     1      -7.647  12.255  67.545  1.00  0.00    -0.155 C  
BRANCH  21  22
HETATM   22  C   UNL     1      -7.591  11.026  68.479  1.00  0.00    -0.114 C  
BRANCH  22  23
HETATM   23  C   UNL     1      -8.192   9.705  67.982  1.00  0.00    -0.110 C  
HETATM   24  O   UNL     1      -9.510   9.515  68.500  1.00  0.00    -0.140 OA 
HETATM   25  H   UNL     1      -9.882   8.697  68.191  1.00  0.00     0.000 HD 
BRANCH  23  26
HETATM   26  C   UNL     1      -8.300   9.781  66.442  1.00  0.00    -0.120 C  
BRANCH  26  27
HETATM   27  C   UNL     1      -9.326   8.826  65.820  1.00  0.00    -0.191 C  
HETATM   28  O   UNL     1      -9.461   9.067  64.411  1.00  0.00    -0.319 OA 
HETATM   29  H   UNL     1     -10.096   8.475  64.026  1.00  0.00     0.000 HD 
BRANCH  27  30
HETATM   30  C   UNL     1      -8.875   7.371  65.985  1.00  0.00    -0.173 C  
HETATM   31  C   UNL     1      -7.876   6.936  64.938  1.00  0.00    -0.122 C  
HETATM   32  O   UNL     1      -6.962   7.875  64.610  1.00  0.00    -0.064 OA 
HETATM   33  O   UNL     1      -7.843   5.803  64.479  1.00  0.00    -0.099 OA 
ENDBRANCH  27  30
ENDBRANCH  26  27
ENDBRANCH  23  26
ENDBRANCH  22  23
ENDBRANCH  21  22
ENDBRANCH   7  21
TORSDOF 8
ENDMDL
MODEL      222
REMARK 921   NORMALIZED FREE ENERGY PREDICTED BY IDOCK:   -4.06 KCAL/MOL
REMARK 922        TOTAL FREE ENERGY PREDICTED BY IDOCK:   -7.42 KCAL/MOL
REMARK 923 INTER-LIGAND FREE ENERGY PREDICTED BY IDOCK:   -6.52 KCAL/MOL
REMARK 924 INTRA-LIGAND FREE ENERGY PREDICTED BY IDOCK:   -0.90 KCAL/MOL
REMARK 927      BINDING AFFINITY PREDICTED BY RF-SCORE:    0.00 PKD
ROOT
HETATM    1  C   UNL     1      -9.308   9.721  67.326  1.00  0.00    -0.161 C  
HETATM    2  C   UNL     1     -10.666   9.621  68.123  1.00  0.00    -0.217 C  
HETATM    3  C   UNL     1      -8.870  11.181  67.152  1.00  0.00    -0.143 C  
HETATM    4  C   UNL     1     -11.357  10.946  68.514  1.00  0.00    -0.367 C  
HETATM    5  C   UNL     1     -11.188  12.043  67.481  1.00  0.00    -0.294 C  
HETATM    6  C   UNL     1      -6.583   8.446  65.703  1.00  0.00    -0.052 C  
HETATM    7  C   UNL     1      -8.153   8.753  67.778  1.00  0.00    -0.107 C  
HETATM    8  C   UNL     1      -9.746  12.206  67.143  1.00  0.00    -0.203 C  
HETATM    9  O   UNL     1     -11.945  11.756  66.318  1.00  0.00    -0.490 OA 
HETATM   10  C   UNL     1      -6.786   9.083  67.083  1.00  0.00    -0.074 C  
HETATM   11  C   UNL     1      -6.520  10.550  66.955  1.00  0.00    -0.076 C  
HETATM   12  H   UNL     1     -11.840  12.444  65.671  1.00  0.00     0.000 HD 
HETATM   13  C   UNL     1      -7.468  11.485  66.975  1.00  0.00    -0.151 C  
ENDROOT
BRANCH   2  14
HETATM   14  O   UNL     1     -10.682   8.712  69.251  1.00  0.00    -0.213 OA 
BRANCH  14  15
HETATM   15  C   UNL     1     -10.413   9.161  70.509  1.00  0.00    -0.236 C  
HETATM   16  C   UNL     1     -10.569   7.855  72.617  1.00  0.00    -0.394 C  
HETATM   17  C   UNL     1     -12.343   9.555  72.053  1.00  0.00    -0.404 C  
HETATM   18  O   UNL     1      -9.552   9.979  70.806  1.00  0.00     0.078 OA 
HETATM   19  C   UNL     1     -11.367   8.513  71.494  1.00  0.00    -0.348 C  
HETATM   20  C   UNL     1     -13.293  10.098  70.995  1.00  0.00    -0.333 C  
ENDBRANCH  14  15
ENDBRANCH   2  14
BRANCH   7  21
HETATM   21  C   UNL     1      -8.484   7.224  67.661  1.00  0.00    -0.116 C  
BRANCH  21  22
HETATM   22  C   UNL     1      -9.726   7.015  66.768  1.00  0.00    -0.241 C  
BRANCH  22  23
HETATM   23  C   UNL     1     -10.561   5.743  66.966  1.00  0.00    -0.300 C  
HETATM   24  O   UNL     1     -11.337   5.454  65.803  1.00  0.00    -0.743 OA 
HETATM   25  H   UNL     1     -11.854   4.666  65.925  1.00  0.00     0.000 HD 
BRANCH  23  26
HETATM   26  C   UNL     1      -9.585   4.563  67.183  1.00  0.00    -0.209 C  
BRANCH  26  27
HETATM   27  C   UNL     1      -9.785   3.796  68.496  1.00  0.00    -0.019 C  
HETATM   28  O   UNL     1      -9.593   2.387  68.299  1.00  0.00    -0.206 OA 
HETATM   29  H   UNL     1      -9.717   1.912  69.112  1.00  0.00     0.000 HD 
BRANCH  27  30
HETATM   30  C   UNL     1      -8.761   4.246  69.542  1.00  0.00    -0.121 C  
HETATM   31  C   UNL     1      -9.135   3.847  70.951  1.00  0.00    -0.111 C  
HETATM   32  O   UNL     1      -9.688   2.619  71.058  1.00  0.00    -0.152 OA 
HETATM   33  O   UNL     1      -8.888   4.540  71.928  1.00  0.00    -0.115 OA 
ENDBRANCH  27  30
ENDBRANCH  26  27
ENDBRANCH  23  26
ENDBRANCH  22  23
ENDBRANCH  21  22
ENDBRANCH   7  21
TORSDOF 8
ENDMDL
MODEL      223
REMARK 921   NORMALIZED FREE ENERGY PREDICTED BY IDOCK:   -4.06 KCAL/MOL
REMARK 922        TOTAL FREE ENERGY PREDICTED BY IDOCK:   -7.42 KCAL/MOL
REMARK 923 INTER-LIGAND FREE ENERGY PREDICTED BY IDOCK:   -6.12 KCAL/MOL
REMARK 924 INTRA-LIGAND FREE ENERGY PREDICTED BY IDOCK:   -1.30 KCAL/MOL
REMARK 927      BINDING AFFINITY PREDICTED BY RF-SCORE:    0.00 PKD
ROOT
HETATM    1  C   UNL     1      -8.408   6.729  70.247  1.00  0.00    -0.134 C  
HETATM    2  C   UNL     1      -8.415   6.642  68.672  1.00  0.00    -0.122 C  
HETATM    3  C   UNL     1      -7.854   5.443  70.874  1.00  0.00    -0.099 C  
HETATM    4  C   UNL     1      -7.966   5.308  68.035  1.00  0.00    -0.091 C  
HETATM    5  C   UNL     1      -8.364   4.088  68.842  1.00  0.00    -0.077 C  
HETATM    6  C   UNL     1      -8.910   8.279  73.253  1.00  0.00    -0.283 C  
HETATM    7  C   UNL     1      -7.831   8.051  70.876  1.00  0.00    -0.089 C  
HETATM    8  C   UNL     1      -7.921   4.247  70.256  1.00  0.00    -0.055 C  
HETATM    9  O   UNL     1      -9.765   3.882  68.777  1.00  0.00    -0.150 OA 
HETATM   10  C   UNL     1      -7.658   7.950  72.432  1.00  0.00    -0.121 C  
HETATM   11  C   UNL     1      -7.144   6.622  72.891  1.00  0.00    -0.076 C  
HETATM   12  H   UNL     1     -10.015   3.117  69.283  1.00  0.00     0.000 HD 
HETATM   13  C   UNL     1      -7.249   5.497  72.186  1.00  0.00    -0.088 C  
ENDROOT
BRANCH   2  14
HETATM   14  O   UNL     1      -7.805   7.750  67.965  1.00  0.00    -0.119 OA 
BRANCH  14  15
HETATM   15  C   UNL     1      -8.074   7.964  66.646  1.00  0.00    -0.107 C  
HETATM   16  C   UNL     1      -7.499   9.988  65.324  1.00  0.00    -0.137 C  
HETATM   17  C   UNL     1      -9.876   9.602  66.068  1.00  0.00    -0.345 C  
HETATM   18  O   UNL     1      -8.081   7.110  65.770  1.00  0.00    -0.115 OA 
HETATM   19  C   UNL     1      -8.395   9.430  66.426  1.00  0.00    -0.116 C  
HETATM   20  C   UNL     1     -10.806   9.237  67.217  1.00  0.00    -0.140 C  
ENDBRANCH  14  15
ENDBRANCH   2  14
BRANCH   7  21
HETATM   21  C   UNL     1      -8.595   9.363  70.484  1.00  0.00    -0.265 C  
BRANCH  21  22
HETATM   22  C   UNL     1     -10.120   9.116  70.503  1.00  0.00    -0.288 C  
BRANCH  22  23
HETATM   23  C   UNL     1     -11.039  10.264  70.940  1.00  0.00    -0.143 C  
HETATM   24  O   UNL     1     -11.062  11.303  69.960  1.00  0.00    -0.455 OA 
HETATM   25  H   UNL     1     -11.631  12.014  70.231  1.00  0.00     0.000 HD 
BRANCH  23  26
HETATM   26  C   UNL     1     -12.475   9.704  71.062  1.00  0.00    -0.382 C  
BRANCH  26  27
HETATM   27  C   UNL     1     -12.641   8.577  72.089  1.00  0.00    -0.377 C  
HETATM   28  O   UNL     1     -13.745   8.844  72.967  1.00  0.00    -0.920 OA 
HETATM   29  H   UNL     1     -13.847   8.146  73.603  1.00  0.00     0.000 HD 
BRANCH  27  30
HETATM   30  C   UNL     1     -12.939   7.249  71.386  1.00  0.00    -0.420 C  
HETATM   31  C   UNL     1     -11.804   6.256  71.484  1.00  0.00    -0.230 C  
HETATM   32  O   UNL     1     -11.174   6.240  72.679  1.00  0.00    -0.260 OA 
HETATM   33  O   UNL     1     -11.524   5.473  70.587  1.00  0.00     0.085 OA 
ENDBRANCH  27  30
ENDBRANCH  26  27
ENDBRANCH  23  26
ENDBRANCH  22  23
ENDBRANCH  21  22
ENDBRANCH   7  21
TORSDOF 8
ENDMDL
MODEL      224
REMARK 921   NORMALIZED FREE ENERGY PREDICTED BY IDOCK:   -4.06 KCAL/MOL
REMARK 922        TOTAL FREE ENERGY PREDICTED BY IDOCK:   -7.41 KCAL/MOL
REMARK 923 INTER-LIGAND FREE ENERGY PREDICTED BY IDOCK:   -6.48 KCAL/MOL
REMARK 924 INTRA-LIGAND FREE ENERGY PREDICTED BY IDOCK:   -0.93 KCAL/MOL
REMARK 927      BINDING AFFINITY PREDICTED BY RF-SCORE:    0.00 PKD
ROOT
HETATM    1  C   UNL     1     -10.552   9.243  69.238  1.00  0.00    -0.234 C  
HETATM    2  C   UNL     1     -11.126  10.178  70.373  1.00  0.00    -0.324 C  
HETATM    3  C   UNL     1     -11.056   7.803  69.395  1.00  0.00     0.040 C  
HETATM    4  C   UNL     1     -11.996   9.515  71.464  1.00  0.00    -0.475 C  
HETATM    5  C   UNL     1     -11.550   8.110  71.821  1.00  0.00    -0.291 C  
HETATM    6  C   UNL     1      -8.746   8.572  66.414  1.00  0.00    -0.153 C  
HETATM    7  C   UNL     1     -10.629   9.794  67.767  1.00  0.00    -0.320 C  
HETATM    8  C   UNL     1     -11.422   7.287  70.586  1.00  0.00    -0.322 C  
HETATM    9  O   UNL     1     -10.324   8.141  72.531  1.00  0.00    -0.282 OA 
HETATM   10  C   UNL     1     -10.246   8.710  66.699  1.00  0.00    -0.343 C  
HETATM   11  C   UNL     1     -10.781   7.349  67.012  1.00  0.00    -0.389 C  
HETATM   12  H   UNL     1     -10.045   7.261  72.756  1.00  0.00     0.000 HD 
HETATM   13  C   UNL     1     -11.130   6.947  68.232  1.00  0.00    -0.152 C  
ENDROOT
BRANCH   2  14
HETATM   14  O   UNL     1     -11.749  11.410  69.934  1.00  0.00    -0.294 OA 
BRANCH  14  15
HETATM   15  C   UNL     1     -12.085  12.377  70.835  1.00  0.00    -0.051 C  
HETATM   16  C   UNL     1     -13.896  14.062  70.598  1.00  0.00     0.582 C  
HETATM   17  C   UNL     1     -11.490  14.746  70.293  1.00  0.00    -0.309 C  
HETATM   18  O   UNL     1     -12.028  12.269  72.053  1.00  0.00     1.183 OA 
HETATM   19  C   UNL     1     -12.521  13.628  70.098  1.00  0.00    -0.305 C  
HETATM   20  C   UNL     1     -10.152  14.434  69.636  1.00  0.00     0.242 C  
ENDBRANCH  14  15
ENDBRANCH   2  14
BRANCH   7  21
HETATM   21  C   UNL     1      -9.842  11.127  67.514  1.00  0.00    -0.197 C  
BRANCH  21  22
HETATM   22  C   UNL     1     -10.695  12.095  66.665  1.00  0.00    -0.281 C  
BRANCH  22  23
HETATM   23  C   UNL     1     -10.269  13.567  66.588  1.00  0.00    -0.275 C  
HETATM   24  O   UNL     1      -8.895  13.684  66.216  1.00  0.00    -0.451 OA 
HETATM   25  H   UNL     1      -8.631  14.595  66.168  1.00  0.00     0.000 HD 
BRANCH  23  26
HETATM   26  C   UNL     1     -11.113  14.250  65.487  1.00  0.00    -0.323 C  
BRANCH  26  27
HETATM   27  C   UNL     1     -10.655  15.664  65.109  1.00  0.00    -0.424 C  
HETATM   28  O   UNL     1     -11.555  16.256  64.160  1.00  0.00    -1.159 OA 
HETATM   29  H   UNL     1     -11.271  17.132  63.925  1.00  0.00     0.000 HD 
BRANCH  27  30
HETATM   30  C   UNL     1     -10.641  16.572  66.342  1.00  0.00    -0.221 C  
HETATM   31  C   UNL     1      -9.252  17.012  66.741  1.00  0.00    -0.252 C  
HETATM   32  O   UNL     1      -8.434  17.300  65.704  1.00  0.00    -0.475 OA 
HETATM   33  O   UNL     1      -8.912  17.175  67.904  1.00  0.00    -0.223 OA 
ENDBRANCH  27  30
ENDBRANCH  26  27
ENDBRANCH  23  26
ENDBRANCH  22  23
ENDBRANCH  21  22
ENDBRANCH   7  21
TORSDOF 8
ENDMDL
MODEL      225
REMARK 921   NORMALIZED FREE ENERGY PREDICTED BY IDOCK:   -4.05 KCAL/MOL
REMARK 922        TOTAL FREE ENERGY PREDICTED BY IDOCK:   -7.40 KCAL/MOL
REMARK 923 INTER-LIGAND FREE ENERGY PREDICTED BY IDOCK:   -6.09 KCAL/MOL
REMARK 924 INTRA-LIGAND FREE ENERGY PREDICTED BY IDOCK:   -1.31 KCAL/MOL
REMARK 927      BINDING AFFINITY PREDICTED BY RF-SCORE:    0.00 PKD
ROOT
HETATM    1  C   UNL     1      -8.537  13.610  67.567  1.00  0.00    -0.197 C  
HETATM    2  C   UNL     1      -9.708  14.546  68.060  1.00  0.00    -0.218 C  
HETATM    3  C   UNL     1      -7.237  14.401  67.372  1.00  0.00    -0.148 C  
HETATM    4  C   UNL     1      -9.405  16.056  68.183  1.00  0.00    -0.200 C  
HETATM    5  C   UNL     1      -8.449  16.568  67.123  1.00  0.00    -0.181 C  
HETATM    6  C   UNL     1      -7.147  10.617  66.677  1.00  0.00    -0.124 C  
HETATM    7  C   UNL     1      -8.352  12.250  68.335  1.00  0.00    -0.144 C  
HETATM    8  C   UNL     1      -7.225  15.720  67.090  1.00  0.00    -0.241 C  
HETATM    9  O   UNL     1      -9.077  16.591  65.853  1.00  0.00    -0.460 OA 
HETATM   10  C   UNL     1      -7.036  11.503  67.924  1.00  0.00    -0.075 C  
HETATM   11  C   UNL     1      -5.865  12.415  67.736  1.00  0.00    -0.110 C  
HETATM   12  H   UNL     1      -8.479  16.912  65.189  1.00  0.00     0.000 HD 
HETATM   13  C   UNL     1      -5.968  13.716  67.474  1.00  0.00     0.003 C  
ENDROOT
BRANCH   2  14
HETATM   14  O   UNL     1     -10.437  14.099  69.230  1.00  0.00    -0.180 OA 
BRANCH  14  15
HETATM   15  C   UNL     1     -11.663  14.617  69.524  1.00  0.00    -0.324 C  
HETATM   16  C   UNL     1     -12.275  15.925  71.546  1.00  0.00    -0.525 C  
HETATM   17  C   UNL     1     -12.999  13.520  71.334  1.00  0.00    -0.421 C  
HETATM   18  O   UNL     1     -12.466  15.058  68.712  1.00  0.00    -0.021 OA 
HETATM   19  C   UNL     1     -11.900  14.542  71.020  1.00  0.00    -0.350 C  
HETATM   20  C   UNL     1     -12.587  12.093  71.001  1.00  0.00    -0.359 C  
ENDBRANCH  14  15
ENDBRANCH   2  14
BRANCH   7  21
HETATM   21  C   UNL     1      -9.584  11.281  68.277  1.00  0.00    -0.193 C  
BRANCH  21  22
HETATM   22  C   UNL     1      -9.923  10.766  69.693  1.00  0.00    -0.005 C  
BRANCH  22  23
HETATM   23  C   UNL     1      -9.378   9.397  70.121  1.00  0.00    -0.241 C  
HETATM   24  O   UNL     1      -7.963   9.446  70.311  1.00  0.00    -0.124 OA 
HETATM   25  H   UNL     1      -7.626   8.598  70.576  1.00  0.00     0.000 HD 
BRANCH  23  26
HETATM   26  C   UNL     1     -10.021   9.032  71.478  1.00  0.00    -0.391 C  
BRANCH  26  27
HETATM   27  C   UNL     1     -10.606   7.616  71.554  1.00  0.00    -0.212 C  
HETATM   28  O   UNL     1     -11.248   7.261  70.320  1.00  0.00    -0.270 OA 
HETATM   29  H   UNL     1     -11.611   6.385  70.367  1.00  0.00     0.000 HD 
BRANCH  27  30
HETATM   30  C   UNL     1      -9.496   6.588  71.793  1.00  0.00    -0.155 C  
HETATM   31  C   UNL     1     -10.000   5.299  72.400  1.00  0.00    -0.176 C  
HETATM   32  O   UNL     1     -11.191   4.880  71.918  1.00  0.00     0.074 OA 
HETATM   33  O   UNL     1      -9.352   4.642  73.202  1.00  0.00    -0.121 OA 
ENDBRANCH  27  30
ENDBRANCH  26  27
ENDBRANCH  23  26
ENDBRANCH  22  23
ENDBRANCH  21  22
ENDBRANCH   7  21
TORSDOF 8
ENDMDL
MODEL      226
REMARK 921   NORMALIZED FREE ENERGY PREDICTED BY IDOCK:   -4.04 KCAL/MOL
REMARK 922        TOTAL FREE ENERGY PREDICTED BY IDOCK:   -7.39 KCAL/MOL
REMARK 923 INTER-LIGAND FREE ENERGY PREDICTED BY IDOCK:   -6.04 KCAL/MOL
REMARK 924 INTRA-LIGAND FREE ENERGY PREDICTED BY IDOCK:   -1.35 KCAL/MOL
REMARK 927      BINDING AFFINITY PREDICTED BY RF-SCORE:    0.00 PKD
ROOT
HETATM    1  C   UNL     1      -7.894  14.408  68.084  1.00  0.00    -0.138 C  
HETATM    2  C   UNL     1      -9.265  15.143  68.349  1.00  0.00    -0.189 C  
HETATM    3  C   UNL     1      -6.725  15.155  68.739  1.00  0.00    -0.099 C  
HETATM    4  C   UNL     1      -9.213  16.483  69.116  1.00  0.00    -0.197 C  
HETATM    5  C   UNL     1      -7.981  17.310  68.805  1.00  0.00    -0.250 C  
HETATM    6  C   UNL     1      -5.927  11.903  66.842  1.00  0.00    -0.115 C  
HETATM    7  C   UNL     1      -7.873  12.852  68.318  1.00  0.00    -0.142 C  
HETATM    8  C   UNL     1      -6.755  16.482  68.979  1.00  0.00    -0.200 C  
HETATM    9  O   UNL     1      -8.050  17.833  67.490  1.00  0.00    -0.218 OA 
HETATM   10  C   UNL     1      -6.425  12.254  68.249  1.00  0.00    -0.056 C  
HETATM   11  C   UNL     1      -5.391  13.117  68.900  1.00  0.00    -0.072 C  
HETATM   12  H   UNL     1      -7.278  18.352  67.294  1.00  0.00     0.000 HD 
HETATM   13  C   UNL     1      -5.532  14.425  69.104  1.00  0.00    -0.080 C  
ENDROOT
BRANCH   2  14
HETATM   14  O   UNL     1     -10.342  14.325  68.869  1.00  0.00    -0.235 OA 
BRANCH  14  15
HETATM   15  C   UNL     1     -11.434  14.901  69.447  1.00  0.00    -0.299 C  
HETATM   16  C   UNL     1     -11.538  15.961  71.692  1.00  0.00    -0.541 C  
HETATM   17  C   UNL     1     -12.547  13.680  71.327  1.00  0.00    -0.435 C  
HETATM   18  O   UNL     1     -12.312  15.518  68.859  1.00  0.00    -0.156 OA 
HETATM   19  C   UNL     1     -11.414  14.638  70.940  1.00  0.00    -0.213 C  
HETATM   20  C   UNL     1     -12.359  12.283  70.751  1.00  0.00    -0.383 C  
ENDBRANCH  14  15
ENDBRANCH   2  14
BRANCH   7  21
HETATM   21  C   UNL     1      -8.859  12.031  67.415  1.00  0.00    -0.178 C  
BRANCH  21  22
HETATM   22  C   UNL     1      -8.976  10.582  67.936  1.00  0.00    -0.137 C  
BRANCH  22  23
HETATM   23  C   UNL     1      -9.807  10.326  69.200  1.00  0.00    -0.216 C  
HETATM   24  O   UNL     1     -10.972   9.556  68.900  1.00  0.00    -0.369 OA 
HETATM   25  H   UNL     1     -11.486   9.398  69.682  1.00  0.00     0.000 HD 
BRANCH  23  26
HETATM   26  C   UNL     1      -8.941   9.502  70.180  1.00  0.00    -0.269 C  
BRANCH  26  27
HETATM   27  C   UNL     1      -8.495   8.133  69.650  1.00  0.00    -0.126 C  
HETATM   28  O   UNL     1      -7.074   7.972  69.781  1.00  0.00    -0.058 OA 
HETATM   29  H   UNL     1      -6.799   7.124  69.452  1.00  0.00     0.000 HD 
BRANCH  27  30
HETATM   30  C   UNL     1      -9.150   7.006  70.456  1.00  0.00    -0.156 C  
HETATM   31  C   UNL     1      -9.394   5.758  69.641  1.00  0.00    -0.139 C  
HETATM   32  O   UNL     1      -8.408   5.455  68.768  1.00  0.00    -0.096 OA 
HETATM   33  O   UNL     1     -10.364   5.032  69.807  1.00  0.00    -0.277 OA 
ENDBRANCH  27  30
ENDBRANCH  26  27
ENDBRANCH  23  26
ENDBRANCH  22  23
ENDBRANCH  21  22
ENDBRANCH   7  21
TORSDOF 8
ENDMDL
MODEL      227
REMARK 921   NORMALIZED FREE ENERGY PREDICTED BY IDOCK:   -4.03 KCAL/MOL
REMARK 922        TOTAL FREE ENERGY PREDICTED BY IDOCK:   -7.38 KCAL/MOL
REMARK 923 INTER-LIGAND FREE ENERGY PREDICTED BY IDOCK:   -6.51 KCAL/MOL
REMARK 924 INTRA-LIGAND FREE ENERGY PREDICTED BY IDOCK:   -0.87 KCAL/MOL
REMARK 927      BINDING AFFINITY PREDICTED BY RF-SCORE:    0.00 PKD
ROOT
HETATM    1  C   UNL     1      -9.393   3.872  68.068  1.00  0.00    -0.226 C  
HETATM    2  C   UNL     1      -9.670   4.420  66.615  1.00  0.00    -0.215 C  
HETATM    3  C   UNL     1      -8.134   2.995  68.102  1.00  0.00    -0.077 C  
HETATM    4  C   UNL     1      -8.727   3.946  65.487  1.00  0.00    -0.116 C  
HETATM    5  C   UNL     1      -8.254   2.516  65.656  1.00  0.00    -0.087 C  
HETATM    6  C   UNL     1     -10.016   3.546  71.413  1.00  0.00    -0.151 C  
HETATM    7  C   UNL     1      -9.482   4.914  69.243  1.00  0.00    -0.206 C  
HETATM    8  C   UNL     1      -7.686   2.326  67.020  1.00  0.00    -0.066 C  
HETATM    9  O   UNL     1      -9.317   1.608  65.426  1.00  0.00    -0.267 OA 
HETATM   10  C   UNL     1      -8.973   4.327  70.606  1.00  0.00    -0.155 C  
HETATM   11  C   UNL     1      -7.759   3.464  70.468  1.00  0.00    -0.043 C  
HETATM   12  H   UNL     1      -9.021   0.711  65.532  1.00  0.00     0.000 HD 
HETATM   13  C   UNL     1      -7.398   2.859  69.339  1.00  0.00    -0.044 C  
ENDROOT
BRANCH   2  14
HETATM   14  O   UNL     1      -9.888   5.848  66.499  1.00  0.00    -0.155 OA 
BRANCH  14  15
HETATM   15  C   UNL     1      -8.845   6.694  66.264  1.00  0.00    -0.147 C  
HETATM   16  C   UNL     1      -7.226   7.557  67.940  1.00  0.00    -0.090 C  
HETATM   17  C   UNL     1      -9.048   9.058  67.057  1.00  0.00    -0.155 C  
HETATM   18  O   UNL     1      -8.162   6.720  65.248  1.00  0.00    -0.130 OA 
HETATM   19  C   UNL     1      -8.670   7.625  67.447  1.00  0.00    -0.124 C  
HETATM   20  C   UNL     1     -10.529   9.212  66.743  1.00  0.00    -0.266 C  
ENDBRANCH  14  15
ENDBRANCH   2  14
BRANCH   7  21
HETATM   21  C   UNL     1     -10.881   5.599  69.419  1.00  0.00    -0.334 C  
BRANCH  21  22
HETATM   22  C   UNL     1     -10.864   6.538  70.645  1.00  0.00    -0.317 C  
BRANCH  22  23
HETATM   23  C   UNL     1     -12.071   6.522  71.593  1.00  0.00    -0.328 C  
HETATM   24  O   UNL     1     -11.651   6.560  72.957  1.00  0.00    -0.483 OA 
HETATM   25  H   UNL     1     -12.398   6.551  73.544  1.00  0.00     0.000 HD 
BRANCH  23  26
HETATM   26  C   UNL     1     -12.904   7.796  71.323  1.00  0.00    -0.265 C  
BRANCH  26  27
HETATM   27  C   UNL     1     -12.566   8.990  72.225  1.00  0.00    -0.375 C  
HETATM   28  O   UNL     1     -11.145   9.174  72.318  1.00  0.00    -0.226 OA 
HETATM   29  H   UNL     1     -10.936   9.913  72.877  1.00  0.00     0.000 HD 
BRANCH  27  30
HETATM   30  C   UNL     1     -13.150  10.282  71.647  1.00  0.00    -0.553 C  
HETATM   31  C   UNL     1     -12.270  10.912  70.592  1.00  0.00    -0.376 C  
HETATM   32  O   UNL     1     -11.673  10.030  69.760  1.00  0.00    -0.188 OA 
HETATM   33  O   UNL     1     -12.166  12.121  70.446  1.00  0.00    -0.341 OA 
ENDBRANCH  27  30
ENDBRANCH  26  27
ENDBRANCH  23  26
ENDBRANCH  22  23
ENDBRANCH  21  22
ENDBRANCH   7  21
TORSDOF 8
ENDMDL
MODEL      228
REMARK 921   NORMALIZED FREE ENERGY PREDICTED BY IDOCK:   -4.00 KCAL/MOL
REMARK 922        TOTAL FREE ENERGY PREDICTED BY IDOCK:   -7.33 KCAL/MOL
REMARK 923 INTER-LIGAND FREE ENERGY PREDICTED BY IDOCK:   -6.39 KCAL/MOL
REMARK 924 INTRA-LIGAND FREE ENERGY PREDICTED BY IDOCK:   -0.94 KCAL/MOL
REMARK 927      BINDING AFFINITY PREDICTED BY RF-SCORE:    0.00 PKD
ROOT
HETATM    1  C   UNL     1      -9.586   6.067  68.537  1.00  0.00    -0.134 C  
HETATM    2  C   UNL     1     -10.310   6.634  69.819  1.00  0.00    -0.193 C  
HETATM    3  C   UNL     1      -9.718   4.541  68.451  1.00  0.00    -0.188 C  
HETATM    4  C   UNL     1     -10.938   5.609  70.789  1.00  0.00    -0.257 C  
HETATM    5  C   UNL     1     -10.149   4.319  70.899  1.00  0.00    -0.091 C  
HETATM    6  C   UNL     1      -7.817   6.330  65.623  1.00  0.00    -0.098 C  
HETATM    7  C   UNL     1      -9.868   6.814  67.181  1.00  0.00    -0.207 C  
HETATM    8  C   UNL     1      -9.889   3.765  69.540  1.00  0.00    -0.020 C  
HETATM    9  O   UNL     1      -8.932   4.535  71.592  1.00  0.00    -0.120 OA 
HETATM   10  C   UNL     1      -9.290   6.046  65.941  1.00  0.00    -0.047 C  
HETATM   11  C   UNL     1      -9.464   4.563  66.023  1.00  0.00    -0.173 C  
HETATM   12  H   UNL     1      -8.437   3.726  71.661  1.00  0.00     0.000 HD 
HETATM   13  C   UNL     1      -9.643   3.894  67.160  1.00  0.00    -0.226 C  
ENDROOT
BRANCH   2  14
HETATM   14  O   UNL     1     -11.234   7.729  69.603  1.00  0.00    -0.110 OA 
BRANCH  14  15
HETATM   15  C   UNL     1     -11.165   8.857  70.366  1.00  0.00    -0.230 C  
HETATM   16  C   UNL     1     -10.040   9.091  72.569  1.00  0.00     0.360 C  
HETATM   17  C   UNL     1     -12.554   8.954  72.445  1.00  0.00    -0.423 C  
HETATM   18  O   UNL     1     -11.084  10.003  69.942  1.00  0.00    -0.253 OA 
HETATM   19  C   UNL     1     -11.230   8.481  71.833  1.00  0.00    -0.397 C  
HETATM   20  C   UNL     1     -13.761   8.225  71.871  1.00  0.00    -0.411 C  
ENDBRANCH  14  15
ENDBRANCH   2  14
BRANCH   7  21
HETATM   21  C   UNL     1      -9.440   8.323  67.152  1.00  0.00    -0.206 C  
BRANCH  21  22
HETATM   22  C   UNL     1     -10.379   9.124  66.223  1.00  0.00    -0.166 C  
BRANCH  22  23
HETATM   23  C   UNL     1      -9.750  10.075  65.196  1.00  0.00    -0.311 C  
HETATM   24  O   UNL     1      -9.555   9.419  63.943  1.00  0.00    -0.385 OA 
HETATM   25  H   UNL     1      -9.166  10.009  63.307  1.00  0.00     0.000 HD 
BRANCH  23  26
HETATM   26  C   UNL     1     -10.736  11.243  64.965  1.00  0.00    -0.322 C  
BRANCH  26  27
HETATM   27  C   UNL     1     -10.143  12.640  65.185  1.00  0.00    -0.237 C  
HETATM   28  O   UNL     1     -10.688  13.581  64.247  1.00  0.00    -0.491 OA 
HETATM   29  H   UNL     1     -10.320  14.446  64.383  1.00  0.00     0.000 HD 
BRANCH  27  30
HETATM   30  C   UNL     1     -10.485  13.155  66.586  1.00  0.00    -0.280 C  
HETATM   31  C   UNL     1      -9.955  14.544  66.855  1.00  0.00    -0.259 C  
HETATM   32  O   UNL     1     -10.040  15.391  65.805  1.00  0.00    -0.308 OA 
HETATM   33  O   UNL     1      -9.554  14.904  67.953  1.00  0.00    -0.202 OA 
ENDBRANCH  27  30
ENDBRANCH  26  27
ENDBRANCH  23  26
ENDBRANCH  22  23
ENDBRANCH  21  22
ENDBRANCH   7  21
TORSDOF 8
ENDMDL
MODEL      229
REMARK 921   NORMALIZED FREE ENERGY PREDICTED BY IDOCK:   -3.97 KCAL/MOL
REMARK 922        TOTAL FREE ENERGY PREDICTED BY IDOCK:   -7.28 KCAL/MOL
REMARK 923 INTER-LIGAND FREE ENERGY PREDICTED BY IDOCK:   -6.67 KCAL/MOL
REMARK 924 INTRA-LIGAND FREE ENERGY PREDICTED BY IDOCK:   -0.62 KCAL/MOL
REMARK 927      BINDING AFFINITY PREDICTED BY RF-SCORE:    0.00 PKD
ROOT
HETATM    1  C   UNL     1      -8.874   9.962  69.629  1.00  0.00    -0.224 C  
HETATM    2  C   UNL     1     -10.260   9.377  69.154  1.00  0.00    -0.202 C  
HETATM    3  C   UNL     1      -8.305   9.161  70.807  1.00  0.00    -0.248 C  
HETATM    4  C   UNL     1     -10.846   8.198  69.962  1.00  0.00    -0.233 C  
HETATM    5  C   UNL     1     -10.549   8.277  71.447  1.00  0.00    -0.223 C  
HETATM    6  C   UNL     1      -6.219  12.111  69.482  1.00  0.00    -0.124 C  
HETATM    7  C   UNL     1      -7.823  10.283  68.504  1.00  0.00    -0.097 C  
HETATM    8  C   UNL     1      -9.088   8.475  71.664  1.00  0.00    -0.296 C  
HETATM    9  O   UNL     1     -11.291   9.323  72.050  1.00  0.00    -0.349 OA 
HETATM   10  C   UNL     1      -6.411  10.642  69.085  1.00  0.00    -0.053 C  
HETATM   11  C   UNL     1      -6.014   9.796  70.254  1.00  0.00    -0.059 C  
HETATM   12  H   UNL     1     -11.106   9.372  72.981  1.00  0.00     0.000 HD 
HETATM   13  C   UNL     1      -6.877   9.144  71.030  1.00  0.00    -0.095 C  
ENDROOT
BRANCH   2  14
HETATM   14  O   UNL     1     -10.392   9.109  67.736  1.00  0.00    -0.217 OA 
BRANCH  14  15
HETATM   15  C   UNL     1     -10.325   7.832  67.262  1.00  0.00    -0.301 C  
HETATM   16  C   UNL     1      -8.630   6.115  67.855  1.00  0.00    -0.114 C  
HETATM   17  C   UNL     1      -8.515   7.282  65.624  1.00  0.00    -0.138 C  
HETATM   18  O   UNL     1     -11.283   7.124  66.980  1.00  0.00    -0.277 OA 
HETATM   19  C   UNL     1      -8.873   7.424  67.107  1.00  0.00    -0.126 C  
HETATM   20  C   UNL     1      -8.558   8.609  64.878  1.00  0.00    -0.163 C  
ENDBRANCH  14  15
ENDBRANCH   2  14
BRANCH   7  21
HETATM   21  C   UNL     1      -8.281  11.353  67.452  1.00  0.00    -0.145 C  
BRANCH  21  22
HETATM   22  C   UNL     1      -9.283  12.337  68.096  1.00  0.00    -0.197 C  
BRANCH  22  23
HETATM   23  C   UNL     1     -10.652  12.524  67.429  1.00  0.00    -0.223 C  
HETATM   24  O   UNL     1     -11.541  13.249  68.279  1.00  0.00    -0.290 OA 
HETATM   25  H   UNL     1     -12.388  13.365  67.865  1.00  0.00     0.000 HD 
BRANCH  23  26
HETATM   26  C   UNL     1     -10.445  13.360  66.145  1.00  0.00    -0.295 C  
BRANCH  26  27
HETATM   27  C   UNL     1     -11.517  14.427  65.891  1.00  0.00    -0.341 C  
HETATM   28  O   UNL     1     -12.363  14.585  67.040  1.00  0.00    -0.555 OA 
HETATM   29  H   UNL     1     -13.027  15.245  66.882  1.00  0.00     0.000 HD 
BRANCH  27  30
HETATM   30  C   UNL     1     -10.867  15.788  65.623  1.00  0.00    -0.316 C  
HETATM   31  C   UNL     1     -10.612  16.583  66.882  1.00  0.00    -0.238 C  
HETATM   32  O   UNL     1     -10.189  15.849  67.934  1.00  0.00    -0.242 OA 
HETATM   33  O   UNL     1     -10.702  17.802  66.931  1.00  0.00    -0.284 OA 
ENDBRANCH  27  30
ENDBRANCH  26  27
ENDBRANCH  23  26
ENDBRANCH  22  23
ENDBRANCH  21  22
ENDBRANCH   7  21
TORSDOF 8
ENDMDL
MODEL      230
REMARK 921   NORMALIZED FREE ENERGY PREDICTED BY IDOCK:   -3.96 KCAL/MOL
REMARK 922        TOTAL FREE ENERGY PREDICTED BY IDOCK:   -7.27 KCAL/MOL
REMARK 923 INTER-LIGAND FREE ENERGY PREDICTED BY IDOCK:   -6.28 KCAL/MOL
REMARK 924 INTRA-LIGAND FREE ENERGY PREDICTED BY IDOCK:   -0.99 KCAL/MOL
REMARK 927      BINDING AFFINITY PREDICTED BY RF-SCORE:    0.00 PKD
ROOT
HETATM    1  C   UNL     1      -8.092   8.597  71.193  1.00  0.00    -0.176 C  
HETATM    2  C   UNL     1      -9.116   8.032  72.252  1.00  0.00    -0.176 C  
HETATM    3  C   UNL     1      -6.643   8.360  71.638  1.00  0.00    -0.067 C  
HETATM    4  C   UNL     1      -8.533   7.433  73.551  1.00  0.00    -0.193 C  
HETATM    5  C   UNL     1      -7.286   8.145  74.039  1.00  0.00    -0.171 C  
HETATM    6  C   UNL     1      -7.210  10.102  68.253  1.00  0.00    -0.080 C  
HETATM    7  C   UNL     1      -8.368   8.239  69.686  1.00  0.00    -0.123 C  
HETATM    8  C   UNL     1      -6.291   8.242  72.934  1.00  0.00    -0.091 C  
HETATM    9  O   UNL     1      -7.609   9.431  74.537  1.00  0.00    -0.021 OA 
HETATM   10  C   UNL     1      -7.183   8.650  68.744  1.00  0.00    -0.075 C  
HETATM   11  C   UNL     1      -5.833   8.390  69.335  1.00  0.00    -0.030 C  
HETATM   12  H   UNL     1      -6.828   9.878  74.843  1.00  0.00     0.000 HD 
HETATM   13  C   UNL     1      -5.600   8.274  70.641  1.00  0.00    -0.028 C  
ENDROOT
BRANCH   2  14
HETATM   14  O   UNL     1     -10.156   7.164  71.739  1.00  0.00    -0.184 OA 
BRANCH  14  15
HETATM   15  C   UNL     1     -10.171   5.837  72.052  1.00  0.00    -0.201 C  
HETATM   16  C   UNL     1      -8.196   4.392  72.482  1.00  0.00    -0.105 C  
HETATM   17  C   UNL     1      -9.440   4.208  70.298  1.00  0.00    -0.251 C  
HETATM   18  O   UNL     1     -11.022   5.271  72.726  1.00  0.00    -0.240 OA 
HETATM   19  C   UNL     1      -8.978   5.152  71.414  1.00  0.00    -0.156 C  
HETATM   20  C   UNL     1     -10.056   4.949  69.119  1.00  0.00    -0.229 C  
ENDBRANCH  14  15
ENDBRANCH   2  14
BRANCH   7  21
HETATM   21  C   UNL     1      -9.736   8.757  69.120  1.00  0.00    -0.175 C  
BRANCH  21  22
HETATM   22  C   UNL     1     -10.211   9.989  69.921  1.00  0.00    -0.304 C  
BRANCH  22  23
HETATM   23  C   UNL     1     -11.709  10.132  70.219  1.00  0.00    -0.282 C  
HETATM   24  O   UNL     1     -12.123   9.202  71.221  1.00  0.00    -0.297 OA 
HETATM   25  H   UNL     1     -13.050   9.291  71.405  1.00  0.00     0.000 HD 
BRANCH  23  26
HETATM   26  C   UNL     1     -11.950  11.555  70.773  1.00  0.00    -0.317 C  
BRANCH  26  27
HETATM   27  C   UNL     1     -12.018  12.658  69.709  1.00  0.00    -0.295 C  
HETATM   28  O   UNL     1     -11.390  13.860  70.178  1.00  0.00    -0.466 OA 
HETATM   29  H   UNL     1     -11.433  14.543  69.519  1.00  0.00     0.000 HD 
BRANCH  27  30
HETATM   30  C   UNL     1     -11.274  12.227  68.441  1.00  0.00    -0.311 C  
HETATM   31  C   UNL     1     -11.748  12.947  67.200  1.00  0.00    -0.377 C  
HETATM   32  O   UNL     1     -12.032  14.256  67.384  1.00  0.00    -0.395 OA 
HETATM   33  O   UNL     1     -11.798  12.417  66.100  1.00  0.00    -0.459 OA 
ENDBRANCH  27  30
ENDBRANCH  26  27
ENDBRANCH  23  26
ENDBRANCH  22  23
ENDBRANCH  21  22
ENDBRANCH   7  21
TORSDOF 8
ENDMDL
MODEL      231
REMARK 921   NORMALIZED FREE ENERGY PREDICTED BY IDOCK:   -3.93 KCAL/MOL
REMARK 922        TOTAL FREE ENERGY PREDICTED BY IDOCK:   -7.23 KCAL/MOL
REMARK 923 INTER-LIGAND FREE ENERGY PREDICTED BY IDOCK:   -5.44 KCAL/MOL
REMARK 924 INTRA-LIGAND FREE ENERGY PREDICTED BY IDOCK:   -1.79 KCAL/MOL
REMARK 927      BINDING AFFINITY PREDICTED BY RF-SCORE:    0.00 PKD
ROOT
HETATM    1  C   UNL     1      -8.964   7.865  69.493  1.00  0.00    -0.142 C  
HETATM    2  C   UNL     1      -8.154   8.396  68.248  1.00  0.00    -0.120 C  
HETATM    3  C   UNL     1      -8.585   8.626  70.770  1.00  0.00    -0.197 C  
HETATM    4  C   UNL     1      -7.093   9.488  68.506  1.00  0.00    -0.070 C  
HETATM    5  C   UNL     1      -6.383   9.338  69.838  1.00  0.00    -0.043 C  
HETATM    6  C   UNL     1     -11.273   5.887  71.056  1.00  0.00    -0.280 C  
HETATM    7  C   UNL     1     -10.513   7.673  69.296  1.00  0.00    -0.220 C  
HETATM    8  C   UNL     1      -7.382   9.213  70.936  1.00  0.00    -0.129 C  
HETATM    9  O   UNL     1      -5.517   8.217  69.818  1.00  0.00    -0.023 OA 
HETATM   10  C   UNL     1     -11.256   7.363  70.642  1.00  0.00    -0.292 C  
HETATM   11  C   UNL     1     -10.747   8.160  71.802  1.00  0.00    -0.313 C  
HETATM   12  H   UNL     1      -5.072   8.122  70.652  1.00  0.00     0.000 HD 
HETATM   13  C   UNL     1      -9.538   8.713  71.854  1.00  0.00    -0.377 C  
ENDROOT
BRANCH   2  14
HETATM   14  O   UNL     1      -8.932   8.740  67.075  1.00  0.00    -0.128 OA 
BRANCH  14  15
HETATM   15  C   UNL     1      -8.514   8.372  65.831  1.00  0.00    -0.148 C  
HETATM   16  C   UNL     1      -6.506   9.212  64.632  1.00  0.00    -0.075 C  
HETATM   17  C   UNL     1      -8.800  10.013  63.963  1.00  0.00    -0.246 C  
HETATM   18  O   UNL     1      -8.626   7.256  65.341  1.00  0.00    -0.121 OA 
HETATM   19  C   UNL     1      -7.905   9.569  65.126  1.00  0.00    -0.113 C  
HETATM   20  C   UNL     1     -10.142  10.561  64.429  1.00  0.00    -0.395 C  
ENDBRANCH  14  15
ENDBRANCH   2  14
BRANCH   7  21
HETATM   21  C   UNL     1     -10.919   6.643  68.185  1.00  0.00    -0.323 C  
BRANCH  21  22
HETATM   22  C   UNL     1      -9.856   5.527  68.080  1.00  0.00    -0.181 C  
BRANCH  22  23
HETATM   23  C   UNL     1      -9.955   4.534  66.915  1.00  0.00    -0.198 C  
HETATM   24  O   UNL     1     -10.425   5.179  65.731  1.00  0.00    -0.434 OA 
HETATM   25  H   UNL     1     -10.485   4.563  65.009  1.00  0.00     0.000 HD 
BRANCH  23  26
HETATM   26  C   UNL     1      -8.533   3.999  66.625  1.00  0.00    -0.104 C  
BRANCH  26  27
HETATM   27  C   UNL     1      -8.489   2.635  65.924  1.00  0.00    -0.100 C  
HETATM   28  O   UNL     1      -9.754   2.331  65.316  1.00  0.00    -0.354 OA 
HETATM   29  H   UNL     1      -9.726   1.487  64.883  1.00  0.00     0.000 HD 
BRANCH  27  30
HETATM   30  C   UNL     1      -7.443   2.641  64.805  1.00  0.00    -0.071 C  
HETATM   31  C   UNL     1      -7.997   3.103  63.477  1.00  0.00    -0.080 C  
HETATM   32  O   UNL     1      -8.875   4.126  63.560  1.00  0.00    -0.112 OA 
HETATM   33  O   UNL     1      -7.624   2.648  62.404  1.00  0.00    -0.046 OA 
ENDBRANCH  27  30
ENDBRANCH  26  27
ENDBRANCH  23  26
ENDBRANCH  22  23
ENDBRANCH  21  22
ENDBRANCH   7  21
TORSDOF 8
ENDMDL
MODEL      232
REMARK 921   NORMALIZED FREE ENERGY PREDICTED BY IDOCK:   -3.93 KCAL/MOL
REMARK 922        TOTAL FREE ENERGY PREDICTED BY IDOCK:   -7.22 KCAL/MOL
REMARK 923 INTER-LIGAND FREE ENERGY PREDICTED BY IDOCK:   -5.26 KCAL/MOL
REMARK 924 INTRA-LIGAND FREE ENERGY PREDICTED BY IDOCK:   -1.96 KCAL/MOL
REMARK 927      BINDING AFFINITY PREDICTED BY RF-SCORE:    0.00 PKD
ROOT
HETATM    1  C   UNL     1      -8.956   7.288  70.645  1.00  0.00    -0.156 C  
HETATM    2  C   UNL     1      -9.658   7.261  69.232  1.00  0.00    -0.156 C  
HETATM    3  C   UNL     1      -9.605   6.288  71.610  1.00  0.00    -0.167 C  
HETATM    4  C   UNL     1     -10.886   6.338  69.070  1.00  0.00    -0.400 C  
HETATM    5  C   UNL     1     -11.740   6.243  70.319  1.00  0.00    -0.219 C  
HETATM    6  C   UNL     1      -6.623   8.344  72.911  1.00  0.00    -0.106 C  
HETATM    7  C   UNL     1      -7.383   7.257  70.651  1.00  0.00    -0.071 C  
HETATM    8  C   UNL     1     -10.890   5.894  71.491  1.00  0.00    -0.325 C  
HETATM    9  O   UNL     1     -12.430   7.460  70.545  1.00  0.00    -0.556 OA 
HETATM   10  C   UNL     1      -6.791   7.060  72.090  1.00  0.00    -0.057 C  
HETATM   11  C   UNL     1      -7.557   6.080  72.921  1.00  0.00    -0.102 C  
HETATM   12  H   UNL     1     -12.966   7.401  71.328  1.00  0.00     0.000 HD 
HETATM   13  C   UNL     1      -8.828   5.750  72.704  1.00  0.00    -0.125 C  
ENDROOT
BRANCH   2  14
HETATM   14  O   UNL     1      -8.785   7.117  68.085  1.00  0.00    -0.128 OA 
BRANCH  14  15
HETATM   15  C   UNL     1      -9.295   7.109  66.821  1.00  0.00    -0.161 C  
HETATM   16  C   UNL     1      -9.993   5.115  65.513  1.00  0.00     0.036 C  
HETATM   17  C   UNL     1      -7.829   6.286  64.967  1.00  0.00    -0.111 C  
HETATM   18  O   UNL     1     -10.023   7.967  66.339  1.00  0.00    -0.229 OA 
HETATM   19  C   UNL     1      -8.801   5.881  66.082  1.00  0.00    -0.149 C  
HETATM   20  C   UNL     1      -6.534   6.882  65.504  1.00  0.00    -0.046 C  
ENDBRANCH  14  15
ENDBRANCH   2  14
BRANCH   7  21
HETATM   21  C   UNL     1      -6.691   8.463  69.923  1.00  0.00    -0.042 C  
BRANCH  21  22
HETATM   22  C   UNL     1      -7.636   9.685  69.904  1.00  0.00    -0.138 C  
BRANCH  22  23
HETATM   23  C   UNL     1      -7.707  10.531  68.626  1.00  0.00    -0.106 C  
HETATM   24  O   UNL     1      -7.542   9.717  67.464  1.00  0.00    -0.091 OA 
HETATM   25  H   UNL     1      -7.586  10.241  66.672  1.00  0.00     0.000 HD 
BRANCH  23  26
HETATM   26  C   UNL     1      -9.115  11.167  68.555  1.00  0.00    -0.175 C  
BRANCH  26  27
HETATM   27  C   UNL     1      -9.155  12.575  67.948  1.00  0.00    -0.199 C  
HETATM   28  O   UNL     1      -7.992  12.818  67.143  1.00  0.00    -0.259 OA 
HETATM   29  H   UNL     1      -8.017  13.690  66.767  1.00  0.00     0.000 HD 
BRANCH  27  30
HETATM   30  C   UNL     1     -10.374  12.730  67.033  1.00  0.00    -0.240 C  
HETATM   31  C   UNL     1     -10.116  12.270  65.617  1.00  0.00    -0.252 C  
HETATM   32  O   UNL     1      -9.358  11.156  65.518  1.00  0.00    -0.213 OA 
HETATM   33  O   UNL     1     -10.616  12.809  64.639  1.00  0.00    -0.312 OA 
ENDBRANCH  27  30
ENDBRANCH  26  27
ENDBRANCH  23  26
ENDBRANCH  22  23
ENDBRANCH  21  22
ENDBRANCH   7  21
TORSDOF 8
ENDMDL
MODEL      233
REMARK 921   NORMALIZED FREE ENERGY PREDICTED BY IDOCK:   -3.92 KCAL/MOL
REMARK 922        TOTAL FREE ENERGY PREDICTED BY IDOCK:   -7.22 KCAL/MOL
REMARK 923 INTER-LIGAND FREE ENERGY PREDICTED BY IDOCK:   -6.39 KCAL/MOL
REMARK 924 INTRA-LIGAND FREE ENERGY PREDICTED BY IDOCK:   -0.82 KCAL/MOL
REMARK 927      BINDING AFFINITY PREDICTED BY RF-SCORE:    0.00 PKD
ROOT
HETATM    1  C   UNL     1      -8.642  10.285  69.449  1.00  0.00    -0.167 C  
HETATM    2  C   UNL     1     -10.027   9.740  68.925  1.00  0.00    -0.176 C  
HETATM    3  C   UNL     1      -8.147   9.479  70.656  1.00  0.00    -0.152 C  
HETATM    4  C   UNL     1     -10.682   8.589  69.720  1.00  0.00    -0.213 C  
HETATM    5  C   UNL     1     -10.442   8.674  71.215  1.00  0.00    -0.242 C  
HETATM    6  C   UNL     1      -5.916  12.346  69.387  1.00  0.00    -0.100 C  
HETATM    7  C   UNL     1      -7.538  10.560  68.363  1.00  0.00    -0.097 C  
HETATM    8  C   UNL     1      -8.985   8.828  71.488  1.00  0.00    -0.306 C  
HETATM    9  O   UNL     1     -11.173   9.750  71.777  1.00  0.00    -0.260 OA 
HETATM   10  C   UNL     1      -6.139  10.880  68.997  1.00  0.00    -0.042 C  
HETATM   11  C   UNL     1      -5.816  10.034  70.188  1.00  0.00    -0.054 C  
HETATM   12  H   UNL     1     -11.023   9.804  72.714  1.00  0.00     0.000 HD 
HETATM   13  C   UNL     1      -6.730   9.419  70.936  1.00  0.00    -0.097 C  
ENDROOT
BRANCH   2  14
HETATM   14  O   UNL     1     -10.111   9.460  67.505  1.00  0.00    -0.187 OA 
BRANCH  14  15
HETATM   15  C   UNL     1      -9.996   8.184  67.041  1.00  0.00    -0.259 C  
HETATM   16  C   UNL     1      -8.117   6.614  67.465  1.00  0.00    -0.118 C  
HETATM   17  C   UNL     1      -8.336   7.742  65.221  1.00  0.00    -0.128 C  
HETATM   18  O   UNL     1     -10.920   7.399  66.873  1.00  0.00    -0.324 OA 
HETATM   19  C   UNL     1      -8.542   7.885  66.734  1.00  0.00    -0.133 C  
HETATM   20  C   UNL     1      -8.562   9.046  64.470  1.00  0.00    -0.181 C  
ENDBRANCH  14  15
ENDBRANCH   2  14
BRANCH   7  21
HETATM   21  C   UNL     1      -7.919  11.633  67.284  1.00  0.00    -0.157 C  
BRANCH  21  22
HETATM   22  C   UNL     1      -8.509  12.887  67.966  1.00  0.00    -0.178 C  
BRANCH  22  23
HETATM   23  C   UNL     1      -9.808  13.479  67.404  1.00  0.00    -0.227 C  
HETATM   24  O   UNL     1     -10.900  12.574  67.578  1.00  0.00    -0.223 OA 
HETATM   25  H   UNL     1     -11.704  12.941  67.231  1.00  0.00     0.000 HD 
BRANCH  23  26
HETATM   26  C   UNL     1     -10.131  14.762  68.204  1.00  0.00    -0.221 C  
BRANCH  26  27
HETATM   27  C   UNL     1     -11.627  15.044  68.393  1.00  0.00    -0.331 C  
HETATM   28  O   UNL     1     -12.418  13.945  67.918  1.00  0.00    -0.436 OA 
HETATM   29  H   UNL     1     -13.345  14.121  68.034  1.00  0.00     0.000 HD 
BRANCH  27  30
HETATM   30  C   UNL     1     -11.956  15.226  69.878  1.00  0.00    -0.373 C  
HETATM   31  C   UNL     1     -12.471  13.964  70.531  1.00  0.00    -0.352 C  
HETATM   32  O   UNL     1     -11.855  12.831  70.128  1.00  0.00    -0.319 OA 
HETATM   33  O   UNL     1     -13.320  13.968  71.411  1.00  0.00    -0.340 OA 
ENDBRANCH  27  30
ENDBRANCH  26  27
ENDBRANCH  23  26
ENDBRANCH  22  23
ENDBRANCH  21  22
ENDBRANCH   7  21
TORSDOF 8
ENDMDL
MODEL      234
REMARK 921   NORMALIZED FREE ENERGY PREDICTED BY IDOCK:   -3.90 KCAL/MOL
REMARK 922        TOTAL FREE ENERGY PREDICTED BY IDOCK:   -7.18 KCAL/MOL
REMARK 923 INTER-LIGAND FREE ENERGY PREDICTED BY IDOCK:   -6.39 KCAL/MOL
REMARK 924 INTRA-LIGAND FREE ENERGY PREDICTED BY IDOCK:   -0.79 KCAL/MOL
REMARK 927      BINDING AFFINITY PREDICTED BY RF-SCORE:    0.00 PKD
ROOT
HETATM    1  C   UNL     1      -8.799   8.189  66.005  1.00  0.00    -0.206 C  
HETATM    2  C   UNL     1      -9.161   6.793  66.646  1.00  0.00    -0.146 C  
HETATM    3  C   UNL     1      -8.398   8.038  64.532  1.00  0.00    -0.048 C  
HETATM    4  C   UNL     1      -8.983   5.540  65.760  1.00  0.00    -0.158 C  
HETATM    5  C   UNL     1      -7.803   5.632  64.813  1.00  0.00    -0.112 C  
HETATM    6  C   UNL     1      -8.424  11.587  66.022  1.00  0.00    -0.005 C  
HETATM    7  C   UNL     1      -9.799   9.371  66.282  1.00  0.00    -0.351 C  
HETATM    8  C   UNL     1      -7.873   6.900  64.035  1.00  0.00    -0.100 C  
HETATM    9  O   UNL     1      -6.582   5.549  65.526  1.00  0.00    -0.039 OA 
HETATM   10  C   UNL     1      -9.476  10.644  65.424  1.00  0.00    -0.263 C  
HETATM   11  C   UNL     1      -9.066  10.330  64.021  1.00  0.00    -0.283 C  
HETATM   12  H   UNL     1      -5.842   5.606  64.933  1.00  0.00     0.000 HD 
HETATM   13  C   UNL     1      -8.570   9.157  63.633  1.00  0.00    -0.180 C  
ENDROOT
BRANCH   2  14
HETATM   14  O   UNL     1     -10.426   6.718  67.348  1.00  0.00    -0.196 OA 
BRANCH  14  15
HETATM   15  C   UNL     1     -10.461   6.533  68.698  1.00  0.00    -0.218 C  
HETATM   16  C   UNL     1      -8.725   7.225  70.337  1.00  0.00    -0.146 C  
HETATM   17  C   UNL     1      -8.948   4.800  69.685  1.00  0.00    -0.135 C  
HETATM   18  O   UNL     1     -11.465   6.564  69.398  1.00  0.00    -0.355 OA 
HETATM   19  C   UNL     1      -9.060   6.253  69.208  1.00  0.00    -0.134 C  
HETATM   20  C   UNL     1      -9.084   3.796  68.549  1.00  0.00    -0.196 C  
ENDBRANCH  14  15
ENDBRANCH   2  14
BRANCH   7  21
HETATM   21  C   UNL     1      -9.982   9.748  67.793  1.00  0.00    -0.206 C  
BRANCH  21  22
HETATM   22  C   UNL     1     -11.161  10.731  67.958  1.00  0.00    -0.359 C  
BRANCH  22  23
HETATM   23  C   UNL     1     -11.553  11.168  69.376  1.00  0.00    -0.318 C  
HETATM   24  O   UNL     1     -10.620  10.677  70.339  1.00  0.00    -0.429 OA 
HETATM   25  H   UNL     1     -10.863  10.948  71.217  1.00  0.00     0.000 HD 
BRANCH  23  26
HETATM   26  C   UNL     1     -11.509  12.713  69.426  1.00  0.00    -0.330 C  
BRANCH  26  27
HETATM   27  C   UNL     1     -10.992  13.385  68.148  1.00  0.00    -0.255 C  
HETATM   28  O   UNL     1     -11.953  13.273  67.087  1.00  0.00    -0.368 OA 
HETATM   29  H   UNL     1     -11.632  13.688  66.295  1.00  0.00     0.000 HD 
BRANCH  27  30
HETATM   30  C   UNL     1     -10.757  14.880  68.384  1.00  0.00    -0.245 C  
HETATM   31  C   UNL     1      -9.295  15.237  68.518  1.00  0.00    -0.200 C  
HETATM   32  O   UNL     1      -8.474  14.567  67.679  1.00  0.00    -0.160 OA 
HETATM   33  O   UNL     1      -8.889  16.117  69.264  1.00  0.00    -0.247 OA 
ENDBRANCH  27  30
ENDBRANCH  26  27
ENDBRANCH  23  26
ENDBRANCH  22  23
ENDBRANCH  21  22
ENDBRANCH   7  21
TORSDOF 8
ENDMDL
MODEL      235
REMARK 921   NORMALIZED FREE ENERGY PREDICTED BY IDOCK:   -3.84 KCAL/MOL
REMARK 922        TOTAL FREE ENERGY PREDICTED BY IDOCK:   -7.10 KCAL/MOL
REMARK 923 INTER-LIGAND FREE ENERGY PREDICTED BY IDOCK:   -6.79 KCAL/MOL
REMARK 924 INTRA-LIGAND FREE ENERGY PREDICTED BY IDOCK:   -0.30 KCAL/MOL
REMARK 927      BINDING AFFINITY PREDICTED BY RF-SCORE:    0.00 PKD
ROOT
HETATM    1  C   UNL     1      -8.050   9.863  69.928  1.00  0.00    -0.200 C  
HETATM    2  C   UNL     1      -9.027   8.717  70.400  1.00  0.00    -0.169 C  
HETATM    3  C   UNL     1      -6.631   9.643  70.470  1.00  0.00    -0.107 C  
HETATM    4  C   UNL     1      -8.456   7.649  71.358  1.00  0.00    -0.121 C  
HETATM    5  C   UNL     1      -7.437   8.198  72.338  1.00  0.00    -0.116 C  
HETATM    6  C   UNL     1      -7.232  12.716  68.232  1.00  0.00    -0.113 C  
HETATM    7  C   UNL     1      -8.102  10.250  68.404  1.00  0.00    -0.109 C  
HETATM    8  C   UNL     1      -6.386   8.958  71.606  1.00  0.00    -0.074 C  
HETATM    9  O   UNL     1      -8.068   9.020  73.305  1.00  0.00    -0.194 OA 
HETATM   10  C   UNL     1      -6.947  11.228  67.993  1.00  0.00    -0.068 C  
HETATM   11  C   UNL     1      -5.634  10.904  68.633  1.00  0.00    -0.040 C  
HETATM   12  H   UNL     1      -7.430   9.364  73.919  1.00  0.00     0.000 HD 
HETATM   13  C   UNL     1      -5.505  10.200  69.756  1.00  0.00    -0.038 C  
ENDROOT
BRANCH   2  14
HETATM   14  O   UNL     1      -9.809   8.074  69.363  1.00  0.00    -0.175 OA 
BRANCH  14  15
HETATM   15  C   UNL     1      -9.315   6.999  68.687  1.00  0.00    -0.136 C  
HETATM   16  C   UNL     1     -10.517   5.626  67.001  1.00  0.00    -0.344 C  
HETATM   17  C   UNL     1     -10.147   4.727  69.326  1.00  0.00    -0.217 C  
HETATM   18  O   UNL     1      -8.157   6.859  68.316  1.00  0.00    -0.116 OA 
HETATM   19  C   UNL     1     -10.418   5.978  68.483  1.00  0.00    -0.287 C  
HETATM   20  C   UNL     1     -10.231   4.996  70.822  1.00  0.00    -0.299 C  
ENDBRANCH  14  15
ENDBRANCH   2  14
BRANCH   7  21
HETATM   21  C   UNL     1      -9.489  10.783  67.902  1.00  0.00    -0.165 C  
BRANCH  21  22
HETATM   22  C   UNL     1     -10.076  11.784  68.920  1.00  0.00    -0.088 C  
BRANCH  22  23
HETATM   23  C   UNL     1     -11.559  12.161  68.802  1.00  0.00    -0.327 C  
HETATM   24  O   UNL     1     -11.822  13.410  69.442  1.00  0.00    -0.300 OA 
HETATM   25  H   UNL     1     -12.741  13.643  69.368  1.00  0.00     0.000 HD 
BRANCH  23  26
HETATM   26  C   UNL     1     -11.888  12.325  67.300  1.00  0.00    -0.330 C  
BRANCH  26  27
HETATM   27  C   UNL     1     -11.993  13.777  66.819  1.00  0.00    -0.426 C  
HETATM   28  O   UNL     1     -10.707  14.280  66.427  1.00  0.00    -0.291 OA 
HETATM   29  H   UNL     1     -10.772  15.180  66.130  1.00  0.00     0.000 HD 
BRANCH  27  30
HETATM   30  C   UNL     1     -12.904  13.872  65.591  1.00  0.00    -0.467 C  
HETATM   31  C   UNL     1     -12.302  13.248  64.354  1.00  0.00    -0.348 C  
HETATM   32  O   UNL     1     -11.618  12.105  64.578  1.00  0.00    -0.330 OA 
HETATM   33  O   UNL     1     -12.481  13.692  63.229  1.00  0.00    -0.801 OA 
ENDBRANCH  27  30
ENDBRANCH  26  27
ENDBRANCH  23  26
ENDBRANCH  22  23
ENDBRANCH  21  22
ENDBRANCH   7  21
TORSDOF 8
ENDMDL
MODEL      236
REMARK 921   NORMALIZED FREE ENERGY PREDICTED BY IDOCK:   -3.84 KCAL/MOL
REMARK 922        TOTAL FREE ENERGY PREDICTED BY IDOCK:   -7.09 KCAL/MOL
REMARK 923 INTER-LIGAND FREE ENERGY PREDICTED BY IDOCK:   -5.73 KCAL/MOL
REMARK 924 INTRA-LIGAND FREE ENERGY PREDICTED BY IDOCK:   -1.36 KCAL/MOL
REMARK 927      BINDING AFFINITY PREDICTED BY RF-SCORE:    0.00 PKD
ROOT
HETATM    1  C   UNL     1      -7.422  13.450  68.006  1.00  0.00    -0.139 C  
HETATM    2  C   UNL     1      -8.813  14.188  68.110  1.00  0.00    -0.183 C  
HETATM    3  C   UNL     1      -6.467  13.903  69.118  1.00  0.00    -0.111 C  
HETATM    4  C   UNL     1      -8.965  15.263  69.209  1.00  0.00    -0.241 C  
HETATM    5  C   UNL     1      -7.693  16.048  69.465  1.00  0.00    -0.080 C  
HETATM    6  C   UNL     1      -5.199  11.233  66.654  1.00  0.00    -0.114 C  
HETATM    7  C   UNL     1      -7.465  11.893  67.792  1.00  0.00    -0.121 C  
HETATM    8  C   UNL     1      -6.558  15.114  69.705  1.00  0.00    -0.177 C  
HETATM    9  O   UNL     1      -7.411  16.911  68.377  1.00  0.00    -0.184 OA 
HETATM   10  C   UNL     1      -6.051  11.228  67.928  1.00  0.00    -0.050 C  
HETATM   11  C   UNL     1      -5.226  11.803  69.035  1.00  0.00    -0.050 C  
HETATM   12  H   UNL     1      -6.614  17.403  68.538  1.00  0.00     0.000 HD 
HETATM   13  C   UNL     1      -5.414  13.014  69.555  1.00  0.00    -0.083 C  
ENDROOT
BRANCH   2  14
HETATM   14  O   UNL     1      -9.990  13.344  68.088  1.00  0.00    -0.225 OA 
BRANCH  14  15
HETATM   15  C   UNL     1     -11.096  13.712  67.381  1.00  0.00    -0.282 C  
HETATM   16  C   UNL     1     -11.966  12.634  65.318  1.00  0.00    -0.487 C  
HETATM   17  C   UNL     1     -10.756  14.840  65.173  1.00  0.00    -0.433 C  
HETATM   18  O   UNL     1     -12.128  14.170  67.855  1.00  0.00    -0.358 OA 
HETATM   19  C   UNL     1     -10.848  13.494  65.901  1.00  0.00    -0.279 C  
HETATM   20  C   UNL     1      -9.536  15.652  65.588  1.00  0.00    -0.319 C  
ENDBRANCH  14  15
ENDBRANCH   2  14
BRANCH   7  21
HETATM   21  C   UNL     1      -8.178  11.423  66.476  1.00  0.00    -0.152 C  
BRANCH  21  22
HETATM   22  C   UNL     1      -9.008  10.148  66.746  1.00  0.00    -0.147 C  
BRANCH  22  23
HETATM   23  C   UNL     1      -9.707  10.008  68.105  1.00  0.00    -0.140 C  
HETATM   24  O   UNL     1     -10.995  10.624  68.084  1.00  0.00    -0.227 OA 
HETATM   25  H   UNL     1     -11.428  10.537  68.925  1.00  0.00     0.000 HD 
BRANCH  23  26
HETATM   26  C   UNL     1      -9.913   8.500  68.379  1.00  0.00    -0.208 C  
BRANCH  26  27
HETATM   27  C   UNL     1      -9.079   7.936  69.536  1.00  0.00    -0.149 C  
HETATM   28  O   UNL     1      -7.880   7.315  69.047  1.00  0.00    -0.113 OA 
HETATM   29  H   UNL     1      -7.364   6.966  69.763  1.00  0.00     0.000 HD 
BRANCH  27  30
HETATM   30  C   UNL     1      -8.647   9.059  70.484  1.00  0.00    -0.229 C  
HETATM   31  C   UNL     1      -7.295   8.818  71.114  1.00  0.00    -0.097 C  
HETATM   32  O   UNL     1      -6.380   8.270  70.285  1.00  0.00    -0.035 OA 
HETATM   33  O   UNL     1      -7.020   9.163  72.255  1.00  0.00    -0.317 OA 
ENDBRANCH  27  30
ENDBRANCH  26  27
ENDBRANCH  23  26
ENDBRANCH  22  23
ENDBRANCH  21  22
ENDBRANCH   7  21
TORSDOF 8
ENDMDL
MODEL      237
REMARK 921   NORMALIZED FREE ENERGY PREDICTED BY IDOCK:   -3.84 KCAL/MOL
REMARK 922        TOTAL FREE ENERGY PREDICTED BY IDOCK:   -7.09 KCAL/MOL
REMARK 923 INTER-LIGAND FREE ENERGY PREDICTED BY IDOCK:   -5.52 KCAL/MOL
REMARK 924 INTRA-LIGAND FREE ENERGY PREDICTED BY IDOCK:   -1.57 KCAL/MOL
REMARK 927      BINDING AFFINITY PREDICTED BY RF-SCORE:    0.00 PKD
ROOT
HETATM    1  C   UNL     1      -8.069   7.455  65.440  1.00  0.00    -0.133 C  
HETATM    2  C   UNL     1      -7.961   9.025  65.554  1.00  0.00    -0.106 C  
HETATM    3  C   UNL     1      -6.694   6.818  65.201  1.00  0.00    -0.050 C  
HETATM    4  C   UNL     1      -6.569   9.657  65.333  1.00  0.00    -0.082 C  
HETATM    5  C   UNL     1      -5.735   8.935  64.292  1.00  0.00    -0.065 C  
HETATM    6  C   UNL     1      -9.728   4.466  65.476  1.00  0.00    -0.206 C  
HETATM    7  C   UNL     1      -8.932   6.727  66.535  1.00  0.00    -0.162 C  
HETATM    8  C   UNL     1      -5.681   7.479  64.605  1.00  0.00    -0.037 C  
HETATM    9  O   UNL     1      -6.263   9.149  62.995  1.00  0.00    -0.090 OA 
HETATM   10  C   UNL     1      -8.793   5.166  66.470  1.00  0.00    -0.117 C  
HETATM   11  C   UNL     1      -7.398   4.702  66.193  1.00  0.00    -0.077 C  
HETATM   12  H   UNL     1      -5.741   8.697  62.342  1.00  0.00     0.000 HD 
HETATM   13  C   UNL     1      -6.465   5.450  65.609  1.00  0.00    -0.040 C  
ENDROOT
BRANCH   2  14
HETATM   14  O   UNL     1      -8.592   9.629  66.710  1.00  0.00    -0.132 OA 
BRANCH  14  15
HETATM   15  C   UNL     1      -9.083  10.900  66.648  1.00  0.00    -0.162 C  
HETATM   16  C   UNL     1     -11.384  11.632  67.231  1.00  0.00    -0.372 C  
HETATM   17  C   UNL     1     -10.695  11.448  64.814  1.00  0.00    -0.362 C  
HETATM   18  O   UNL     1      -8.450  11.922  66.877  1.00  0.00    -0.168 OA 
HETATM   19  C   UNL     1     -10.538  10.862  66.222  1.00  0.00    -0.276 C  
HETATM   20  C   UNL     1     -10.024  10.598  63.744  1.00  0.00    -0.379 C  
ENDBRANCH  14  15
ENDBRANCH   2  14
BRANCH   7  21
HETATM   21  C   UNL     1     -10.441   7.152  66.582  1.00  0.00    -0.205 C  
BRANCH  21  22
HETATM   22  C   UNL     1     -11.070   6.733  67.930  1.00  0.00    -0.262 C  
BRANCH  22  23
HETATM   23  C   UNL     1     -10.352   7.133  69.225  1.00  0.00    -0.203 C  
HETATM   24  O   UNL     1     -10.302   8.554  69.365  1.00  0.00    -0.208 OA 
HETATM   25  H   UNL     1      -9.857   8.801  70.167  1.00  0.00     0.000 HD 
BRANCH  23  26
HETATM   26  C   UNL     1     -11.168   6.575  70.413  1.00  0.00    -0.414 C  
BRANCH  26  27
HETATM   27  C   UNL     1     -10.493   5.429  71.177  1.00  0.00    -0.225 C  
HETATM   28  O   UNL     1      -9.945   4.461  70.268  1.00  0.00    -0.217 OA 
HETATM   29  H   UNL     1      -9.527   3.752  70.741  1.00  0.00     0.000 HD 
BRANCH  27  30
HETATM   30  C   UNL     1      -9.330   5.959  72.022  1.00  0.00    -0.160 C  
HETATM   31  C   UNL     1      -9.777   6.583  73.323  1.00  0.00    -0.166 C  
HETATM   32  O   UNL     1     -10.793   5.937  73.936  1.00  0.00    -0.211 OA 
HETATM   33  O   UNL     1      -9.217   7.546  73.827  1.00  0.00    -0.236 OA 
ENDBRANCH  27  30
ENDBRANCH  26  27
ENDBRANCH  23  26
ENDBRANCH  22  23
ENDBRANCH  21  22
ENDBRANCH   7  21
TORSDOF 8
ENDMDL
MODEL      238
REMARK 921   NORMALIZED FREE ENERGY PREDICTED BY IDOCK:   -3.84 KCAL/MOL
REMARK 922        TOTAL FREE ENERGY PREDICTED BY IDOCK:   -7.09 KCAL/MOL
REMARK 923 INTER-LIGAND FREE ENERGY PREDICTED BY IDOCK:   -5.31 KCAL/MOL
REMARK 924 INTRA-LIGAND FREE ENERGY PREDICTED BY IDOCK:   -1.77 KCAL/MOL
REMARK 927      BINDING AFFINITY PREDICTED BY RF-SCORE:    0.00 PKD
ROOT
HETATM    1  C   UNL     1      -7.636   4.867  69.313  1.00  0.00    -0.060 C  
HETATM    2  C   UNL     1      -8.135   5.133  67.840  1.00  0.00    -0.098 C  
HETATM    3  C   UNL     1      -7.109   3.435  69.473  1.00  0.00    -0.042 C  
HETATM    4  C   UNL     1      -8.099   3.944  66.854  1.00  0.00    -0.096 C  
HETATM    5  C   UNL     1      -8.403   2.610  67.506  1.00  0.00    -0.084 C  
HETATM    6  C   UNL     1      -6.971   5.742  72.550  1.00  0.00    -0.083 C  
HETATM    7  C   UNL     1      -6.711   5.967  69.953  1.00  0.00    -0.052 C  
HETATM    8  C   UNL     1      -7.532   2.415  68.699  1.00  0.00    -0.047 C  
HETATM    9  O   UNL     1      -9.771   2.530  67.866  1.00  0.00    -0.330 OA 
HETATM   10  C   UNL     1      -6.089   5.510  71.318  1.00  0.00    -0.033 C  
HETATM   11  C   UNL     1      -5.656   4.078  71.326  1.00  0.00    -0.008 C  
HETATM   12  H   UNL     1      -9.962   1.694  68.274  1.00  0.00     0.000 HD 
HETATM   13  C   UNL     1      -6.132   3.149  70.499  1.00  0.00    -0.019 C  
ENDROOT
BRANCH   2  14
HETATM   14  O   UNL     1      -7.617   6.321  67.192  1.00  0.00    -0.092 OA 
BRANCH  14  15
HETATM   15  C   UNL     1      -8.378   7.010  66.295  1.00  0.00    -0.129 C  
HETATM   16  C   UNL     1      -9.048   9.398  66.444  1.00  0.00    -0.199 C  
HETATM   17  C   UNL     1     -10.725   7.584  66.944  1.00  0.00    -0.299 C  
HETATM   18  O   UNL     1      -8.377   6.846  65.082  1.00  0.00    -0.134 OA 
HETATM   19  C   UNL     1      -9.254   8.004  67.032  1.00  0.00    -0.181 C  
HETATM   20  C   UNL     1     -11.013   6.287  67.688  1.00  0.00    -0.438 C  
ENDBRANCH  14  15
ENDBRANCH   2  14
BRANCH   7  21
HETATM   21  C   UNL     1      -7.362   7.388  70.084  1.00  0.00    -0.078 C  
BRANCH  21  22
HETATM   22  C   UNL     1      -8.844   7.258  70.498  1.00  0.00    -0.153 C  
BRANCH  22  23
HETATM   23  C   UNL     1      -9.557   8.498  71.054  1.00  0.00    -0.192 C  
HETATM   24  O   UNL     1      -9.311   9.641  70.234  1.00  0.00    -0.242 OA 
HETATM   25  H   UNL     1      -9.753  10.408  70.578  1.00  0.00     0.000 HD 
BRANCH  23  26
HETATM   26  C   UNL     1     -11.078   8.222  71.030  1.00  0.00    -0.284 C  
BRANCH  26  27
HETATM   27  C   UNL     1     -11.665   7.728  72.358  1.00  0.00    -0.341 C  
HETATM   28  O   UNL     1     -12.947   8.325  72.605  1.00  0.00    -0.593 OA 
HETATM   29  H   UNL     1     -13.309   8.020  73.428  1.00  0.00     0.000 HD 
BRANCH  27  30
HETATM   30  C   UNL     1     -11.877   6.211  72.321  1.00  0.00    -0.326 C  
HETATM   31  C   UNL     1     -10.747   5.438  72.960  1.00  0.00    -0.257 C  
HETATM   32  O   UNL     1     -10.241   6.003  74.078  1.00  0.00    -0.234 OA 
HETATM   33  O   UNL     1     -10.370   4.349  72.551  1.00  0.00    -0.185 OA 
ENDBRANCH  27  30
ENDBRANCH  26  27
ENDBRANCH  23  26
ENDBRANCH  22  23
ENDBRANCH  21  22
ENDBRANCH   7  21
TORSDOF 8
ENDMDL
MODEL      239
REMARK 921   NORMALIZED FREE ENERGY PREDICTED BY IDOCK:   -3.83 KCAL/MOL
REMARK 922        TOTAL FREE ENERGY PREDICTED BY IDOCK:   -7.08 KCAL/MOL
REMARK 923 INTER-LIGAND FREE ENERGY PREDICTED BY IDOCK:   -5.91 KCAL/MOL
REMARK 924 INTRA-LIGAND FREE ENERGY PREDICTED BY IDOCK:   -1.17 KCAL/MOL
REMARK 927      BINDING AFFINITY PREDICTED BY RF-SCORE:    0.00 PKD
ROOT
HETATM    1  C   UNL     1      -9.550  16.132  66.620  1.00  0.00    -0.263 C  
HETATM    2  C   UNL     1      -8.148  16.731  67.023  1.00  0.00    -0.194 C  
HETATM    3  C   UNL     1     -10.355  17.121  65.768  1.00  0.00    -0.253 C  
HETATM    4  C   UNL     1      -7.847  18.183  66.591  1.00  0.00    -0.268 C  
HETATM    5  C   UNL     1      -9.067  19.084  66.612  1.00  0.00    -0.329 C  
HETATM    6  C   UNL     1     -11.953  13.701  66.519  1.00  0.00    -0.465 C  
HETATM    7  C   UNL     1      -9.555  14.658  66.070  1.00  0.00    -0.322 C  
HETATM    8  C   UNL     1     -10.176  18.456  65.842  1.00  0.00    -0.250 C  
HETATM    9  O   UNL     1      -9.469  19.349  67.945  1.00  0.00    -0.308 OA 
HETATM   10  C   UNL     1     -10.950  14.237  65.490  1.00  0.00    -0.319 C  
HETATM   11  C   UNL     1     -11.626  15.323  64.714  1.00  0.00    -0.322 C  
HETATM   12  H   UNL     1     -10.233  19.914  67.958  1.00  0.00     0.000 HD 
HETATM   13  C   UNL     1     -11.359  16.620  64.856  1.00  0.00     0.048 C  
ENDROOT
BRANCH   2  14
HETATM   14  O   UNL     1      -6.993  15.896  66.759  1.00  0.00    -0.225 OA 
BRANCH  14  15
HETATM   15  C   UNL     1      -6.189  15.480  67.779  1.00  0.00    -0.157 C  
HETATM   16  C   UNL     1      -6.889  14.965  70.106  1.00  0.00    -0.072 C  
HETATM   17  C   UNL     1      -5.669  17.112  69.603  1.00  0.00    -0.220 C  
HETATM   18  O   UNL     1      -5.210  14.755  67.666  1.00  0.00    -0.303 OA 
HETATM   19  C   UNL     1      -6.675  16.079  69.084  1.00  0.00    -0.174 C  
HETATM   20  C   UNL     1      -5.568  18.338  68.705  1.00  0.00    -0.193 C  
ENDBRANCH  14  15
ENDBRANCH   2  14
BRANCH   7  21
HETATM   21  C   UNL     1      -9.016  13.574  67.068  1.00  0.00    -0.237 C  
BRANCH  21  22
HETATM   22  C   UNL     1      -8.823  12.227  66.337  1.00  0.00    -0.072 C  
BRANCH  22  23
HETATM   23  C   UNL     1      -9.702  11.040  66.752  1.00  0.00    -0.193 C  
HETATM   24  O   UNL     1     -10.692  10.765  65.760  1.00  0.00    -0.179 OA 
HETATM   25  H   UNL     1     -11.236  10.029  66.016  1.00  0.00     0.000 HD 
BRANCH  23  26
HETATM   26  C   UNL     1      -8.795   9.794  66.867  1.00  0.00    -0.150 C  
BRANCH  26  27
HETATM   27  C   UNL     1      -8.259   9.516  68.277  1.00  0.00    -0.113 C  
HETATM   28  O   UNL     1      -8.611   8.192  68.706  1.00  0.00    -0.126 OA 
HETATM   29  H   UNL     1      -8.279   8.020  69.579  1.00  0.00     0.000 HD 
BRANCH  27  30
HETATM   30  C   UNL     1      -6.729   9.602  68.297  1.00  0.00    -0.061 C  
HETATM   31  C   UNL     1      -6.216  11.006  68.515  1.00  0.00    -0.042 C  
HETATM   32  O   UNL     1      -6.927  11.732  69.405  1.00  0.00    -0.099 OA 
HETATM   33  O   UNL     1      -5.195  11.431  67.992  1.00  0.00    -0.043 OA 
ENDBRANCH  27  30
ENDBRANCH  26  27
ENDBRANCH  23  26
ENDBRANCH  22  23
ENDBRANCH  21  22
ENDBRANCH   7  21
TORSDOF 8
ENDMDL
MODEL      240
REMARK 921   NORMALIZED FREE ENERGY PREDICTED BY IDOCK:   -3.82 KCAL/MOL
REMARK 922        TOTAL FREE ENERGY PREDICTED BY IDOCK:   -7.07 KCAL/MOL
REMARK 923 INTER-LIGAND FREE ENERGY PREDICTED BY IDOCK:   -5.68 KCAL/MOL
REMARK 924 INTRA-LIGAND FREE ENERGY PREDICTED BY IDOCK:   -1.39 KCAL/MOL
REMARK 927      BINDING AFFINITY PREDICTED BY RF-SCORE:    0.00 PKD
ROOT
HETATM    1  C   UNL     1      -8.010  12.259  67.105  1.00  0.00    -0.161 C  
HETATM    2  C   UNL     1      -8.744  13.358  67.967  1.00  0.00    -0.178 C  
HETATM    3  C   UNL     1      -6.493  12.298  67.327  1.00  0.00    -0.152 C  
HETATM    4  C   UNL     1      -7.859  14.314  68.797  1.00  0.00    -0.128 C  
HETATM    5  C   UNL     1      -6.547  14.662  68.122  1.00  0.00    -0.134 C  
HETATM    6  C   UNL     1      -7.877   9.635  64.918  1.00  0.00    -0.123 C  
HETATM    7  C   UNL     1      -8.627  10.812  67.136  1.00  0.00    -0.128 C  
HETATM    8  C   UNL     1      -5.843  13.417  67.707  1.00  0.00    -0.128 C  
HETATM    9  O   UNL     1      -6.768  15.508  67.007  1.00  0.00    -0.266 OA 
HETATM   10  C   UNL     1      -7.706   9.752  66.438  1.00  0.00    -0.102 C  
HETATM   11  C   UNL     1      -6.250   9.946  66.722  1.00  0.00    -0.064 C  
HETATM   12  H   UNL     1      -5.946  15.727  66.584  1.00  0.00     0.000 HD 
HETATM   13  C   UNL     1      -5.713  11.100  67.110  1.00  0.00    -0.067 C  
ENDROOT
BRANCH   2  14
HETATM   14  O   UNL     1      -9.858  12.903  68.773  1.00  0.00    -0.112 OA 
BRANCH  14  15
HETATM   15  C   UNL     1     -11.124  13.343  68.520  1.00  0.00    -0.270 C  
HETATM   16  C   UNL     1     -11.877  14.633  66.535  1.00  0.00    -0.317 C  
HETATM   17  C   UNL     1     -11.585  15.791  68.755  1.00  0.00    -0.401 C  
HETATM   18  O   UNL     1     -12.157  12.759  68.822  1.00  0.00    -0.276 OA 
HETATM   19  C   UNL     1     -11.063  14.689  67.825  1.00  0.00    -0.306 C  
HETATM   20  C   UNL     1     -10.688  16.012  69.966  1.00  0.00    -0.328 C  
ENDBRANCH  14  15
ENDBRANCH   2  14
BRANCH   7  21
HETATM   21  C   UNL     1     -10.100  10.706  66.607  1.00  0.00    -0.270 C  
BRANCH  21  22
HETATM   22  C   UNL     1     -10.946   9.837  67.562  1.00  0.00    -0.205 C  
BRANCH  22  23
HETATM   23  C   UNL     1     -10.218   8.962  68.591  1.00  0.00    -0.200 C  
HETATM   24  O   UNL     1     -10.783   9.125  69.893  1.00  0.00    -0.222 OA 
HETATM   25  H   UNL     1     -10.332   8.583  70.530  1.00  0.00     0.000 HD 
BRANCH  23  26
HETATM   26  C   UNL     1     -10.409   7.484  68.179  1.00  0.00    -0.244 C  
BRANCH  26  27
HETATM   27  C   UNL     1      -9.110   6.677  68.056  1.00  0.00    -0.114 C  
HETATM   28  O   UNL     1      -9.298   5.333  68.523  1.00  0.00    -0.113 OA 
HETATM   29  H   UNL     1      -8.493   4.833  68.448  1.00  0.00     0.000 HD 
BRANCH  27  30
HETATM   30  C   UNL     1      -8.671   6.586  66.591  1.00  0.00    -0.128 C  
HETATM   31  C   UNL     1      -9.331   5.451  65.843  1.00  0.00    -0.143 C  
HETATM   32  O   UNL     1     -10.631   5.255  66.153  1.00  0.00    -0.257 OA 
HETATM   33  O   UNL     1      -8.764   4.810  64.969  1.00  0.00    -0.136 OA 
ENDBRANCH  27  30
ENDBRANCH  26  27
ENDBRANCH  23  26
ENDBRANCH  22  23
ENDBRANCH  21  22
ENDBRANCH   7  21
TORSDOF 8
ENDMDL
MODEL      241
REMARK 921   NORMALIZED FREE ENERGY PREDICTED BY IDOCK:   -3.79 KCAL/MOL
REMARK 922        TOTAL FREE ENERGY PREDICTED BY IDOCK:   -7.02 KCAL/MOL
REMARK 923 INTER-LIGAND FREE ENERGY PREDICTED BY IDOCK:   -5.76 KCAL/MOL
REMARK 924 INTRA-LIGAND FREE ENERGY PREDICTED BY IDOCK:   -1.26 KCAL/MOL
REMARK 927      BINDING AFFINITY PREDICTED BY RF-SCORE:    0.00 PKD
ROOT
HETATM    1  C   UNL     1      -7.452  10.359  69.630  1.00  0.00    -0.160 C  
HETATM    2  C   UNL     1      -8.131   9.088  68.987  1.00  0.00    -0.107 C  
HETATM    3  C   UNL     1      -6.500   9.967  70.767  1.00  0.00    -0.081 C  
HETATM    4  C   UNL     1      -7.814   7.717  69.624  1.00  0.00    -0.107 C  
HETATM    5  C   UNL     1      -7.639   7.776  71.129  1.00  0.00    -0.079 C  
HETATM    6  C   UNL     1      -6.818  13.706  69.915  1.00  0.00     0.205 C  
HETATM    7  C   UNL     1      -6.858  11.421  68.633  1.00  0.00    -0.078 C  
HETATM    8  C   UNL     1      -6.653   8.835  71.485  1.00  0.00    -0.080 C  
HETATM    9  O   UNL     1      -8.881   8.014  71.768  1.00  0.00    -0.121 OA 
HETATM   10  C   UNL     1      -6.014  12.524  69.362  1.00  0.00    -0.101 C  
HETATM   11  C   UNL     1      -5.164  11.988  70.471  1.00  0.00    -0.128 C  
HETATM   12  H   UNL     1      -8.772   8.051  72.711  1.00  0.00     0.000 HD 
HETATM   13  C   UNL     1      -5.400  10.842  71.105  1.00  0.00    -0.078 C  
ENDROOT
BRANCH   2  14
HETATM   14  O   UNL     1      -8.057   8.983  67.544  1.00  0.00    -0.107 OA 
BRANCH  14  15
HETATM   15  C   UNL     1      -8.999   8.283  66.850  1.00  0.00    -0.146 C  
HETATM   16  C   UNL     1      -9.093   5.819  66.546  1.00  0.00    -0.144 C  
HETATM   17  C   UNL     1      -8.341   7.296  64.646  1.00  0.00     0.048 C  
HETATM   18  O   UNL     1     -10.186   8.572  66.766  1.00  0.00    -0.276 OA 
HETATM   19  C   UNL     1      -8.348   7.097  66.166  1.00  0.00    -0.133 C  
HETATM   20  C   UNL     1      -7.449   8.449  64.208  1.00  0.00    -0.109 C  
ENDBRANCH  14  15
ENDBRANCH   2  14
BRANCH   7  21
HETATM   21  C   UNL     1      -7.900  12.071  67.657  1.00  0.00    -0.149 C  
BRANCH  21  22
HETATM   22  C   UNL     1      -9.300  12.092  68.310  1.00  0.00    -0.198 C  
BRANCH  22  23
HETATM   23  C   UNL     1     -10.499  12.515  67.450  1.00  0.00    -0.219 C  
HETATM   24  O   UNL     1     -11.274  13.517  68.110  1.00  0.00    -0.249 OA 
HETATM   25  H   UNL     1     -12.016  13.778  67.578  1.00  0.00     0.000 HD 
BRANCH  23  26
HETATM   26  C   UNL     1      -9.952  13.132  66.142  1.00  0.00    -0.291 C  
BRANCH  26  27
HETATM   27  C   UNL     1     -10.287  14.615  65.940  1.00  0.00    -0.319 C  
HETATM   28  O   UNL     1      -9.093  15.411  65.924  1.00  0.00    -0.398 OA 
HETATM   29  H   UNL     1      -9.301  16.330  65.799  1.00  0.00     0.000 HD 
BRANCH  27  30
HETATM   30  C   UNL     1     -10.987  14.829  64.595  1.00  0.00    -0.332 C  
HETATM   31  C   UNL     1     -12.199  13.945  64.408  1.00  0.00    -0.413 C  
HETATM   32  O   UNL     1     -12.949  13.778  65.520  1.00  0.00    -0.651 OA 
HETATM   33  O   UNL     1     -12.525  13.481  63.325  1.00  0.00    -0.763 OA 
ENDBRANCH  27  30
ENDBRANCH  26  27
ENDBRANCH  23  26
ENDBRANCH  22  23
ENDBRANCH  21  22
ENDBRANCH   7  21
TORSDOF 8
ENDMDL
MODEL      242
REMARK 921   NORMALIZED FREE ENERGY PREDICTED BY IDOCK:   -3.78 KCAL/MOL
REMARK 922        TOTAL FREE ENERGY PREDICTED BY IDOCK:   -7.01 KCAL/MOL
REMARK 923 INTER-LIGAND FREE ENERGY PREDICTED BY IDOCK:   -6.06 KCAL/MOL
REMARK 924 INTRA-LIGAND FREE ENERGY PREDICTED BY IDOCK:   -0.95 KCAL/MOL
REMARK 927      BINDING AFFINITY PREDICTED BY RF-SCORE:    0.00 PKD
ROOT
HETATM    1  C   UNL     1      -7.979  15.140  67.101  1.00  0.00    -0.248 C  
HETATM    2  C   UNL     1      -8.970  15.391  65.899  1.00  0.00    -0.039 C  
HETATM    3  C   UNL     1      -8.130  16.218  68.182  1.00  0.00    -0.158 C  
HETATM    4  C   UNL     1      -9.838  16.667  65.951  1.00  0.00    -0.301 C  
HETATM    5  C   UNL     1      -9.134  17.851  66.584  1.00  0.00    -0.267 C  
HETATM    6  C   UNL     1      -5.564  13.417  68.800  1.00  0.00    -0.074 C  
HETATM    7  C   UNL     1      -7.911  13.672  67.663  1.00  0.00    -0.180 C  
HETATM    8  C   UNL     1      -8.576  17.461  67.910  1.00  0.00    -0.232 C  
HETATM    9  O   UNL     1      -8.110  18.337  65.734  1.00  0.00    -0.513 OA 
HETATM   10  C   UNL     1      -7.078  13.574  68.988  1.00  0.00    -0.066 C  
HETATM   11  C   UNL     1      -7.308  14.718  69.924  1.00  0.00     0.005 C  
HETATM   12  H   UNL     1      -7.669  19.079  66.130  1.00  0.00     0.000 HD 
HETATM   13  C   UNL     1      -7.770  15.909  69.547  1.00  0.00    -0.125 C  
ENDROOT
BRANCH   2  14
HETATM   14  O   UNL     1      -9.785  14.263  65.493  1.00  0.00    -0.266 OA 
BRANCH  14  15
HETATM   15  C   UNL     1     -11.000  14.041  66.071  1.00  0.00    -0.298 C  
HETATM   16  C   UNL     1     -11.719  11.988  67.272  1.00  0.00    -0.339 C  
HETATM   17  C   UNL     1     -12.563  12.447  64.941  1.00  0.00    -0.372 C  
HETATM   18  O   UNL     1     -11.694  14.886  66.621  1.00  0.00    -0.325 OA 
HETATM   19  C   UNL     1     -11.380  12.583  65.907  1.00  0.00    -0.380 C  
HETATM   20  C   UNL     1     -12.209  12.850  63.516  1.00  0.00    -0.595 C  
ENDBRANCH  14  15
ENDBRANCH   2  14
BRANCH   7  21
HETATM   21  C   UNL     1      -7.447  12.586  66.631  1.00  0.00     0.410 C  
BRANCH  21  22
HETATM   22  C   UNL     1      -7.841  11.177  67.127  1.00  0.00    -0.139 C  
BRANCH  22  23
HETATM   23  C   UNL     1      -8.171  10.102  66.083  1.00  0.00    -0.125 C  
HETATM   24  O   UNL     1      -7.167   9.086  66.060  1.00  0.00    -0.090 OA 
HETATM   25  H   UNL     1      -7.372   8.420  65.414  1.00  0.00     0.000 HD 
BRANCH  23  26
HETATM   26  C   UNL     1      -9.504   9.435  66.492  1.00  0.00    -0.246 C  
BRANCH  26  27
HETATM   27  C   UNL     1      -9.359   8.064  67.164  1.00  0.00    -0.149 C  
HETATM   28  O   UNL     1      -8.306   8.082  68.139  1.00  0.00    -0.125 OA 
HETATM   29  H   UNL     1      -8.216   7.232  68.555  1.00  0.00     0.000 HD 
BRANCH  27  30
HETATM   30  C   UNL     1     -10.647   7.689  67.902  1.00  0.00    -0.233 C  
HETATM   31  C   UNL     1     -10.687   8.196  69.325  1.00  0.00    -0.129 C  
HETATM   32  O   UNL     1     -10.169   9.433  69.494  1.00  0.00    -0.190 OA 
HETATM   33  O   UNL     1     -11.215   7.579  70.238  1.00  0.00    -0.272 OA 
ENDBRANCH  27  30
ENDBRANCH  26  27
ENDBRANCH  23  26
ENDBRANCH  22  23
ENDBRANCH  21  22
ENDBRANCH   7  21
TORSDOF 8
ENDMDL
MODEL      243
REMARK 921   NORMALIZED FREE ENERGY PREDICTED BY IDOCK:   -3.78 KCAL/MOL
REMARK 922        TOTAL FREE ENERGY PREDICTED BY IDOCK:   -7.00 KCAL/MOL
REMARK 923 INTER-LIGAND FREE ENERGY PREDICTED BY IDOCK:   -5.24 KCAL/MOL
REMARK 924 INTRA-LIGAND FREE ENERGY PREDICTED BY IDOCK:   -1.76 KCAL/MOL
REMARK 927      BINDING AFFINITY PREDICTED BY RF-SCORE:    0.00 PKD
ROOT
HETATM    1  C   UNL     1      -9.927  14.594  67.051  1.00  0.00    -0.246 C  
HETATM    2  C   UNL     1      -8.607  15.457  67.000  1.00  0.00    -0.234 C  
HETATM    3  C   UNL     1     -11.019  15.193  66.155  1.00  0.00    -0.331 C  
HETATM    4  C   UNL     1      -8.641  16.755  66.164  1.00  0.00    -0.299 C  
HETATM    5  C   UNL     1      -9.982  17.462  66.201  1.00  0.00    -0.270 C  
HETATM    6  C   UNL     1     -11.845  11.946  68.050  1.00  0.00    -0.323 C  
HETATM    7  C   UNL     1      -9.756  13.037  66.903  1.00  0.00    -0.238 C  
HETATM    8  C   UNL     1     -11.070  16.506  65.852  1.00  0.00     0.171 C  
HETATM    9  O   UNL     1     -10.210  18.036  67.476  1.00  0.00    -0.335 OA 
HETATM   10  C   UNL     1     -11.129  12.295  66.739  1.00  0.00    -0.345 C  
HETATM   11  C   UNL     1     -12.100  13.024  65.865  1.00  0.00    -0.503 C  
HETATM   12  H   UNL     1     -11.050  18.480  67.499  1.00  0.00     0.000 HD 
HETATM   13  C   UNL     1     -12.049  14.331  65.620  1.00  0.00    -0.399 C  
ENDROOT
BRANCH   2  14
HETATM   14  O   UNL     1      -7.379  14.736  66.730  1.00  0.00     0.087 OA 
BRANCH  14  15
HETATM   15  C   UNL     1      -6.443  14.568  67.707  1.00  0.00    -0.164 C  
HETATM   16  C   UNL     1      -6.773  14.888  70.149  1.00  0.00    -0.117 C  
HETATM   17  C   UNL     1      -5.518  16.615  68.810  1.00  0.00    -0.123 C  
HETATM   18  O   UNL     1      -5.546  13.735  67.702  1.00  0.00    -0.289 OA 
HETATM   19  C   UNL     1      -6.663  15.595  68.801  1.00  0.00    -0.116 C  
HETATM   20  C   UNL     1      -5.491  17.480  67.558  1.00  0.00    -0.144 C  
ENDBRANCH  14  15
ENDBRANCH   2  14
BRANCH   7  21
HETATM   21  C   UNL     1      -8.883  12.355  68.013  1.00  0.00    -0.187 C  
BRANCH  21  22
HETATM   22  C   UNL     1      -8.245  11.059  67.467  1.00  0.00    -0.117 C  
BRANCH  22  23
HETATM   23  C   UNL     1      -8.780   9.713  67.974  1.00  0.00    -0.119 C  
HETATM   24  O   UNL     1      -9.795   9.207  67.107  1.00  0.00    -0.169 OA 
HETATM   25  H   UNL     1     -10.126   8.373  67.421  1.00  0.00     0.000 HD 
BRANCH  23  26
HETATM   26  C   UNL     1      -7.610   8.703  67.966  1.00  0.00    -0.098 C  
BRANCH  26  27
HETATM   27  C   UNL     1      -6.720   8.758  66.718  1.00  0.00    -0.069 C  
HETATM   28  O   UNL     1      -5.340   8.914  67.080  1.00  0.00    -0.039 OA 
HETATM   29  H   UNL     1      -4.789   8.948  66.306  1.00  0.00     0.000 HD 
BRANCH  27  30
HETATM   30  C   UNL     1      -6.831   7.454  65.921  1.00  0.00    -0.057 C  
HETATM   31  C   UNL     1      -6.605   7.642  64.439  1.00  0.00    -0.048 C  
HETATM   32  O   UNL     1      -5.627   8.521  64.128  1.00  0.00    -0.062 OA 
HETATM   33  O   UNL     1      -7.197   6.995  63.587  1.00  0.00    -0.060 OA 
ENDBRANCH  27  30
ENDBRANCH  26  27
ENDBRANCH  23  26
ENDBRANCH  22  23
ENDBRANCH  21  22
ENDBRANCH   7  21
TORSDOF 8
ENDMDL
MODEL      244
REMARK 921   NORMALIZED FREE ENERGY PREDICTED BY IDOCK:   -3.76 KCAL/MOL
REMARK 922        TOTAL FREE ENERGY PREDICTED BY IDOCK:   -6.98 KCAL/MOL
REMARK 923 INTER-LIGAND FREE ENERGY PREDICTED BY IDOCK:   -5.69 KCAL/MOL
REMARK 924 INTRA-LIGAND FREE ENERGY PREDICTED BY IDOCK:   -1.29 KCAL/MOL
REMARK 927      BINDING AFFINITY PREDICTED BY RF-SCORE:    0.00 PKD
ROOT
HETATM    1  C   UNL     1      -7.765   4.730  69.474  1.00  0.00    -0.062 C  
HETATM    2  C   UNL     1      -8.102   5.373  68.074  1.00  0.00    -0.096 C  
HETATM    3  C   UNL     1      -7.287   3.280  69.321  1.00  0.00    -0.048 C  
HETATM    4  C   UNL     1      -7.987   4.463  66.830  1.00  0.00    -0.101 C  
HETATM    5  C   UNL     1      -8.385   3.025  67.095  1.00  0.00    -0.090 C  
HETATM    6  C   UNL     1      -7.425   4.749  72.876  1.00  0.00    -0.090 C  
HETATM    7  C   UNL     1      -6.889   5.595  70.454  1.00  0.00    -0.049 C  
HETATM    8  C   UNL     1      -7.648   2.503  68.280  1.00  0.00    -0.055 C  
HETATM    9  O   UNL     1      -9.785   2.922  67.292  1.00  0.00    -0.389 OA 
HETATM   10  C   UNL     1      -6.423   4.787  71.715  1.00  0.00    -0.030 C  
HETATM   11  C   UNL     1      -6.024   3.378  71.408  1.00  0.00    -0.014 C  
HETATM   12  H   UNL     1     -10.035   2.021  67.457  1.00  0.00     0.000 HD 
HETATM   13  C   UNL     1      -6.429   2.705  70.333  1.00  0.00    -0.028 C  
ENDROOT
BRANCH   2  14
HETATM   14  O   UNL     1      -7.493   6.658  67.795  1.00  0.00    -0.093 OA 
BRANCH  14  15
HETATM   15  C   UNL     1      -8.121   7.564  66.992  1.00  0.00    -0.117 C  
HETATM   16  C   UNL     1      -9.063   9.757  67.682  1.00  0.00    -0.140 C  
HETATM   17  C   UNL     1     -10.601   7.815  67.220  1.00  0.00    -0.376 C  
HETATM   18  O   UNL     1      -7.850   7.787  65.819  1.00  0.00    -0.094 OA 
HETATM   19  C   UNL     1      -9.234   8.243  67.767  1.00  0.00    -0.144 C  
HETATM   20  C   UNL     1     -10.895   6.340  67.459  1.00  0.00    -0.436 C  
ENDBRANCH  14  15
ENDBRANCH   2  14
BRANCH   7  21
HETATM   21  C   UNL     1      -7.521   6.968  70.874  1.00  0.00    -0.082 C  
BRANCH  21  22
HETATM   22  C   UNL     1      -8.975   6.761  71.350  1.00  0.00    -0.142 C  
BRANCH  22  23
HETATM   23  C   UNL     1      -9.477   7.589  72.541  1.00  0.00    -0.159 C  
HETATM   24  O   UNL     1      -8.915   8.902  72.525  1.00  0.00    -0.367 OA 
HETATM   25  H   UNL     1      -9.226   9.414  73.263  1.00  0.00     0.000 HD 
BRANCH  23  26
HETATM   26  C   UNL     1     -11.010   7.733  72.407  1.00  0.00    -0.368 C  
BRANCH  26  27
HETATM   27  C   UNL     1     -11.482   8.430  71.124  1.00  0.00    -0.274 C  
HETATM   28  O   UNL     1     -12.346   7.571  70.364  1.00  0.00    -0.511 OA 
HETATM   29  H   UNL     1     -12.637   8.002  69.570  1.00  0.00     0.000 HD 
BRANCH  27  30
HETATM   30  C   UNL     1     -12.285   9.690  71.461  1.00  0.00    -0.483 C  
HETATM   31  C   UNL     1     -12.134  10.784  70.430  1.00  0.00    -0.354 C  
HETATM   32  O   UNL     1     -12.100  10.349  69.151  1.00  0.00    -0.147 OA 
HETATM   33  O   UNL     1     -12.125  11.973  70.716  1.00  0.00    -0.349 OA 
ENDBRANCH  27  30
ENDBRANCH  26  27
ENDBRANCH  23  26
ENDBRANCH  22  23
ENDBRANCH  21  22
ENDBRANCH   7  21
TORSDOF 8
ENDMDL
MODEL      245
REMARK 921   NORMALIZED FREE ENERGY PREDICTED BY IDOCK:   -3.69 KCAL/MOL
REMARK 922        TOTAL FREE ENERGY PREDICTED BY IDOCK:   -6.87 KCAL/MOL
REMARK 923 INTER-LIGAND FREE ENERGY PREDICTED BY IDOCK:   -5.57 KCAL/MOL
REMARK 924 INTRA-LIGAND FREE ENERGY PREDICTED BY IDOCK:   -1.30 KCAL/MOL
REMARK 927      BINDING AFFINITY PREDICTED BY RF-SCORE:    0.00 PKD
ROOT
HETATM    1  C   UNL     1      -9.042  10.778  68.147  1.00  0.00    -0.151 C  
HETATM    2  C   UNL     1     -10.577  10.966  68.460  1.00  0.00    -0.190 C  
HETATM    3  C   UNL     1      -8.463  12.011  67.441  1.00  0.00    -0.170 C  
HETATM    4  C   UNL     1     -11.250  12.262  67.957  1.00  0.00    -0.321 C  
HETATM    5  C   UNL     1     -10.704  12.750  66.629  1.00  0.00    -0.261 C  
HETATM    6  C   UNL     1      -6.067   9.096  68.196  1.00  0.00    -0.050 C  
HETATM    7  C   UNL     1      -8.146  10.229  69.318  1.00  0.00    -0.156 C  
HETATM    8  C   UNL     1      -9.218  12.841  66.692  1.00  0.00    -0.212 C  
HETATM    9  O   UNL     1     -11.108  11.891  65.577  1.00  0.00    -0.302 OA 
HETATM   10  C   UNL     1      -6.615  10.292  68.983  1.00  0.00    -0.053 C  
HETATM   11  C   UNL     1      -6.213  11.539  68.262  1.00  0.00    -0.045 C  
HETATM   12  H   UNL     1     -10.767  12.196  64.744  1.00  0.00     0.000 HD 
HETATM   13  C   UNL     1      -7.051  12.299  67.559  1.00  0.00    -0.142 C  
ENDROOT
BRANCH   2  14
HETATM   14  O   UNL     1     -10.991  10.699  69.823  1.00  0.00    -0.257 OA 
BRANCH  14  15
HETATM   15  C   UNL     1     -12.311  10.720  70.164  1.00  0.00    -0.325 C  
HETATM   16  C   UNL     1     -13.367  12.115  71.928  1.00  0.00    -0.421 C  
HETATM   17  C   UNL     1     -12.980   9.657  72.329  1.00  0.00    -0.440 C  
HETATM   18  O   UNL     1     -13.250  10.571  69.393  1.00  0.00     0.264 OA 
HETATM   19  C   UNL     1     -12.445  10.928  71.660  1.00  0.00    -0.347 C  
HETATM   20  C   UNL     1     -12.000   8.494  72.252  1.00  0.00    -0.454 C  
ENDBRANCH  14  15
ENDBRANCH   2  14
BRANCH   7  21
HETATM   21  C   UNL     1      -8.543   8.807  69.847  1.00  0.00    -0.133 C  
BRANCH  21  22
HETATM   22  C   UNL     1      -8.585   8.806  71.391  1.00  0.00    -0.254 C  
BRANCH  22  23
HETATM   23  C   UNL     1      -8.356   7.478  72.126  1.00  0.00    -0.110 C  
HETATM   24  O   UNL     1      -9.096   7.435  73.347  1.00  0.00    -0.150 OA 
HETATM   25  H   UNL     1      -8.954   6.613  73.801  1.00  0.00     0.000 HD 
BRANCH  23  26
HETATM   26  C   UNL     1      -8.878   6.338  71.221  1.00  0.00    -0.139 C  
BRANCH  26  27
HETATM   27  C   UNL     1      -9.388   5.102  71.973  1.00  0.00    -0.137 C  
HETATM   28  O   UNL     1     -10.676   5.354  72.556  1.00  0.00    -0.216 OA 
HETATM   29  H   UNL     1     -10.991   4.588  73.022  1.00  0.00     0.000 HD 
BRANCH  27  30
HETATM   30  C   UNL     1      -9.553   3.920  71.013  1.00  0.00    -0.251 C  
HETATM   31  C   UNL     1      -8.237   3.317  70.580  1.00  0.00    -0.056 C  
HETATM   32  O   UNL     1      -7.305   3.247  71.555  1.00  0.00    -0.039 OA 
HETATM   33  O   UNL     1      -8.050   2.856  69.463  1.00  0.00    -0.048 OA 
ENDBRANCH  27  30
ENDBRANCH  26  27
ENDBRANCH  23  26
ENDBRANCH  22  23
ENDBRANCH  21  22
ENDBRANCH   7  21
TORSDOF 8
ENDMDL
MODEL      246
REMARK 921   NORMALIZED FREE ENERGY PREDICTED BY IDOCK:   -3.67 KCAL/MOL
REMARK 922        TOTAL FREE ENERGY PREDICTED BY IDOCK:   -6.85 KCAL/MOL
REMARK 923 INTER-LIGAND FREE ENERGY PREDICTED BY IDOCK:   -6.62 KCAL/MOL
REMARK 924 INTRA-LIGAND FREE ENERGY PREDICTED BY IDOCK:   -0.23 KCAL/MOL
REMARK 927      BINDING AFFINITY PREDICTED BY RF-SCORE:    0.00 PKD
ROOT
HETATM    1  C   UNL     1      -9.994   9.249  65.913  1.00  0.00    -0.289 C  
HETATM    2  C   UNL     1     -10.905  10.498  66.229  1.00  0.00     0.007 C  
HETATM    3  C   UNL     1      -8.942   9.583  64.848  1.00  0.00    -0.264 C  
HETATM    4  C   UNL     1     -10.666  11.778  65.398  1.00  0.00    -0.333 C  
HETATM    5  C   UNL     1     -10.270  11.500  63.962  1.00  0.00    -0.345 C  
HETATM    6  C   UNL     1      -8.931   6.025  66.316  1.00  0.00    -0.156 C  
HETATM    7  C   UNL     1      -9.428   8.459  67.150  1.00  0.00    -0.209 C  
HETATM    8  C   UNL     1      -9.124  10.549  63.925  1.00  0.00    -0.257 C  
HETATM    9  O   UNL     1     -11.370  10.987  63.230  1.00  0.00    -0.686 OA 
HETATM   10  C   UNL     1      -8.362   7.385  66.740  1.00  0.00    -0.122 C  
HETATM   11  C   UNL     1      -7.431   7.848  65.665  1.00  0.00    -0.081 C  
HETATM   12  H   UNL     1     -11.122  10.813  62.330  1.00  0.00     0.000 HD 
HETATM   13  C   UNL     1      -7.708   8.831  64.810  1.00  0.00    -0.113 C  
ENDROOT
BRANCH   2  14
HETATM   14  O   UNL     1     -11.054  10.846  67.628  1.00  0.00    -0.273 OA 
BRANCH  14  15
HETATM   15  C   UNL     1     -10.560  12.023  68.108  1.00  0.00    -0.210 C  
HETATM   16  C   UNL     1      -9.080  13.612  66.901  1.00  0.00    -0.249 C  
HETATM   17  C   UNL     1      -8.131  12.122  68.699  1.00  0.00    -0.048 C  
HETATM   18  O   UNL     1     -11.140  12.782  68.873  1.00  0.00    -0.252 OA 
HETATM   19  C   UNL     1      -9.160  12.242  67.569  1.00  0.00    -0.182 C  
HETATM   20  C   UNL     1      -8.041  10.712  69.266  1.00  0.00    -0.133 C  
ENDBRANCH  14  15
ENDBRANCH   2  14
BRANCH   7  21
HETATM   21  C   UNL     1     -10.514   7.835  68.094  1.00  0.00    -0.230 C  
BRANCH  21  22
HETATM   22  C   UNL     1     -10.400   8.439  69.511  1.00  0.00    -0.219 C  
BRANCH  22  23
HETATM   23  C   UNL     1     -11.317   7.892  70.613  1.00  0.00    -0.259 C  
HETATM   24  O   UNL     1     -12.191   6.886  70.100  1.00  0.00    -0.638 OA 
HETATM   25  H   UNL     1     -12.758   6.548  70.782  1.00  0.00     0.000 HD 
BRANCH  23  26
HETATM   26  C   UNL     1     -10.425   7.233  71.690  1.00  0.00    -0.218 C  
BRANCH  26  27
HETATM   27  C   UNL     1      -9.578   6.055  71.192  1.00  0.00    -0.172 C  
HETATM   28  O   UNL     1      -8.185   6.277  71.458  1.00  0.00    -0.116 OA 
HETATM   29  H   UNL     1      -7.661   5.548  71.149  1.00  0.00     0.000 HD 
BRANCH  27  30
HETATM   30  C   UNL     1      -9.973   4.765  71.917  1.00  0.00    -0.252 C  
HETATM   31  C   UNL     1      -9.407   3.522  71.271  1.00  0.00    -0.139 C  
HETATM   32  O   UNL     1      -8.145   3.655  70.808  1.00  0.00    -0.056 OA 
HETATM   33  O   UNL     1     -10.006   2.456  71.238  1.00  0.00    -0.123 OA 
ENDBRANCH  27  30
ENDBRANCH  26  27
ENDBRANCH  23  26
ENDBRANCH  22  23
ENDBRANCH  21  22
ENDBRANCH   7  21
TORSDOF 8
ENDMDL
MODEL      247
REMARK 921   NORMALIZED FREE ENERGY PREDICTED BY IDOCK:   -3.67 KCAL/MOL
REMARK 922        TOTAL FREE ENERGY PREDICTED BY IDOCK:   -6.84 KCAL/MOL
REMARK 923 INTER-LIGAND FREE ENERGY PREDICTED BY IDOCK:   -5.66 KCAL/MOL
REMARK 924 INTRA-LIGAND FREE ENERGY PREDICTED BY IDOCK:   -1.18 KCAL/MOL
REMARK 927      BINDING AFFINITY PREDICTED BY RF-SCORE:    0.00 PKD
ROOT
HETATM    1  C   UNL     1      -8.780   7.703  69.298  1.00  0.00    -0.136 C  
HETATM    2  C   UNL     1      -9.264   6.418  68.522  1.00  0.00    -0.124 C  
HETATM    3  C   UNL     1      -9.116   7.611  70.792  1.00  0.00    -0.153 C  
HETATM    4  C   UNL     1     -10.041   5.354  69.328  1.00  0.00    -0.301 C  
HETATM    5  C   UNL     1     -10.931   5.943  70.405  1.00  0.00    -0.306 C  
HETATM    6  C   UNL     1      -7.261  10.754  69.571  1.00  0.00    -0.132 C  
HETATM    7  C   UNL     1      -7.316   8.197  68.999  1.00  0.00    -0.083 C  
HETATM    8  C   UNL     1     -10.145   6.875  71.261  1.00  0.00    -0.203 C  
HETATM    9  O   UNL     1     -12.040   6.608  69.828  1.00  0.00    -0.638 OA 
HETATM   10  C   UNL     1      -6.854   9.332  69.977  1.00  0.00    -0.053 C  
HETATM   11  C   UNL     1      -7.291   9.117  71.392  1.00  0.00    -0.015 C  
HETATM   12  H   UNL     1     -12.599   6.977  70.503  1.00  0.00     0.000 HD 
HETATM   13  C   UNL     1      -8.320   8.349  71.746  1.00  0.00    -0.212 C  
ENDROOT
BRANCH   2  14
HETATM   14  O   UNL     1      -8.280   5.769  67.679  1.00  0.00    -0.102 OA 
BRANCH  14  15
HETATM   15  C   UNL     1      -8.574   5.454  66.385  1.00  0.00    -0.119 C  
HETATM   16  C   UNL     1     -10.762   4.668  65.508  1.00  0.00    -0.176 C  
HETATM   17  C   UNL     1      -8.863   3.037  65.802  1.00  0.00    -0.139 C  
HETATM   18  O   UNL     1      -8.110   6.002  65.394  1.00  0.00    -0.118 OA 
HETATM   19  C   UNL     1      -9.548   4.292  66.355  1.00  0.00    -0.209 C  
HETATM   20  C   UNL     1      -7.766   2.513  66.719  1.00  0.00    -0.071 C  
ENDBRANCH  14  15
ENDBRANCH   2  14
BRANCH   7  21
HETATM   21  C   UNL     1      -7.043   8.599  67.508  1.00  0.00    -0.080 C  
BRANCH  21  22
HETATM   22  C   UNL     1      -8.324   9.178  66.869  1.00  0.00    -0.119 C  
BRANCH  22  23
HETATM   23  C   UNL     1      -8.244  10.551  66.188  1.00  0.00    -0.151 C  
HETATM   24  O   UNL     1      -8.132  10.414  64.771  1.00  0.00    -0.160 OA 
HETATM   25  H   UNL     1      -8.082  11.264  64.350  1.00  0.00     0.000 HD 
BRANCH  23  26
HETATM   26  C   UNL     1      -9.561  11.305  66.483  1.00  0.00    -0.215 C  
BRANCH  26  27
HETATM   27  C   UNL     1      -9.382  12.692  67.115  1.00  0.00    -0.210 C  
HETATM   28  O   UNL     1      -8.212  13.343  66.595  1.00  0.00    -0.406 OA 
HETATM   29  H   UNL     1      -8.101  14.201  66.987  1.00  0.00     0.000 HD 
BRANCH  27  30
HETATM   30  C   UNL     1     -10.578  13.590  66.787  1.00  0.00    -0.272 C  
HETATM   31  C   UNL     1     -10.843  14.636  67.844  1.00  0.00    -0.259 C  
HETATM   32  O   UNL     1      -9.732  15.190  68.377  1.00  0.00    -0.203 OA 
HETATM   33  O   UNL     1     -11.968  15.013  68.142  1.00  0.00    -0.299 OA 
ENDBRANCH  27  30
ENDBRANCH  26  27
ENDBRANCH  23  26
ENDBRANCH  22  23
ENDBRANCH  21  22
ENDBRANCH   7  21
TORSDOF 8
ENDMDL
MODEL      248
REMARK 921   NORMALIZED FREE ENERGY PREDICTED BY IDOCK:   -3.61 KCAL/MOL
REMARK 922        TOTAL FREE ENERGY PREDICTED BY IDOCK:   -6.76 KCAL/MOL
REMARK 923 INTER-LIGAND FREE ENERGY PREDICTED BY IDOCK:   -6.54 KCAL/MOL
REMARK 924 INTRA-LIGAND FREE ENERGY PREDICTED BY IDOCK:   -0.22 KCAL/MOL
REMARK 927      BINDING AFFINITY PREDICTED BY RF-SCORE:    0.00 PKD
ROOT
HETATM    1  C   UNL     1      -8.053   9.803  69.890  1.00  0.00    -0.192 C  
HETATM    2  C   UNL     1      -8.981   8.563  70.192  1.00  0.00    -0.147 C  
HETATM    3  C   UNL     1      -6.649   9.604  70.475  1.00  0.00    -0.107 C  
HETATM    4  C   UNL     1      -8.389   7.431  71.061  1.00  0.00    -0.114 C  
HETATM    5  C   UNL     1      -7.448   7.927  72.141  1.00  0.00    -0.084 C  
HETATM    6  C   UNL     1      -7.332  12.860  68.540  1.00  0.00    -0.115 C  
HETATM    7  C   UNL     1      -8.063  10.347  68.414  1.00  0.00    -0.112 C  
HETATM    8  C   UNL     1      -6.412   8.816  71.544  1.00  0.00    -0.074 C  
HETATM    9  O   UNL     1      -8.166   8.606  73.156  1.00  0.00    -0.409 OA 
HETATM   10  C   UNL     1      -6.950  11.424  68.163  1.00  0.00    -0.069 C  
HETATM   11  C   UNL     1      -5.649  11.104  68.829  1.00  0.00    -0.039 C  
HETATM   12  H   UNL     1      -7.576   8.917  73.833  1.00  0.00     0.000 HD 
HETATM   13  C   UNL     1      -5.527  10.293  69.878  1.00  0.00    -0.039 C  
ENDROOT
BRANCH   2  14
HETATM   14  O   UNL     1      -9.679   7.993  69.058  1.00  0.00    -0.155 OA 
BRANCH  14  15
HETATM   15  C   UNL     1      -9.091   7.029  68.293  1.00  0.00    -0.126 C  
HETATM   16  C   UNL     1     -10.142   5.767  66.429  1.00  0.00    -0.182 C  
HETATM   17  C   UNL     1      -9.786   4.653  68.662  1.00  0.00    -0.217 C  
HETATM   18  O   UNL     1      -7.915   7.004  67.955  1.00  0.00    -0.112 OA 
HETATM   19  C   UNL     1     -10.114   5.967  67.942  1.00  0.00    -0.193 C  
HETATM   20  C   UNL     1      -9.935   4.757  70.173  1.00  0.00    -0.321 C  
ENDBRANCH  14  15
ENDBRANCH   2  14
BRANCH   7  21
HETATM   21  C   UNL     1      -9.456  10.854  67.902  1.00  0.00    -0.166 C  
BRANCH  21  22
HETATM   22  C   UNL     1     -10.170  11.657  69.011  1.00  0.00    -0.077 C  
BRANCH  22  23
HETATM   23  C   UNL     1     -11.659  11.983  68.832  1.00  0.00    -0.321 C  
HETATM   24  O   UNL     1     -12.456  10.802  68.925  1.00  0.00    -0.782 OA 
HETATM   25  H   UNL     1     -13.378  11.004  68.814  1.00  0.00     0.000 HD 
BRANCH  23  26
HETATM   26  C   UNL     1     -12.081  12.925  69.983  1.00  0.00    -0.357 C  
BRANCH  26  27
HETATM   27  C   UNL     1     -11.429  14.313  69.952  1.00  0.00    -0.243 C  
HETATM   28  O   UNL     1     -12.146  15.195  69.076  1.00  0.00    -0.503 OA 
HETATM   29  H   UNL     1     -11.741  16.054  69.056  1.00  0.00     0.000 HD 
BRANCH  27  30
HETATM   30  C   UNL     1     -11.451  14.948  71.345  1.00  0.00    -0.317 C  
HETATM   31  C   UNL     1     -12.829  15.395  71.773  1.00  0.00    -0.407 C  
HETATM   32  O   UNL     1     -13.827  14.556  71.417  1.00  0.00    -0.383 OA 
HETATM   33  O   UNL     1     -13.025  16.391  72.454  1.00  0.00    -0.178 OA 
ENDBRANCH  27  30
ENDBRANCH  26  27
ENDBRANCH  23  26
ENDBRANCH  22  23
ENDBRANCH  21  22
ENDBRANCH   7  21
TORSDOF 8
ENDMDL
MODEL      249
REMARK 921   NORMALIZED FREE ENERGY PREDICTED BY IDOCK:   -3.61 KCAL/MOL
REMARK 922        TOTAL FREE ENERGY PREDICTED BY IDOCK:   -6.75 KCAL/MOL
REMARK 923 INTER-LIGAND FREE ENERGY PREDICTED BY IDOCK:   -5.77 KCAL/MOL
REMARK 924 INTRA-LIGAND FREE ENERGY PREDICTED BY IDOCK:   -0.98 KCAL/MOL
REMARK 927      BINDING AFFINITY PREDICTED BY RF-SCORE:    0.00 PKD
ROOT
HETATM    1  C   UNL     1      -9.255   9.109  67.401  1.00  0.00    -0.150 C  
HETATM    2  C   UNL     1     -10.616   9.151  68.197  1.00  0.00    -0.183 C  
HETATM    3  C   UNL     1      -8.713  10.521  67.148  1.00  0.00    -0.130 C  
HETATM    4  C   UNL     1     -11.210  10.543  68.510  1.00  0.00    -0.332 C  
HETATM    5  C   UNL     1     -10.963  11.565  67.418  1.00  0.00    -0.265 C  
HETATM    6  C   UNL     1      -6.628   7.552  65.864  1.00  0.00    -0.046 C  
HETATM    7  C   UNL     1      -8.172   8.087  67.912  1.00  0.00    -0.129 C  
HETATM    8  C   UNL     1      -9.514  11.604  67.077  1.00  0.00    -0.191 C  
HETATM    9  O   UNL     1     -11.739  11.267  66.270  1.00  0.00    -0.221 OA 
HETATM   10  C   UNL     1      -6.785   8.279  67.205  1.00  0.00    -0.063 C  
HETATM   11  C   UNL     1      -6.414   9.713  66.996  1.00  0.00    -0.066 C  
HETATM   12  H   UNL     1     -11.585  11.907  65.585  1.00  0.00     0.000 HD 
HETATM   13  C   UNL     1      -7.292  10.713  66.959  1.00  0.00    -0.102 C  
ENDROOT
BRANCH   2  14
HETATM   14  O   UNL     1     -10.698   8.311  69.375  1.00  0.00    -0.221 OA 
BRANCH  14  15
HETATM   15  C   UNL     1     -10.282   8.773  70.588  1.00  0.00    -0.202 C  
HETATM   16  C   UNL     1      -9.944   7.431  72.651  1.00  0.00    -0.241 C  
HETATM   17  C   UNL     1     -11.969   8.915  72.431  1.00  0.00    -0.320 C  
HETATM   18  O   UNL     1      -9.483   9.683  70.770  1.00  0.00    -0.219 OA 
HETATM   19  C   UNL     1     -10.983   8.004  71.691  1.00  0.00    -0.288 C  
HETATM   20  C   UNL     1     -13.133   9.356  71.555  1.00  0.00    -0.451 C  
ENDBRANCH  14  15
ENDBRANCH   2  14
BRANCH   7  21
HETATM   21  C   UNL     1      -8.611   6.582  67.880  1.00  0.00    -0.117 C  
BRANCH  21  22
HETATM   22  C   UNL     1      -9.535   6.323  66.670  1.00  0.00    -0.178 C  
BRANCH  22  23
HETATM   23  C   UNL     1     -10.519   5.147  66.742  1.00  0.00    -0.251 C  
HETATM   24  O   UNL     1     -11.383   5.132  65.606  1.00  0.00    -0.818 OA 
HETATM   25  H   UNL     1     -11.992   4.404  65.650  1.00  0.00     0.000 HD 
BRANCH  23  26
HETATM   26  C   UNL     1      -9.697   3.838  66.722  1.00  0.00    -0.149 C  
BRANCH  26  27
HETATM   27  C   UNL     1      -8.390   3.910  65.922  1.00  0.00    -0.109 C  
HETATM   28  O   UNL     1      -7.437   2.955  66.413  1.00  0.00    -0.073 OA 
HETATM   29  H   UNL     1      -6.627   3.000  65.918  1.00  0.00     0.000 HD 
BRANCH  27  30
HETATM   30  C   UNL     1      -8.643   3.574  64.449  1.00  0.00    -0.093 C  
HETATM   31  C   UNL     1      -7.604   4.159  63.520  1.00  0.00    -0.065 C  
HETATM   32  O   UNL     1      -6.340   4.120  63.996  1.00  0.00    -0.031 OA 
HETATM   33  O   UNL     1      -7.867   4.562  62.396  1.00  0.00    -0.061 OA 
ENDBRANCH  27  30
ENDBRANCH  26  27
ENDBRANCH  23  26
ENDBRANCH  22  23
ENDBRANCH  21  22
ENDBRANCH   7  21
TORSDOF 8
ENDMDL
MODEL      250
REMARK 921   NORMALIZED FREE ENERGY PREDICTED BY IDOCK:   -3.60 KCAL/MOL
REMARK 922        TOTAL FREE ENERGY PREDICTED BY IDOCK:   -6.75 KCAL/MOL
REMARK 923 INTER-LIGAND FREE ENERGY PREDICTED BY IDOCK:   -5.70 KCAL/MOL
REMARK 924 INTRA-LIGAND FREE ENERGY PREDICTED BY IDOCK:   -1.05 KCAL/MOL
REMARK 927      BINDING AFFINITY PREDICTED BY RF-SCORE:    0.00 PKD
ROOT
HETATM    1  C   UNL     1      -6.538  17.889  67.362  1.00  0.00    -0.180 C  
HETATM    2  C   UNL     1      -7.392  17.875  66.036  1.00  0.00    -0.271 C  
HETATM    3  C   UNL     1      -5.995  19.292  67.660  1.00  0.00    -0.211 C  
HETATM    4  C   UNL     1      -7.476  19.192  65.234  1.00  0.00     0.413 C  
HETATM    5  C   UNL     1      -6.200  20.010  65.280  1.00  0.00    -0.246 C  
HETATM    6  C   UNL     1      -5.163  16.487  70.161  1.00  0.00    -0.184 C  
HETATM    7  C   UNL     1      -7.164  17.164  68.610  1.00  0.00    -0.229 C  
HETATM    8  C   UNL     1      -5.772  20.205  66.693  1.00  0.00    -0.186 C  
HETATM    9  O   UNL     1      -5.177  19.381  64.529  1.00  0.00    -0.156 OA 
HETATM   10  C   UNL     1      -6.352  17.426  69.927  1.00  0.00    -0.039 C  
HETATM   11  C   UNL     1      -5.859  18.832  70.054  1.00  0.00    -0.252 C  
HETATM   12  H   UNL     1      -4.377  19.893  64.557  1.00  0.00     0.000 HD 
HETATM   13  C   UNL     1      -5.690  19.660  69.025  1.00  0.00    -0.252 C  
ENDROOT
BRANCH   2  14
HETATM   14  O   UNL     1      -8.708  17.275  66.126  1.00  0.00    -0.425 OA 
BRANCH  14  15
HETATM   15  C   UNL     1      -9.811  18.048  66.337  1.00  0.00    -0.340 C  
HETATM   16  C   UNL     1     -10.031  19.907  67.970  1.00  0.00    -0.556 C  
HETATM   17  C   UNL     1     -11.118  17.682  68.439  1.00  0.00     0.186 C  
HETATM   18  O   UNL     1     -10.613  18.397  65.480  1.00  0.00    -0.627 OA 
HETATM   19  C   UNL     1      -9.915  18.394  67.809  1.00  0.00    -0.365 C  
HETATM   20  C   UNL     1     -10.954  16.169  68.475  1.00  0.00    -0.338 C  
ENDBRANCH  14  15
ENDBRANCH   2  14
BRANCH   7  21
HETATM   21  C   UNL     1      -7.439  15.631  68.420  1.00  0.00    -0.120 C  
BRANCH  21  22
HETATM   22  C   UNL     1      -6.210  14.945  67.785  1.00  0.00    -0.164 C  
BRANCH  22  23
HETATM   23  C   UNL     1      -5.745  13.601  68.363  1.00  0.00    -0.099 C  
HETATM   24  O   UNL     1      -6.170  13.452  69.718  1.00  0.00    -0.121 OA 
HETATM   25  H   UNL     1      -5.883  12.620  70.075  1.00  0.00     0.000 HD 
BRANCH  23  26
HETATM   26  C   UNL     1      -6.408  12.475  67.537  1.00  0.00    -0.154 C  
BRANCH  26  27
HETATM   27  C   UNL     1      -7.052  11.359  68.370  1.00  0.00    -0.079 C  
HETATM   28  O   UNL     1      -8.080  11.886  69.222  1.00  0.00    -0.337 OA 
HETATM   29  H   UNL     1      -8.478  11.195  69.739  1.00  0.00     0.000 HD 
BRANCH  27  30
HETATM   30  C   UNL     1      -7.714  10.322  67.458  1.00  0.00    -0.094 C  
HETATM   31  C   UNL     1      -7.639   8.915  68.006  1.00  0.00    -0.093 C  
HETATM   32  O   UNL     1      -7.816   8.824  69.342  1.00  0.00    -0.091 OA 
HETATM   33  O   UNL     1      -7.511   7.929  67.295  1.00  0.00    -0.089 OA 
ENDBRANCH  27  30
ENDBRANCH  26  27
ENDBRANCH  23  26
ENDBRANCH  22  23
ENDBRANCH  21  22
ENDBRANCH   7  21
TORSDOF 8
ENDMDL
MODEL      251
REMARK 921   NORMALIZED FREE ENERGY PREDICTED BY IDOCK:   -3.56 KCAL/MOL
REMARK 922        TOTAL FREE ENERGY PREDICTED BY IDOCK:   -6.69 KCAL/MOL
REMARK 923 INTER-LIGAND FREE ENERGY PREDICTED BY IDOCK:   -6.72 KCAL/MOL
REMARK 924 INTRA-LIGAND FREE ENERGY PREDICTED BY IDOCK:    0.03 KCAL/MOL
REMARK 927      BINDING AFFINITY PREDICTED BY RF-SCORE:    0.00 PKD
ROOT
HETATM    1  C   UNL     1      -8.253   8.188  68.783  1.00  0.00    -0.125 C  
HETATM    2  C   UNL     1      -8.424   7.731  70.283  1.00  0.00    -0.133 C  
HETATM    3  C   UNL     1      -8.042   6.985  67.854  1.00  0.00    -0.115 C  
HETATM    4  C   UNL     1      -8.274   6.223  70.586  1.00  0.00    -0.125 C  
HETATM    5  C   UNL     1      -7.240   5.532  69.718  1.00  0.00    -0.065 C  
HETATM    6  C   UNL     1      -8.130  10.483  66.252  1.00  0.00    -0.142 C  
HETATM    7  C   UNL     1      -9.292   9.240  68.244  1.00  0.00    -0.141 C  
HETATM    8  C   UNL     1      -7.506   5.823  68.281  1.00  0.00    -0.081 C  
HETATM    9  O   UNL     1      -5.932   5.941  70.078  1.00  0.00    -0.023 OA 
HETATM   10  C   UNL     1      -9.180   9.456  66.695  1.00  0.00    -0.193 C  
HETATM   11  C   UNL     1      -8.938   8.193  65.932  1.00  0.00    -0.195 C  
HETATM   12  H   UNL     1      -5.284   5.509  69.535  1.00  0.00     0.000 HD 
HETATM   13  C   UNL     1      -8.413   7.090  66.461  1.00  0.00    -0.125 C  
ENDROOT
BRANCH   2  14
HETATM   14  O   UNL     1      -9.576   8.257  70.987  1.00  0.00    -0.152 OA 
BRANCH  14  15
HETATM   15  C   UNL     1     -10.766   7.592  70.967  1.00  0.00    -0.228 C  
HETATM   16  C   UNL     1     -12.968   8.467  71.715  1.00  0.00    -0.368 C  
HETATM   17  C   UNL     1     -11.714   6.815  73.148  1.00  0.00     0.377 C  
HETATM   18  O   UNL     1     -11.115   6.779  70.121  1.00  0.00    -0.271 OA 
HETATM   19  C   UNL     1     -11.591   7.993  72.174  1.00  0.00    -0.399 C  
HETATM   20  C   UNL     1     -10.383   6.433  73.781  1.00  0.00    -0.326 C  
ENDBRANCH  14  15
ENDBRANCH   2  14
BRANCH   7  21
HETATM   21  C   UNL     1      -9.299  10.613  69.001  1.00  0.00    -0.191 C  
BRANCH  21  22
HETATM   22  C   UNL     1     -10.041  11.678  68.163  1.00  0.00    -0.202 C  
BRANCH  22  23
HETATM   23  C   UNL     1     -10.537  12.947  68.870  1.00  0.00    -0.123 C  
HETATM   24  O   UNL     1      -9.573  13.996  68.774  1.00  0.00    -0.326 OA 
HETATM   25  H   UNL     1      -9.880  14.782  69.212  1.00  0.00     0.000 HD 
BRANCH  23  26
HETATM   26  C   UNL     1     -11.820  13.421  68.150  1.00  0.00    -0.396 C  
BRANCH  26  27
HETATM   27  C   UNL     1     -11.578  14.281  66.903  1.00  0.00    -0.387 C  
HETATM   28  O   UNL     1     -10.339  13.927  66.270  1.00  0.00    -0.281 OA 
HETATM   29  H   UNL     1     -10.189  14.459  65.498  1.00  0.00     0.000 HD 
BRANCH  27  30
HETATM   30  C   UNL     1     -12.688  14.055  65.872  1.00  0.00    -0.436 C  
HETATM   31  C   UNL     1     -12.462  12.833  65.013  1.00  0.00    -0.506 C  
HETATM   32  O   UNL     1     -11.952  11.770  65.672  1.00  0.00    -0.352 OA 
HETATM   33  O   UNL     1     -12.787  12.777  63.835  1.00  0.00    -0.687 OA 
ENDBRANCH  27  30
ENDBRANCH  26  27
ENDBRANCH  23  26
ENDBRANCH  22  23
ENDBRANCH  21  22
ENDBRANCH   7  21
TORSDOF 8
ENDMDL
MODEL      252
REMARK 921   NORMALIZED FREE ENERGY PREDICTED BY IDOCK:   -3.56 KCAL/MOL
REMARK 922        TOTAL FREE ENERGY PREDICTED BY IDOCK:   -6.69 KCAL/MOL
REMARK 923 INTER-LIGAND FREE ENERGY PREDICTED BY IDOCK:   -4.87 KCAL/MOL
REMARK 924 INTRA-LIGAND FREE ENERGY PREDICTED BY IDOCK:   -1.81 KCAL/MOL
REMARK 927      BINDING AFFINITY PREDICTED BY RF-SCORE:    0.00 PKD
ROOT
HETATM    1  C   UNL     1      -7.250   6.293  69.501  1.00  0.00    -0.078 C  
HETATM    2  C   UNL     1      -7.771   6.670  68.061  1.00  0.00    -0.108 C  
HETATM    3  C   UNL     1      -6.487   4.962  69.487  1.00  0.00    -0.038 C  
HETATM    4  C   UNL     1      -7.520   5.651  66.927  1.00  0.00    -0.088 C  
HETATM    5  C   UNL     1      -7.598   4.207  67.384  1.00  0.00    -0.076 C  
HETATM    6  C   UNL     1      -6.781   6.815  72.847  1.00  0.00    -0.067 C  
HETATM    7  C   UNL     1      -6.535   7.435  70.313  1.00  0.00    -0.035 C  
HETATM    8  C   UNL     1      -6.720   4.001  68.569  1.00  0.00    -0.046 C  
HETATM    9  O   UNL     1      -8.936   3.850  67.684  1.00  0.00    -0.114 OA 
HETATM   10  C   UNL     1      -5.858   6.906  71.625  1.00  0.00    -0.037 C  
HETATM   11  C   UNL     1      -5.186   5.580  71.458  1.00  0.00    -0.009 C  
HETATM   12  H   UNL     1      -8.985   2.945  67.970  1.00  0.00     0.000 HD 
HETATM   13  C   UNL     1      -5.486   4.707  70.499  1.00  0.00    -0.011 C  
ENDROOT
BRANCH   2  14
HETATM   14  O   UNL     1      -7.457   8.005  67.594  1.00  0.00    -0.093 OA 
BRANCH  14  15
HETATM   15  C   UNL     1      -8.450   8.911  67.363  1.00  0.00    -0.115 C  
HETATM   16  C   UNL     1      -9.372   9.572  65.152  1.00  0.00    -0.316 C  
HETATM   17  C   UNL     1      -7.814  11.125  66.384  1.00  0.00    -0.136 C  
HETATM   18  O   UNL     1      -9.417   9.111  68.086  1.00  0.00    -0.141 OA 
HETATM   19  C   UNL     1      -8.161   9.663  66.078  1.00  0.00    -0.119 C  
HETATM   20  C   UNL     1      -6.503  11.272  67.144  1.00  0.00    -0.099 C  
ENDBRANCH  14  15
ENDBRANCH   2  14
BRANCH   7  21
HETATM   21  C   UNL     1      -7.421   8.694  70.610  1.00  0.00    -0.074 C  
BRANCH  21  22
HETATM   22  C   UNL     1      -8.845   8.258  71.019  1.00  0.00    -0.176 C  
BRANCH  22  23
HETATM   23  C   UNL     1      -9.788   9.312  71.615  1.00  0.00    -0.091 C  
HETATM   24  O   UNL     1     -10.106  10.317  70.653  1.00  0.00    -0.325 OA 
HETATM   25  H   UNL     1     -10.690  10.969  71.022  1.00  0.00     0.000 HD 
BRANCH  23  26
HETATM   26  C   UNL     1     -11.106   8.604  72.006  1.00  0.00    -0.437 C  
BRANCH  26  27
HETATM   27  C   UNL     1     -11.106   7.084  71.800  1.00  0.00    -0.239 C  
HETATM   28  O   UNL     1     -11.723   6.417  72.911  1.00  0.00    -0.483 OA 
HETATM   29  H   UNL     1     -11.723   5.476  72.784  1.00  0.00     0.000 HD 
BRANCH  27  30
HETATM   30  C   UNL     1     -11.910   6.711  70.551  1.00  0.00    -0.430 C  
HETATM   31  C   UNL     1     -11.114   5.906  69.550  1.00  0.00    -0.332 C  
HETATM   32  O   UNL     1     -10.288   4.988  70.098  1.00  0.00    -0.273 OA 
HETATM   33  O   UNL     1     -11.259   6.015  68.341  1.00  0.00    -0.287 OA 
ENDBRANCH  27  30
ENDBRANCH  26  27
ENDBRANCH  23  26
ENDBRANCH  22  23
ENDBRANCH  21  22
ENDBRANCH   7  21
TORSDOF 8
ENDMDL
MODEL      253
REMARK 921   NORMALIZED FREE ENERGY PREDICTED BY IDOCK:   -3.54 KCAL/MOL
REMARK 922        TOTAL FREE ENERGY PREDICTED BY IDOCK:   -6.65 KCAL/MOL
REMARK 923 INTER-LIGAND FREE ENERGY PREDICTED BY IDOCK:   -6.14 KCAL/MOL
REMARK 924 INTRA-LIGAND FREE ENERGY PREDICTED BY IDOCK:   -0.50 KCAL/MOL
REMARK 927      BINDING AFFINITY PREDICTED BY RF-SCORE:    0.00 PKD
ROOT
HETATM    1  C   UNL     1      -7.864   9.054  68.307  1.00  0.00    -0.100 C  
HETATM    2  C   UNL     1      -8.145   9.191  69.854  1.00  0.00    -0.122 C  
HETATM    3  C   UNL     1      -6.393   8.711  68.037  1.00  0.00    -0.056 C  
HETATM    4  C   UNL     1      -6.939   9.051  70.809  1.00  0.00    -0.087 C  
HETATM    5  C   UNL     1      -5.651   9.614  70.242  1.00  0.00    -0.042 C  
HETATM    6  C   UNL     1      -8.737   9.034  65.002  1.00  0.00    -0.217 C  
HETATM    7  C   UNL     1      -8.887   8.192  67.479  1.00  0.00    -0.137 C  
HETATM    8  C   UNL     1      -5.401   9.047  68.887  1.00  0.00    -0.037 C  
HETATM    9  O   UNL     1      -5.704  11.029  70.190  1.00  0.00    -0.077 OA 
HETATM   10  C   UNL     1      -8.401   7.930  66.011  1.00  0.00    -0.128 C  
HETATM   11  C   UNL     1      -6.936   7.645  65.909  1.00  0.00    -0.061 C  
HETATM   12  H   UNL     1      -4.897  11.383  69.835  1.00  0.00     0.000 HD 
HETATM   13  C   UNL     1      -6.039   8.013  66.821  1.00  0.00    -0.053 C  
ENDROOT
BRANCH   2  14
HETATM   14  O   UNL     1      -9.267   8.434  70.371  1.00  0.00    -0.148 OA 
BRANCH  14  15
HETATM   15  C   UNL     1      -9.120   7.125  70.721  1.00  0.00    -0.153 C  
HETATM   16  C   UNL     1     -10.934   5.530  71.303  1.00  0.00    -0.198 C  
HETATM   17  C   UNL     1      -9.479   6.502  73.118  1.00  0.00    -0.157 C  
HETATM   18  O   UNL     1      -8.271   6.360  70.282  1.00  0.00    -0.121 OA 
HETATM   19  C   UNL     1     -10.155   6.759  71.766  1.00  0.00    -0.195 C  
HETATM   20  C   UNL     1      -8.853   7.757  73.711  1.00  0.00    -0.326 C  
ENDBRANCH  14  15
ENDBRANCH   2  14
BRANCH   7  21
HETATM   21  C   UNL     1     -10.364   8.720  67.492  1.00  0.00    -0.334 C  
BRANCH  21  22
HETATM   22  C   UNL     1     -10.377  10.262  67.570  1.00  0.00    -0.276 C  
BRANCH  22  23
HETATM   23  C   UNL     1     -11.416  10.938  68.474  1.00  0.00    -0.310 C  
HETATM   24  O   UNL     1     -10.906  11.116  69.796  1.00  0.00    -0.422 OA 
HETATM   25  H   UNL     1     -11.550  11.534  70.356  1.00  0.00     0.000 HD 
BRANCH  23  26
HETATM   26  C   UNL     1     -11.710  12.341  67.893  1.00  0.00    -0.410 C  
BRANCH  26  27
HETATM   27  C   UNL     1     -10.478  13.236  67.716  1.00  0.00    -0.239 C  
HETATM   28  O   UNL     1      -9.444  12.873  68.643  1.00  0.00    -0.382 OA 
HETATM   29  H   UNL     1      -8.681  13.428  68.534  1.00  0.00     0.000 HD 
BRANCH  27  30
HETATM   30  C   UNL     1      -9.895  13.074  66.309  1.00  0.00    -0.278 C  
HETATM   31  C   UNL     1     -10.743  13.717  65.236  1.00  0.00    -0.339 C  
HETATM   32  O   UNL     1     -11.291  14.901  65.588  1.00  0.00    -0.343 OA 
HETATM   33  O   UNL     1     -10.863  13.251  64.112  1.00  0.00    -0.396 OA 
ENDBRANCH  27  30
ENDBRANCH  26  27
ENDBRANCH  23  26
ENDBRANCH  22  23
ENDBRANCH  21  22
ENDBRANCH   7  21
TORSDOF 8
ENDMDL
MODEL      254
REMARK 921   NORMALIZED FREE ENERGY PREDICTED BY IDOCK:   -3.45 KCAL/MOL
REMARK 922        TOTAL FREE ENERGY PREDICTED BY IDOCK:   -6.52 KCAL/MOL
REMARK 923 INTER-LIGAND FREE ENERGY PREDICTED BY IDOCK:   -4.89 KCAL/MOL
REMARK 924 INTRA-LIGAND FREE ENERGY PREDICTED BY IDOCK:   -1.63 KCAL/MOL
REMARK 927      BINDING AFFINITY PREDICTED BY RF-SCORE:    0.00 PKD
ROOT
HETATM    1  C   UNL     1      -8.508   7.682  64.921  1.00  0.00     0.008 C  
HETATM    2  C   UNL     1      -8.092   9.188  65.140  1.00  0.00    -0.130 C  
HETATM    3  C   UNL     1      -8.171   7.212  63.500  1.00  0.00     0.094 C  
HETATM    4  C   UNL     1      -7.517   9.948  63.925  1.00  0.00    -0.134 C  
HETATM    5  C   UNL     1      -8.144   9.542  62.606  1.00  0.00    -0.131 C  
HETATM    6  C   UNL     1      -9.769   4.656  65.893  1.00  0.00    -0.208 C  
HETATM    7  C   UNL     1      -8.093   6.666  66.048  1.00  0.00    -0.122 C  
HETATM    8  C   UNL     1      -8.094   8.060  62.454  1.00  0.00    -0.163 C  
HETATM    9  O   UNL     1      -9.479  10.009  62.522  1.00  0.00    -0.395 OA 
HETATM   10  C   UNL     1      -8.348   5.174  65.635  1.00  0.00    -0.123 C  
HETATM   11  C   UNL     1      -8.005   4.882  64.209  1.00  0.00    -0.108 C  
HETATM   12  H   UNL     1      -9.872   9.755  61.696  1.00  0.00     0.000 HD 
HETATM   13  C   UNL     1      -7.941   5.807  63.253  1.00  0.00    -0.105 C  
ENDROOT
BRANCH   2  14
HETATM   14  O   UNL     1      -7.290   9.468  66.314  1.00  0.00    -0.092 OA 
BRANCH  14  15
HETATM   15  C   UNL     1      -7.480  10.614  67.027  1.00  0.00    -0.106 C  
HETATM   16  C   UNL     1      -7.578  10.825  69.501  1.00  0.00    -0.094 C  
HETATM   17  C   UNL     1      -9.696  10.953  68.139  1.00  0.00    -0.174 C  
HETATM   18  O   UNL     1      -7.068  11.725  66.717  1.00  0.00    -0.126 OA 
HETATM   19  C   UNL     1      -8.308  10.314  68.261  1.00  0.00    -0.116 C  
HETATM   20  C   UNL     1     -10.534  10.333  67.030  1.00  0.00    -0.304 C  
ENDBRANCH  14  15
ENDBRANCH   2  14
BRANCH   7  21
HETATM   21  C   UNL     1      -8.696   6.963  67.465  1.00  0.00    -0.120 C  
BRANCH  21  22
HETATM   22  C   UNL     1      -7.838   6.292  68.560  1.00  0.00    -0.105 C  
BRANCH  22  23
HETATM   23  C   UNL     1      -8.457   6.088  69.949  1.00  0.00    -0.130 C  
HETATM   24  O   UNL     1      -7.600   5.305  70.781  1.00  0.00    -0.079 OA 
HETATM   25  H   UNL     1      -7.983   5.179  71.642  1.00  0.00     0.000 HD 
BRANCH  23  26
HETATM   26  C   UNL     1      -8.611   7.477  70.610  1.00  0.00    -0.137 C  
BRANCH  26  27
HETATM   27  C   UNL     1      -9.247   7.459  72.005  1.00  0.00    -0.132 C  
HETATM   28  O   UNL     1      -8.925   8.657  72.729  1.00  0.00    -0.356 OA 
HETATM   29  H   UNL     1      -9.319   8.645  73.593  1.00  0.00     0.000 HD 
BRANCH  27  30
HETATM   30  C   UNL     1     -10.774   7.397  71.898  1.00  0.00    -0.247 C  
HETATM   31  C   UNL     1     -11.427   8.760  71.903  1.00  0.00    -0.358 C  
HETATM   32  O   UNL     1     -10.757   9.705  71.207  1.00  0.00    -0.335 OA 
HETATM   33  O   UNL     1     -12.512   8.978  72.423  1.00  0.00    -0.361 OA 
ENDBRANCH  27  30
ENDBRANCH  26  27
ENDBRANCH  23  26
ENDBRANCH  22  23
ENDBRANCH  21  22
ENDBRANCH   7  21
TORSDOF 8
ENDMDL
MODEL      255
REMARK 921   NORMALIZED FREE ENERGY PREDICTED BY IDOCK:   -3.42 KCAL/MOL
REMARK 922        TOTAL FREE ENERGY PREDICTED BY IDOCK:   -6.48 KCAL/MOL
REMARK 923 INTER-LIGAND FREE ENERGY PREDICTED BY IDOCK:   -4.50 KCAL/MOL
REMARK 924 INTRA-LIGAND FREE ENERGY PREDICTED BY IDOCK:   -1.98 KCAL/MOL
REMARK 927      BINDING AFFINITY PREDICTED BY RF-SCORE:    0.00 PKD
ROOT
HETATM    1  C   UNL     1      -7.422   8.517  69.375  1.00  0.00    -0.088 C  
HETATM    2  C   UNL     1      -7.974   9.606  68.375  1.00  0.00    -0.096 C  
HETATM    3  C   UNL     1      -6.925   9.158  70.677  1.00  0.00    -0.090 C  
HETATM    4  C   UNL     1      -7.857  11.086  68.804  1.00  0.00    -0.138 C  
HETATM    5  C   UNL     1      -6.603  11.386  69.602  1.00  0.00    -0.128 C  
HETATM    6  C   UNL     1      -6.704   5.327  70.373  1.00  0.00    -0.043 C  
HETATM    7  C   UNL     1      -8.315   7.239  69.587  1.00  0.00    -0.132 C  
HETATM    8  C   UNL     1      -6.482  10.430  70.738  1.00  0.00     0.039 C  
HETATM    9  O   UNL     1      -5.456  11.325  68.772  1.00  0.00    -0.044 OA 
HETATM   10  C   UNL     1      -7.797   6.333  70.757  1.00  0.00    -0.106 C  
HETATM   11  C   UNL     1      -7.312   7.106  71.942  1.00  0.00    -0.081 C  
HETATM   12  H   UNL     1      -4.670  11.513  69.271  1.00  0.00     0.000 HD 
HETATM   13  C   UNL     1      -6.910   8.374  71.892  1.00  0.00    -0.092 C  
ENDROOT
BRANCH   2  14
HETATM   14  O   UNL     1      -9.291   9.362  67.823  1.00  0.00    -0.129 OA 
BRANCH  14  15
HETATM   15  C   UNL     1      -9.457   9.164  66.485  1.00  0.00    -0.208 C  
HETATM   16  C   UNL     1      -7.898   9.855  64.678  1.00  0.00    -0.142 C  
HETATM   17  C   UNL     1     -10.027  11.147  65.068  1.00  0.00    -0.325 C  
HETATM   18  O   UNL     1      -9.997   8.195  65.967  1.00  0.00    -0.058 OA 
HETATM   19  C   UNL     1      -8.894  10.349  65.724  1.00  0.00    -0.186 C  
HETATM   20  C   UNL     1     -10.937  11.821  66.085  1.00  0.00    -0.355 C  
ENDBRANCH  14  15
ENDBRANCH   2  14
BRANCH   7  21
HETATM   21  C   UNL     1      -8.575   6.389  68.295  1.00  0.00    -0.114 C  
BRANCH  21  22
HETATM   22  C   UNL     1     -10.043   5.911  68.260  1.00  0.00    -0.203 C  
BRANCH  22  23
HETATM   23  C   UNL     1     -10.485   4.996  67.110  1.00  0.00    -0.117 C  
HETATM   24  O   UNL     1     -11.359   5.686  66.215  1.00  0.00    -0.734 OA 
HETATM   25  H   UNL     1     -11.632   5.120  65.502  1.00  0.00     0.000 HD 
BRANCH  23  26
HETATM   26  C   UNL     1      -9.223   4.591  66.314  1.00  0.00    -0.137 C  
BRANCH  26  27
HETATM   27  C   UNL     1      -9.158   5.146  64.885  1.00  0.00    -0.035 C  
HETATM   28  O   UNL     1      -8.055   6.054  64.739  1.00  0.00    -0.125 OA 
HETATM   29  H   UNL     1      -8.015   6.398  63.855  1.00  0.00     0.000 HD 
BRANCH  27  30
HETATM   30  C   UNL     1      -8.941   4.012  63.878  1.00  0.00    -0.125 C  
HETATM   31  C   UNL     1     -10.122   3.075  63.776  1.00  0.00    -0.173 C  
HETATM   32  O   UNL     1     -11.328   3.682  63.833  1.00  0.00    -0.222 OA 
HETATM   33  O   UNL     1     -10.004   1.874  63.577  1.00  0.00    -0.119 OA 
ENDBRANCH  27  30
ENDBRANCH  26  27
ENDBRANCH  23  26
ENDBRANCH  22  23
ENDBRANCH  21  22
ENDBRANCH   7  21
TORSDOF 8
ENDMDL
MODEL      256
REMARK 921   NORMALIZED FREE ENERGY PREDICTED BY IDOCK:   -3.37 KCAL/MOL
REMARK 922        TOTAL FREE ENERGY PREDICTED BY IDOCK:   -6.40 KCAL/MOL
REMARK 923 INTER-LIGAND FREE ENERGY PREDICTED BY IDOCK:   -6.16 KCAL/MOL
REMARK 924 INTRA-LIGAND FREE ENERGY PREDICTED BY IDOCK:   -0.24 KCAL/MOL
REMARK 927      BINDING AFFINITY PREDICTED BY RF-SCORE:    0.00 PKD
ROOT
HETATM    1  C   UNL     1      -6.665  16.777  66.989  1.00  0.00    -0.241 C  
HETATM    2  C   UNL     1      -7.557  17.249  65.775  1.00  0.00     0.205 C  
HETATM    3  C   UNL     1      -5.865  17.945  67.579  1.00  0.00    -0.158 C  
HETATM    4  C   UNL     1      -7.430  18.724  65.335  1.00  0.00     0.322 C  
HETATM    5  C   UNL     1      -6.026  19.279  65.476  1.00  0.00    -0.200 C  
HETATM    6  C   UNL     1      -5.463  14.491  69.228  1.00  0.00    -0.091 C  
HETATM    7  C   UNL     1      -7.365  15.869  68.065  1.00  0.00    -0.140 C  
HETATM    8  C   UNL     1      -5.517  19.027  66.854  1.00  0.00    -0.156 C  
HETATM    9  O   UNL     1      -5.162  18.704  64.511  1.00  0.00    -0.180 OA 
HETATM   10  C   UNL     1      -6.471  15.643  69.334  1.00  0.00    -0.156 C  
HETATM   11  C   UNL     1      -5.725  16.866  69.764  1.00  0.00    -0.210 C  
HETATM   12  H   UNL     1      -4.282  19.051  64.599  1.00  0.00     0.000 HD 
HETATM   13  C   UNL     1      -5.447  17.891  68.962  1.00  0.00    -0.188 C  
ENDROOT
BRANCH   2  14
HETATM   14  O   UNL     1      -8.956  16.873  65.823  1.00  0.00    -0.524 OA 
BRANCH  14  15
HETATM   15  C   UNL     1      -9.925  17.821  65.972  1.00  0.00    -0.209 C  
HETATM   16  C   UNL     1      -9.620  20.133  66.828  1.00  0.00    -0.559 C  
HETATM   17  C   UNL     1     -10.675  18.376  68.294  1.00  0.00    -0.124 C  
HETATM   18  O   UNL     1     -10.896  17.970  65.243  1.00  0.00    -0.627 OA 
HETATM   19  C   UNL     1      -9.633  18.654  67.205  1.00  0.00    -0.315 C  
HETATM   20  C   UNL     1     -10.593  16.956  68.838  1.00  0.00    -0.353 C  
ENDBRANCH  14  15
ENDBRANCH   2  14
BRANCH   7  21
HETATM   21  C   UNL     1      -7.921  14.505  67.524  1.00  0.00    -0.208 C  
BRANCH  21  22
HETATM   22  C   UNL     1      -9.463  14.552  67.448  1.00  0.00    -0.202 C  
BRANCH  22  23
HETATM   23  C   UNL     1     -10.180  13.531  66.555  1.00  0.00    -0.283 C  
HETATM   24  O   UNL     1     -10.395  14.059  65.245  1.00  0.00    -0.342 OA 
HETATM   25  H   UNL     1     -10.839  13.427  64.692  1.00  0.00     0.000 HD 
BRANCH  23  26
HETATM   26  C   UNL     1      -9.264  12.294  66.417  1.00  0.00    -0.203 C  
BRANCH  26  27
HETATM   27  C   UNL     1      -9.986  10.944  66.509  1.00  0.00    -0.211 C  
HETATM   28  O   UNL     1     -10.762  10.697  65.327  1.00  0.00    -0.179 OA 
HETATM   29  H   UNL     1     -11.209   9.861  65.385  1.00  0.00     0.000 HD 
BRANCH  27  30
HETATM   30  C   UNL     1      -8.974   9.800  66.629  1.00  0.00    -0.161 C  
HETATM   31  C   UNL     1      -9.159   8.971  67.878  1.00  0.00    -0.135 C  
HETATM   32  O   UNL     1     -10.448   8.746  68.216  1.00  0.00    -0.215 OA 
HETATM   33  O   UNL     1      -8.226   8.473  68.492  1.00  0.00    -0.120 OA 
ENDBRANCH  27  30
ENDBRANCH  26  27
ENDBRANCH  23  26
ENDBRANCH  22  23
ENDBRANCH  21  22
ENDBRANCH   7  21
TORSDOF 8
ENDMDL
MODEL      257
REMARK 921   NORMALIZED FREE ENERGY PREDICTED BY IDOCK:   -3.30 KCAL/MOL
REMARK 922        TOTAL FREE ENERGY PREDICTED BY IDOCK:   -6.30 KCAL/MOL
REMARK 923 INTER-LIGAND FREE ENERGY PREDICTED BY IDOCK:   -5.00 KCAL/MOL
REMARK 924 INTRA-LIGAND FREE ENERGY PREDICTED BY IDOCK:   -1.30 KCAL/MOL
REMARK 927      BINDING AFFINITY PREDICTED BY RF-SCORE:    0.00 PKD
ROOT
HETATM    1  C   UNL     1      -8.712   7.066  69.694  1.00  0.00    -0.141 C  
HETATM    2  C   UNL     1      -9.236   5.693  69.121  1.00  0.00    -0.115 C  
HETATM    3  C   UNL     1      -9.373   7.398  71.038  1.00  0.00    -0.157 C  
HETATM    4  C   UNL     1     -10.342   4.968  69.919  1.00  0.00    -0.298 C  
HETATM    5  C   UNL     1     -11.326   5.912  70.582  1.00  0.00    -0.136 C  
HETATM    6  C   UNL     1      -6.776   9.884  69.665  1.00  0.00    -0.061 C  
HETATM    7  C   UNL     1      -7.155   7.291  69.672  1.00  0.00    -0.073 C  
HETATM    8  C   UNL     1     -10.591   6.932  71.383  1.00  0.00    -0.242 C  
HETATM    9  O   UNL     1     -12.151   6.536  69.614  1.00  0.00    -0.545 OA 
HETATM   10  C   UNL     1      -6.722   8.575  70.462  1.00  0.00    -0.038 C  
HETATM   11  C   UNL     1      -7.484   8.779  71.733  1.00  0.00    -0.080 C  
HETATM   12  H   UNL     1     -12.767   7.128  70.029  1.00  0.00     0.000 HD 
HETATM   13  C   UNL     1      -8.683   8.255  71.976  1.00  0.00    -0.243 C  
ENDROOT
BRANCH   2  14
HETATM   14  O   UNL     1      -8.223   4.739  68.716  1.00  0.00    -0.082 OA 
BRANCH  14  15
HETATM   15  C   UNL     1      -8.568   3.601  68.049  1.00  0.00    -0.098 C  
HETATM   16  C   UNL     1      -7.395   2.611  66.095  1.00  0.00    -0.067 C  
HETATM   17  C   UNL     1      -9.575   3.835  65.771  1.00  0.00    -0.165 C  
HETATM   18  O   UNL     1      -9.064   2.600  68.553  1.00  0.00    -0.127 OA 
HETATM   19  C   UNL     1      -8.270   3.768  66.572  1.00  0.00    -0.100 C  
HETATM   20  C   UNL     1     -10.391   5.082  66.078  1.00  0.00    -0.276 C  
ENDBRANCH  14  15
ENDBRANCH   2  14
BRANCH   7  21
HETATM   21  C   UNL     1      -6.501   7.266  68.246  1.00  0.00    -0.045 C  
BRANCH  21  22
HETATM   22  C   UNL     1      -7.549   7.632  67.173  1.00  0.00    -0.104 C  
BRANCH  22  23
HETATM   23  C   UNL     1      -7.288   8.858  66.287  1.00  0.00    -0.087 C  
HETATM   24  O   UNL     1      -6.453   8.520  65.179  1.00  0.00    -0.062 OA 
HETATM   25  H   UNL     1      -6.292   9.279  64.631  1.00  0.00     0.000 HD 
BRANCH  23  26
HETATM   26  C   UNL     1      -8.647   9.333  65.722  1.00  0.00    -0.169 C  
BRANCH  26  27
HETATM   27  C   UNL     1      -9.120  10.696  66.243  1.00  0.00    -0.167 C  
HETATM   28  O   UNL     1      -9.338  11.610  65.158  1.00  0.00    -0.363 OA 
HETATM   29  H   UNL     1      -9.631  12.454  65.481  1.00  0.00     0.000 HD 
BRANCH  27  30
HETATM   30  C   UNL     1     -10.452  10.554  66.986  1.00  0.00    -0.304 C  
HETATM   31  C   UNL     1     -10.672  11.631  68.023  1.00  0.00    -0.208 C  
HETATM   32  O   UNL     1     -10.253  12.861  67.652  1.00  0.00    -0.214 OA 
HETATM   33  O   UNL     1     -11.252  11.429  69.080  1.00  0.00    -0.231 OA 
ENDBRANCH  27  30
ENDBRANCH  26  27
ENDBRANCH  23  26
ENDBRANCH  22  23
ENDBRANCH  21  22
ENDBRANCH   7  21
TORSDOF 8
ENDMDL
MODEL      258
REMARK 921   NORMALIZED FREE ENERGY PREDICTED BY IDOCK:   -3.28 KCAL/MOL
REMARK 922        TOTAL FREE ENERGY PREDICTED BY IDOCK:   -6.27 KCAL/MOL
REMARK 923 INTER-LIGAND FREE ENERGY PREDICTED BY IDOCK:   -4.89 KCAL/MOL
REMARK 924 INTRA-LIGAND FREE ENERGY PREDICTED BY IDOCK:   -1.37 KCAL/MOL
REMARK 927      BINDING AFFINITY PREDICTED BY RF-SCORE:    0.00 PKD
ROOT
HETATM    1  C   UNL     1      -7.120  10.883  68.769  1.00  0.00    -0.083 C  
HETATM    2  C   UNL     1      -7.467   9.500  68.096  1.00  0.00    -0.079 C  
HETATM    3  C   UNL     1      -5.957  10.744  69.760  1.00  0.00    -0.071 C  
HETATM    4  C   UNL     1      -6.680   8.261  68.575  1.00  0.00    -0.063 C  
HETATM    5  C   UNL     1      -6.339   8.296  70.052  1.00  0.00    -0.035 C  
HETATM    6  C   UNL     1      -7.477  14.246  69.271  1.00  0.00    -0.022 C  
HETATM    7  C   UNL     1      -7.001  12.124  67.809  1.00  0.00    -0.109 C  
HETATM    8  C   UNL     1      -5.675   9.586  70.390  1.00  0.00    -0.045 C  
HETATM    9  O   UNL     1      -7.504   8.111  70.838  1.00  0.00    -0.056 OA 
HETATM   10  C   UNL     1      -6.435  13.394  68.536  1.00  0.00    -0.086 C  
HETATM   11  C   UNL     1      -5.330  13.089  69.498  1.00  0.00    -0.079 C  
HETATM   12  H   UNL     1      -7.291   8.133  71.763  1.00  0.00     0.000 HD 
HETATM   13  C   UNL     1      -5.133  11.895  70.053  1.00  0.00    -0.076 C  
ENDROOT
BRANCH   2  14
HETATM   14  O   UNL     1      -7.551   9.494  66.649  1.00  0.00    -0.096 OA 
BRANCH  14  15
HETATM   15  C   UNL     1      -7.828   8.342  65.974  1.00  0.00    -0.098 C  
HETATM   16  C   UNL     1      -6.195   6.606  65.270  1.00  0.00    -0.038 C  
HETATM   17  C   UNL     1      -7.153   8.200  63.568  1.00  0.00    -0.086 C  
HETATM   18  O   UNL     1      -8.843   7.669  66.096  1.00  0.00    -0.155 OA 
HETATM   19  C   UNL     1      -6.692   8.028  65.020  1.00  0.00    -0.051 C  
HETATM   20  C   UNL     1      -7.475   9.647  63.221  1.00  0.00    -0.116 C  
ENDBRANCH  14  15
ENDBRANCH   2  14
BRANCH   7  21
HETATM   21  C   UNL     1      -8.304  12.473  67.010  1.00  0.00    -0.144 C  
BRANCH  21  22
HETATM   22  C   UNL     1      -9.550  12.007  67.794  1.00  0.00    -0.193 C  
BRANCH  22  23
HETATM   23  C   UNL     1     -10.898  12.672  67.484  1.00  0.00    -0.239 C  
HETATM   24  O   UNL     1     -10.711  13.992  66.970  1.00  0.00    -0.281 OA 
HETATM   25  H   UNL     1     -11.546  14.403  66.778  1.00  0.00     0.000 HD 
BRANCH  23  26
HETATM   26  C   UNL     1     -11.600  11.838  66.388  1.00  0.00    -0.237 C  
BRANCH  26  27
HETATM   27  C   UNL     1     -10.698  11.424  65.218  1.00  0.00    -0.265 C  
HETATM   28  O   UNL     1     -10.493  10.003  65.208  1.00  0.00    -0.139 OA 
HETATM   29  H   UNL     1      -9.935   9.747  64.483  1.00  0.00     0.000 HD 
BRANCH  27  30
HETATM   30  C   UNL     1     -11.350  11.792  63.882  1.00  0.00    -0.494 C  
HETATM   31  C   UNL     1     -11.604  13.274  63.733  1.00  0.00    -0.375 C  
HETATM   32  O   UNL     1     -10.625  14.064  64.226  1.00  0.00    -0.290 OA 
HETATM   33  O   UNL     1     -12.575  13.728  63.144  1.00  0.00    -0.793 OA 
ENDBRANCH  27  30
ENDBRANCH  26  27
ENDBRANCH  23  26
ENDBRANCH  22  23
ENDBRANCH  21  22
ENDBRANCH   7  21
TORSDOF 8
ENDMDL
MODEL      259
REMARK 921   NORMALIZED FREE ENERGY PREDICTED BY IDOCK:   -3.27 KCAL/MOL
REMARK 922        TOTAL FREE ENERGY PREDICTED BY IDOCK:   -6.26 KCAL/MOL
REMARK 923 INTER-LIGAND FREE ENERGY PREDICTED BY IDOCK:   -6.13 KCAL/MOL
REMARK 924 INTRA-LIGAND FREE ENERGY PREDICTED BY IDOCK:   -0.14 KCAL/MOL
REMARK 927      BINDING AFFINITY PREDICTED BY RF-SCORE:    0.00 PKD
ROOT
HETATM    1  C   UNL     1      -8.149   4.712  67.704  1.00  0.00    -0.100 C  
HETATM    2  C   UNL     1      -7.978   6.154  67.086  1.00  0.00    -0.102 C  
HETATM    3  C   UNL     1      -7.642   3.630  66.742  1.00  0.00    -0.080 C  
HETATM    4  C   UNL     1      -7.432   6.246  65.644  1.00  0.00    -0.082 C  
HETATM    5  C   UNL     1      -7.892   5.111  64.750  1.00  0.00    -0.094 C  
HETATM    6  C   UNL     1      -9.018   2.487  70.150  1.00  0.00    -0.160 C  
HETATM    7  C   UNL     1      -7.674   4.523  69.192  1.00  0.00    -0.059 C  
HETATM    8  C   UNL     1      -7.613   3.803  65.405  1.00  0.00    -0.081 C  
HETATM    9  O   UNL     1      -9.272   5.238  64.452  1.00  0.00    -0.362 OA 
HETATM   10  C   UNL     1      -7.674   3.018  69.636  1.00  0.00    -0.045 C  
HETATM   11  C   UNL     1      -7.187   2.083  68.575  1.00  0.00    -0.043 C  
HETATM   12  H   UNL     1      -9.561   4.527  63.892  1.00  0.00     0.000 HD 
HETATM   13  C   UNL     1      -7.189   2.364  67.274  1.00  0.00    -0.056 C  
ENDROOT
BRANCH   2  14
HETATM   14  O   UNL     1      -7.316   7.135  67.922  1.00  0.00    -0.091 OA 
BRANCH  14  15
HETATM   15  C   UNL     1      -7.303   8.452  67.568  1.00  0.00    -0.093 C  
HETATM   16  C   UNL     1      -7.926  10.381  69.005  1.00  0.00    -0.131 C  
HETATM   17  C   UNL     1      -9.500   9.592  67.202  1.00  0.00    -0.187 C  
HETATM   18  O   UNL     1      -6.502   8.979  66.808  1.00  0.00    -0.062 OA 
HETATM   19  C   UNL     1      -8.456   9.170  68.242  1.00  0.00    -0.125 C  
HETATM   20  C   UNL     1     -10.196   8.404  66.552  1.00  0.00    -0.277 C  
ENDBRANCH  14  15
ENDBRANCH   2  14
BRANCH   7  21
HETATM   21  C   UNL     1      -8.418   5.415  70.246  1.00  0.00    -0.119 C  
BRANCH  21  22
HETATM   22  C   UNL     1      -9.941   5.382  69.991  1.00  0.00    -0.303 C  
BRANCH  22  23
HETATM   23  C   UNL     1     -10.663   6.707  69.712  1.00  0.00    -0.257 C  
HETATM   24  O   UNL     1     -12.028   6.481  69.359  1.00  0.00    -0.568 OA 
HETATM   25  H   UNL     1     -12.475   7.301  69.187  1.00  0.00     0.000 HD 
BRANCH  23  26
HETATM   26  C   UNL     1     -10.647   7.540  71.015  1.00  0.00    -0.230 C  
BRANCH  26  27
HETATM   27  C   UNL     1     -11.915   7.420  71.871  1.00  0.00    -0.302 C  
HETATM   28  O   UNL     1     -11.621   7.659  73.255  1.00  0.00    -0.643 OA 
HETATM   29  H   UNL     1     -12.405   7.585  73.785  1.00  0.00     0.000 HD 
BRANCH  27  30
HETATM   30  C   UNL     1     -12.951   8.465  71.445  1.00  0.00    -0.248 C  
HETATM   31  C   UNL     1     -12.468   9.886  71.618  1.00  0.00    -0.415 C  
HETATM   32  O   UNL     1     -11.169  10.080  71.299  1.00  0.00    -0.341 OA 
HETATM   33  O   UNL     1     -13.206  10.806  71.943  1.00  0.00    -0.469 OA 
ENDBRANCH  27  30
ENDBRANCH  26  27
ENDBRANCH  23  26
ENDBRANCH  22  23
ENDBRANCH  21  22
ENDBRANCH   7  21
TORSDOF 8
ENDMDL
MODEL      260
REMARK 921   NORMALIZED FREE ENERGY PREDICTED BY IDOCK:   -3.24 KCAL/MOL
REMARK 922        TOTAL FREE ENERGY PREDICTED BY IDOCK:   -6.21 KCAL/MOL
REMARK 923 INTER-LIGAND FREE ENERGY PREDICTED BY IDOCK:   -4.20 KCAL/MOL
REMARK 924 INTRA-LIGAND FREE ENERGY PREDICTED BY IDOCK:   -2.01 KCAL/MOL
REMARK 927      BINDING AFFINITY PREDICTED BY RF-SCORE:    0.00 PKD
ROOT
HETATM    1  C   UNL     1      -6.706   7.749  69.585  1.00  0.00    -0.039 C  
HETATM    2  C   UNL     1      -7.687   8.843  69.011  1.00  0.00    -0.090 C  
HETATM    3  C   UNL     1      -5.956   8.267  70.819  1.00  0.00    -0.032 C  
HETATM    4  C   UNL     1      -7.680  10.229  69.692  1.00  0.00    -0.166 C  
HETATM    5  C   UNL     1      -6.311  10.654  70.185  1.00  0.00    -0.139 C  
HETATM    6  C   UNL     1      -5.244   4.660  69.679  1.00  0.00     0.000 C  
HETATM    7  C   UNL     1      -7.289   6.297  69.750  1.00  0.00    -0.079 C  
HETATM    8  C   UNL     1      -5.717   9.578  71.027  1.00  0.00    -0.065 C  
HETATM    9  O   UNL     1      -5.461  10.961  69.093  1.00  0.00    -0.041 OA 
HETATM   10  C   UNL     1      -6.318   5.345  70.533  1.00  0.00    -0.027 C  
HETATM   11  C   UNL     1      -5.634   6.008  71.687  1.00  0.00    -0.022 C  
HETATM   12  H   UNL     1      -4.603  11.228  69.401  1.00  0.00     0.000 HD 
HETATM   13  C   UNL     1      -5.465   7.323  71.799  1.00  0.00    -0.036 C  
ENDROOT
BRANCH   2  14
HETATM   14  O   UNL     1      -9.054   8.420  68.778  1.00  0.00    -0.143 OA 
BRANCH  14  15
HETATM   15  C   UNL     1     -10.060   8.846  69.594  1.00  0.00    -0.200 C  
HETATM   16  C   UNL     1     -10.072   8.809  72.079  1.00  0.00    -0.397 C  
HETATM   17  C   UNL     1     -11.416   7.113  70.786  1.00  0.00    -0.342 C  
HETATM   18  O   UNL     1     -10.808   9.789  69.373  1.00  0.00    -0.226 OA 
HETATM   19  C   UNL     1     -10.134   7.952  70.817  1.00  0.00    -0.201 C  
HETATM   20  C   UNL     1     -11.432   6.103  69.647  1.00  0.00    -0.332 C  
ENDBRANCH  14  15
ENDBRANCH   2  14
BRANCH   7  21
HETATM   21  C   UNL     1      -7.780   5.623  68.422  1.00  0.00    -0.092 C  
BRANCH  21  22
HETATM   22  C   UNL     1      -8.625   4.370  68.741  1.00  0.00    -0.102 C  
BRANCH  22  23
HETATM   23  C   UNL     1      -8.933   3.389  67.603  1.00  0.00    -0.146 C  
HETATM   24  O   UNL     1      -9.737   2.303  68.066  1.00  0.00    -0.337 OA 
HETATM   25  H   UNL     1      -9.928   1.696  67.361  1.00  0.00     0.000 HD 
BRANCH  23  26
HETATM   26  C   UNL     1      -9.745   4.148  66.528  1.00  0.00    -0.228 C  
BRANCH  26  27
HETATM   27  C   UNL     1      -9.194   4.027  65.101  1.00  0.00    -0.151 C  
HETATM   28  O   UNL     1      -9.487   5.208  64.339  1.00  0.00    -0.356 OA 
HETATM   29  H   UNL     1      -9.147   5.133  63.455  1.00  0.00     0.000 HD 
BRANCH  27  30
HETATM   30  C   UNL     1      -7.670   3.875  65.124  1.00  0.00    -0.082 C  
HETATM   31  C   UNL     1      -7.151   2.938  64.058  1.00  0.00    -0.045 C  
HETATM   32  O   UNL     1      -7.784   3.036  62.868  1.00  0.00    -0.063 OA 
HETATM   33  O   UNL     1      -6.185   2.207  64.226  1.00  0.00    -0.017 OA 
ENDBRANCH  27  30
ENDBRANCH  26  27
ENDBRANCH  23  26
ENDBRANCH  22  23
ENDBRANCH  21  22
ENDBRANCH   7  21
TORSDOF 8
ENDMDL
MODEL      261
REMARK 921   NORMALIZED FREE ENERGY PREDICTED BY IDOCK:   -3.22 KCAL/MOL
REMARK 922        TOTAL FREE ENERGY PREDICTED BY IDOCK:   -6.19 KCAL/MOL
REMARK 923 INTER-LIGAND FREE ENERGY PREDICTED BY IDOCK:   -5.70 KCAL/MOL
REMARK 924 INTRA-LIGAND FREE ENERGY PREDICTED BY IDOCK:   -0.48 KCAL/MOL
REMARK 927      BINDING AFFINITY PREDICTED BY RF-SCORE:    0.00 PKD
ROOT
HETATM    1  C   UNL     1      -9.492  16.178  66.602  1.00  0.00    -0.269 C  
HETATM    2  C   UNL     1      -8.013  16.540  67.015  1.00  0.00    -0.203 C  
HETATM    3  C   UNL     1     -10.158  17.334  65.846  1.00  0.00    -0.226 C  
HETATM    4  C   UNL     1      -7.515  17.965  66.687  1.00  0.00    -0.262 C  
HETATM    5  C   UNL     1      -8.593  19.024  66.805  1.00  0.00    -0.304 C  
HETATM    6  C   UNL     1     -12.216  14.125  66.375  1.00  0.00    -0.473 C  
HETATM    7  C   UNL     1      -9.713  14.767  65.942  1.00  0.00    -0.355 C  
HETATM    8  C   UNL     1      -9.791  18.621  66.017  1.00  0.00    -0.203 C  
HETATM    9  O   UNL     1      -8.937  19.238  68.163  1.00  0.00    -0.303 OA 
HETATM   10  C   UNL     1     -11.161  14.594  65.366  1.00  0.00    -0.347 C  
HETATM   11  C   UNL     1     -11.685  15.821  64.690  1.00  0.00    -0.147 C  
HETATM   12  H   UNL     1      -9.613  19.902  68.238  1.00  0.00     0.000 HD 
HETATM   13  C   UNL     1     -11.235  17.052  64.924  1.00  0.00     0.259 C  
ENDROOT
BRANCH   2  14
HETATM   14  O   UNL     1      -6.992  15.574  66.662  1.00  0.00    -0.072 OA 
BRANCH  14  15
HETATM   15  C   UNL     1      -6.258  14.955  67.629  1.00  0.00    -0.100 C  
HETATM   16  C   UNL     1      -7.128  13.551  69.484  1.00  0.00     0.193 C  
HETATM   17  C   UNL     1      -6.333  15.898  69.945  1.00  0.00    -0.138 C  
HETATM   18  O   UNL     1      -5.141  14.475  67.480  1.00  0.00    -0.326 OA 
HETATM   19  C   UNL     1      -7.023  14.972  68.937  1.00  0.00    -0.114 C  
HETATM   20  C   UNL     1      -6.378  17.361  69.527  1.00  0.00    -0.233 C  
ENDBRANCH  14  15
ENDBRANCH   2  14
BRANCH   7  21
HETATM   21  C   UNL     1      -9.320  13.544  66.842  1.00  0.00    -0.255 C  
BRANCH  21  22
HETATM   22  C   UNL     1      -9.554  12.223  66.076  1.00  0.00    -0.230 C  
BRANCH  22  23
HETATM   23  C   UNL     1      -9.393  10.900  66.837  1.00  0.00    -0.168 C  
HETATM   24  O   UNL     1     -10.656  10.258  67.019  1.00  0.00    -0.248 OA 
HETATM   25  H   UNL     1     -10.556   9.439  67.490  1.00  0.00     0.000 HD 
BRANCH  23  26
HETATM   26  C   UNL     1      -8.510   9.964  65.981  1.00  0.00    -0.135 C  
BRANCH  26  27
HETATM   27  C   UNL     1      -7.671  10.671  64.909  1.00  0.00     0.067 C  
HETATM   28  O   UNL     1      -6.396  11.066  65.437  1.00  0.00    -0.370 OA 
HETATM   29  H   UNL     1      -5.877  11.504  64.773  1.00  0.00     0.000 HD 
BRANCH  27  30
HETATM   30  C   UNL     1      -7.399   9.730  63.732  1.00  0.00    -0.129 C  
HETATM   31  C   UNL     1      -8.623   9.463  62.889  1.00  0.00    -0.222 C  
HETATM   32  O   UNL     1      -9.420  10.538  62.700  1.00  0.00    -0.290 OA 
HETATM   33  O   UNL     1      -8.841   8.386  62.351  1.00  0.00    -0.099 OA 
ENDBRANCH  27  30
ENDBRANCH  26  27
ENDBRANCH  23  26
ENDBRANCH  22  23
ENDBRANCH  21  22
ENDBRANCH   7  21
TORSDOF 8
ENDMDL
MODEL      262
REMARK 921   NORMALIZED FREE ENERGY PREDICTED BY IDOCK:   -3.21 KCAL/MOL
REMARK 922        TOTAL FREE ENERGY PREDICTED BY IDOCK:   -6.16 KCAL/MOL
REMARK 923 INTER-LIGAND FREE ENERGY PREDICTED BY IDOCK:   -6.11 KCAL/MOL
REMARK 924 INTRA-LIGAND FREE ENERGY PREDICTED BY IDOCK:   -0.05 KCAL/MOL
REMARK 927      BINDING AFFINITY PREDICTED BY RF-SCORE:    0.00 PKD
ROOT
HETATM    1  C   UNL     1      -9.532  12.642  65.443  1.00  0.00     0.126 C  
HETATM    2  C   UNL     1      -8.370  11.809  66.111  1.00  0.00     0.102 C  
HETATM    3  C   UNL     1     -10.590  11.721  64.820  1.00  0.00    -0.351 C  
HETATM    4  C   UNL     1      -8.428  10.272  65.969  1.00  0.00    -0.144 C  
HETATM    5  C   UNL     1      -8.998   9.808  64.643  1.00  0.00    -0.230 C  
HETATM    6  C   UNL     1     -11.164  15.520  64.582  1.00  0.00    -0.381 C  
HETATM    7  C   UNL     1     -10.128  13.825  66.291  1.00  0.00    -0.304 C  
HETATM    8  C   UNL     1     -10.306  10.475  64.390  1.00  0.00    -0.244 C  
HETATM    9  O   UNL     1      -8.088  10.074  63.589  1.00  0.00    -0.144 OA 
HETATM   10  C   UNL     1     -11.416  14.440  65.641  1.00  0.00    -0.336 C  
HETATM   11  C   UNL     1     -12.331  13.417  65.045  1.00  0.00    -0.481 C  
HETATM   12  H   UNL     1      -8.445   9.784  62.757  1.00  0.00     0.000 HD 
HETATM   13  C   UNL     1     -11.945  12.200  64.667  1.00  0.00    -0.398 C  
ENDROOT
BRANCH   2  14
HETATM   14  O   UNL     1      -8.032  12.160  67.476  1.00  0.00    -0.142 OA 
BRANCH  14  15
HETATM   15  C   UNL     1      -6.777  11.938  67.959  1.00  0.00    -0.070 C  
HETATM   16  C   UNL     1      -6.176  10.624  69.981  1.00  0.00    -0.111 C  
HETATM   17  C   UNL     1      -6.091  13.142  70.043  1.00  0.00    -0.113 C  
HETATM   18  O   UNL     1      -5.766  11.798  67.284  1.00  0.00    -0.086 OA 
HETATM   19  C   UNL     1      -6.814  11.916  69.475  1.00  0.00    -0.004 C  
HETATM   20  C   UNL     1      -6.806  14.448  69.722  1.00  0.00    -0.095 C  
ENDBRANCH  14  15
ENDBRANCH   2  14
BRANCH   7  21
HETATM   21  C   UNL     1      -9.105  14.950  66.674  1.00  0.00    -0.309 C  
BRANCH  21  22
HETATM   22  C   UNL     1      -9.373  15.445  68.112  1.00  0.00    -0.197 C  
BRANCH  22  23
HETATM   23  C   UNL     1     -10.195  16.727  68.301  1.00  0.00    -0.295 C  
HETATM   24  O   UNL     1     -11.470  16.615  67.667  1.00  0.00     0.008 OA 
HETATM   25  H   UNL     1     -11.979  17.408  67.784  1.00  0.00     0.000 HD 
BRANCH  23  26
HETATM   26  C   UNL     1     -10.440  16.916  69.816  1.00  0.00    -0.078 C  
BRANCH  26  27
HETATM   27  C   UNL     1     -11.600  16.091  70.388  1.00  0.00    -0.348 C  
HETATM   28  O   UNL     1     -12.641  15.927  69.414  1.00  0.00    -0.454 OA 
HETATM   29  H   UNL     1     -13.359  15.417  69.769  1.00  0.00     0.000 HD 
BRANCH  27  30
HETATM   30  C   UNL     1     -11.122  14.688  70.774  1.00  0.00     0.012 C  
HETATM   31  C   UNL     1     -11.928  13.586  70.126  1.00  0.00    -0.329 C  
HETATM   32  O   UNL     1     -12.286  13.830  68.846  1.00  0.00    -0.344 OA 
HETATM   33  O   UNL     1     -12.173  12.525  70.682  1.00  0.00    -0.369 OA 
ENDBRANCH  27  30
ENDBRANCH  26  27
ENDBRANCH  23  26
ENDBRANCH  22  23
ENDBRANCH  21  22
ENDBRANCH   7  21
TORSDOF 8
ENDMDL
MODEL      263
REMARK 921   NORMALIZED FREE ENERGY PREDICTED BY IDOCK:   -3.16 KCAL/MOL
REMARK 922        TOTAL FREE ENERGY PREDICTED BY IDOCK:   -6.09 KCAL/MOL
REMARK 923 INTER-LIGAND FREE ENERGY PREDICTED BY IDOCK:   -6.03 KCAL/MOL
REMARK 924 INTRA-LIGAND FREE ENERGY PREDICTED BY IDOCK:   -0.06 KCAL/MOL
REMARK 927      BINDING AFFINITY PREDICTED BY RF-SCORE:    0.00 PKD
ROOT
HETATM    1  C   UNL     1      -7.329  16.186  67.961  1.00  0.00    -0.138 C  
HETATM    2  C   UNL     1      -7.658  17.725  67.854  1.00  0.00    -0.212 C  
HETATM    3  C   UNL     1      -5.866  15.902  67.597  1.00  0.00    -0.171 C  
HETATM    4  C   UNL     1      -6.536  18.655  67.342  1.00  0.00    -0.199 C  
HETATM    5  C   UNL     1      -5.655  18.016  66.287  1.00  0.00    -0.180 C  
HETATM    6  C   UNL     1      -8.058  12.915  68.636  1.00  0.00    -0.007 C  
HETATM    7  C   UNL     1      -7.821  15.449  69.261  1.00  0.00    -0.225 C  
HETATM    8  C   UNL     1      -5.155  16.699  66.772  1.00  0.00     0.006 C  
HETATM    9  O   UNL     1      -6.364  17.865  65.070  1.00  0.00    -0.111 OA 
HETATM   10  C   UNL     1      -7.254  13.991  69.376  1.00  0.00     0.030 C  
HETATM   11  C   UNL     1      -5.825  13.871  68.949  1.00  0.00    -0.083 C  
HETATM   12  H   UNL     1      -5.812  17.464  64.408  1.00  0.00     0.000 HD 
HETATM   13  C   UNL     1      -5.214  14.730  68.137  1.00  0.00    -0.119 C  
ENDROOT
BRANCH   2  14
HETATM   14  O   UNL     1      -8.301  18.325  69.006  1.00  0.00    -0.193 OA 
BRANCH  14  15
HETATM   15  C   UNL     1      -9.475  19.005  68.871  1.00  0.00    -0.342 C  
HETATM   16  C   UNL     1     -11.261  18.564  67.201  1.00  0.00     0.324 C  
HETATM   17  C   UNL     1      -9.723  20.540  66.910  1.00  0.00    -0.516 C  
HETATM   18  O   UNL     1     -10.127  19.492  69.784  1.00  0.00    -0.128 OA 
HETATM   19  C   UNL     1      -9.843  19.093  67.403  1.00  0.00    -0.404 C  
HETATM   20  C   UNL     1      -8.286  21.045  66.912  1.00  0.00     0.146 C  
ENDBRANCH  14  15
ENDBRANCH   2  14
BRANCH   7  21
HETATM   21  C   UNL     1      -9.374  15.463  69.485  1.00  0.00    -0.252 C  
BRANCH  21  22
HETATM   22  C   UNL     1     -10.103  15.068  68.182  1.00  0.00    -0.220 C  
BRANCH  22  23
HETATM   23  C   UNL     1     -11.253  14.055  68.268  1.00  0.00    -0.268 C  
HETATM   24  O   UNL     1     -12.433  14.664  68.791  1.00  0.00    -0.579 OA 
HETATM   25  H   UNL     1     -13.145  14.037  68.844  1.00  0.00     0.000 HD 
BRANCH  23  26
HETATM   26  C   UNL     1     -11.570  13.574  66.833  1.00  0.00    -0.398 C  
BRANCH  26  27
HETATM   27  C   UNL     1     -10.472  13.857  65.801  1.00  0.00    -0.307 C  
HETATM   28  O   UNL     1      -9.358  12.970  65.983  1.00  0.00    -0.442 OA 
HETATM   29  H   UNL     1      -8.677  13.146  65.344  1.00  0.00     0.000 HD 
BRANCH  27  30
HETATM   30  C   UNL     1     -10.998  13.629  64.380  1.00  0.00    -0.379 C  
HETATM   31  C   UNL     1     -10.881  12.193  63.926  1.00  0.00    -0.406 C  
HETATM   32  O   UNL     1     -11.154  11.278  64.883  1.00  0.00    -0.227 OA 
HETATM   33  O   UNL     1     -10.640  11.877  62.770  1.00  0.00    -0.031 OA 
ENDBRANCH  27  30
ENDBRANCH  26  27
ENDBRANCH  23  26
ENDBRANCH  22  23
ENDBRANCH  21  22
ENDBRANCH   7  21
TORSDOF 8
ENDMDL
MODEL      264
REMARK 921   NORMALIZED FREE ENERGY PREDICTED BY IDOCK:   -3.15 KCAL/MOL
REMARK 922        TOTAL FREE ENERGY PREDICTED BY IDOCK:   -6.08 KCAL/MOL
REMARK 923 INTER-LIGAND FREE ENERGY PREDICTED BY IDOCK:   -6.23 KCAL/MOL
REMARK 924 INTRA-LIGAND FREE ENERGY PREDICTED BY IDOCK:    0.14 KCAL/MOL
REMARK 927      BINDING AFFINITY PREDICTED BY RF-SCORE:    0.00 PKD
ROOT
HETATM    1  C   UNL     1      -8.645   7.916  65.237  1.00  0.00    -0.084 C  
HETATM    2  C   UNL     1      -8.552   9.488  65.323  1.00  0.00    -0.157 C  
HETATM    3  C   UNL     1      -7.386   7.317  64.598  1.00  0.00    -0.079 C  
HETATM    4  C   UNL     1      -7.306  10.159  64.705  1.00  0.00    -0.129 C  
HETATM    5  C   UNL     1      -6.798   9.458  63.460  1.00  0.00    -0.098 C  
HETATM    6  C   UNL     1     -10.136   4.881  65.745  1.00  0.00    -0.195 C  
HETATM    7  C   UNL     1      -9.126   7.166  66.535  1.00  0.00    -0.182 C  
HETATM    8  C   UNL     1      -6.613   8.005  63.734  1.00  0.00    -0.067 C  
HETATM    9  O   UNL     1      -7.691   9.653  62.377  1.00  0.00    -0.113 OA 
HETATM   10  C   UNL     1      -8.969   5.610  66.422  1.00  0.00    -0.134 C  
HETATM   11  C   UNL     1      -7.706   5.185  65.742  1.00  0.00    -0.091 C  
HETATM   12  H   UNL     1      -7.373   9.215  61.597  1.00  0.00     0.000 HD 
HETATM   13  C   UNL     1      -7.008   5.957  64.913  1.00  0.00    -0.055 C  
ENDROOT
BRANCH   2  14
HETATM   14  O   UNL     1      -8.830  10.077  66.618  1.00  0.00    -0.131 OA 
BRANCH  14  15
HETATM   15  C   UNL     1      -9.310  11.350  66.713  1.00  0.00    -0.180 C  
HETATM   16  C   UNL     1     -11.479  12.048  67.704  1.00  0.00    -0.392 C  
HETATM   17  C   UNL     1     -11.191  12.011  65.200  1.00  0.00    -0.368 C  
HETATM   18  O   UNL     1      -8.637  12.355  66.898  1.00  0.00    -0.195 OA 
HETATM   19  C   UNL     1     -10.815  11.340  66.526  1.00  0.00    -0.319 C  
HETATM   20  C   UNL     1     -10.710  11.228  63.986  1.00  0.00    -0.444 C  
ENDBRANCH  14  15
ENDBRANCH   2  14
BRANCH   7  21
HETATM   21  C   UNL     1     -10.565   7.548  67.028  1.00  0.00    -0.409 C  
BRANCH  21  22
HETATM   22  C   UNL     1     -11.211   6.351  67.759  1.00  0.00    -0.258 C  
BRANCH  22  23
HETATM   23  C   UNL     1     -11.152   6.314  69.292  1.00  0.00    -0.393 C  
HETATM   24  O   UNL     1     -10.296   5.265  69.746  1.00  0.00    -0.270 OA 
HETATM   25  H   UNL     1     -10.259   5.243  70.695  1.00  0.00     0.000 HD 
BRANCH  23  26
HETATM   26  C   UNL     1     -10.551   7.653  69.777  1.00  0.00    -0.245 C  
BRANCH  26  27
HETATM   27  C   UNL     1     -11.401   8.403  70.810  1.00  0.00    -0.265 C  
HETATM   28  O   UNL     1     -12.191   9.422  70.179  1.00  0.00    -0.453 OA 
HETATM   29  H   UNL     1     -12.717   9.887  70.819  1.00  0.00     0.000 HD 
BRANCH  27  30
HETATM   30  C   UNL     1     -12.374   7.445  71.503  1.00  0.00    -0.385 C  
HETATM   31  C   UNL     1     -13.698   8.088  71.846  1.00  0.00    -0.323 C  
HETATM   32  O   UNL     1     -14.169   8.939  70.907  1.00  0.00    -0.064 OA 
HETATM   33  O   UNL     1     -14.336   7.806  72.850  1.00  0.00     0.254 OA 
ENDBRANCH  27  30
ENDBRANCH  26  27
ENDBRANCH  23  26
ENDBRANCH  22  23
ENDBRANCH  21  22
ENDBRANCH   7  21
TORSDOF 8
ENDMDL
MODEL      265
REMARK 921   NORMALIZED FREE ENERGY PREDICTED BY IDOCK:   -3.10 KCAL/MOL
REMARK 922        TOTAL FREE ENERGY PREDICTED BY IDOCK:   -6.01 KCAL/MOL
REMARK 923 INTER-LIGAND FREE ENERGY PREDICTED BY IDOCK:   -4.82 KCAL/MOL
REMARK 924 INTRA-LIGAND FREE ENERGY PREDICTED BY IDOCK:   -1.19 KCAL/MOL
REMARK 927      BINDING AFFINITY PREDICTED BY RF-SCORE:    0.00 PKD
ROOT
HETATM    1  C   UNL     1      -8.015   7.823  66.026  1.00  0.00    -0.108 C  
HETATM    2  C   UNL     1      -7.862   9.245  66.693  1.00  0.00    -0.104 C  
HETATM    3  C   UNL     1      -6.820   7.503  65.119  1.00  0.00    -0.047 C  
HETATM    4  C   UNL     1      -6.636  10.091  66.285  1.00  0.00    -0.085 C  
HETATM    5  C   UNL     1      -6.234   9.911  64.834  1.00  0.00    -0.105 C  
HETATM    6  C   UNL     1      -9.573   4.834  65.457  1.00  0.00    -0.172 C  
HETATM    7  C   UNL     1      -8.436   6.641  66.975  1.00  0.00    -0.113 C  
HETATM    8  C   UNL     1      -6.081   8.462  64.525  1.00  0.00    -0.065 C  
HETATM    9  O   UNL     1      -7.188  10.509  63.974  1.00  0.00    -0.328 OA 
HETATM   10  C   UNL     1      -8.340   5.243  66.272  1.00  0.00    -0.114 C  
HETATM   11  C   UNL     1      -7.139   5.098  65.392  1.00  0.00    -0.067 C  
HETATM   12  H   UNL     1      -6.936  10.397  63.064  1.00  0.00     0.000 HD 
HETATM   13  C   UNL     1      -6.470   6.123  64.868  1.00  0.00    -0.038 C  
ENDROOT
BRANCH   2  14
HETATM   14  O   UNL     1      -8.036   9.301  68.131  1.00  0.00    -0.098 OA 
BRANCH  14  15
HETATM   15  C   UNL     1      -8.759  10.304  68.704  1.00  0.00    -0.133 C  
HETATM   16  C   UNL     1     -10.699  10.048  70.235  1.00  0.00    -0.367 C  
HETATM   17  C   UNL     1     -11.068  10.730  67.837  1.00  0.00    -0.369 C  
HETATM   18  O   UNL     1      -8.316  11.385  69.071  1.00  0.00    -0.084 OA 
HETATM   19  C   UNL     1     -10.215   9.891  68.796  1.00  0.00    -0.205 C  
HETATM   20  C   UNL     1     -10.748  10.459  66.373  1.00  0.00    -0.134 C  
ENDBRANCH  14  15
ENDBRANCH   2  14
BRANCH   7  21
HETATM   21  C   UNL     1      -9.826   6.818  67.680  1.00  0.00    -0.155 C  
BRANCH  21  22
HETATM   22  C   UNL     1      -9.836   6.071  69.031  1.00  0.00    -0.182 C  
BRANCH  22  23
HETATM   23  C   UNL     1      -8.578   6.132  69.908  1.00  0.00    -0.132 C  
HETATM   24  O   UNL     1      -8.157   7.482  70.105  1.00  0.00    -0.115 OA 
HETATM   25  H   UNL     1      -7.378   7.520  70.648  1.00  0.00     0.000 HD 
BRANCH  23  26
HETATM   26  C   UNL     1      -8.935   5.546  71.294  1.00  0.00    -0.153 C  
BRANCH  26  27
HETATM   27  C   UNL     1      -8.492   6.400  72.488  1.00  0.00    -0.123 C  
HETATM   28  O   UNL     1      -7.138   6.847  72.323  1.00  0.00    -0.072 OA 
HETATM   29  H   UNL     1      -6.864   7.376  73.063  1.00  0.00     0.000 HD 
BRANCH  27  30
HETATM   30  C   UNL     1      -9.367   7.652  72.606  1.00  0.00    -0.225 C  
HETATM   31  C   UNL     1     -10.672   7.400  73.325  1.00  0.00    -0.391 C  
HETATM   32  O   UNL     1     -10.578   6.562  74.381  1.00  0.00    -0.223 OA 
HETATM   33  O   UNL     1     -11.715   7.967  73.032  1.00  0.00    -0.309 OA 
ENDBRANCH  27  30
ENDBRANCH  26  27
ENDBRANCH  23  26
ENDBRANCH  22  23
ENDBRANCH  21  22
ENDBRANCH   7  21
TORSDOF 8
ENDMDL
MODEL      266
REMARK 921   NORMALIZED FREE ENERGY PREDICTED BY IDOCK:   -3.07 KCAL/MOL
REMARK 922        TOTAL FREE ENERGY PREDICTED BY IDOCK:   -5.96 KCAL/MOL
REMARK 923 INTER-LIGAND FREE ENERGY PREDICTED BY IDOCK:   -5.67 KCAL/MOL
REMARK 924 INTRA-LIGAND FREE ENERGY PREDICTED BY IDOCK:   -0.29 KCAL/MOL
REMARK 927      BINDING AFFINITY PREDICTED BY RF-SCORE:    0.00 PKD
ROOT
HETATM    1  C   UNL     1      -8.222  14.718  67.225  1.00  0.00    -0.237 C  
HETATM    2  C   UNL     1      -9.371  14.808  66.148  1.00  0.00    -0.257 C  
HETATM    3  C   UNL     1      -8.355  15.827  68.276  1.00  0.00    -0.163 C  
HETATM    4  C   UNL     1     -10.356  15.992  66.261  1.00  0.00    -0.330 C  
HETATM    5  C   UNL     1      -9.711  17.271  66.758  1.00  0.00    -0.281 C  
HETATM    6  C   UNL     1      -5.451  13.333  68.672  1.00  0.00    -0.076 C  
HETATM    7  C   UNL     1      -7.931  13.294  67.827  1.00  0.00    -0.166 C  
HETATM    8  C   UNL     1      -8.959  17.005  68.017  1.00  0.00    -0.230 C  
HETATM    9  O   UNL     1      -8.854  17.815  65.769  1.00  0.00    -0.501 OA 
HETATM   10  C   UNL     1      -6.939  13.346  69.041  1.00  0.00    -0.084 C  
HETATM   11  C   UNL     1      -7.175  14.506  69.956  1.00  0.00     0.124 C  
HETATM   12  H   UNL     1      -8.449  18.616  66.080  1.00  0.00     0.000 HD 
HETATM   13  C   UNL     1      -7.802  15.624  69.597  1.00  0.00    -0.089 C  
ENDROOT
BRANCH   2  14
HETATM   14  O   UNL     1     -10.105  13.586  65.889  1.00  0.00    -0.293 OA 
BRANCH  14  15
HETATM   15  C   UNL     1     -10.735  13.394  64.695  1.00  0.00    -0.411 C  
HETATM   16  C   UNL     1     -12.905  12.241  64.330  1.00  0.00    -0.294 C  
HETATM   17  C   UNL     1     -10.747  11.085  63.731  1.00  0.00    -0.294 C  
HETATM   18  O   UNL     1     -10.724  14.171  63.749  1.00  0.00     0.442 OA 
HETATM   19  C   UNL     1     -11.436  12.051  64.702  1.00  0.00    -0.371 C  
HETATM   20  C   UNL     1      -9.337  10.715  64.172  1.00  0.00    -0.297 C  
ENDBRANCH  14  15
ENDBRANCH   2  14
BRANCH   7  21
HETATM   21  C   UNL     1      -7.482  12.211  66.786  1.00  0.00     0.066 C  
BRANCH  21  22
HETATM   22  C   UNL     1      -7.007  10.935  67.516  1.00  0.00    -0.084 C  
BRANCH  22  23
HETATM   23  C   UNL     1      -7.987   9.761  67.643  1.00  0.00    -0.105 C  
HETATM   24  O   UNL     1      -7.371   8.649  68.295  1.00  0.00    -0.084 OA 
HETATM   25  H   UNL     1      -7.978   7.922  68.375  1.00  0.00     0.000 HD 
BRANCH  23  26
HETATM   26  C   UNL     1      -9.171  10.223  68.523  1.00  0.00    -0.144 C  
BRANCH  26  27
HETATM   27  C   UNL     1     -10.351   9.245  68.580  1.00  0.00    -0.205 C  
HETATM   28  O   UNL     1     -11.585   9.946  68.797  1.00  0.00    -0.496 OA 
HETATM   29  H   UNL     1     -12.316   9.340  68.833  1.00  0.00     0.000 HD 
BRANCH  27  30
HETATM   30  C   UNL     1     -10.490   8.493  67.253  1.00  0.00    -0.366 C  
HETATM   31  C   UNL     1      -9.553   7.312  67.139  1.00  0.00    -0.160 C  
HETATM   32  O   UNL     1      -9.396   6.608  68.281  1.00  0.00    -0.122 OA 
HETATM   33  O   UNL     1      -9.039   6.969  66.084  1.00  0.00    -0.162 OA 
ENDBRANCH  27  30
ENDBRANCH  26  27
ENDBRANCH  23  26
ENDBRANCH  22  23
ENDBRANCH  21  22
ENDBRANCH   7  21
TORSDOF 8
ENDMDL
MODEL      267
REMARK 921   NORMALIZED FREE ENERGY PREDICTED BY IDOCK:   -2.97 KCAL/MOL
REMARK 922        TOTAL FREE ENERGY PREDICTED BY IDOCK:   -5.82 KCAL/MOL
REMARK 923 INTER-LIGAND FREE ENERGY PREDICTED BY IDOCK:   -3.77 KCAL/MOL
REMARK 924 INTRA-LIGAND FREE ENERGY PREDICTED BY IDOCK:   -2.05 KCAL/MOL
REMARK 927      BINDING AFFINITY PREDICTED BY RF-SCORE:    0.00 PKD
ROOT
HETATM    1  C   UNL     1      -8.116   7.617  65.291  1.00  0.00    -0.133 C  
HETATM    2  C   UNL     1      -7.563   8.918  65.992  1.00  0.00    -0.094 C  
HETATM    3  C   UNL     1      -7.836   7.636  63.783  1.00  0.00    -0.117 C  
HETATM    4  C   UNL     1      -6.931   9.998  65.085  1.00  0.00    -0.134 C  
HETATM    5  C   UNL     1      -7.605  10.120  63.732  1.00  0.00    -0.133 C  
HETATM    6  C   UNL     1      -9.638   4.557  65.227  1.00  0.00    -0.179 C  
HETATM    7  C   UNL     1      -7.785   6.247  65.989  1.00  0.00    -0.092 C  
HETATM    8  C   UNL     1      -7.691   8.780  63.085  1.00  0.00    -0.123 C  
HETATM    9  O   UNL     1      -8.892  10.695  63.865  1.00  0.00    -0.180 OA 
HETATM   10  C   UNL     1      -8.178   5.012  65.105  1.00  0.00    -0.131 C  
HETATM   11  C   UNL     1      -7.876   5.198  63.651  1.00  0.00    -0.088 C  
HETATM   12  H   UNL     1      -9.315  10.772  63.017  1.00  0.00     0.000 HD 
HETATM   13  C   UNL     1      -7.737   6.385  63.064  1.00  0.00    -0.090 C  
ENDROOT
BRANCH   2  14
HETATM   14  O   UNL     1      -6.728   8.713  67.159  1.00  0.00    -0.061 OA 
BRANCH  14  15
HETATM   15  C   UNL     1      -6.780   9.579  68.210  1.00  0.00    -0.058 C  
HETATM   16  C   UNL     1      -6.481   9.018  70.612  1.00  0.00    -0.056 C  
HETATM   17  C   UNL     1      -8.785   9.492  69.706  1.00  0.00    -0.204 C  
HETATM   18  O   UNL     1      -6.402  10.744  68.196  1.00  0.00    -0.057 OA 
HETATM   19  C   UNL     1      -7.407   8.889  69.405  1.00  0.00    -0.075 C  
HETATM   20  C   UNL     1      -9.800   9.216  68.605  1.00  0.00    -0.175 C  
ENDBRANCH  14  15
ENDBRANCH   2  14
BRANCH   7  21
HETATM   21  C   UNL     1      -8.346   6.091  67.445  1.00  0.00    -0.105 C  
BRANCH  21  22
HETATM   22  C   UNL     1      -7.702   4.868  68.135  1.00  0.00    -0.082 C  
BRANCH  22  23
HETATM   23  C   UNL     1      -8.223   4.452  69.517  1.00  0.00    -0.059 C  
HETATM   24  O   UNL     1      -7.548   3.286  69.989  1.00  0.00    -0.044 OA 
HETATM   25  H   UNL     1      -7.870   3.028  70.845  1.00  0.00     0.000 HD 
BRANCH  23  26
HETATM   26  C   UNL     1      -7.921   5.601  70.505  1.00  0.00    -0.104 C  
BRANCH  26  27
HETATM   27  C   UNL     1      -8.813   5.630  71.753  1.00  0.00    -0.136 C  
HETATM   28  O   UNL     1      -8.998   4.307  72.280  1.00  0.00    -0.113 OA 
HETATM   29  H   UNL     1      -9.551   4.325  73.052  1.00  0.00     0.000 HD 
BRANCH  27  30
HETATM   30  C   UNL     1      -8.163   6.467  72.859  1.00  0.00    -0.113 C  
HETATM   31  C   UNL     1      -8.931   7.727  73.180  1.00  0.00    -0.213 C  
HETATM   32  O   UNL     1     -10.275   7.584  73.168  1.00  0.00    -0.263 OA 
HETATM   33  O   UNL     1      -8.389   8.774  73.504  1.00  0.00    -0.357 OA 
ENDBRANCH  27  30
ENDBRANCH  26  27
ENDBRANCH  23  26
ENDBRANCH  22  23
ENDBRANCH  21  22
ENDBRANCH   7  21
TORSDOF 8
ENDMDL
MODEL      268
REMARK 921   NORMALIZED FREE ENERGY PREDICTED BY IDOCK:   -2.30 KCAL/MOL
REMARK 922        TOTAL FREE ENERGY PREDICTED BY IDOCK:   -4.83 KCAL/MOL
REMARK 923 INTER-LIGAND FREE ENERGY PREDICTED BY IDOCK:   -5.30 KCAL/MOL
REMARK 924 INTRA-LIGAND FREE ENERGY PREDICTED BY IDOCK:    0.47 KCAL/MOL
REMARK 927      BINDING AFFINITY PREDICTED BY RF-SCORE:    0.00 PKD
ROOT
HETATM    1  C   UNL     1      -7.845   7.559  70.403  1.00  0.00    -0.097 C  
HETATM    2  C   UNL     1      -7.885   8.371  69.051  1.00  0.00    -0.102 C  
HETATM    3  C   UNL     1      -7.455   8.460  71.582  1.00  0.00    -0.118 C  
HETATM    4  C   UNL     1      -7.463   9.856  69.103  1.00  0.00    -0.087 C  
HETATM    5  C   UNL     1      -6.352  10.134  70.096  1.00  0.00    -0.107 C  
HETATM    6  C   UNL     1      -8.206   4.761  72.334  1.00  0.00    -0.115 C  
HETATM    7  C   UNL     1      -9.069   6.614  70.694  1.00  0.00    -0.155 C  
HETATM    8  C   UNL     1      -6.710   9.574  71.430  1.00  0.00     0.105 C  
HETATM    9  O   UNL     1      -5.126   9.592  69.638  1.00  0.00    -0.034 OA 
HETATM   10  C   UNL     1      -9.045   6.032  72.150  1.00  0.00    -0.142 C  
HETATM   11  C   UNL     1      -8.609   7.023  73.183  1.00  0.00    -0.142 C  
HETATM   12  H   UNL     1      -4.429   9.766  70.261  1.00  0.00     0.000 HD 
HETATM   13  C   UNL     1      -7.882   8.106  72.917  1.00  0.00    -0.202 C  
ENDROOT
BRANCH   2  14
HETATM   14  O   UNL     1      -9.088   8.233  68.256  1.00  0.00    -0.136 OA 
BRANCH  14  15
HETATM   15  C   UNL     1      -9.935   9.289  68.089  1.00  0.00    -0.177 C  
HETATM   16  C   UNL     1      -9.559  11.626  68.845  1.00  0.00    -0.006 C  
HETATM   17  C   UNL     1     -11.163  10.138  70.097  1.00  0.00    -0.377 C  
HETATM   18  O   UNL     1     -10.666   9.473  67.125  1.00  0.00    -0.255 OA 
HETATM   19  C   UNL     1      -9.855  10.199  69.299  1.00  0.00    -0.235 C  
HETATM   20  C   UNL     1     -11.401   8.776  70.733  1.00  0.00    -0.313 C  
ENDBRANCH  14  15
ENDBRANCH   2  14
BRANCH   7  21
HETATM   21  C   UNL     1      -9.293   5.474  69.641  1.00  0.00    -0.172 C  
BRANCH  21  22
HETATM   22  C   UNL     1     -10.563   5.760  68.810  1.00  0.00    -0.321 C  
BRANCH  22  23
HETATM   23  C   UNL     1     -10.565   5.372  67.325  1.00  0.00    -0.176 C  
HETATM   24  O   UNL     1     -11.089   6.430  66.521  1.00  0.00    -0.658 OA 
HETATM   25  H   UNL     1     -11.090   6.190  65.601  1.00  0.00     0.000 HD 
BRANCH  23  26
HETATM   26  C   UNL     1      -9.099   5.138  66.893  1.00  0.00    -0.116 C  
BRANCH  26  27
HETATM   27  C   UNL     1      -8.795   3.722  66.388  1.00  0.00    -0.128 C  
HETATM   28  O   UNL     1      -9.809   2.798  66.815  1.00  0.00    -0.357 OA 
HETATM   29  H   UNL     1      -9.620   1.921  66.502  1.00  0.00     0.000 HD 
BRANCH  27  30
HETATM   30  C   UNL     1      -8.776   3.690  64.857  1.00  0.00    -0.114 C  
HETATM   31  C   UNL     1     -10.140   3.457  64.250  1.00  0.00    -0.176 C  
HETATM   32  O   UNL     1     -11.151   4.092  64.881  1.00  0.00    -0.240 OA 
HETATM   33  O   UNL     1     -10.311   2.813  63.224  1.00  0.00    -0.148 OA 
ENDBRANCH  27  30
ENDBRANCH  26  27
ENDBRANCH  23  26
ENDBRANCH  22  23
ENDBRANCH  21  22
ENDBRANCH   7  21
TORSDOF 8
ENDMDL
MODEL      269
REMARK 921   NORMALIZED FREE ENERGY PREDICTED BY IDOCK:   -1.81 KCAL/MOL
REMARK 922        TOTAL FREE ENERGY PREDICTED BY IDOCK:   -4.11 KCAL/MOL
REMARK 923 INTER-LIGAND FREE ENERGY PREDICTED BY IDOCK:   -6.01 KCAL/MOL
REMARK 924 INTRA-LIGAND FREE ENERGY PREDICTED BY IDOCK:    1.90 KCAL/MOL
REMARK 927      BINDING AFFINITY PREDICTED BY RF-SCORE:    0.00 PKD
ROOT
HETATM    1  C   UNL     1      -7.757   8.095  68.586  1.00  0.00    -0.112 C  
HETATM    2  C   UNL     1      -8.059   8.770  69.980  1.00  0.00    -0.111 C  
HETATM    3  C   UNL     1      -6.386   7.407  68.585  1.00  0.00    -0.039 C  
HETATM    4  C   UNL     1      -6.946   8.712  71.050  1.00  0.00    -0.069 C  
HETATM    5  C   UNL     1      -5.547   8.805  70.474  1.00  0.00    -0.027 C  
HETATM    6  C   UNL     1      -8.494   7.191  65.372  1.00  0.00    -0.090 C  
HETATM    7  C   UNL     1      -8.911   7.228  67.959  1.00  0.00    -0.129 C  
HETATM    8  C   UNL     1      -5.376   7.799  69.388  1.00  0.00    -0.023 C  
HETATM    9  O   UNL     1      -5.293  10.112  69.989  1.00  0.00    -0.036 OA 
HETATM   10  C   UNL     1      -8.440   6.422  66.698  1.00  0.00    -0.115 C  
HETATM   11  C   UNL     1      -7.068   5.844  66.838  1.00  0.00    -0.070 C  
HETATM   12  H   UNL     1      -4.416  10.172  69.628  1.00  0.00     0.000 HD 
HETATM   13  C   UNL     1      -6.146   6.303  67.682  1.00  0.00    -0.021 C  
ENDROOT
BRANCH   2  14
HETATM   14  O   UNL     1      -9.335   8.449  70.585  1.00  0.00    -0.152 OA 
BRANCH  14  15
HETATM   15  C   UNL     1      -9.519   7.261  71.230  1.00  0.00    -0.155 C  
HETATM   16  C   UNL     1     -11.509   6.584  72.555  1.00  0.00    -0.274 C  
HETATM   17  C   UNL     1      -9.379   7.247  73.728  1.00  0.00    -0.296 C  
HETATM   18  O   UNL     1      -9.114   6.171  70.848  1.00  0.00    -0.149 OA 
HETATM   19  C   UNL     1     -10.285   7.496  72.517  1.00  0.00    -0.283 C  
HETATM   20  C   UNL     1      -8.249   8.262  73.836  1.00  0.00    -0.267 C  
ENDBRANCH  14  15
ENDBRANCH   2  14
BRANCH   7  21
HETATM   21  C   UNL     1     -10.239   8.007  67.659  1.00  0.00    -0.291 C  
BRANCH  21  22
HETATM   22  C   UNL     1      -9.964   9.525  67.600  1.00  0.00    -0.226 C  
BRANCH  22  23
HETATM   23  C   UNL     1     -10.749  10.369  66.587  1.00  0.00    -0.128 C  
HETATM   24  O   UNL     1     -11.580  11.323  67.251  1.00  0.00    -0.527 OA 
HETATM   25  H   UNL     1     -12.065  11.846  66.623  1.00  0.00     0.000 HD 
BRANCH  23  26
HETATM   26  C   UNL     1      -9.728  11.153  65.730  1.00  0.00    -0.266 C  
BRANCH  26  27
HETATM   27  C   UNL     1      -9.432  10.537  64.357  1.00  0.00    -0.281 C  
HETATM   28  O   UNL     1      -9.739   9.134  64.350  1.00  0.00    -0.170 OA 
HETATM   29  H   UNL     1      -9.555   8.753  63.500  1.00  0.00     0.000 HD 
BRANCH  27  30
HETATM   30  C   UNL     1     -10.298  11.191  63.276  1.00  0.00    -0.368 C  
HETATM   31  C   UNL     1     -11.053  12.402  63.772  1.00  0.00    -0.445 C  
HETATM   32  O   UNL     1     -10.357  13.189  64.622  1.00  0.00    -0.361 OA 
HETATM   33  O   UNL     1     -12.174  12.696  63.380  1.00  0.00    -0.531 OA 
ENDBRANCH  27  30
ENDBRANCH  26  27
ENDBRANCH  23  26
ENDBRANCH  22  23
ENDBRANCH  21  22
ENDBRANCH   7  21
TORSDOF 8
ENDMDL
MODEL      270
REMARK 921   NORMALIZED FREE ENERGY PREDICTED BY IDOCK:   -0.88 KCAL/MOL
REMARK 922        TOTAL FREE ENERGY PREDICTED BY IDOCK:   -2.75 KCAL/MOL
REMARK 923 INTER-LIGAND FREE ENERGY PREDICTED BY IDOCK:   -3.86 KCAL/MOL
REMARK 924 INTRA-LIGAND FREE ENERGY PREDICTED BY IDOCK:    1.11 KCAL/MOL
REMARK 927      BINDING AFFINITY PREDICTED BY RF-SCORE:    0.00 PKD
ROOT
HETATM    1  C   UNL     1     -10.058  12.862  65.380  1.00  0.00    -0.265 C  
HETATM    2  C   UNL     1      -8.895  11.921  65.879  1.00  0.00     0.056 C  
HETATM    3  C   UNL     1     -11.415  12.149  65.438  1.00  0.00    -0.387 C  
HETATM    4  C   UNL     1      -9.268  10.469  66.251  1.00  0.00    -0.192 C  
HETATM    5  C   UNL     1     -10.366   9.886  65.383  1.00  0.00     0.067 C  
HETATM    6  C   UNL     1     -11.367  15.797  64.213  1.00  0.00    -0.189 C  
HETATM    7  C   UNL     1     -10.077  14.326  65.956  1.00  0.00    -0.333 C  
HETATM    8  C   UNL     1     -11.535  10.808  65.354  1.00  0.00     0.783 C  
HETATM    9  O   UNL     1      -9.888   9.642  64.072  1.00  0.00    -0.425 OA 
HETATM   10  C   UNL     1     -11.386  15.103  65.580  1.00  0.00    -0.255 C  
HETATM   11  C   UNL     1     -12.621  14.261  65.650  1.00  0.00    -0.429 C  
HETATM   12  H   UNL     1     -10.576   9.276  63.527  1.00  0.00     0.000 HD 
HETATM   13  C   UNL     1     -12.623  12.932  65.572  1.00  0.00    -0.359 C  
ENDROOT
BRANCH   2  14
HETATM   14  O   UNL     1      -8.013  12.472  66.888  1.00  0.00    -0.122 OA 
BRANCH  14  15
HETATM   15  C   UNL     1      -7.656  11.733  67.977  1.00  0.00    -0.116 C  
HETATM   16  C   UNL     1      -5.713  12.134  69.473  1.00  0.00    -0.087 C  
HETATM   17  C   UNL     1      -5.642  10.260  67.789  1.00  0.00    -0.041 C  
HETATM   18  O   UNL     1      -8.429  11.176  68.746  1.00  0.00    -0.156 OA 
HETATM   19  C   UNL     1      -6.145  11.678  68.081  1.00  0.00    -0.046 C  
HETATM   20  C   UNL     1      -5.881   9.836  66.346  1.00  0.00    -0.054 C  
ENDBRANCH  14  15
ENDBRANCH   2  14
BRANCH   7  21
HETATM   21  C   UNL     1      -8.805  15.185  65.629  1.00  0.00     0.748 C  
BRANCH  21  22
HETATM   22  C   UNL     1      -7.994  15.445  66.917  1.00  0.00    -0.230 C  
BRANCH  22  23
HETATM   23  C   UNL     1      -6.860  16.478  66.868  1.00  0.00    -0.213 C  
HETATM   24  O   UNL     1      -6.982  17.319  65.721  1.00  0.00    -0.168 OA 
HETATM   25  H   UNL     1      -6.280  17.958  65.691  1.00  0.00     0.000 HD 
BRANCH  23  26
HETATM   26  C   UNL     1      -6.980  17.375  68.122  1.00  0.00    -0.190 C  
BRANCH  26  27
HETATM   27  C   UNL     1      -8.384  17.936  68.380  1.00  0.00    -0.304 C  
HETATM   28  O   UNL     1      -8.682  19.006  67.470  1.00  0.00    -0.284 OA 
HETATM   29  H   UNL     1      -9.551  19.354  67.631  1.00  0.00     0.000 HD 
BRANCH  27  30
HETATM   30  C   UNL     1      -9.444  16.853  68.161  1.00  0.00    -0.251 C  
HETATM   31  C   UNL     1     -10.843  17.313  68.500  1.00  0.00    -0.240 C  
HETATM   32  O   UNL     1     -11.118  18.585  68.138  1.00  0.00    -0.012 OA 
HETATM   33  O   UNL     1     -11.687  16.575  68.989  1.00  0.00    -0.168 OA 
ENDBRANCH  27  30
ENDBRANCH  26  27
ENDBRANCH  23  26
ENDBRANCH  22  23
ENDBRANCH  21  22
ENDBRANCH   7  21
TORSDOF 8
ENDMDL
MODEL      271
REMARK 921   NORMALIZED FREE ENERGY PREDICTED BY IDOCK:    0.33 KCAL/MOL
REMARK 922        TOTAL FREE ENERGY PREDICTED BY IDOCK:   -0.97 KCAL/MOL
REMARK 923 INTER-LIGAND FREE ENERGY PREDICTED BY IDOCK:   -3.99 KCAL/MOL
REMARK 924 INTRA-LIGAND FREE ENERGY PREDICTED BY IDOCK:    3.02 KCAL/MOL
REMARK 927      BINDING AFFINITY PREDICTED BY RF-SCORE:    0.00 PKD
ROOT
HETATM    1  C   UNL     1      -9.845  12.643  68.400  1.00  0.00    -0.200 C  
HETATM    2  C   UNL     1      -9.040  13.995  68.289  1.00  0.00    -0.191 C  
HETATM    3  C   UNL     1     -11.356  12.884  68.296  1.00  0.00    -0.326 C  
HETATM    4  C   UNL     1      -9.859  15.301  68.183  1.00  0.00    -0.217 C  
HETATM    5  C   UNL     1     -11.146  15.273  68.984  1.00  0.00    -0.260 C  
HETATM    6  C   UNL     1     -10.152   9.252  68.712  1.00  0.00    -0.210 C  
HETATM    7  C   UNL     1      -9.325  11.440  67.530  1.00  0.00    -0.166 C  
HETATM    8  C   UNL     1     -11.931  14.053  68.644  1.00  0.00    -0.389 C  
HETATM    9  O   UNL     1     -10.870  15.320  70.373  1.00  0.00    -0.326 OA 
HETATM   10  C   UNL     1     -10.314  10.223  67.535  1.00  0.00    -0.276 C  
HETATM   11  C   UNL     1     -11.754  10.623  67.466  1.00  0.00     0.356 C  
HETATM   12  H   UNL     1     -11.676  15.303  70.876  1.00  0.00     0.000 HD 
HETATM   13  C   UNL     1     -12.214  11.820  67.823  1.00  0.00     0.374 C  
ENDROOT
BRANCH   2  14
HETATM   14  O   UNL     1      -7.957  14.020  67.326  1.00  0.00    -0.179 OA 
BRANCH  14  15
HETATM   15  C   UNL     1      -6.694  13.661  67.693  1.00  0.00    -0.174 C  
HETATM   16  C   UNL     1      -5.912  13.119  69.988  1.00  0.00    -0.135 C  
HETATM   17  C   UNL     1      -5.315  15.334  68.943  1.00  0.00    -0.099 C  
HETATM   18  O   UNL     1      -5.917  12.996  67.020  1.00  0.00    -0.267 OA 
HETATM   19  C   UNL     1      -6.380  14.237  69.060  1.00  0.00    -0.096 C  
HETATM   20  C   UNL     1      -5.811  16.557  68.184  1.00  0.00    -0.124 C  
ENDBRANCH  14  15
ENDBRANCH   2  14
BRANCH   7  21
HETATM   21  C   UNL     1      -7.863  10.972  67.850  1.00  0.00    -0.110 C  
BRANCH  21  22
HETATM   22  C   UNL     1      -7.699   9.473  67.516  1.00  0.00    -0.095 C  
BRANCH  22  23
HETATM   23  C   UNL     1      -8.357   8.934  66.239  1.00  0.00    -0.117 C  
HETATM   24  O   UNL     1      -7.417   8.874  65.165  1.00  0.00    -0.093 OA 
HETATM   25  H   UNL     1      -7.824   8.539  64.375  1.00  0.00     0.000 HD 
BRANCH  23  26
HETATM   26  C   UNL     1      -8.836   7.491  66.523  1.00  0.00    -0.167 C  
BRANCH  26  27
HETATM   27  C   UNL     1      -8.229   6.419  65.610  1.00  0.00    -0.140 C  
HETATM   28  O   UNL     1      -6.806   6.577  65.511  1.00  0.00    -0.046 OA 
HETATM   29  H   UNL     1      -6.430   5.914  64.944  1.00  0.00     0.000 HD 
BRANCH  27  30
HETATM   30  C   UNL     1      -8.486   5.020  66.178  1.00  0.00    -0.114 C  
HETATM   31  C   UNL     1      -7.733   3.934  65.447  1.00  0.00    -0.082 C  
HETATM   32  O   UNL     1      -6.479   4.272  65.077  1.00  0.00    -0.034 OA 
HETATM   33  O   UNL     1      -8.186   2.811  65.272  1.00  0.00    -0.089 OA 
ENDBRANCH  27  30
ENDBRANCH  26  27
ENDBRANCH  23  26
ENDBRANCH  22  23
ENDBRANCH  21  22
ENDBRANCH   7  21
TORSDOF 8
ENDMDL
MODEL      272
REMARK 921   NORMALIZED FREE ENERGY PREDICTED BY IDOCK:   11.03 KCAL/MOL
REMARK 922        TOTAL FREE ENERGY PREDICTED BY IDOCK:   14.73 KCAL/MOL
REMARK 923 INTER-LIGAND FREE ENERGY PREDICTED BY IDOCK:   10.83 KCAL/MOL
REMARK 924 INTRA-LIGAND FREE ENERGY PREDICTED BY IDOCK:    3.91 KCAL/MOL
REMARK 927      BINDING AFFINITY PREDICTED BY RF-SCORE:    0.00 PKD
ROOT
HETATM    1  C   UNL     1      -9.668  12.498  69.027  1.00  0.00     0.313 C  
HETATM    2  C   UNL     1      -8.586  13.472  69.635  1.00  0.00     1.540 C  
HETATM    3  C   UNL     1     -10.728  13.271  68.231  1.00  0.00    -0.267 C  
HETATM    4  C   UNL     1      -8.795  14.987  69.418  1.00  0.00    -0.115 C  
HETATM    5  C   UNL     1     -10.252  15.404  69.433  1.00  0.00    -0.262 C  
HETATM    6  C   UNL     1     -11.057   9.439  68.393  1.00  0.00     0.019 C  
HETATM    7  C   UNL     1      -9.129  11.212  68.300  1.00  0.00    -0.162 C  
HETATM    8  C   UNL     1     -11.033  14.559  68.488  1.00  0.00    -0.261 C  
HETATM    9  O   UNL     1     -10.785  15.312  70.743  1.00  0.00    -0.483 OA 
HETATM   10  C   UNL     1     -10.259  10.433  67.540  1.00  0.00    -0.251 C  
HETATM   11  C   UNL     1     -11.235  11.327  66.843  1.00  0.00    -0.300 C  
HETATM   12  H   UNL     1     -11.698  15.574  70.753  1.00  0.00     0.000 HD 
HETATM   13  C   UNL     1     -11.448  12.600  67.171  1.00  0.00    -0.406 C  
ENDROOT
BRANCH   2  14
HETATM   14  O   UNL     1      -7.201  13.130  69.382  1.00  0.00     0.067 OA 
BRANCH  14  15
HETATM   15  C   UNL     1      -6.629  12.053  69.991  1.00  0.00     0.137 C  
HETATM   16  C   UNL     1      -7.658  10.616  71.738  1.00  0.00     4.973 C  
HETATM   17  C   UNL     1      -5.894  12.302  72.370  1.00  0.00     1.823 C  
HETATM   18  O   UNL     1      -5.858  11.261  69.465  1.00  0.00    -0.052 OA 
HETATM   19  C   UNL     1      -7.073  11.994  71.439  1.00  0.00     5.478 C  
HETATM   20  C   UNL     1      -5.402  13.737  72.242  1.00  0.00    -0.169 C  
ENDBRANCH  14  15
ENDBRANCH   2  14
BRANCH   7  21
HETATM   21  C   UNL     1      -8.291  10.240  69.202  1.00  0.00    -0.154 C  
BRANCH  21  22
HETATM   22  C   UNL     1      -8.269   8.826  68.582  1.00  0.00    -0.117 C  
BRANCH  22  23
HETATM   23  C   UNL     1      -7.839   8.678  67.116  1.00  0.00    -0.097 C  
HETATM   24  O   UNL     1      -6.542   8.089  67.020  1.00  0.00    -0.055 OA 
HETATM   25  H   UNL     1      -6.276   7.997  66.113  1.00  0.00     0.000 HD 
BRANCH  23  26
HETATM   26  C   UNL     1      -8.839   7.725  66.422  1.00  0.00    -0.180 C  
BRANCH  26  27
HETATM   27  C   UNL     1      -8.648   7.584  64.906  1.00  0.00     0.137 C  
HETATM   28  O   UNL     1      -7.511   8.339  64.462  1.00  0.00    -0.090 OA 
HETATM   29  H   UNL     1      -7.393   8.252  63.524  1.00  0.00     0.000 HD 
BRANCH  27  30
HETATM   30  C   UNL     1      -8.389   6.122  64.532  1.00  0.00    -0.021 C  
HETATM   31  C   UNL     1      -7.846   5.954  63.131  1.00  0.00    -0.099 C  
HETATM   32  O   UNL     1      -6.952   6.896  62.760  1.00  0.00    -0.049 OA 
HETATM   33  O   UNL     1      -8.128   5.002  62.417  1.00  0.00    -0.072 OA 
ENDBRANCH  27  30
ENDBRANCH  26  27
ENDBRANCH  23  26
ENDBRANCH  22  23
ENDBRANCH  21  22
ENDBRANCH   7  21
TORSDOF 8
ENDMDL
