MODEL        1
REMARK 921   NORMALIZED FREE ENERGY PREDICTED BY IDOCK:   -7.83 KCAL/MOL
REMARK 922        TOTAL FREE ENERGY PREDICTED BY IDOCK:  -10.22 KCAL/MOL
REMARK 923 INTER-LIGAND FREE ENERGY PREDICTED BY IDOCK:   -9.66 KCAL/MOL
REMARK 924 INTRA-LIGAND FREE ENERGY PREDICTED BY IDOCK:   -0.56 KCAL/MOL
REMARK 927      BINDING AFFINITY PREDICTED BY RF-SCORE:    0.00 PKD
ROOT
HETATM    1  C   UNL     1     -14.401   7.845  71.888  1.00  0.00    -0.436 C  
HETATM    2  O   UNL     1     -13.426   8.662  72.532  1.00  0.00    -0.351 OA 
ENDROOT
BRANCH   2   3
HETATM    3  C   UNL     1     -12.388   9.108  71.761  1.00  0.00    -0.372 A  
HETATM    4  C   UNL     1     -11.237   8.320  71.630  1.00  0.00    -0.270 A  
HETATM    5  C   UNL     1     -10.185   8.787  70.830  1.00  0.00    -0.284 A  
HETATM    6  C   UNL     1     -11.459  10.743  70.198  1.00  0.00    -0.331 A  
HETATM    7  C   UNL     1     -10.295   9.990  70.096  1.00  0.00    -0.321 A  
HETATM    8  C   UNL     1     -12.472  10.306  71.036  1.00  0.00    -0.484 A  
HETATM    9  C   UNL     1      -9.330  10.533  69.244  1.00  0.00    -0.160 A  
HETATM   10  N   UNL     1      -8.079   9.928  69.074  1.00  0.00    -0.103 NA 
HETATM   11  N   UNL     1      -9.514  11.671  68.557  1.00  0.00    -0.193 NA 
HETATM   12  H1  UNL     1      -7.376  10.324  68.452  1.00  0.00     0.000 HD 
HETATM   13  C   UNL     1     -10.686  12.306  68.693  1.00  0.00    -0.233 A  
HETATM   14  H2  UNL     1      -8.235   8.959  68.795  1.00  0.00     0.000 HD 
HETATM   15  N   UNL     1     -11.652  11.866  69.509  1.00  0.00    -0.312 NA 
BRANCH   4  16
HETATM   16  O   UNL     1     -10.963   7.103  72.194  1.00  0.00    -0.228 OA 
HETATM   17  C   UNL     1     -10.389   7.066  73.492  1.00  0.00    -0.356 C  
ENDBRANCH   4  16
BRANCH  13  18
HETATM   18  N   UNL     1     -10.915  13.495  68.013  1.00  0.00    -0.244 NA 
HETATM   19  C   UNL     1     -11.453  14.663  65.897  1.00  0.00    -0.338 C  
HETATM   20  C   UNL     1     -10.869  13.392  66.544  1.00  0.00    -0.282 C  
HETATM   21  N   UNL     1     -10.882  15.893  66.461  1.00  0.00    -0.253 N  
HETATM   22  C   UNL     1     -10.934  15.940  67.932  1.00  0.00    -0.327 C  
HETATM   23  C   UNL     1     -10.742  16.999  65.616  1.00  0.00    -0.144 C  
HETATM   24  O   UNL     1     -11.072  16.916  64.432  1.00  0.00    -1.128 OA 
HETATM   25  C   UNL     1     -10.273  14.698  68.556  1.00  0.00    -0.240 C  
BRANCH  23  26
HETATM   26  C   UNL     1     -10.210  18.248  66.139  1.00  0.00    -0.381 A  
HETATM   27  C   UNL     1     -10.884  19.365  66.603  1.00  0.00    -0.462 A  
HETATM   28  C   UNL     1      -9.907  20.321  66.966  1.00  0.00    -0.607 A  
HETATM   29  C   UNL     1      -8.692  19.751  66.668  1.00  0.00    -0.354 A  
HETATM   30  O   UNL     1      -8.865  18.511  66.143  1.00  0.00    -0.463 OA 
ENDBRANCH  23  26
ENDBRANCH  13  18
ENDBRANCH   2   3
TORSDOF 4
ENDMDL
MODEL        2
REMARK 921   NORMALIZED FREE ENERGY PREDICTED BY IDOCK:   -7.69 KCAL/MOL
REMARK 922        TOTAL FREE ENERGY PREDICTED BY IDOCK:  -10.05 KCAL/MOL
REMARK 923 INTER-LIGAND FREE ENERGY PREDICTED BY IDOCK:   -9.44 KCAL/MOL
REMARK 924 INTRA-LIGAND FREE ENERGY PREDICTED BY IDOCK:   -0.61 KCAL/MOL
REMARK 927      BINDING AFFINITY PREDICTED BY RF-SCORE:    0.00 PKD
ROOT
HETATM    1  C   UNL     1     -10.930   6.109  68.999  1.00  0.00    -0.367 C  
HETATM    2  O   UNL     1     -10.274   6.956  69.939  1.00  0.00    -0.192 OA 
ENDROOT
BRANCH   2   3
HETATM    3  C   UNL     1     -10.940   8.089  70.318  1.00  0.00    -0.242 A  
HETATM    4  C   UNL     1     -11.624   8.112  71.540  1.00  0.00    -0.275 A  
HETATM    5  C   UNL     1     -12.296   9.283  71.917  1.00  0.00    -0.454 A  
HETATM    6  C   UNL     1     -11.512  10.437  69.942  1.00  0.00    -0.297 A  
HETATM    7  C   UNL     1     -12.230  10.456  71.133  1.00  0.00    -0.498 A  
HETATM    8  C   UNL     1     -10.898   9.260  69.545  1.00  0.00    -0.211 A  
HETATM    9  C   UNL     1     -12.826  11.686  71.426  1.00  0.00    -0.356 A  
HETATM   10  N   UNL     1     -13.631  11.857  72.558  1.00  0.00    -0.445 NA 
HETATM   11  N   UNL     1     -12.700  12.769  70.643  1.00  0.00    -0.145 NA 
HETATM   12  H1  UNL     1     -14.067  12.754  72.772  1.00  0.00     0.000 HD 
HETATM   13  C   UNL     1     -11.955  12.661  69.534  1.00  0.00    -0.270 A  
HETATM   14  H2  UNL     1     -13.091  11.568  73.373  1.00  0.00     0.000 HD 
HETATM   15  N   UNL     1     -11.372  11.512  69.169  1.00  0.00    -0.261 NA 
BRANCH   4  16
HETATM   16  O   UNL     1     -11.750   7.116  72.470  1.00  0.00    -0.257 OA 
HETATM   17  C   UNL     1     -10.757   6.995  73.479  1.00  0.00    -0.332 C  
ENDBRANCH   4  16
BRANCH  13  18
HETATM   18  N   UNL     1     -11.808  13.752  68.688  1.00  0.00    -0.357 NA 
HETATM   19  C   UNL     1     -11.529  14.637  66.393  1.00  0.00    -0.347 C  
HETATM   20  C   UNL     1     -11.340  13.428  67.329  1.00  0.00    -0.319 C  
HETATM   21  N   UNL     1     -10.993  15.879  66.965  1.00  0.00    -0.248 N  
HETATM   22  C   UNL     1     -11.475  16.148  68.330  1.00  0.00    -0.298 C  
HETATM   23  C   UNL     1     -10.460  16.830  66.088  1.00  0.00    -0.277 C  
HETATM   24  O   UNL     1     -10.429  16.603  64.877  1.00  0.00    -0.657 OA 
HETATM   25  C   UNL     1     -11.204  14.957  69.266  1.00  0.00    -0.284 C  
BRANCH  23  26
HETATM   26  C   UNL     1      -9.947  18.088  66.607  1.00  0.00    -0.362 A  
HETATM   27  C   UNL     1     -10.526  19.346  66.595  1.00  0.00    -0.568 A  
HETATM   28  C   UNL     1      -9.604  20.235  67.194  1.00  0.00    -0.580 A  
HETATM   29  C   UNL     1      -8.497  19.480  67.504  1.00  0.00    -0.302 A  
HETATM   30  O   UNL     1      -8.684  18.189  67.129  1.00  0.00    -0.240 OA 
ENDBRANCH  23  26
ENDBRANCH  13  18
ENDBRANCH   2   3
TORSDOF 4
ENDMDL
MODEL        3
REMARK 921   NORMALIZED FREE ENERGY PREDICTED BY IDOCK:   -7.35 KCAL/MOL
REMARK 922        TOTAL FREE ENERGY PREDICTED BY IDOCK:   -9.63 KCAL/MOL
REMARK 923 INTER-LIGAND FREE ENERGY PREDICTED BY IDOCK:   -9.22 KCAL/MOL
REMARK 924 INTRA-LIGAND FREE ENERGY PREDICTED BY IDOCK:   -0.41 KCAL/MOL
REMARK 927      BINDING AFFINITY PREDICTED BY RF-SCORE:    0.00 PKD
ROOT
HETATM    1  C   UNL     1     -10.278   7.748  73.273  1.00  0.00    -0.303 C  
HETATM    2  O   UNL     1     -11.367   8.145  72.444  1.00  0.00    -0.336 OA 
ENDROOT
BRANCH   2   3
HETATM    3  C   UNL     1     -11.082   8.394  71.129  1.00  0.00    -0.256 A  
HETATM    4  C   UNL     1     -10.740   7.330  70.284  1.00  0.00    -0.236 A  
HETATM    5  C   UNL     1     -10.459   7.600  68.938  1.00  0.00    -0.211 A  
HETATM    6  C   UNL     1     -10.973   9.943  69.240  1.00  0.00    -0.211 A  
HETATM    7  C   UNL     1     -10.590   8.901  68.403  1.00  0.00    -0.190 A  
HETATM    8  C   UNL     1     -11.193   9.682  70.583  1.00  0.00    -0.385 A  
HETATM    9  C   UNL     1     -10.372   9.280  67.075  1.00  0.00    -0.255 A  
HETATM   10  N   UNL     1      -9.927   8.362  66.117  1.00  0.00    -0.472 NA 
HETATM   11  N   UNL     1     -10.541  10.535  66.632  1.00  0.00    -0.226 NA 
HETATM   12  H1  UNL     1      -9.767   8.638  65.148  1.00  0.00     0.000 HD 
HETATM   13  C   UNL     1     -10.950  11.463  67.509  1.00  0.00    -0.260 A  
HETATM   14  H2  UNL     1     -10.572   7.572  66.116  1.00  0.00     0.000 HD 
HETATM   15  N   UNL     1     -11.155  11.188  68.803  1.00  0.00    -0.214 NA 
BRANCH   4  16
HETATM   16  O   UNL     1     -10.627   5.999  70.584  1.00  0.00    -0.229 OA 
HETATM   17  C   UNL     1     -10.101   5.120  69.600  1.00  0.00    -0.261 C  
ENDBRANCH   4  16
BRANCH  13  18
HETATM   18  N   UNL     1     -11.124  12.778  67.097  1.00  0.00    -0.267 NA 
HETATM   19  C   UNL     1     -11.672  14.385  65.296  1.00  0.00    -0.364 C  
HETATM   20  C   UNL     1     -11.151  12.976  65.638  1.00  0.00    -0.276 C  
HETATM   21  N   UNL     1     -10.991  15.437  66.064  1.00  0.00    -0.314 N  
HETATM   22  C   UNL     1     -10.976  15.183  67.514  1.00  0.00    -0.310 C  
HETATM   23  C   UNL     1     -10.811  16.683  65.453  1.00  0.00    -0.173 C  
HETATM   24  O   UNL     1     -11.198  16.865  64.297  1.00  0.00    -1.204 OA 
HETATM   25  C   UNL     1     -10.377  13.802  67.835  1.00  0.00    -0.244 C  
BRANCH  23  26
HETATM   26  C   UNL     1     -10.171  17.764  66.186  1.00  0.00    -0.339 A  
HETATM   27  C   UNL     1     -10.736  18.722  67.012  1.00  0.00    -0.435 A  
HETATM   28  C   UNL     1      -9.688  19.563  67.452  1.00  0.00    -0.449 A  
HETATM   29  C   UNL     1      -8.547  19.096  66.842  1.00  0.00    -0.299 A  
HETATM   30  O   UNL     1      -8.833  18.028  66.055  1.00  0.00    -0.498 OA 
ENDBRANCH  23  26
ENDBRANCH  13  18
ENDBRANCH   2   3
TORSDOF 4
ENDMDL
MODEL        4
REMARK 921   NORMALIZED FREE ENERGY PREDICTED BY IDOCK:   -7.18 KCAL/MOL
REMARK 922        TOTAL FREE ENERGY PREDICTED BY IDOCK:   -9.43 KCAL/MOL
REMARK 923 INTER-LIGAND FREE ENERGY PREDICTED BY IDOCK:   -8.83 KCAL/MOL
REMARK 924 INTRA-LIGAND FREE ENERGY PREDICTED BY IDOCK:   -0.59 KCAL/MOL
REMARK 927      BINDING AFFINITY PREDICTED BY RF-SCORE:    0.00 PKD
ROOT
HETATM    1  C   UNL     1      -8.858   6.300  69.340  1.00  0.00    -0.127 C  
HETATM    2  O   UNL     1      -8.835   7.014  70.574  1.00  0.00    -0.152 OA 
ENDROOT
BRANCH   2   3
HETATM    3  C   UNL     1      -9.820   7.945  70.766  1.00  0.00    -0.180 A  
HETATM    4  C   UNL     1     -10.755   7.757  71.792  1.00  0.00    -0.223 A  
HETATM    5  C   UNL     1     -11.753   8.723  71.981  1.00  0.00    -0.442 A  
HETATM    6  C   UNL     1     -10.825  10.108  70.230  1.00  0.00    -0.310 A  
HETATM    7  C   UNL     1     -11.784   9.911  71.216  1.00  0.00    -0.472 A  
HETATM    8  C   UNL     1      -9.876   9.124  70.007  1.00  0.00    -0.217 A  
HETATM    9  C   UNL     1     -12.706  10.954  71.341  1.00  0.00    -0.434 A  
HETATM   10  N   UNL     1     -13.770  10.887  72.248  1.00  0.00    -0.368 NA 
HETATM   11  N   UNL     1     -12.659  12.068  70.594  1.00  0.00    -0.222 NA 
HETATM   12  H1  UNL     1     -14.442  11.648  72.339  1.00  0.00     0.000 HD 
HETATM   13  C   UNL     1     -11.672  12.182  69.694  1.00  0.00    -0.325 A  
HETATM   14  H2  UNL     1     -13.382  10.699  73.173  1.00  0.00     0.000 HD 
HETATM   15  N   UNL     1     -10.766  11.217  69.495  1.00  0.00    -0.155 NA 
BRANCH   4  16
HETATM   16  O   UNL     1     -10.855   6.722  72.682  1.00  0.00    -0.227 OA 
HETATM   17  C   UNL     1     -10.201   6.835  73.937  1.00  0.00    -0.367 C  
ENDBRANCH   4  16
BRANCH  13  18
HETATM   18  N   UNL     1     -11.594  13.311  68.889  1.00  0.00    -0.292 NA 
HETATM   19  C   UNL     1     -11.293  14.299  66.639  1.00  0.00    -0.349 C  
HETATM   20  C   UNL     1     -11.031  13.082  67.547  1.00  0.00    -0.259 C  
HETATM   21  N   UNL     1     -10.912  15.567  67.275  1.00  0.00    -0.318 N  
HETATM   22  C   UNL     1     -11.484  15.740  68.621  1.00  0.00    -0.386 C  
HETATM   23  C   UNL     1     -10.434  16.595  66.456  1.00  0.00    -0.262 C  
HETATM   24  O   UNL     1     -10.322  16.415  65.242  1.00  0.00    -0.581 OA 
HETATM   25  C   UNL     1     -11.141  14.549  69.533  1.00  0.00    -0.253 C  
BRANCH  23  26
HETATM   26  C   UNL     1     -10.074  17.879  67.038  1.00  0.00    -0.340 A  
HETATM   27  C   UNL     1     -10.797  19.060  67.079  1.00  0.00    -0.438 A  
HETATM   28  C   UNL     1      -9.988  20.021  67.728  1.00  0.00    -0.560 A  
HETATM   29  C   UNL     1      -8.802  19.387  68.013  1.00  0.00    -0.323 A  
HETATM   30  O   UNL     1      -8.834  18.102  67.576  1.00  0.00    -0.253 OA 
ENDBRANCH  23  26
ENDBRANCH  13  18
ENDBRANCH   2   3
TORSDOF 4
ENDMDL
MODEL        5
REMARK 921   NORMALIZED FREE ENERGY PREDICTED BY IDOCK:   -7.10 KCAL/MOL
REMARK 922        TOTAL FREE ENERGY PREDICTED BY IDOCK:   -9.32 KCAL/MOL
REMARK 923 INTER-LIGAND FREE ENERGY PREDICTED BY IDOCK:   -8.73 KCAL/MOL
REMARK 924 INTRA-LIGAND FREE ENERGY PREDICTED BY IDOCK:   -0.59 KCAL/MOL
REMARK 927      BINDING AFFINITY PREDICTED BY RF-SCORE:    0.00 PKD
ROOT
HETATM    1  C   UNL     1     -11.763   8.339  72.083  1.00  0.00    -0.365 C  
HETATM    2  O   UNL     1     -11.175   7.373  71.214  1.00  0.00    -0.245 OA 
ENDROOT
BRANCH   2   3
HETATM    3  C   UNL     1     -10.819   7.803  69.965  1.00  0.00    -0.241 A  
HETATM    4  C   UNL     1     -10.350   6.877  69.025  1.00  0.00    -0.192 A  
HETATM    5  C   UNL     1      -9.996   7.332  67.747  1.00  0.00    -0.205 A  
HETATM    6  C   UNL     1     -10.684   9.584  68.296  1.00  0.00    -0.194 A  
HETATM    7  C   UNL     1     -10.177   8.682  67.368  1.00  0.00    -0.329 A  
HETATM    8  C   UNL     1     -10.977   9.142  69.575  1.00  0.00    -0.138 A  
HETATM    9  C   UNL     1      -9.894   9.238  66.118  1.00  0.00    -0.293 A  
HETATM   10  N   UNL     1      -9.325   8.477  65.090  1.00  0.00    -0.381 NA 
HETATM   11  N   UNL     1     -10.116  10.528  65.821  1.00  0.00    -0.260 NA 
HETATM   12  H1  UNL     1      -9.119   8.883  64.178  1.00  0.00     0.000 HD 
HETATM   13  C   UNL     1     -10.644  11.311  66.771  1.00  0.00    -0.260 A  
HETATM   14  H2  UNL     1      -9.915   7.658  64.943  1.00  0.00     0.000 HD 
HETATM   15  N   UNL     1     -10.918  10.862  68.002  1.00  0.00    -0.242 NA 
BRANCH   4  16
HETATM   16  O   UNL     1     -10.170   5.528  69.166  1.00  0.00    -0.197 OA 
HETATM   17  C   UNL     1      -8.911   5.051  69.619  1.00  0.00    -0.099 C  
ENDBRANCH   4  16
BRANCH  13  18
HETATM   18  N   UNL     1     -10.876  12.656  66.513  1.00  0.00    -0.253 NA 
HETATM   19  C   UNL     1     -11.624  14.419  64.945  1.00  0.00    -0.395 C  
HETATM   20  C   UNL     1     -11.052  12.996  65.090  1.00  0.00    -0.292 C  
HETATM   21  N   UNL     1     -10.884  15.406  65.743  1.00  0.00    -0.339 N  
HETATM   22  C   UNL     1     -10.720  15.011  67.152  1.00  0.00    -0.303 C  
HETATM   23  C   UNL     1     -10.784  16.710  65.246  1.00  0.00    -0.204 C  
HETATM   24  O   UNL     1     -11.287  16.996  64.158  1.00  0.00    -1.164 OA 
HETATM   25  C   UNL     1     -10.073  13.621  67.273  1.00  0.00    -0.239 C  
BRANCH  23  26
HETATM   26  C   UNL     1     -10.088  17.728  66.017  1.00  0.00    -0.247 A  
HETATM   27  C   UNL     1     -10.606  18.780  66.755  1.00  0.00    -0.458 A  
HETATM   28  C   UNL     1      -9.509  19.498  67.284  1.00  0.00    -0.422 A  
HETATM   29  C   UNL     1      -8.382  18.870  66.810  1.00  0.00    -0.281 A  
HETATM   30  O   UNL     1      -8.720  17.817  66.022  1.00  0.00    -0.495 OA 
ENDBRANCH  23  26
ENDBRANCH  13  18
ENDBRANCH   2   3
TORSDOF 4
ENDMDL
MODEL        6
REMARK 921   NORMALIZED FREE ENERGY PREDICTED BY IDOCK:   -7.01 KCAL/MOL
REMARK 922        TOTAL FREE ENERGY PREDICTED BY IDOCK:   -9.21 KCAL/MOL
REMARK 923 INTER-LIGAND FREE ENERGY PREDICTED BY IDOCK:   -8.95 KCAL/MOL
REMARK 924 INTRA-LIGAND FREE ENERGY PREDICTED BY IDOCK:   -0.26 KCAL/MOL
REMARK 927      BINDING AFFINITY PREDICTED BY RF-SCORE:    0.00 PKD
ROOT
HETATM    1  C   UNL     1     -10.084   5.021  69.832  1.00  0.00    -0.274 C  
HETATM    2  O   UNL     1      -9.489   6.096  70.555  1.00  0.00    -0.162 OA 
ENDROOT
BRANCH   2   3
HETATM    3  C   UNL     1     -10.270   7.199  70.774  1.00  0.00    -0.197 A  
HETATM    4  C   UNL     1     -11.018   7.292  71.954  1.00  0.00    -0.230 A  
HETATM    5  C   UNL     1     -11.806   8.431  72.167  1.00  0.00    -0.441 A  
HETATM    6  C   UNL     1     -11.018   9.430  70.110  1.00  0.00    -0.246 A  
HETATM    7  C   UNL     1     -11.798   9.513  71.258  1.00  0.00    -0.450 A  
HETATM    8  C   UNL     1     -10.286   8.277  69.876  1.00  0.00    -0.201 A  
HETATM    9  C   UNL     1     -12.512  10.708  71.384  1.00  0.00    -0.390 A  
HETATM   10  N   UNL     1     -13.388  10.928  72.453  1.00  0.00    -0.480 NA 
HETATM   11  N   UNL     1     -12.436  11.707  70.490  1.00  0.00    -0.289 NA 
HETATM   12  H1  UNL     1     -13.909  11.800  72.544  1.00  0.00     0.000 HD 
HETATM   13  C   UNL     1     -11.626  11.547  69.434  1.00  0.00    -0.321 A  
HETATM   14  H2  UNL     1     -12.870  10.780  73.319  1.00  0.00     0.000 HD 
HETATM   15  N   UNL     1     -10.929  10.423  69.227  1.00  0.00    -0.227 NA 
BRANCH   4  16
HETATM   16  O   UNL     1     -11.108   6.395  72.985  1.00  0.00    -0.250 OA 
HETATM   17  C   UNL     1     -10.215   6.525  74.082  1.00  0.00    -0.358 C  
ENDBRANCH   4  16
BRANCH  13  18
HETATM   18  N   UNL     1     -11.528  12.548  68.477  1.00  0.00    -0.280 NA 
HETATM   19  C   UNL     1     -10.811  13.264  66.218  1.00  0.00    -0.284 C  
HETATM   20  C   UNL     1     -10.599  12.263  67.370  1.00  0.00    -0.222 C  
HETATM   21  N   UNL     1     -10.830  14.658  66.682  1.00  0.00    -0.306 N  
HETATM   22  C   UNL     1     -11.760  14.887  67.802  1.00  0.00    -0.317 C  
HETATM   23  C   UNL     1     -10.332  15.643  65.823  1.00  0.00    -0.365 C  
HETATM   24  O   UNL     1      -9.874  15.328  64.723  1.00  0.00    -0.129 OA 
HETATM   25  C   UNL     1     -11.476  13.928  68.971  1.00  0.00    -0.299 C  
BRANCH  23  26
HETATM   26  C   UNL     1     -10.360  17.040  66.228  1.00  0.00    -0.306 A  
HETATM   27  C   UNL     1     -10.161  17.597  67.480  1.00  0.00    -0.348 A  
HETATM   28  C   UNL     1     -10.329  18.994  67.346  1.00  0.00    -0.504 A  
HETATM   29  C   UNL     1     -10.658  19.211  66.029  1.00  0.00    -0.442 A  
HETATM   30  O   UNL     1     -10.706  18.035  65.352  1.00  0.00    -0.632 OA 
ENDBRANCH  23  26
ENDBRANCH  13  18
ENDBRANCH   2   3
TORSDOF 4
ENDMDL
MODEL        7
REMARK 921   NORMALIZED FREE ENERGY PREDICTED BY IDOCK:   -7.00 KCAL/MOL
REMARK 922        TOTAL FREE ENERGY PREDICTED BY IDOCK:   -9.21 KCAL/MOL
REMARK 923 INTER-LIGAND FREE ENERGY PREDICTED BY IDOCK:   -8.61 KCAL/MOL
REMARK 924 INTRA-LIGAND FREE ENERGY PREDICTED BY IDOCK:   -0.60 KCAL/MOL
REMARK 927      BINDING AFFINITY PREDICTED BY RF-SCORE:    0.00 PKD
ROOT
HETATM    1  C   UNL     1      -9.981  19.360  68.860  1.00  0.00    -0.445 C  
HETATM    2  O   UNL     1      -8.944  18.385  68.766  1.00  0.00    -0.304 OA 
ENDROOT
BRANCH   2   3
HETATM    3  C   UNL     1      -9.243  17.231  68.095  1.00  0.00    -0.267 A  
HETATM    4  C   UNL     1      -8.939  17.126  66.732  1.00  0.00    -0.241 A  
HETATM    5  C   UNL     1      -9.244  15.934  66.061  1.00  0.00    -0.372 A  
HETATM    6  C   UNL     1     -10.033  14.917  68.107  1.00  0.00    -0.222 A  
HETATM    7  C   UNL     1      -9.775  14.818  66.745  1.00  0.00    -0.264 A  
HETATM    8  C   UNL     1      -9.784  16.116  68.754  1.00  0.00    -0.233 A  
HETATM    9  C   UNL     1     -10.083  13.573  66.189  1.00  0.00    -0.304 A  
HETATM   10  N   UNL     1      -9.936  13.326  64.819  1.00  0.00    -0.594 NA 
HETATM   11  N   UNL     1     -10.563  12.546  66.908  1.00  0.00    -0.234 NA 
HETATM   12  H1  UNL     1     -10.161  12.418  64.414  1.00  0.00     0.000 HD 
HETATM   13  C   UNL     1     -10.743  12.728  68.224  1.00  0.00    -0.239 A  
HETATM   14  H2  UNL     1      -8.976  13.556  64.561  1.00  0.00     0.000 HD 
HETATM   15  N   UNL     1     -10.497  13.897  68.828  1.00  0.00    -0.237 NA 
BRANCH   4  16
HETATM   16  O   UNL     1      -8.363  18.056  65.908  1.00  0.00    -0.516 OA 
HETATM   17  C   UNL     1      -6.948  18.174  65.896  1.00  0.00    -0.284 C  
ENDBRANCH   4  16
BRANCH  13  18
HETATM   18  N   UNL     1     -11.251  11.698  69.004  1.00  0.00    -0.242 NA 
HETATM   19  C   UNL     1     -12.872  10.925  70.709  1.00  0.00    -0.289 C  
HETATM   20  C   UNL     1     -12.106  12.128  70.125  1.00  0.00    -0.290 C  
HETATM   21  N   UNL     1     -11.993   9.782  70.988  1.00  0.00    -0.327 N  
HETATM   22  C   UNL     1     -11.146   9.403  69.844  1.00  0.00    -0.200 C  
HETATM   23  C   UNL     1     -12.313   8.957  72.072  1.00  0.00    -0.390 C  
HETATM   24  O   UNL     1     -13.293   9.212  72.773  1.00  0.00    -0.410 OA 
HETATM   25  C   UNL     1     -10.331  10.602  69.328  1.00  0.00    -0.218 C  
BRANCH  23  26
HETATM   26  C   UNL     1     -11.489   7.795  72.366  1.00  0.00    -0.363 A  
HETATM   27  C   UNL     1     -10.265   7.725  73.011  1.00  0.00    -0.393 A  
HETATM   28  C   UNL     1      -9.871   6.367  73.011  1.00  0.00    -0.174 A  
HETATM   29  C   UNL     1     -10.856   5.687  72.335  1.00  0.00    -0.248 A  
HETATM   30  O   UNL     1     -11.823   6.544  71.917  1.00  0.00    -0.309 OA 
ENDBRANCH  23  26
ENDBRANCH  13  18
ENDBRANCH   2   3
TORSDOF 4
ENDMDL
MODEL        8
REMARK 921   NORMALIZED FREE ENERGY PREDICTED BY IDOCK:   -6.88 KCAL/MOL
REMARK 922        TOTAL FREE ENERGY PREDICTED BY IDOCK:   -9.06 KCAL/MOL
REMARK 923 INTER-LIGAND FREE ENERGY PREDICTED BY IDOCK:   -8.48 KCAL/MOL
REMARK 924 INTRA-LIGAND FREE ENERGY PREDICTED BY IDOCK:   -0.57 KCAL/MOL
REMARK 927      BINDING AFFINITY PREDICTED BY RF-SCORE:    0.00 PKD
ROOT
HETATM    1  C   UNL     1     -10.490   7.825  68.616  1.00  0.00    -0.172 C  
HETATM    2  O   UNL     1     -11.213   7.810  69.844  1.00  0.00    -0.190 OA 
ENDROOT
BRANCH   2   3
HETATM    3  C   UNL     1     -11.730   9.004  70.270  1.00  0.00     0.014 A  
HETATM    4  C   UNL     1     -12.514   9.042  71.429  1.00  0.00    -0.317 A  
HETATM    5  C   UNL     1     -13.030  10.273  71.856  1.00  0.00    -0.554 A  
HETATM    6  C   UNL     1     -11.895  11.435  70.064  1.00  0.00    -0.359 A  
HETATM    7  C   UNL     1     -12.710  11.478  71.190  1.00  0.00    -0.458 A  
HETATM    8  C   UNL     1     -11.436  10.208  69.612  1.00  0.00    -0.256 A  
HETATM    9  C   UNL     1     -13.135  12.761  71.544  1.00  0.00    -0.286 A  
HETATM   10  N   UNL     1     -14.007  12.972  72.619  1.00  0.00    -0.729 NA 
HETATM   11  N   UNL     1     -12.771  13.866  70.876  1.00  0.00    -0.344 NA 
HETATM   12  H1  UNL     1     -14.317  13.908  72.877  1.00  0.00     0.000 HD 
HETATM   13  C   UNL     1     -11.950  13.725  69.826  1.00  0.00    -0.344 A  
HETATM   14  H2  UNL     1     -13.596  12.538  73.446  1.00  0.00     0.000 HD 
HETATM   15  N   UNL     1     -11.520  12.529  69.406  1.00  0.00    -0.275 NA 
BRANCH   4  16
HETATM   16  O   UNL     1     -12.878   8.010  72.252  1.00  0.00    -0.273 OA 
HETATM   17  C   UNL     1     -14.054   7.275  71.946  1.00  0.00    -0.279 C  
ENDBRANCH   4  16
BRANCH  13  18
HETATM   18  N   UNL     1     -11.559  14.840  69.096  1.00  0.00    -0.286 NA 
HETATM   19  C   UNL     1     -11.237  15.936  66.900  1.00  0.00     0.007 C  
HETATM   20  C   UNL     1     -11.339  14.600  67.659  1.00  0.00    -0.336 C  
HETATM   21  N   UNL     1     -10.299  16.873  67.534  1.00  0.00    -0.310 N  
HETATM   22  C   UNL     1     -10.549  17.065  68.972  1.00  0.00    -0.314 C  
HETATM   23  C   UNL     1      -9.587  17.748  66.707  1.00  0.00    -0.300 C  
HETATM   24  O   UNL     1      -9.738  17.703  65.485  1.00  0.00    -0.415 OA 
HETATM   25  C   UNL     1     -10.566  15.721  69.722  1.00  0.00    -0.312 C  
BRANCH  23  26
HETATM   26  C   UNL     1      -8.670  18.714  67.293  1.00  0.00    -0.270 A  
HETATM   27  C   UNL     1      -8.714  20.098  67.264  1.00  0.00    -0.429 A  
HETATM   28  C   UNL     1      -7.571  20.565  67.953  1.00  0.00    -0.191 A  
HETATM   29  C   UNL     1      -6.873  19.444  68.332  1.00  0.00    -0.282 A  
HETATM   30  O   UNL     1      -7.514  18.322  67.915  1.00  0.00    -0.224 OA 
ENDBRANCH  23  26
ENDBRANCH  13  18
ENDBRANCH   2   3
TORSDOF 4
ENDMDL
MODEL        9
REMARK 921   NORMALIZED FREE ENERGY PREDICTED BY IDOCK:   -6.84 KCAL/MOL
REMARK 922        TOTAL FREE ENERGY PREDICTED BY IDOCK:   -9.01 KCAL/MOL
REMARK 923 INTER-LIGAND FREE ENERGY PREDICTED BY IDOCK:   -8.37 KCAL/MOL
REMARK 924 INTRA-LIGAND FREE ENERGY PREDICTED BY IDOCK:   -0.63 KCAL/MOL
REMARK 927      BINDING AFFINITY PREDICTED BY RF-SCORE:    0.00 PKD
ROOT
HETATM    1  C   UNL     1      -8.062   6.475  66.987  1.00  0.00    -0.113 C  
HETATM    2  O   UNL     1      -9.464   6.374  67.225  1.00  0.00    -0.120 OA 
ENDROOT
BRANCH   2   3
HETATM    3  C   UNL     1     -10.036   7.371  67.967  1.00  0.00    -0.179 A  
HETATM    4  C   UNL     1     -10.385   7.125  69.301  1.00  0.00    -0.203 A  
HETATM    5  C   UNL     1     -10.963   8.159  70.050  1.00  0.00    -0.199 A  
HETATM    6  C   UNL     1     -10.737   9.702  68.202  1.00  0.00    -0.217 A  
HETATM    7  C   UNL     1     -11.127   9.456  69.514  1.00  0.00    -0.134 A  
HETATM    8  C   UNL     1     -10.220   8.661  67.447  1.00  0.00    -0.329 A  
HETATM    9  C   UNL     1     -11.656  10.568  70.176  1.00  0.00    -0.326 A  
HETATM   10  N   UNL     1     -12.148  10.476  71.483  1.00  0.00    -0.290 NA 
HETATM   11  N   UNL     1     -11.758  11.780  69.609  1.00  0.00    -0.321 NA 
HETATM   12  H1  UNL     1     -12.533  11.287  71.965  1.00  0.00     0.000 HD 
HETATM   13  C   UNL     1     -11.320  11.926  68.350  1.00  0.00    -0.276 A  
HETATM   14  H2  UNL     1     -11.410  10.084  72.068  1.00  0.00     0.000 HD 
HETATM   15  N   UNL     1     -10.825  10.906  67.639  1.00  0.00    -0.245 NA 
BRANCH   4  16
HETATM   16  O   UNL     1     -10.245   5.972  70.025  1.00  0.00    -0.180 OA 
HETATM   17  C   UNL     1      -9.038   5.758  70.742  1.00  0.00    -0.148 C  
ENDBRANCH   4  16
BRANCH  13  18
HETATM   18  N   UNL     1     -11.420  13.159  67.719  1.00  0.00    -0.293 NA 
HETATM   19  C   UNL     1     -11.921  14.465  65.677  1.00  0.00    -0.354 C  
HETATM   20  C   UNL     1     -11.484  13.103  66.248  1.00  0.00    -0.334 C  
HETATM   21  N   UNL     1     -11.146  15.582  66.233  1.00  0.00    -0.240 N  
HETATM   22  C   UNL     1     -11.096  15.583  67.705  1.00  0.00    -0.311 C  
HETATM   23  C   UNL     1     -10.904  16.687  65.410  1.00  0.00    -0.173 C  
HETATM   24  O   UNL     1     -11.318  16.694  64.249  1.00  0.00    -1.116 OA 
HETATM   25  C   UNL     1     -10.581  14.239  68.249  1.00  0.00    -0.245 C  
BRANCH  23  26
HETATM   26  C   UNL     1     -10.168  17.830  65.927  1.00  0.00    -0.225 A  
HETATM   27  C   UNL     1     -10.641  19.055  66.369  1.00  0.00    -0.492 A  
HETATM   28  C   UNL     1      -9.516  19.827  66.738  1.00  0.00    -0.489 A  
HETATM   29  C   UNL     1      -8.416  19.049  66.466  1.00  0.00    -0.314 A  
HETATM   30  O   UNL     1      -8.798  17.851  65.951  1.00  0.00    -0.506 OA 
ENDBRANCH  23  26
ENDBRANCH  13  18
ENDBRANCH   2   3
TORSDOF 4
ENDMDL
MODEL       10
REMARK 921   NORMALIZED FREE ENERGY PREDICTED BY IDOCK:   -6.82 KCAL/MOL
REMARK 922        TOTAL FREE ENERGY PREDICTED BY IDOCK:   -8.98 KCAL/MOL
REMARK 923 INTER-LIGAND FREE ENERGY PREDICTED BY IDOCK:   -8.38 KCAL/MOL
REMARK 924 INTRA-LIGAND FREE ENERGY PREDICTED BY IDOCK:   -0.61 KCAL/MOL
REMARK 927      BINDING AFFINITY PREDICTED BY RF-SCORE:    0.00 PKD
ROOT
HETATM    1  C   UNL     1     -10.778  19.291  67.341  1.00  0.00    -0.486 C  
HETATM    2  O   UNL     1     -10.650  18.369  66.260  1.00  0.00    -0.395 OA 
ENDROOT
BRANCH   2   3
HETATM    3  C   UNL     1      -9.975  17.208  66.517  1.00  0.00    -0.302 A  
HETATM    4  C   UNL     1      -8.605  17.129  66.234  1.00  0.00    -0.241 A  
HETATM    5  C   UNL     1      -7.926  15.935  66.510  1.00  0.00    -0.231 A  
HETATM    6  C   UNL     1      -9.923  14.949  67.452  1.00  0.00    -0.223 A  
HETATM    7  C   UNL     1      -8.573  14.845  67.136  1.00  0.00    -0.248 A  
HETATM    8  C   UNL     1     -10.604  16.110  67.124  1.00  0.00    -0.294 A  
HETATM    9  C   UNL     1      -7.990  13.625  67.489  1.00  0.00    -0.182 A  
HETATM   10  N   UNL     1      -6.654  13.338  67.189  1.00  0.00    -0.459 NA 
HETATM   11  N   UNL     1      -8.663  12.641  68.106  1.00  0.00    -0.186 NA 
HETATM   12  H1  UNL     1      -6.229  12.448  67.446  1.00  0.00     0.000 HD 
HETATM   13  C   UNL     1      -9.953  12.851  68.404  1.00  0.00    -0.211 A  
HETATM   14  H2  UNL     1      -6.078  14.085  67.578  1.00  0.00     0.000 HD 
HETATM   15  N   UNL     1     -10.592  13.981  68.076  1.00  0.00    -0.243 NA 
BRANCH   4  16
HETATM   16  O   UNL     1      -7.784  18.085  65.699  1.00  0.00    -0.539 OA 
HETATM   17  C   UNL     1      -7.026  18.903  66.579  1.00  0.00    -0.212 C  
ENDBRANCH   4  16
BRANCH  13  18
HETATM   18  N   UNL     1     -10.692  11.855  69.028  1.00  0.00    -0.194 NA 
HETATM   19  C   UNL     1     -12.650  11.205  70.397  1.00  0.00    -0.246 C  
HETATM   20  C   UNL     1     -11.674  12.334  70.017  1.00  0.00    -0.242 C  
HETATM   21  N   UNL     1     -11.956   9.958  70.749  1.00  0.00    -0.307 N  
HETATM   22  C   UNL     1     -10.974   9.532  69.739  1.00  0.00    -0.223 C  
HETATM   23  C   UNL     1     -12.541   9.132  71.716  1.00  0.00    -0.370 C  
HETATM   24  O   UNL     1     -13.593   9.470  72.261  1.00  0.00    -0.444 OA 
HETATM   25  C   UNL     1      -9.961  10.650  69.435  1.00  0.00    -0.158 C  
BRANCH  23  26
HETATM   26  C   UNL     1     -11.906   7.873  72.073  1.00  0.00    -0.318 A  
HETATM   27  C   UNL     1     -12.081   6.613  71.526  1.00  0.00    -0.406 A  
HETATM   28  C   UNL     1     -11.256   5.725  72.253  1.00  0.00    -0.333 A  
HETATM   29  C   UNL     1     -10.652   6.482  73.228  1.00  0.00    -0.276 A  
HETATM   30  O   UNL     1     -11.059   7.775  73.146  1.00  0.00    -0.409 OA 
ENDBRANCH  23  26
ENDBRANCH  13  18
ENDBRANCH   2   3
TORSDOF 4
ENDMDL
MODEL       11
REMARK 921   NORMALIZED FREE ENERGY PREDICTED BY IDOCK:   -6.75 KCAL/MOL
REMARK 922        TOTAL FREE ENERGY PREDICTED BY IDOCK:   -8.89 KCAL/MOL
REMARK 923 INTER-LIGAND FREE ENERGY PREDICTED BY IDOCK:   -8.34 KCAL/MOL
REMARK 924 INTRA-LIGAND FREE ENERGY PREDICTED BY IDOCK:   -0.55 KCAL/MOL
REMARK 927      BINDING AFFINITY PREDICTED BY RF-SCORE:    0.00 PKD
ROOT
HETATM    1  C   UNL     1     -10.045   5.992  68.258  1.00  0.00    -0.164 C  
HETATM    2  O   UNL     1     -10.386   6.169  69.631  1.00  0.00    -0.184 OA 
ENDROOT
BRANCH   2   3
HETATM    3  C   UNL     1     -10.917   7.379  69.984  1.00  0.00    -0.248 A  
HETATM    4  C   UNL     1     -11.717   7.474  71.129  1.00  0.00    -0.291 A  
HETATM    5  C   UNL     1     -12.248   8.722  71.482  1.00  0.00    -0.382 A  
HETATM    6  C   UNL     1     -11.097   9.794  69.644  1.00  0.00    -0.217 A  
HETATM    7  C   UNL     1     -11.928   9.891  70.755  1.00  0.00    -0.410 A  
HETATM    8  C   UNL     1     -10.623   8.548  69.266  1.00  0.00    -0.193 A  
HETATM    9  C   UNL     1     -12.367  11.189  71.033  1.00  0.00    -0.382 A  
HETATM   10  N   UNL     1     -13.255  11.451  72.083  1.00  0.00    -0.556 NA 
HETATM   11  N   UNL     1     -12.001  12.259  70.311  1.00  0.00    -0.335 NA 
HETATM   12  H1  UNL     1     -13.576  12.397  72.286  1.00  0.00     0.000 HD 
HETATM   13  C   UNL     1     -11.165  12.068  69.281  1.00  0.00    -0.229 A  
HETATM   14  H2  UNL     1     -12.853  11.066  72.937  1.00  0.00     0.000 HD 
HETATM   15  N   UNL     1     -10.720  10.854  68.932  1.00  0.00    -0.201 NA 
BRANCH   4  16
HETATM   16  O   UNL     1     -12.085   6.486  72.002  1.00  0.00    -0.328 OA 
HETATM   17  C   UNL     1     -11.195   6.136  73.052  1.00  0.00    -0.172 C  
ENDBRANCH   4  16
BRANCH  13  18
HETATM   18  N   UNL     1     -10.772  13.145  68.497  1.00  0.00    -0.254 NA 
HETATM   19  C   UNL     1      -9.090  14.186  67.009  1.00  0.00    -0.243 C  
HETATM   20  C   UNL     1      -9.345  13.159  68.129  1.00  0.00    -0.217 C  
HETATM   21  N   UNL     1      -9.678  15.499  67.307  1.00  0.00    -0.218 N  
HETATM   22  C   UNL     1     -11.099  15.429  67.688  1.00  0.00    -0.316 C  
HETATM   23  C   UNL     1      -9.018  16.638  66.831  1.00  0.00    -0.222 C  
HETATM   24  O   UNL     1      -7.964  16.522  66.204  1.00  0.00    -0.312 OA 
HETATM   25  C   UNL     1     -11.317  14.457  68.860  1.00  0.00    -0.274 C  
BRANCH  23  26
HETATM   26  C   UNL     1      -9.580  17.957  67.075  1.00  0.00    -0.286 A  
HETATM   27  C   UNL     1      -9.326  18.844  68.108  1.00  0.00    -0.368 A  
HETATM   28  C   UNL     1     -10.156  19.971  67.902  1.00  0.00    -0.559 A  
HETATM   29  C   UNL     1     -10.898  19.694  66.779  1.00  0.00    -0.376 A  
HETATM   30  O   UNL     1     -10.578  18.470  66.288  1.00  0.00    -0.407 OA 
ENDBRANCH  23  26
ENDBRANCH  13  18
ENDBRANCH   2   3
TORSDOF 4
ENDMDL
MODEL       12
REMARK 921   NORMALIZED FREE ENERGY PREDICTED BY IDOCK:   -6.73 KCAL/MOL
REMARK 922        TOTAL FREE ENERGY PREDICTED BY IDOCK:   -8.87 KCAL/MOL
REMARK 923 INTER-LIGAND FREE ENERGY PREDICTED BY IDOCK:   -8.32 KCAL/MOL
REMARK 924 INTRA-LIGAND FREE ENERGY PREDICTED BY IDOCK:   -0.56 KCAL/MOL
REMARK 927      BINDING AFFINITY PREDICTED BY RF-SCORE:    0.00 PKD
ROOT
HETATM    1  C   UNL     1      -7.140  17.571  66.189  1.00  0.00    -0.306 C  
HETATM    2  O   UNL     1      -8.464  17.283  65.749  1.00  0.00    -0.532 OA 
ENDROOT
BRANCH   2   3
HETATM    3  C   UNL     1      -9.281  16.634  66.633  1.00  0.00    -0.253 A  
HETATM    4  C   UNL     1     -10.291  17.347  67.291  1.00  0.00    -0.336 A  
HETATM    5  C   UNL     1     -11.125  16.666  68.189  1.00  0.00    -0.285 A  
HETATM    6  C   UNL     1     -10.040  14.563  67.689  1.00  0.00    -0.228 A  
HETATM    7  C   UNL     1     -11.018  15.270  68.380  1.00  0.00    -0.271 A  
HETATM    8  C   UNL     1      -9.181  15.251  66.848  1.00  0.00    -0.255 A  
HETATM    9  C   UNL     1     -11.814  14.483  69.218  1.00  0.00    -0.323 A  
HETATM   10  N   UNL     1     -12.806  15.049  70.027  1.00  0.00    -0.616 NA 
HETATM   11  N   UNL     1     -11.670  13.154  69.332  1.00  0.00    -0.312 NA 
HETATM   12  H1  UNL     1     -13.387  14.475  70.638  1.00  0.00     0.000 HD 
HETATM   13  C   UNL     1     -10.723  12.558  68.595  1.00  0.00    -0.234 A  
HETATM   14  H2  UNL     1     -13.426  15.594  69.427  1.00  0.00     0.000 HD 
HETATM   15  N   UNL     1      -9.902  13.242  67.788  1.00  0.00    -0.218 NA 
BRANCH   4  16
HETATM   16  O   UNL     1     -10.606  18.676  67.193  1.00  0.00    -0.407 OA 
HETATM   17  C   UNL     1     -10.145  19.563  68.202  1.00  0.00    -0.429 C  
ENDBRANCH   4  16
BRANCH  13  18
HETATM   18  N   UNL     1     -10.529  11.186  68.691  1.00  0.00    -0.189 NA 
HETATM   19  C   UNL     1     -10.570   8.954  67.620  1.00  0.00    -0.224 C  
HETATM   20  C   UNL     1     -11.117  10.394  67.596  1.00  0.00    -0.293 C  
HETATM   21  N   UNL     1     -10.653   8.344  68.954  1.00  0.00    -0.185 N  
HETATM   22  C   UNL     1     -10.070   9.182  70.016  1.00  0.00    -0.206 C  
HETATM   23  C   UNL     1     -10.871   6.965  69.033  1.00  0.00    -0.212 C  
HETATM   24  O   UNL     1     -11.010   6.303  68.003  1.00  0.00    -0.307 OA 
HETATM   25  C   UNL     1     -10.689  10.591  70.022  1.00  0.00    -0.224 C  
BRANCH  23  26
HETATM   26  C   UNL     1     -10.929   6.313  70.332  1.00  0.00    -0.322 A  
HETATM   27  C   UNL     1     -10.177   5.258  70.821  1.00  0.00    -0.317 A  
HETATM   28  C   UNL     1     -10.647   4.980  72.125  1.00  0.00    -0.259 A  
HETATM   29  C   UNL     1     -11.686   5.853  72.347  1.00  0.00    -0.253 A  
HETATM   30  O   UNL     1     -11.882   6.643  71.260  1.00  0.00    -0.320 OA 
ENDBRANCH  23  26
ENDBRANCH  13  18
ENDBRANCH   2   3
TORSDOF 4
ENDMDL
MODEL       13
REMARK 921   NORMALIZED FREE ENERGY PREDICTED BY IDOCK:   -6.69 KCAL/MOL
REMARK 922        TOTAL FREE ENERGY PREDICTED BY IDOCK:   -8.81 KCAL/MOL
REMARK 923 INTER-LIGAND FREE ENERGY PREDICTED BY IDOCK:   -8.23 KCAL/MOL
REMARK 924 INTRA-LIGAND FREE ENERGY PREDICTED BY IDOCK:   -0.58 KCAL/MOL
REMARK 927      BINDING AFFINITY PREDICTED BY RF-SCORE:    0.00 PKD
ROOT
HETATM    1  C   UNL     1      -7.306  17.231  66.094  1.00  0.00    -0.281 C  
HETATM    2  O   UNL     1      -8.687  16.913  65.936  1.00  0.00    -0.516 OA 
ENDROOT
BRANCH   2   3
HETATM    3  C   UNL     1      -9.384  16.610  67.074  1.00  0.00    -0.224 A  
HETATM    4  C   UNL     1      -9.824  17.644  67.910  1.00  0.00    -0.300 A  
HETATM    5  C   UNL     1     -10.543  17.318  69.068  1.00  0.00    -0.247 A  
HETATM    6  C   UNL     1     -10.494  14.967  68.504  1.00  0.00    -0.242 A  
HETATM    7  C   UNL     1     -10.898  15.982  69.363  1.00  0.00    -0.300 A  
HETATM    8  C   UNL     1      -9.733  15.289  67.392  1.00  0.00    -0.208 A  
HETATM    9  C   UNL     1     -11.640  15.545  70.464  1.00  0.00    -0.346 A  
HETATM   10  N   UNL     1     -12.074  16.434  71.454  1.00  0.00    -0.561 NA 
HETATM   11  N   UNL     1     -11.962  14.258  70.668  1.00  0.00    -0.317 NA 
HETATM   12  H1  UNL     1     -12.615  16.115  72.257  1.00  0.00     0.000 HD 
HETATM   13  C   UNL     1     -11.558  13.356  69.762  1.00  0.00    -0.235 A  
HETATM   14  H2  UNL     1     -12.600  17.179  70.998  1.00  0.00     0.000 HD 
HETATM   15  N   UNL     1     -10.822  13.690  68.695  1.00  0.00    -0.257 NA 
BRANCH   4  16
HETATM   16  O   UNL     1      -9.649  18.994  67.768  1.00  0.00    -0.297 OA 
HETATM   17  C   UNL     1     -10.614  19.734  67.034  1.00  0.00    -0.461 C  
ENDBRANCH   4  16
BRANCH  13  18
HETATM   18  N   UNL     1     -11.856  12.012  69.941  1.00  0.00    -0.337 NA 
HETATM   19  C   UNL     1     -13.175  10.263  71.095  1.00  0.00    -0.343 C  
HETATM   20  C   UNL     1     -12.619  11.699  71.161  1.00  0.00    -0.335 C  
HETATM   21  N   UNL     1     -12.147   9.280  70.724  1.00  0.00    -0.225 N  
HETATM   22  C   UNL     1     -11.400   9.648  69.509  1.00  0.00    -0.040 C  
HETATM   23  C   UNL     1     -12.248   7.992  71.259  1.00  0.00    -0.287 C  
HETATM   24  O   UNL     1     -13.164   7.716  72.035  1.00  0.00    -0.265 OA 
HETATM   25  C   UNL     1     -10.788  11.054  69.631  1.00  0.00    -0.183 C  
BRANCH  23  26
HETATM   26  C   UNL     1     -11.271   6.977  70.895  1.00  0.00    -0.282 A  
HETATM   27  C   UNL     1     -10.037   6.701  71.460  1.00  0.00    -0.200 A  
HETATM   28  C   UNL     1      -9.466   5.643  70.716  1.00  0.00    -0.203 A  
HETATM   29  C   UNL     1     -10.363   5.356  69.716  1.00  0.00    -0.305 A  
HETATM   30  O   UNL     1     -11.444   6.174  69.798  1.00  0.00    -0.433 OA 
ENDBRANCH  23  26
ENDBRANCH  13  18
ENDBRANCH   2   3
TORSDOF 4
ENDMDL
MODEL       14
REMARK 921   NORMALIZED FREE ENERGY PREDICTED BY IDOCK:   -6.67 KCAL/MOL
REMARK 922        TOTAL FREE ENERGY PREDICTED BY IDOCK:   -8.79 KCAL/MOL
REMARK 923 INTER-LIGAND FREE ENERGY PREDICTED BY IDOCK:   -8.15 KCAL/MOL
REMARK 924 INTRA-LIGAND FREE ENERGY PREDICTED BY IDOCK:   -0.64 KCAL/MOL
REMARK 927      BINDING AFFINITY PREDICTED BY RF-SCORE:    0.00 PKD
ROOT
HETATM    1  C   UNL     1      -7.593  17.006  66.277  1.00  0.00    -0.305 C  
HETATM    2  O   UNL     1      -8.891  16.546  65.911  1.00  0.00    -0.464 OA 
ENDROOT
BRANCH   2   3
HETATM    3  C   UNL     1      -9.731  16.191  66.932  1.00  0.00    -0.236 A  
HETATM    4  C   UNL     1     -10.511  17.173  67.555  1.00  0.00    -0.348 A  
HETATM    5  C   UNL     1     -11.372  16.793  68.594  1.00  0.00    -0.062 A  
HETATM    6  C   UNL     1     -10.776  14.466  68.313  1.00  0.00    -0.242 A  
HETATM    7  C   UNL     1     -11.524  15.438  68.968  1.00  0.00    -0.349 A  
HETATM    8  C   UNL     1      -9.884  14.853  67.327  1.00  0.00    -0.229 A  
HETATM    9  C   UNL     1     -12.374  14.941  69.960  1.00  0.00    -0.312 A  
HETATM   10  N   UNL     1     -13.153  15.793  70.751  1.00  0.00    -0.701 NA 
HETATM   11  N   UNL     1     -12.485  13.634  70.244  1.00  0.00    -0.299 NA 
HETATM   12  H1  UNL     1     -13.772  15.430  71.474  1.00  0.00     0.000 HD 
HETATM   13  C   UNL     1     -11.749  12.769  69.531  1.00  0.00    -0.318 A  
HETATM   14  H2  UNL     1     -13.708  16.379  70.127  1.00  0.00     0.000 HD 
HETATM   15  N   UNL     1     -10.892  13.167  68.583  1.00  0.00    -0.255 NA 
BRANCH   4  16
HETATM   16  O   UNL     1     -10.566  18.516  67.298  1.00  0.00    -0.405 OA 
HETATM   17  C   UNL     1     -10.058  19.418  68.270  1.00  0.00    -0.433 C  
ENDBRANCH   4  16
BRANCH  13  18
HETATM   18  N   UNL     1     -11.821  11.409  69.801  1.00  0.00    -0.332 NA 
HETATM   19  C   UNL     1     -12.824   9.550  71.091  1.00  0.00    -0.284 C  
HETATM   20  C   UNL     1     -12.511  11.057  71.054  1.00  0.00    -0.409 C  
HETATM   21  N   UNL     1     -11.653   8.725  70.763  1.00  0.00    -0.275 N  
HETATM   22  C   UNL     1     -10.988   9.128  69.513  1.00  0.00    -0.123 C  
HETATM   23  C   UNL     1     -11.536   7.476  71.382  1.00  0.00    -0.265 C  
HETATM   24  O   UNL     1     -12.387   7.107  72.193  1.00  0.00    -0.273 OA 
HETATM   25  C   UNL     1     -10.614  10.620  69.532  1.00  0.00    -0.230 C  
BRANCH  23  26
HETATM   26  C   UNL     1     -10.409   6.612  71.064  1.00  0.00    -0.207 A  
HETATM   27  C   UNL     1     -10.379   5.445  70.319  1.00  0.00    -0.357 A  
HETATM   28  C   UNL     1      -9.046   4.973  70.339  1.00  0.00    -0.172 A  
HETATM   29  C   UNL     1      -8.344   5.854  71.125  1.00  0.00    -0.124 A  
HETATM   30  O   UNL     1      -9.163   6.832  71.590  1.00  0.00    -0.145 OA 
ENDBRANCH  23  26
ENDBRANCH  13  18
ENDBRANCH   2   3
TORSDOF 4
ENDMDL
MODEL       15
REMARK 921   NORMALIZED FREE ENERGY PREDICTED BY IDOCK:   -6.64 KCAL/MOL
REMARK 922        TOTAL FREE ENERGY PREDICTED BY IDOCK:   -8.75 KCAL/MOL
REMARK 923 INTER-LIGAND FREE ENERGY PREDICTED BY IDOCK:   -8.28 KCAL/MOL
REMARK 924 INTRA-LIGAND FREE ENERGY PREDICTED BY IDOCK:   -0.47 KCAL/MOL
REMARK 927      BINDING AFFINITY PREDICTED BY RF-SCORE:    0.00 PKD
ROOT
HETATM    1  C   UNL     1      -7.187  19.486  69.179  1.00  0.00    -0.347 C  
HETATM    2  O   UNL     1      -8.607  19.496  69.054  1.00  0.00    -0.340 OA 
ENDROOT
BRANCH   2   3
HETATM    3  C   UNL     1      -9.167  18.502  68.299  1.00  0.00    -0.321 A  
HETATM    4  C   UNL     1      -9.142  18.600  66.902  1.00  0.00    -0.294 A  
HETATM    5  C   UNL     1      -9.712  17.570  66.142  1.00  0.00    -0.225 A  
HETATM    6  C   UNL     1     -10.217  16.299  68.136  1.00  0.00    -0.258 A  
HETATM    7  C   UNL     1     -10.236  16.407  66.751  1.00  0.00    -0.285 A  
HETATM    8  C   UNL     1      -9.705  17.346  68.886  1.00  0.00    -0.251 A  
HETATM    9  C   UNL     1     -10.794  15.306  66.095  1.00  0.00    -0.320 A  
HETATM   10  N   UNL     1     -10.941  15.280  64.703  1.00  0.00    -0.642 NA 
HETATM   11  N   UNL     1     -11.251  14.221  66.740  1.00  0.00    -0.322 NA 
HETATM   12  H1  UNL     1     -11.348  14.477  64.225  1.00  0.00     0.000 HD 
HETATM   13  C   UNL     1     -11.154  14.195  68.076  1.00  0.00    -0.267 A  
HETATM   14  H2  UNL     1     -10.027  15.462  64.288  1.00  0.00     0.000 HD 
HETATM   15  N   UNL     1     -10.656  15.220  68.781  1.00  0.00    -0.233 NA 
BRANCH   4  16
HETATM   16  O   UNL     1      -8.624  19.598  66.122  1.00  0.00    -0.355 OA 
HETATM   17  C   UNL     1      -7.261  19.520  65.728  1.00  0.00    -0.295 C  
ENDBRANCH   4  16
BRANCH  13  18
HETATM   18  N   UNL     1     -11.627  13.100  68.786  1.00  0.00    -0.286 NA 
HETATM   19  C   UNL     1     -12.908  12.204  70.705  1.00  0.00    -0.024 C  
HETATM   20  C   UNL     1     -12.115  13.399  70.144  1.00  0.00    -0.344 C  
HETATM   21  N   UNL     1     -12.187  10.932  70.560  1.00  0.00    -0.336 N  
HETATM   22  C   UNL     1     -11.704  10.689  69.191  1.00  0.00    -0.253 C  
HETATM   23  C   UNL     1     -12.375   9.955  71.543  1.00  0.00    -0.412 C  
HETATM   24  O   UNL     1     -13.110  10.182  72.506  1.00  0.00    -0.222 OA 
HETATM   25  C   UNL     1     -10.847  11.861  68.681  1.00  0.00    -0.235 C  
BRANCH  23  26
HETATM   26  C   UNL     1     -11.705   8.669  71.425  1.00  0.00    -0.297 A  
HETATM   27  C   UNL     1     -10.391   8.333  71.703  1.00  0.00    -0.289 A  
HETATM   28  C   UNL     1     -10.236   6.963  71.387  1.00  0.00    -0.212 A  
HETATM   29  C   UNL     1     -11.451   6.548  70.898  1.00  0.00    -0.351 A  
HETATM   30  O   UNL     1     -12.337   7.576  70.890  1.00  0.00    -0.266 OA 
ENDBRANCH  23  26
ENDBRANCH  13  18
ENDBRANCH   2   3
TORSDOF 4
ENDMDL
MODEL       16
REMARK 921   NORMALIZED FREE ENERGY PREDICTED BY IDOCK:   -6.64 KCAL/MOL
REMARK 922        TOTAL FREE ENERGY PREDICTED BY IDOCK:   -8.75 KCAL/MOL
REMARK 923 INTER-LIGAND FREE ENERGY PREDICTED BY IDOCK:   -8.18 KCAL/MOL
REMARK 924 INTRA-LIGAND FREE ENERGY PREDICTED BY IDOCK:   -0.57 KCAL/MOL
REMARK 927      BINDING AFFINITY PREDICTED BY RF-SCORE:    0.00 PKD
ROOT
HETATM    1  C   UNL     1     -10.133  11.131  63.127  1.00  0.00    -0.330 C  
HETATM    2  O   UNL     1     -10.746  12.374  63.460  1.00  0.00    -0.442 OA 
ENDROOT
BRANCH   2   3
HETATM    3  C   UNL     1     -11.035  12.584  64.781  1.00  0.00    -0.303 A  
HETATM    4  C   UNL     1     -11.466  13.849  65.200  1.00  0.00    -0.321 A  
HETATM    5  C   UNL     1     -11.766  14.047  66.555  1.00  0.00    -0.412 A  
HETATM    6  C   UNL     1     -11.330  11.720  67.049  1.00  0.00    -0.321 A  
HETATM    7  C   UNL     1     -11.718  12.983  67.483  1.00  0.00    -0.421 A  
HETATM    8  C   UNL     1     -10.979  11.544  65.721  1.00  0.00    -0.305 A  
HETATM    9  C   UNL     1     -12.028  13.054  68.845  1.00  0.00    -0.263 A  
HETATM   10  N   UNL     1     -12.381  14.264  69.453  1.00  0.00    -0.516 NA 
HETATM   11  N   UNL     1     -11.983  11.992  69.664  1.00  0.00    -0.308 NA 
HETATM   12  H1  UNL     1     -12.607  14.316  70.445  1.00  0.00     0.000 HD 
HETATM   13  C   UNL     1     -11.634  10.808  69.143  1.00  0.00    -0.305 A  
HETATM   14  H2  UNL     1     -13.163  14.660  68.931  1.00  0.00     0.000 HD 
HETATM   15  N   UNL     1     -11.296  10.661  67.856  1.00  0.00    -0.413 NA 
BRANCH   4  16
HETATM   16  O   UNL     1     -11.647  14.983  64.455  1.00  0.00    -0.391 OA 
HETATM   17  C   UNL     1     -10.973  16.171  64.845  1.00  0.00    -0.349 C  
ENDBRANCH   4  16
BRANCH  13  18
HETATM   18  N   UNL     1     -11.560   9.685  69.957  1.00  0.00    -0.150 NA 
HETATM   19  C   UNL     1     -11.712   8.687  72.217  1.00  0.00    -0.358 C  
HETATM   20  C   UNL     1     -11.454   9.967  71.400  1.00  0.00    -0.321 C  
HETATM   21  N   UNL     1     -10.920   7.546  71.738  1.00  0.00    -0.231 N  
HETATM   22  C   UNL     1     -11.045   7.318  70.289  1.00  0.00    -0.266 C  
HETATM   23  C   UNL     1     -10.496   6.600  72.678  1.00  0.00    -0.212 C  
HETATM   24  O   UNL     1     -10.768   6.750  73.870  1.00  0.00    -0.310 OA 
HETATM   25  C   UNL     1     -10.705   8.588  69.490  1.00  0.00    -0.174 C  
BRANCH  23  26
HETATM   26  C   UNL     1      -9.737   5.438  72.244  1.00  0.00    -0.157 A  
HETATM   27  C   UNL     1     -10.044   4.092  72.363  1.00  0.00    -0.243 A  
HETATM   28  C   UNL     1      -8.962   3.367  71.814  1.00  0.00    -0.155 A  
HETATM   29  C   UNL     1      -8.037   4.306  71.425  1.00  0.00    -0.082 A  
HETATM   30  O   UNL     1      -8.483   5.558  71.705  1.00  0.00    -0.124 OA 
ENDBRANCH  23  26
ENDBRANCH  13  18
ENDBRANCH   2   3
TORSDOF 4
ENDMDL
MODEL       17
REMARK 921   NORMALIZED FREE ENERGY PREDICTED BY IDOCK:   -6.59 KCAL/MOL
REMARK 922        TOTAL FREE ENERGY PREDICTED BY IDOCK:   -8.69 KCAL/MOL
REMARK 923 INTER-LIGAND FREE ENERGY PREDICTED BY IDOCK:   -8.32 KCAL/MOL
REMARK 924 INTRA-LIGAND FREE ENERGY PREDICTED BY IDOCK:   -0.37 KCAL/MOL
REMARK 927      BINDING AFFINITY PREDICTED BY RF-SCORE:    0.00 PKD
ROOT
HETATM    1  C   UNL     1      -5.388  19.481  70.053  1.00  0.00    -0.208 C  
HETATM    2  O   UNL     1      -5.383  19.188  68.658  1.00  0.00    -0.193 OA 
ENDROOT
BRANCH   2   3
HETATM    3  C   UNL     1      -6.586  18.867  68.090  1.00  0.00    -0.225 A  
HETATM    4  C   UNL     1      -6.918  19.388  66.834  1.00  0.00    -0.198 A  
HETATM    5  C   UNL     1      -8.150  19.043  66.262  1.00  0.00    -0.298 A  
HETATM    6  C   UNL     1      -8.664  17.578  68.117  1.00  0.00    -0.262 A  
HETATM    7  C   UNL     1      -9.022  18.125  66.889  1.00  0.00    -0.275 A  
HETATM    8  C   UNL     1      -7.471  17.968  68.704  1.00  0.00    -0.291 A  
HETATM    9  C   UNL     1     -10.254  17.682  66.399  1.00  0.00    -0.364 A  
HETATM   10  N   UNL     1     -10.787  18.178  65.203  1.00  0.00    -0.577 NA 
HETATM   11  N   UNL     1     -11.020  16.785  67.039  1.00  0.00    -0.054 NA 
HETATM   12  H1  UNL     1     -11.685  17.855  64.846  1.00  0.00     0.000 HD 
HETATM   13  C   UNL     1     -10.570  16.287  68.200  1.00  0.00    -0.307 A  
HETATM   14  H2  UNL     1     -10.090  18.043  64.470  1.00  0.00     0.000 HD 
HETATM   15  N   UNL     1      -9.414  16.679  68.750  1.00  0.00    -0.251 NA 
BRANCH   4  16
HETATM   16  O   UNL     1      -6.190  20.229  66.035  1.00  0.00    -0.190 OA 
HETATM   17  C   UNL     1      -6.265  20.068  64.626  1.00  0.00    -0.275 C  
ENDBRANCH   4  16
BRANCH  13  18
HETATM   18  N   UNL     1     -11.336  15.368  68.904  1.00  0.00    -0.293 NA 
HETATM   19  C   UNL     1     -12.781  14.852  70.847  1.00  0.00    -0.360 C  
HETATM   20  C   UNL     1     -11.676  15.764  70.282  1.00  0.00    -0.358 C  
HETATM   21  N   UNL     1     -12.484  13.426  70.656  1.00  0.00    -0.334 N  
HETATM   22  C   UNL     1     -12.133  13.084  69.267  1.00  0.00    -0.200 C  
HETATM   23  C   UNL     1     -12.937  12.525  71.626  1.00  0.00    -0.302 C  
HETATM   24  O   UNL     1     -13.544  12.938  72.616  1.00  0.00    -0.528 OA 
HETATM   25  C   UNL     1     -10.973  13.954  68.752  1.00  0.00    -0.263 C  
BRANCH  23  26
HETATM   26  C   UNL     1     -12.693  11.100  71.463  1.00  0.00    -0.394 A  
HETATM   27  C   UNL     1     -13.525  10.028  71.741  1.00  0.00    -0.422 A  
HETATM   28  C   UNL     1     -12.802   8.851  71.438  1.00  0.00    -0.335 A  
HETATM   29  C   UNL     1     -11.558   9.266  71.028  1.00  0.00    -0.313 A  
HETATM   30  O   UNL     1     -11.472  10.621  71.066  1.00  0.00    -0.252 OA 
ENDBRANCH  23  26
ENDBRANCH  13  18
ENDBRANCH   2   3
TORSDOF 4
ENDMDL
MODEL       18
REMARK 921   NORMALIZED FREE ENERGY PREDICTED BY IDOCK:   -6.58 KCAL/MOL
REMARK 922        TOTAL FREE ENERGY PREDICTED BY IDOCK:   -8.69 KCAL/MOL
REMARK 923 INTER-LIGAND FREE ENERGY PREDICTED BY IDOCK:   -8.25 KCAL/MOL
REMARK 924 INTRA-LIGAND FREE ENERGY PREDICTED BY IDOCK:   -0.43 KCAL/MOL
REMARK 927      BINDING AFFINITY PREDICTED BY RF-SCORE:    0.00 PKD
ROOT
HETATM    1  C   UNL     1     -10.071   5.203  71.161  1.00  0.00    -0.222 C  
HETATM    2  O   UNL     1     -10.420   4.922  69.808  1.00  0.00    -0.232 OA 
ENDROOT
BRANCH   2   3
HETATM    3  C   UNL     1     -10.233   5.929  68.901  1.00  0.00    -0.198 A  
HETATM    4  C   UNL     1      -9.794   5.620  67.607  1.00  0.00    -0.135 A  
HETATM    5  C   UNL     1      -9.614   6.662  66.687  1.00  0.00    -0.207 A  
HETATM    6  C   UNL     1     -10.419   8.288  68.286  1.00  0.00    -0.161 A  
HETATM    7  C   UNL     1      -9.942   7.997  67.013  1.00  0.00    -0.324 A  
HETATM    8  C   UNL     1     -10.539   7.263  69.210  1.00  0.00    -0.230 A  
HETATM    9  C   UNL     1      -9.838   9.107  66.169  1.00  0.00    -0.293 A  
HETATM   10  N   UNL     1      -9.322   8.995  64.873  1.00  0.00    -0.435 NA 
HETATM   11  N   UNL     1     -10.192  10.347  66.539  1.00  0.00    -0.226 NA 
HETATM   12  H1  UNL     1      -9.246   9.804  64.257  1.00  0.00     0.000 HD 
HETATM   13  C   UNL     1     -10.677  10.520  67.777  1.00  0.00    -0.272 A  
HETATM   14  H2  UNL     1      -9.856   8.277  64.383  1.00  0.00     0.000 HD 
HETATM   15  N   UNL     1     -10.783   9.515  68.654  1.00  0.00    -0.210 NA 
BRANCH   4  16
HETATM   16  O   UNL     1      -9.493   4.395  67.074  1.00  0.00    -0.149 OA 
HETATM   17  C   UNL     1      -9.999   4.068  65.788  1.00  0.00    -0.145 C  
ENDBRANCH   4  16
BRANCH  13  18
HETATM   18  N   UNL     1     -11.043  11.789  68.208  1.00  0.00    -0.221 NA 
HETATM   19  C   UNL     1     -10.633  14.230  68.213  1.00  0.00    -0.245 C  
HETATM   20  C   UNL     1     -10.019  12.831  68.017  1.00  0.00    -0.225 C  
HETATM   21  N   UNL     1     -11.413  14.332  69.454  1.00  0.00    -0.276 N  
HETATM   22  C   UNL     1     -12.409  13.258  69.607  1.00  0.00    -0.097 C  
HETATM   23  C   UNL     1     -11.438  15.565  70.115  1.00  0.00    -0.327 C  
HETATM   24  O   UNL     1     -10.799  16.518  69.666  1.00  0.00    -0.328 OA 
HETATM   25  C   UNL     1     -11.758  11.869  69.486  1.00  0.00    -0.345 C  
BRANCH  23  26
HETATM   26  C   UNL     1     -12.222  15.721  71.330  1.00  0.00    -0.438 A  
HETATM   27  C   UNL     1     -11.797  15.836  72.643  1.00  0.00    -0.596 A  
HETATM   28  C   UNL     1     -12.954  15.930  73.449  1.00  0.00    -0.693 A  
HETATM   29  C   UNL     1     -14.023  15.830  72.590  1.00  0.00    -0.480 A  
HETATM   30  O   UNL     1     -13.592  15.676  71.312  1.00  0.00    -0.546 OA 
ENDBRANCH  23  26
ENDBRANCH  13  18
ENDBRANCH   2   3
TORSDOF 4
ENDMDL
MODEL       19
REMARK 921   NORMALIZED FREE ENERGY PREDICTED BY IDOCK:   -6.40 KCAL/MOL
REMARK 922        TOTAL FREE ENERGY PREDICTED BY IDOCK:   -8.46 KCAL/MOL
REMARK 923 INTER-LIGAND FREE ENERGY PREDICTED BY IDOCK:   -7.92 KCAL/MOL
REMARK 924 INTRA-LIGAND FREE ENERGY PREDICTED BY IDOCK:   -0.54 KCAL/MOL
REMARK 927      BINDING AFFINITY PREDICTED BY RF-SCORE:    0.00 PKD
ROOT
HETATM    1  C   UNL     1     -10.880   4.864  73.105  1.00  0.00    -0.282 C  
HETATM    2  O   UNL     1     -10.019   4.487  72.033  1.00  0.00    -0.176 OA 
ENDROOT
BRANCH   2   3
HETATM    3  C   UNL     1     -10.042   5.278  70.916  1.00  0.00    -0.226 A  
HETATM    4  C   UNL     1      -9.714   4.725  69.672  1.00  0.00    -0.202 A  
HETATM    5  C   UNL     1      -9.750   5.546  68.537  1.00  0.00    -0.175 A  
HETATM    6  C   UNL     1     -10.548   7.417  69.845  1.00  0.00    -0.236 A  
HETATM    7  C   UNL     1     -10.183   6.889  68.611  1.00  0.00    -0.181 A  
HETATM    8  C   UNL     1     -10.455   6.618  70.973  1.00  0.00    -0.246 A  
HETATM    9  C   UNL     1     -10.293   7.786  67.545  1.00  0.00    -0.264 A  
HETATM   10  N   UNL     1      -9.911   7.431  66.247  1.00  0.00    -0.457 NA 
HETATM   11  N   UNL     1     -10.738   9.045  67.687  1.00  0.00    -0.222 NA 
HETATM   12  H1  UNL     1      -9.991   8.085  65.469  1.00  0.00     0.000 HD 
HETATM   13  C   UNL     1     -11.102   9.450  68.912  1.00  0.00     0.033 A  
HETATM   14  H2  UNL     1     -10.415   6.580  65.994  1.00  0.00     0.000 HD 
HETATM   15  N   UNL     1     -11.002   8.660  69.989  1.00  0.00    -0.234 NA 
BRANCH   4  16
HETATM   16  O   UNL     1      -9.341   3.441  69.376  1.00  0.00    -0.147 OA 
HETATM   17  C   UNL     1      -9.264   3.051  68.013  1.00  0.00    -0.198 C  
ENDBRANCH   4  16
BRANCH  13  18
HETATM   18  N   UNL     1     -11.554  10.748  69.109  1.00  0.00    -0.297 NA 
HETATM   19  C   UNL     1     -11.677  13.094  68.330  1.00  0.00    -0.351 C  
HETATM   20  C   UNL     1     -10.891  11.771  68.282  1.00  0.00    -0.220 C  
HETATM   21  N   UNL     1     -12.000  13.506  69.703  1.00  0.00    -0.329 N  
HETATM   22  C   UNL     1     -12.644  12.443  70.494  1.00  0.00    -0.089 C  
HETATM   23  C   UNL     1     -12.055  14.875  69.983  1.00  0.00    -0.338 C  
HETATM   24  O   UNL     1     -11.813  15.696  69.096  1.00  0.00    -0.363 OA 
HETATM   25  C   UNL     1     -11.800  11.156  70.496  1.00  0.00    -0.351 C  
BRANCH  23  26
HETATM   26  C   UNL     1     -12.402  15.329  71.321  1.00  0.00    -0.361 A  
HETATM   27  C   UNL     1     -13.648  15.599  71.863  1.00  0.00    -0.521 A  
HETATM   28  C   UNL     1     -13.438  16.042  73.189  1.00  0.00    -0.587 A  
HETATM   29  C   UNL     1     -12.076  16.056  73.372  1.00  0.00    -0.482 A  
HETATM   30  O   UNL     1     -11.440  15.653  72.242  1.00  0.00    -0.418 OA 
ENDBRANCH  23  26
ENDBRANCH  13  18
ENDBRANCH   2   3
TORSDOF 4
ENDMDL
MODEL       20
REMARK 921   NORMALIZED FREE ENERGY PREDICTED BY IDOCK:   -6.39 KCAL/MOL
REMARK 922        TOTAL FREE ENERGY PREDICTED BY IDOCK:   -8.45 KCAL/MOL
REMARK 923 INTER-LIGAND FREE ENERGY PREDICTED BY IDOCK:   -7.84 KCAL/MOL
REMARK 924 INTRA-LIGAND FREE ENERGY PREDICTED BY IDOCK:   -0.61 KCAL/MOL
REMARK 927      BINDING AFFINITY PREDICTED BY RF-SCORE:    0.00 PKD
ROOT
HETATM    1  C   UNL     1      -7.828   4.337  67.013  1.00  0.00    -0.097 C  
HETATM    2  O   UNL     1      -8.922   3.669  67.637  1.00  0.00    -0.115 OA 
ENDROOT
BRANCH   2   3
HETATM    3  C   UNL     1      -9.478   4.282  68.727  1.00  0.00    -0.164 A  
HETATM    4  C   UNL     1      -9.503   3.612  69.956  1.00  0.00    -0.190 A  
HETATM    5  C   UNL     1     -10.069   4.255  71.065  1.00  0.00    -0.165 A  
HETATM    6  C   UNL     1     -10.468   6.259  69.771  1.00  0.00    -0.232 A  
HETATM    7  C   UNL     1     -10.538   5.586  70.986  1.00  0.00    -0.300 A  
HETATM    8  C   UNL     1      -9.962   5.597  68.664  1.00  0.00    -0.213 A  
HETATM    9  C   UNL     1     -11.086   6.337  72.029  1.00  0.00    -0.268 A  
HETATM   10  N   UNL     1     -11.279   5.789  73.303  1.00  0.00    -0.466 NA 
HETATM   11  N   UNL     1     -11.488   7.609  71.886  1.00  0.00    -0.262 NA 
HETATM   12  H1  UNL     1     -11.678   6.337  74.064  1.00  0.00     0.000 HD 
HETATM   13  C   UNL     1     -11.345   8.184  70.683  1.00  0.00    -0.249 A  
HETATM   14  H2  UNL     1     -10.385   5.415  73.621  1.00  0.00     0.000 HD 
HETATM   15  N   UNL     1     -10.854   7.525  69.626  1.00  0.00    -0.231 NA 
BRANCH   4  16
HETATM   16  O   UNL     1      -9.041   2.359  70.260  1.00  0.00    -0.087 OA 
HETATM   17  C   UNL     1      -9.233   1.862  71.576  1.00  0.00    -0.097 C  
ENDBRANCH   4  16
BRANCH  13  18
HETATM   18  N   UNL     1     -11.762   9.493  70.485  1.00  0.00    -0.251 NA 
HETATM   19  C   UNL     1     -11.861  11.494  69.031  1.00  0.00    -0.343 C  
HETATM   20  C   UNL     1     -11.105  10.195  69.369  1.00  0.00    -0.243 C  
HETATM   21  N   UNL     1     -12.128  12.314  70.221  1.00  0.00    -0.336 N  
HETATM   22  C   UNL     1     -12.767  11.563  71.315  1.00  0.00    -0.364 C  
HETATM   23  C   UNL     1     -12.143  13.705  70.071  1.00  0.00    -0.348 C  
HETATM   24  O   UNL     1     -11.914  14.208  68.970  1.00  0.00    -0.325 OA 
HETATM   25  C   UNL     1     -11.952  10.312  71.688  1.00  0.00    -0.160 C  
BRANCH  23  26
HETATM   26  C   UNL     1     -12.435  14.554  71.215  1.00  0.00    -0.346 A  
HETATM   27  C   UNL     1     -13.587  15.263  71.514  1.00  0.00    -0.593 A  
HETATM   28  C   UNL     1     -13.347  15.958  72.722  1.00  0.00    -0.593 A  
HETATM   29  C   UNL     1     -12.051  15.667  73.074  1.00  0.00    -0.481 A  
HETATM   30  O   UNL     1     -11.482  14.843  72.157  1.00  0.00    -0.321 OA 
ENDBRANCH  23  26
ENDBRANCH  13  18
ENDBRANCH   2   3
TORSDOF 4
ENDMDL
MODEL       21
REMARK 921   NORMALIZED FREE ENERGY PREDICTED BY IDOCK:   -6.36 KCAL/MOL
REMARK 922        TOTAL FREE ENERGY PREDICTED BY IDOCK:   -8.42 KCAL/MOL
REMARK 923 INTER-LIGAND FREE ENERGY PREDICTED BY IDOCK:   -8.03 KCAL/MOL
REMARK 924 INTRA-LIGAND FREE ENERGY PREDICTED BY IDOCK:   -0.39 KCAL/MOL
REMARK 927      BINDING AFFINITY PREDICTED BY RF-SCORE:    0.00 PKD
ROOT
HETATM    1  C   UNL     1      -8.223   4.924  71.303  1.00  0.00    -0.110 C  
HETATM    2  O   UNL     1      -9.610   4.612  71.201  1.00  0.00    -0.149 OA 
ENDROOT
BRANCH   2   3
HETATM    3  C   UNL     1     -10.491   5.628  71.456  1.00  0.00    -0.239 A  
HETATM    4  C   UNL     1     -11.482   5.453  72.431  1.00  0.00    -0.148 A  
HETATM    5  C   UNL     1     -12.371   6.506  72.686  1.00  0.00     0.256 A  
HETATM    6  C   UNL     1     -11.225   7.933  71.105  1.00  0.00    -0.261 A  
HETATM    7  C   UNL     1     -12.239   7.756  72.040  1.00  0.00    -0.342 A  
HETATM    8  C   UNL     1     -10.385   6.871  70.815  1.00  0.00    -0.223 A  
HETATM    9  C   UNL     1     -13.042   8.883  72.240  1.00  0.00    -0.436 A  
HETATM   10  N   UNL     1     -14.142   8.854  73.105  1.00  0.00    -1.225 NA 
HETATM   11  N   UNL     1     -12.841  10.049  71.607  1.00  0.00    -0.404 NA 
HETATM   12  H1  UNL     1     -14.727   9.675  73.251  1.00  0.00     0.000 HD 
HETATM   13  C   UNL     1     -11.813  10.133  70.752  1.00  0.00    -0.351 A  
HETATM   14  H2  UNL     1     -13.814   8.536  74.018  1.00  0.00     0.000 HD 
HETATM   15  N   UNL     1     -11.014   9.092  70.484  1.00  0.00    -0.245 NA 
BRANCH   4  16
HETATM   16  O   UNL     1     -11.732   4.358  73.212  1.00  0.00    -0.226 OA 
HETATM   17  C   UNL     1     -10.847   4.066  74.284  1.00  0.00    -0.122 C  
ENDBRANCH   4  16
BRANCH  13  18
HETATM   18  N   UNL     1     -11.577  11.316  70.064  1.00  0.00    -0.317 NA 
HETATM   19  C   UNL     1     -11.573  13.791  70.033  1.00  0.00    -0.195 C  
HETATM   20  C   UNL     1     -12.163  12.521  70.676  1.00  0.00    -0.276 C  
HETATM   21  N   UNL     1     -11.611  13.747  68.565  1.00  0.00    -0.314 N  
HETATM   22  C   UNL     1     -11.031  12.515  68.003  1.00  0.00    -0.232 C  
HETATM   23  C   UNL     1     -11.787  14.952  67.877  1.00  0.00    -0.259 C  
HETATM   24  O   UNL     1     -11.927  16.005  68.502  1.00  0.00    -0.273 OA 
HETATM   25  C   UNL     1     -11.692  11.261  68.602  1.00  0.00    -0.324 C  
BRANCH  23  26
HETATM   26  C   UNL     1     -11.799  14.961  66.422  1.00  0.00    -0.131 A  
HETATM   27  C   UNL     1     -12.562  14.209  65.544  1.00  0.00    -0.501 A  
HETATM   28  C   UNL     1     -12.169  14.571  64.235  1.00  0.00    -0.441 A  
HETATM   29  C   UNL     1     -11.163  15.495  64.384  1.00  0.00    -0.219 A  
HETATM   30  O   UNL     1     -10.913  15.717  65.700  1.00  0.00    -0.323 OA 
ENDBRANCH  23  26
ENDBRANCH  13  18
ENDBRANCH   2   3
TORSDOF 4
ENDMDL
MODEL       22
REMARK 921   NORMALIZED FREE ENERGY PREDICTED BY IDOCK:   -6.34 KCAL/MOL
REMARK 922        TOTAL FREE ENERGY PREDICTED BY IDOCK:   -8.39 KCAL/MOL
REMARK 923 INTER-LIGAND FREE ENERGY PREDICTED BY IDOCK:   -7.79 KCAL/MOL
REMARK 924 INTRA-LIGAND FREE ENERGY PREDICTED BY IDOCK:   -0.60 KCAL/MOL
REMARK 927      BINDING AFFINITY PREDICTED BY RF-SCORE:    0.00 PKD
ROOT
HETATM    1  C   UNL     1      -5.859   7.163  63.946  1.00  0.00    -0.040 C  
HETATM    2  O   UNL     1      -7.252   6.906  63.785  1.00  0.00    -0.056 OA 
ENDROOT
BRANCH   2   3
HETATM    3  C   UNL     1      -8.090   7.435  64.729  1.00  0.00    -0.104 A  
HETATM    4  C   UNL     1      -8.497   6.643  65.811  1.00  0.00    -0.148 A  
HETATM    5  C   UNL     1      -9.349   7.201  66.774  1.00  0.00    -0.199 A  
HETATM    6  C   UNL     1      -9.292   9.348  65.663  1.00  0.00    -0.246 A  
HETATM    7  C   UNL     1      -9.737   8.559  66.717  1.00  0.00    -0.303 A  
HETATM    8  C   UNL     1      -8.498   8.776  64.682  1.00  0.00    -0.169 A  
HETATM    9  C   UNL     1     -10.550   9.229  67.636  1.00  0.00    -0.261 A  
HETATM   10  N   UNL     1     -11.127   8.564  68.724  1.00  0.00    -0.400 NA 
HETATM   11  N   UNL     1     -10.858  10.531  67.531  1.00  0.00    -0.284 NA 
HETATM   12  H1  UNL     1     -11.720   9.053  69.394  1.00  0.00     0.000 HD 
HETATM   13  C   UNL     1     -10.348  11.217  66.498  1.00  0.00    -0.240 A  
HETATM   14  H2  UNL     1     -10.378   8.105  69.244  1.00  0.00     0.000 HD 
HETATM   15  N   UNL     1      -9.584  10.644  65.561  1.00  0.00    -0.205 NA 
BRANCH   4  16
HETATM   16  O   UNL     1      -8.180   5.340  66.087  1.00  0.00    -0.108 OA 
HETATM   17  C   UNL     1      -9.056   4.315  65.641  1.00  0.00    -0.136 C  
ENDBRANCH   4  16
BRANCH  13  18
HETATM   18  N   UNL     1     -10.652  12.563  66.342  1.00  0.00    -0.244 NA 
HETATM   19  C   UNL     1     -11.435  14.410  64.891  1.00  0.00    -0.386 C  
HETATM   20  C   UNL     1     -10.783  13.015  64.946  1.00  0.00    -0.332 C  
HETATM   21  N   UNL     1     -10.797  15.365  65.806  1.00  0.00    -0.339 N  
HETATM   22  C   UNL     1     -10.674  14.860  67.184  1.00  0.00    -0.296 C  
HETATM   23  C   UNL     1     -10.755  16.711  65.426  1.00  0.00    -0.215 C  
HETATM   24  O   UNL     1     -11.224  17.060  64.342  1.00  0.00    -1.167 OA 
HETATM   25  C   UNL     1      -9.947  13.503  67.220  1.00  0.00    -0.236 C  
BRANCH  23  26
HETATM   26  C   UNL     1     -10.161  17.697  66.315  1.00  0.00    -0.362 A  
HETATM   27  C   UNL     1      -8.830  18.044  66.481  1.00  0.00    -0.276 A  
HETATM   28  C   UNL     1      -8.780  19.031  67.492  1.00  0.00    -0.315 A  
HETATM   29  C   UNL     1     -10.076  19.206  67.915  1.00  0.00    -0.386 A  
HETATM   30  O   UNL     1     -10.914  18.386  67.230  1.00  0.00    -0.337 OA 
ENDBRANCH  23  26
ENDBRANCH  13  18
ENDBRANCH   2   3
TORSDOF 4
ENDMDL
MODEL       23
REMARK 921   NORMALIZED FREE ENERGY PREDICTED BY IDOCK:   -6.34 KCAL/MOL
REMARK 922        TOTAL FREE ENERGY PREDICTED BY IDOCK:   -8.39 KCAL/MOL
REMARK 923 INTER-LIGAND FREE ENERGY PREDICTED BY IDOCK:   -7.83 KCAL/MOL
REMARK 924 INTRA-LIGAND FREE ENERGY PREDICTED BY IDOCK:   -0.55 KCAL/MOL
REMARK 927      BINDING AFFINITY PREDICTED BY RF-SCORE:    0.00 PKD
ROOT
HETATM    1  C   UNL     1      -6.096  17.666  66.080  1.00  0.00    -0.223 C  
HETATM    2  O   UNL     1      -7.450  18.042  65.839  1.00  0.00    -0.459 OA 
ENDROOT
BRANCH   2   3
HETATM    3  C   UNL     1      -8.414  17.336  66.505  1.00  0.00    -0.271 A  
HETATM    4  C   UNL     1      -9.507  18.015  67.059  1.00  0.00    -0.273 A  
HETATM    5  C   UNL     1     -10.490  17.277  67.732  1.00  0.00    -0.371 A  
HETATM    6  C   UNL     1      -9.375  15.198  67.202  1.00  0.00    -0.212 A  
HETATM    7  C   UNL     1     -10.441  15.866  67.792  1.00  0.00    -0.287 A  
HETATM    8  C   UNL     1      -8.375  15.936  66.589  1.00  0.00    -0.328 A  
HETATM    9  C   UNL     1     -11.379  15.028  68.402  1.00  0.00    -0.309 A  
HETATM   10  N   UNL     1     -12.483  15.544  69.091  1.00  0.00    -0.595 NA 
HETATM   11  N   UNL     1     -11.280  13.690  68.399  1.00  0.00    -0.261 NA 
HETATM   12  H1  UNL     1     -13.167  14.933  69.536  1.00  0.00     0.000 HD 
HETATM   13  C   UNL     1     -10.233  13.137  67.769  1.00  0.00    -0.231 A  
HETATM   14  H2  UNL     1     -12.984  16.167  68.458  1.00  0.00     0.000 HD 
HETATM   15  N   UNL     1      -9.278  13.870  67.184  1.00  0.00    -0.229 NA 
BRANCH   4  16
HETATM   16  O   UNL     1      -9.777  19.357  67.049  1.00  0.00    -0.309 OA 
HETATM   17  C   UNL     1     -10.527  19.894  65.968  1.00  0.00    -0.475 C  
ENDBRANCH   4  16
BRANCH  13  18
HETATM   18  N   UNL     1     -10.082  11.757  67.754  1.00  0.00    -0.185 NA 
HETATM   19  C   UNL     1     -10.377   9.601  66.572  1.00  0.00    -0.194 C  
HETATM   20  C   UNL     1     -10.862  11.056  66.718  1.00  0.00    -0.251 C  
HETATM   21  N   UNL     1     -10.279   8.910  67.865  1.00  0.00    -0.210 N  
HETATM   22  C   UNL     1      -9.507   9.658  68.870  1.00  0.00    -0.157 C  
HETATM   23  C   UNL     1     -10.538   7.535  67.895  1.00  0.00    -0.185 C  
HETATM   24  O   UNL     1     -10.859   6.945  66.862  1.00  0.00    -0.351 OA 
HETATM   25  C   UNL     1     -10.060  11.082  69.056  1.00  0.00    -0.180 C  
BRANCH  23  26
HETATM   26  C   UNL     1     -10.423   6.803  69.146  1.00  0.00    -0.216 A  
HETATM   27  C   UNL     1     -11.361   6.619  70.148  1.00  0.00    -0.440 A  
HETATM   28  C   UNL     1     -10.741   5.861  71.167  1.00  0.00    -0.328 A  
HETATM   29  C   UNL     1      -9.447   5.655  70.751  1.00  0.00    -0.165 A  
HETATM   30  O   UNL     1      -9.237   6.243  69.545  1.00  0.00    -0.139 OA 
ENDBRANCH  23  26
ENDBRANCH  13  18
ENDBRANCH   2   3
TORSDOF 4
ENDMDL
MODEL       24
REMARK 921   NORMALIZED FREE ENERGY PREDICTED BY IDOCK:   -6.33 KCAL/MOL
REMARK 922        TOTAL FREE ENERGY PREDICTED BY IDOCK:   -8.38 KCAL/MOL
REMARK 923 INTER-LIGAND FREE ENERGY PREDICTED BY IDOCK:   -7.89 KCAL/MOL
REMARK 924 INTRA-LIGAND FREE ENERGY PREDICTED BY IDOCK:   -0.49 KCAL/MOL
REMARK 927      BINDING AFFINITY PREDICTED BY RF-SCORE:    0.00 PKD
ROOT
HETATM    1  C   UNL     1     -11.980  15.998  72.488  1.00  0.00    -0.545 C  
HETATM    2  O   UNL     1     -12.783  15.785  71.330  1.00  0.00    -0.455 OA 
ENDROOT
BRANCH   2   3
HETATM    3  C   UNL     1     -12.427  14.744  70.516  1.00  0.00    -0.352 A  
HETATM    4  C   UNL     1     -11.997  15.006  69.209  1.00  0.00    -0.289 A  
HETATM    5  C   UNL     1     -11.628  13.930  68.390  1.00  0.00    -0.368 A  
HETATM    6  C   UNL     1     -11.994  12.360  70.192  1.00  0.00    -0.298 A  
HETATM    7  C   UNL     1     -11.607  12.605  68.879  1.00  0.00    -0.363 A  
HETATM    8  C   UNL     1     -12.413  13.420  70.979  1.00  0.00    -0.437 A  
HETATM    9  C   UNL     1     -11.225  11.463  68.168  1.00  0.00    -0.278 A  
HETATM   10  N   UNL     1     -10.863  11.530  66.818  1.00  0.00    -0.270 NA 
HETATM   11  N   UNL     1     -11.206  10.235  68.707  1.00  0.00    -0.230 NA 
HETATM   12  H1  UNL     1     -10.584  10.697  66.299  1.00  0.00     0.000 HD 
HETATM   13  C   UNL     1     -11.561  10.105  69.993  1.00  0.00    -0.253 A  
HETATM   14  H2  UNL     1     -10.117  12.220  66.727  1.00  0.00     0.000 HD 
HETATM   15  N   UNL     1     -11.964  11.144  70.735  1.00  0.00    -0.338 NA 
BRANCH   4  16
HETATM   16  O   UNL     1     -11.877  16.212  68.571  1.00  0.00    -0.300 OA 
HETATM   17  C   UNL     1     -10.698  16.475  67.824  1.00  0.00    -0.329 C  
ENDBRANCH   4  16
BRANCH  13  18
HETATM   18  N   UNL     1     -11.570   8.851  70.588  1.00  0.00    -0.252 NA 
HETATM   19  C   UNL     1     -11.864   7.465  72.618  1.00  0.00    -0.131 C  
HETATM   20  C   UNL     1     -11.519   8.858  72.061  1.00  0.00    -0.361 C  
HETATM   21  N   UNL     1     -11.099   6.393  71.966  1.00  0.00    -0.252 N  
HETATM   22  C   UNL     1     -11.166   6.440  70.495  1.00  0.00    -0.352 C  
HETATM   23  C   UNL     1     -10.756   5.272  72.730  1.00  0.00    -0.243 C  
HETATM   24  O   UNL     1     -11.076   5.215  73.918  1.00  0.00    -0.265 OA 
HETATM   25  C   UNL     1     -10.740   7.818  69.958  1.00  0.00    -0.244 C  
BRANCH  23  26
HETATM   26  C   UNL     1     -10.026   4.173  72.117  1.00  0.00    -0.174 A  
HETATM   27  C   UNL     1     -10.273   2.812  72.178  1.00  0.00    -0.158 A  
HETATM   28  C   UNL     1      -9.251   2.170  71.440  1.00  0.00    -0.175 A  
HETATM   29  C   UNL     1      -8.416   3.170  71.002  1.00  0.00    -0.066 A  
HETATM   30  O   UNL     1      -8.860   4.381  71.429  1.00  0.00    -0.109 OA 
ENDBRANCH  23  26
ENDBRANCH  13  18
ENDBRANCH   2   3
TORSDOF 4
ENDMDL
MODEL       25
REMARK 921   NORMALIZED FREE ENERGY PREDICTED BY IDOCK:   -6.33 KCAL/MOL
REMARK 922        TOTAL FREE ENERGY PREDICTED BY IDOCK:   -8.37 KCAL/MOL
REMARK 923 INTER-LIGAND FREE ENERGY PREDICTED BY IDOCK:   -7.83 KCAL/MOL
REMARK 924 INTRA-LIGAND FREE ENERGY PREDICTED BY IDOCK:   -0.54 KCAL/MOL
REMARK 927      BINDING AFFINITY PREDICTED BY RF-SCORE:    0.00 PKD
ROOT
HETATM    1  C   UNL     1     -11.074  16.205  69.676  1.00  0.00    -0.344 C  
HETATM    2  O   UNL     1     -12.086  15.492  68.970  1.00  0.00    -0.319 OA 
ENDROOT
BRANCH   2   3
HETATM    3  C   UNL     1     -11.766  14.234  68.538  1.00  0.00    -0.341 A  
HETATM    4  C   UNL     1     -11.293  14.052  67.233  1.00  0.00    -0.330 A  
HETATM    5  C   UNL     1     -10.962  12.758  66.807  1.00  0.00    -0.301 A  
HETATM    6  C   UNL     1     -11.451  11.852  68.996  1.00  0.00    -0.297 A  
HETATM    7  C   UNL     1     -11.021  11.655  67.689  1.00  0.00    -0.294 A  
HETATM    8  C   UNL     1     -11.833  13.123  69.394  1.00  0.00    -0.383 A  
HETATM    9  C   UNL     1     -10.683  10.332  67.387  1.00  0.00    -0.281 A  
HETATM   10  N   UNL     1     -10.286   9.954  66.099  1.00  0.00    -0.237 NA 
HETATM   11  N   UNL     1     -10.741   9.337  68.285  1.00  0.00    -0.185 NA 
HETATM   12  H1  UNL     1     -10.040   8.989  65.880  1.00  0.00     0.000 HD 
HETATM   13  C   UNL     1     -11.132   9.635  69.532  1.00  0.00    -0.168 A  
HETATM   14  H2  UNL     1      -9.503  10.548  65.826  1.00  0.00     0.000 HD 
HETATM   15  N   UNL     1     -11.498  10.871  69.894  1.00  0.00    -0.296 NA 
BRANCH   4  16
HETATM   16  O   UNL     1     -11.095  14.989  66.254  1.00  0.00    -0.340 OA 
HETATM   17  C   UNL     1     -10.677  14.555  64.968  1.00  0.00    -0.427 C  
ENDBRANCH   4  16
BRANCH  13  18
HETATM   18  N   UNL     1     -11.221   8.633  70.490  1.00  0.00    -0.253 NA 
HETATM   19  C   UNL     1     -10.992   7.926  72.851  1.00  0.00    -0.388 C  
HETATM   20  C   UNL     1     -10.558   8.935  71.770  1.00  0.00    -0.362 C  
HETATM   21  N   UNL     1     -10.882   6.534  72.396  1.00  0.00    -0.224 N  
HETATM   22  C   UNL     1     -11.544   6.288  71.104  1.00  0.00    -0.275 C  
HETATM   23  C   UNL     1     -10.559   5.557  73.344  1.00  0.00    -0.258 C  
HETATM   24  O   UNL     1     -10.354   5.878  74.516  1.00  0.00    -0.276 OA 
HETATM   25  C   UNL     1     -11.035   7.256  70.021  1.00  0.00    -0.253 C  
BRANCH  23  26
HETATM   26  C   UNL     1     -10.470   4.161  72.946  1.00  0.00    -0.172 A  
HETATM   27  C   UNL     1     -11.113   3.053  73.472  1.00  0.00    -0.317 A  
HETATM   28  C   UNL     1     -10.657   1.925  72.751  1.00  0.00    -0.235 A  
HETATM   29  C   UNL     1      -9.733   2.399  71.851  1.00  0.00    -0.147 A  
HETATM   30  O   UNL     1      -9.592   3.744  71.979  1.00  0.00    -0.129 OA 
ENDBRANCH  23  26
ENDBRANCH  13  18
ENDBRANCH   2   3
TORSDOF 4
ENDMDL
MODEL       26
REMARK 921   NORMALIZED FREE ENERGY PREDICTED BY IDOCK:   -6.32 KCAL/MOL
REMARK 922        TOTAL FREE ENERGY PREDICTED BY IDOCK:   -8.36 KCAL/MOL
REMARK 923 INTER-LIGAND FREE ENERGY PREDICTED BY IDOCK:   -7.78 KCAL/MOL
REMARK 924 INTRA-LIGAND FREE ENERGY PREDICTED BY IDOCK:   -0.58 KCAL/MOL
REMARK 927      BINDING AFFINITY PREDICTED BY RF-SCORE:    0.00 PKD
ROOT
HETATM    1  C   UNL     1     -10.915  13.972  68.586  1.00  0.00    -0.263 C  
HETATM    2  O   UNL     1     -11.713  14.085  69.763  1.00  0.00    -0.280 OA 
ENDROOT
BRANCH   2   3
HETATM    3  C   UNL     1     -12.069  12.918  70.381  1.00  0.00    -0.306 A  
HETATM    4  C   UNL     1     -13.026  12.943  71.403  1.00  0.00    -0.270 A  
HETATM    5  C   UNL     1     -13.386  11.738  72.021  1.00  0.00    -0.417 A  
HETATM    6  C   UNL     1     -11.947  10.481  70.540  1.00  0.00    -0.342 A  
HETATM    7  C   UNL     1     -12.864  10.500  71.584  1.00  0.00    -0.581 A  
HETATM    8  C   UNL     1     -11.550  11.680  69.970  1.00  0.00    -0.338 A  
HETATM    9  C   UNL     1     -13.176   9.238  72.099  1.00  0.00    -0.461 A  
HETATM   10  N   UNL     1     -14.039   9.087  73.190  1.00  0.00    -1.223 NA 
HETATM   11  N   UNL     1     -12.658   8.099  71.615  1.00  0.00    -0.313 NA 
HETATM   12  H1  UNL     1     -14.267   8.167  73.566  1.00  0.00     0.000 HD 
HETATM   13  C   UNL     1     -11.810   8.182  70.581  1.00  0.00    -0.088 A  
HETATM   14  H2  UNL     1     -14.915   9.559  72.965  1.00  0.00     0.000 HD 
HETATM   15  N   UNL     1     -11.440   9.352  70.047  1.00  0.00    -0.143 NA 
BRANCH   4  16
HETATM   16  O   UNL     1     -13.699  14.017  71.922  1.00  0.00    -0.384 OA 
HETATM   17  C   UNL     1     -13.097  14.755  72.975  1.00  0.00    -0.513 C  
ENDBRANCH   4  16
BRANCH  13  18
HETATM   18  N   UNL     1     -11.239   7.029  70.057  1.00  0.00    -0.280 NA 
HETATM   19  C   UNL     1     -10.156   4.835  70.434  1.00  0.00    -0.231 C  
HETATM   20  C   UNL     1     -10.458   6.229  71.016  1.00  0.00    -0.225 C  
HETATM   21  N   UNL     1      -9.606   4.903  69.073  1.00  0.00    -0.145 N  
HETATM   22  C   UNL     1     -10.412   5.728  68.158  1.00  0.00    -0.217 C  
HETATM   23  C   UNL     1      -8.686   3.921  68.688  1.00  0.00    -0.100 C  
HETATM   24  O   UNL     1      -8.343   3.049  69.488  1.00  0.00    -0.057 OA 
HETATM   25  C   UNL     1     -10.632   7.141  68.726  1.00  0.00    -0.196 C  
BRANCH  23  26
HETATM   26  C   UNL     1      -8.139   3.930  67.340  1.00  0.00    -0.091 A  
HETATM   27  C   UNL     1      -7.028   4.593  66.845  1.00  0.00    -0.060 A  
HETATM   28  C   UNL     1      -6.948   4.299  65.465  1.00  0.00    -0.059 A  
HETATM   29  C   UNL     1      -8.034   3.505  65.183  1.00  0.00    -0.086 A  
HETATM   30  O   UNL     1      -8.774   3.299  66.302  1.00  0.00    -0.116 OA 
ENDBRANCH  23  26
ENDBRANCH  13  18
ENDBRANCH   2   3
TORSDOF 4
ENDMDL
MODEL       27
REMARK 921   NORMALIZED FREE ENERGY PREDICTED BY IDOCK:   -6.26 KCAL/MOL
REMARK 922        TOTAL FREE ENERGY PREDICTED BY IDOCK:   -8.28 KCAL/MOL
REMARK 923 INTER-LIGAND FREE ENERGY PREDICTED BY IDOCK:   -7.70 KCAL/MOL
REMARK 924 INTRA-LIGAND FREE ENERGY PREDICTED BY IDOCK:   -0.59 KCAL/MOL
REMARK 927      BINDING AFFINITY PREDICTED BY RF-SCORE:    0.00 PKD
ROOT
HETATM    1  C   UNL     1     -12.853   8.737  72.179  1.00  0.00    -0.400 C  
HETATM    2  O   UNL     1     -11.488   8.423  71.913  1.00  0.00    -0.276 OA 
ENDROOT
BRANCH   2   3
HETATM    3  C   UNL     1     -11.035   8.669  70.646  1.00  0.00    -0.240 A  
HETATM    4  C   UNL     1     -11.064   7.645  69.691  1.00  0.00    -0.062 A  
HETATM    5  C   UNL     1     -10.603   7.916  68.395  1.00  0.00    -0.154 A  
HETATM    6  C   UNL     1     -10.203  10.233  68.960  1.00  0.00    -0.210 A  
HETATM    7  C   UNL     1     -10.188   9.212  68.016  1.00  0.00    -0.258 A  
HETATM    8  C   UNL     1     -10.604   9.946  70.254  1.00  0.00    -0.359 A  
HETATM    9  C   UNL     1      -9.745   9.605  66.750  1.00  0.00    -0.197 A  
HETATM   10  N   UNL     1      -9.615   8.686  65.702  1.00  0.00    -0.453 NA 
HETATM   11  N   UNL     1      -9.388  10.864  66.454  1.00  0.00    -0.172 NA 
HETATM   12  H1  UNL     1      -9.292   8.972  64.779  1.00  0.00     0.000 HD 
HETATM   13  C   UNL     1      -9.474  11.787  67.423  1.00  0.00    -0.173 A  
HETATM   14  H2  UNL     1     -10.512   8.212  65.588  1.00  0.00     0.000 HD 
HETATM   15  N   UNL     1      -9.863  11.487  68.668  1.00  0.00    -0.197 NA 
BRANCH   4  16
HETATM   16  O   UNL     1     -11.491   6.352  69.833  1.00  0.00    -0.404 OA 
HETATM   17  C   UNL     1     -10.542   5.354  70.180  1.00  0.00    -0.274 C  
ENDBRANCH   4  16
BRANCH  13  18
HETATM   18  N   UNL     1      -9.101  13.100  67.166  1.00  0.00    -0.222 NA 
HETATM   19  C   UNL     1      -7.409  14.898  67.333  1.00  0.00    -0.193 C  
HETATM   20  C   UNL     1      -7.930  13.575  67.924  1.00  0.00    -0.162 C  
HETATM   21  N   UNL     1      -8.478  15.887  67.138  1.00  0.00    -0.183 N  
HETATM   22  C   UNL     1      -9.633  15.358  66.393  1.00  0.00    -0.293 C  
HETATM   23  C   UNL     1      -8.157  17.240  67.289  1.00  0.00    -0.192 C  
HETATM   24  O   UNL     1      -7.011  17.571  67.598  1.00  0.00    -0.163 OA 
HETATM   25  C   UNL     1     -10.186  14.081  67.048  1.00  0.00    -0.261 C  
BRANCH  23  26
HETATM   26  C   UNL     1      -9.176  18.256  67.075  1.00  0.00    -0.274 A  
HETATM   27  C   UNL     1     -10.105  18.770  67.964  1.00  0.00    -0.417 A  
HETATM   28  C   UNL     1     -10.888  19.708  67.252  1.00  0.00    -0.519 A  
HETATM   29  C   UNL     1     -10.421  19.687  65.960  1.00  0.00    -0.523 A  
HETATM   30  O   UNL     1      -9.406  18.794  65.836  1.00  0.00    -0.466 OA 
ENDBRANCH  23  26
ENDBRANCH  13  18
ENDBRANCH   2   3
TORSDOF 4
ENDMDL
MODEL       28
REMARK 921   NORMALIZED FREE ENERGY PREDICTED BY IDOCK:   -6.23 KCAL/MOL
REMARK 922        TOTAL FREE ENERGY PREDICTED BY IDOCK:   -8.25 KCAL/MOL
REMARK 923 INTER-LIGAND FREE ENERGY PREDICTED BY IDOCK:   -7.80 KCAL/MOL
REMARK 924 INTRA-LIGAND FREE ENERGY PREDICTED BY IDOCK:   -0.45 KCAL/MOL
REMARK 927      BINDING AFFINITY PREDICTED BY RF-SCORE:    0.00 PKD
ROOT
HETATM    1  C   UNL     1      -6.640  18.513  69.014  1.00  0.00    -0.262 C  
HETATM    2  O   UNL     1      -8.052  18.703  69.025  1.00  0.00    -0.244 OA 
ENDROOT
BRANCH   2   3
HETATM    3  C   UNL     1      -8.773  18.025  68.081  1.00  0.00    -0.272 A  
HETATM    4  C   UNL     1      -9.234  18.704  66.946  1.00  0.00    -0.304 A  
HETATM    5  C   UNL     1      -9.964  17.994  65.983  1.00  0.00    -0.221 A  
HETATM    6  C   UNL     1      -9.675  15.927  67.206  1.00  0.00    -0.224 A  
HETATM    7  C   UNL     1     -10.174  16.601  66.096  1.00  0.00    -0.360 A  
HETATM    8  C   UNL     1      -9.005  16.645  68.183  1.00  0.00    -0.210 A  
HETATM    9  C   UNL     1     -10.852  15.786  65.185  1.00  0.00    -0.428 A  
HETATM   10  N   UNL     1     -11.464  16.317  64.044  1.00  0.00    -1.521 NA 
HETATM   11  N   UNL     1     -10.992  14.462  65.346  1.00  0.00    -0.322 NA 
HETATM   12  H1  UNL     1     -11.959  15.723  63.379  1.00  0.00     0.000 HD 
HETATM   13  C   UNL     1     -10.442  13.898  66.431  1.00  0.00    -0.284 A  
HETATM   14  H2  UNL     1     -10.761  16.846  63.528  1.00  0.00     0.000 HD 
HETATM   15  N   UNL     1      -9.800  14.611  67.364  1.00  0.00    -0.221 NA 
BRANCH   4  16
HETATM   16  O   UNL     1      -9.077  20.023  66.613  1.00  0.00    -0.345 OA 
HETATM   17  C   UNL     1      -9.745  21.006  67.390  1.00  0.00    -0.089 C  
ENDBRANCH   4  16
BRANCH  13  18
HETATM   18  N   UNL     1     -10.575  12.532  66.646  1.00  0.00    -0.235 NA 
HETATM   19  C   UNL     1     -11.227  10.671  68.143  1.00  0.00    -0.302 C  
HETATM   20  C   UNL     1     -10.766  12.138  68.053  1.00  0.00    -0.213 C  
HETATM   21  N   UNL     1     -10.387   9.769  67.343  1.00  0.00    -0.223 N  
HETATM   22  C   UNL     1     -10.212  10.216  65.951  1.00  0.00    -0.211 C  
HETATM   23  C   UNL     1     -10.198   8.463  67.809  1.00  0.00    -0.224 C  
HETATM   24  O   UNL     1     -10.710   8.107  68.872  1.00  0.00    -0.176 OA 
HETATM   25  C   UNL     1      -9.675  11.656  65.889  1.00  0.00    -0.235 C  
BRANCH  23  26
HETATM   26  C   UNL     1      -9.400   7.525  67.035  1.00  0.00    -0.150 A  
HETATM   27  C   UNL     1      -9.727   6.259  66.579  1.00  0.00    -0.180 A  
HETATM   28  C   UNL     1      -8.592   5.752  65.906  1.00  0.00    -0.146 A  
HETATM   29  C   UNL     1      -7.622   6.719  66.020  1.00  0.00    -0.086 A  
HETATM   30  O   UNL     1      -8.091   7.782  66.723  1.00  0.00    -0.111 OA 
ENDBRANCH  23  26
ENDBRANCH  13  18
ENDBRANCH   2   3
TORSDOF 4
ENDMDL
MODEL       29
REMARK 921   NORMALIZED FREE ENERGY PREDICTED BY IDOCK:   -6.23 KCAL/MOL
REMARK 922        TOTAL FREE ENERGY PREDICTED BY IDOCK:   -8.25 KCAL/MOL
REMARK 923 INTER-LIGAND FREE ENERGY PREDICTED BY IDOCK:   -7.85 KCAL/MOL
REMARK 924 INTRA-LIGAND FREE ENERGY PREDICTED BY IDOCK:   -0.40 KCAL/MOL
REMARK 927      BINDING AFFINITY PREDICTED BY RF-SCORE:    0.00 PKD
ROOT
HETATM    1  C   UNL     1     -11.199  16.200  69.948  1.00  0.00    -0.349 C  
HETATM    2  O   UNL     1     -12.498  15.653  70.164  1.00  0.00    -0.389 OA 
ENDROOT
BRANCH   2   3
HETATM    3  C   UNL     1     -12.558  14.347  70.565  1.00  0.00    -0.353 A  
HETATM    4  C   UNL     1     -13.445  13.978  71.584  1.00  0.00    -0.361 A  
HETATM    5  C   UNL     1     -13.501  12.634  71.978  1.00  0.00    -0.516 A  
HETATM    6  C   UNL     1     -11.899  12.010  70.278  1.00  0.00    -0.270 A  
HETATM    7  C   UNL     1     -12.744  11.640  71.318  1.00  0.00    -0.444 A  
HETATM    8  C   UNL     1     -11.804  13.347  69.931  1.00  0.00    -0.385 A  
HETATM    9  C   UNL     1     -12.746  10.271  71.600  1.00  0.00    -0.456 A  
HETATM   10  N   UNL     1     -13.499   9.742  72.654  1.00  0.00    -0.599 NA 
HETATM   11  N   UNL     1     -12.018   9.378  70.912  1.00  0.00    -0.291 NA 
HETATM   12  H1  UNL     1     -13.501   8.743  72.860  1.00  0.00     0.000 HD 
HETATM   13  C   UNL     1     -11.262   9.828  69.900  1.00  0.00    -0.229 A  
HETATM   14  H2  UNL     1     -14.467  10.038  72.528  1.00  0.00     0.000 HD 
HETATM   15  N   UNL     1     -11.184  11.126  69.583  1.00  0.00    -0.264 NA 
BRANCH   4  16
HETATM   16  O   UNL     1     -14.308  14.766  72.296  1.00  0.00    -0.474 OA 
HETATM   17  C   UNL     1     -13.784  15.866  73.026  1.00  0.00    -0.481 C  
ENDBRANCH   4  16
BRANCH  13  18
HETATM   18  N   UNL     1     -10.480   8.942  69.170  1.00  0.00    -0.227 NA 
HETATM   19  C   UNL     1      -9.523   8.249  66.995  1.00  0.00    -0.176 C  
HETATM   20  C   UNL     1     -10.651   9.017  67.709  1.00  0.00    -0.214 C  
HETATM   21  N   UNL     1      -9.332   6.897  67.540  1.00  0.00    -0.122 N  
HETATM   22  C   UNL     1      -9.184   6.874  69.005  1.00  0.00    -0.137 C  
HETATM   23  C   UNL     1      -8.915   5.889  66.664  1.00  0.00    -0.125 C  
HETATM   24  O   UNL     1      -8.742   6.142  65.470  1.00  0.00    -0.152 OA 
HETATM   25  C   UNL     1     -10.364   7.578  69.698  1.00  0.00    -0.225 C  
BRANCH  23  26
HETATM   26  C   UNL     1      -8.683   4.544  67.165  1.00  0.00    -0.104 A  
HETATM   27  C   UNL     1      -7.504   3.956  67.593  1.00  0.00    -0.067 A  
HETATM   28  C   UNL     1      -7.809   2.621  67.948  1.00  0.00    -0.059 A  
HETATM   29  C   UNL     1      -9.147   2.455  67.681  1.00  0.00    -0.178 A  
HETATM   30  O   UNL     1      -9.678   3.601  67.183  1.00  0.00    -0.199 OA 
ENDBRANCH  23  26
ENDBRANCH  13  18
ENDBRANCH   2   3
TORSDOF 4
ENDMDL
MODEL       30
REMARK 921   NORMALIZED FREE ENERGY PREDICTED BY IDOCK:   -6.21 KCAL/MOL
REMARK 922        TOTAL FREE ENERGY PREDICTED BY IDOCK:   -8.22 KCAL/MOL
REMARK 923 INTER-LIGAND FREE ENERGY PREDICTED BY IDOCK:   -7.69 KCAL/MOL
REMARK 924 INTRA-LIGAND FREE ENERGY PREDICTED BY IDOCK:   -0.53 KCAL/MOL
REMARK 927      BINDING AFFINITY PREDICTED BY RF-SCORE:    0.00 PKD
ROOT
HETATM    1  C   UNL     1     -10.316   8.802  71.591  1.00  0.00    -0.321 C  
HETATM    2  O   UNL     1     -10.073   8.157  70.343  1.00  0.00    -0.191 OA 
ENDROOT
BRANCH   2   3
HETATM    3  C   UNL     1     -10.115   8.944  69.224  1.00  0.00    -0.203 A  
HETATM    4  C   UNL     1     -10.401   8.363  67.983  1.00  0.00    -0.215 A  
HETATM    5  C   UNL     1     -10.447   9.183  66.847  1.00  0.00    -0.287 A  
HETATM    6  C   UNL     1     -10.051  11.157  68.187  1.00  0.00    -0.179 A  
HETATM    7  C   UNL     1     -10.291  10.585  66.943  1.00  0.00    -0.293 A  
HETATM    8  C   UNL     1      -9.947  10.335  69.297  1.00  0.00    -0.244 A  
HETATM    9  C   UNL     1     -10.353  11.501  65.889  1.00  0.00    -0.247 A  
HETATM   10  N   UNL     1     -10.532  11.083  64.565  1.00  0.00    -0.346 NA 
HETATM   11  N   UNL     1     -10.220  12.825  66.059  1.00  0.00    -0.273 NA 
HETATM   12  H1  UNL     1     -10.577  11.751  63.797  1.00  0.00     0.000 HD 
HETATM   13  C   UNL     1     -10.028  13.285  67.303  1.00  0.00    -0.231 A  
HETATM   14  H2  UNL     1     -11.372  10.506  64.530  1.00  0.00     0.000 HD 
HETATM   15  N   UNL     1      -9.930  12.472  68.362  1.00  0.00    -0.226 NA 
BRANCH   4  16
HETATM   16  O   UNL     1     -10.651   7.050  67.688  1.00  0.00    -0.212 OA 
HETATM   17  C   UNL     1      -9.719   6.340  66.886  1.00  0.00    -0.151 C  
ENDBRANCH   4  16
BRANCH  13  18
HETATM   18  N   UNL     1      -9.870  14.647  67.524  1.00  0.00    -0.218 NA 
HETATM   19  C   UNL     1     -10.889  16.859  67.965  1.00  0.00    -0.338 C  
HETATM   20  C   UNL     1     -11.099  15.448  67.386  1.00  0.00    -0.311 C  
HETATM   21  N   UNL     1      -9.662  17.495  67.466  1.00  0.00    -0.272 N  
HETATM   22  C   UNL     1      -8.466  16.647  67.609  1.00  0.00    -0.192 C  
HETATM   23  C   UNL     1      -9.660  18.885  67.306  1.00  0.00    -0.307 C  
HETATM   24  O   UNL     1     -10.675  19.536  67.561  1.00  0.00    -0.465 OA 
HETATM   25  C   UNL     1      -8.672  15.271  66.953  1.00  0.00    -0.258 C  
BRANCH  23  26
HETATM   26  C   UNL     1      -8.458  19.560  66.844  1.00  0.00    -0.297 A  
HETATM   27  C   UNL     1      -7.696  20.530  67.475  1.00  0.00    -0.336 A  
HETATM   28  C   UNL     1      -6.652  20.881  66.588  1.00  0.00    -0.350 A  
HETATM   29  C   UNL     1      -6.854  20.136  65.451  1.00  0.00    -0.306 A  
HETATM   30  O   UNL     1      -7.957  19.356  65.585  1.00  0.00    -0.427 OA 
ENDBRANCH  23  26
ENDBRANCH  13  18
ENDBRANCH   2   3
TORSDOF 4
ENDMDL
MODEL       31
REMARK 921   NORMALIZED FREE ENERGY PREDICTED BY IDOCK:   -6.16 KCAL/MOL
REMARK 922        TOTAL FREE ENERGY PREDICTED BY IDOCK:   -8.16 KCAL/MOL
REMARK 923 INTER-LIGAND FREE ENERGY PREDICTED BY IDOCK:   -7.59 KCAL/MOL
REMARK 924 INTRA-LIGAND FREE ENERGY PREDICTED BY IDOCK:   -0.57 KCAL/MOL
REMARK 927      BINDING AFFINITY PREDICTED BY RF-SCORE:    0.00 PKD
ROOT
HETATM    1  C   UNL     1      -7.100   5.837  73.659  1.00  0.00    -0.086 C  
HETATM    2  O   UNL     1      -8.208   4.965  73.452  1.00  0.00    -0.106 OA 
ENDROOT
BRANCH   2   3
HETATM    3  C   UNL     1      -9.377   5.541  73.033  1.00  0.00    -0.136 A  
HETATM    4  C   UNL     1     -10.597   4.925  73.338  1.00  0.00    -0.239 A  
HETATM    5  C   UNL     1     -11.786   5.532  72.908  1.00  0.00    -0.216 A  
HETATM    6  C   UNL     1     -10.564   7.406  71.989  1.00  0.00    -0.208 A  
HETATM    7  C   UNL     1     -11.779   6.782  72.249  1.00  0.00    -0.300 A  
HETATM    8  C   UNL     1      -9.390   6.774  72.364  1.00  0.00    -0.146 A  
HETATM    9  C   UNL     1     -12.899   7.494  71.809  1.00  0.00    -0.327 A  
HETATM   10  N   UNL     1     -14.193   6.978  71.942  1.00  0.00    -0.558 NA 
HETATM   11  N   UNL     1     -12.818   8.692  71.210  1.00  0.00    -0.247 NA 
HETATM   12  H1  UNL     1     -15.009   7.498  71.621  1.00  0.00     0.000 HD 
HETATM   13  C   UNL     1     -11.602   9.230  71.038  1.00  0.00    -0.313 A  
HETATM   14  H2  UNL     1     -14.337   6.743  72.924  1.00  0.00     0.000 HD 
HETATM   15  N   UNL     1     -10.479   8.600  71.407  1.00  0.00    -0.234 NA 
BRANCH   4  16
HETATM   16  O   UNL     1     -10.823   3.761  74.022  1.00  0.00    -0.213 OA 
HETATM   17  C   UNL     1     -11.254   2.617  73.299  1.00  0.00    -0.103 C  
ENDBRANCH   4  16
BRANCH  13  18
HETATM   18  N   UNL     1     -11.470  10.461  70.410  1.00  0.00    -0.315 NA 
HETATM   19  C   UNL     1     -11.942  12.891  70.377  1.00  0.00    -0.249 C  
HETATM   20  C   UNL     1     -12.388  11.508  70.890  1.00  0.00    -0.359 C  
HETATM   21  N   UNL     1     -11.681  12.896  68.931  1.00  0.00    -0.309 N  
HETATM   22  C   UNL     1     -10.773  11.819  68.499  1.00  0.00    -0.220 C  
HETATM   23  C   UNL     1     -11.948  14.070  68.219  1.00  0.00    -0.349 C  
HETATM   24  O   UNL     1     -12.411  15.052  68.802  1.00  0.00    -0.124 OA 
HETATM   25  C   UNL     1     -11.281  10.441  68.955  1.00  0.00    -0.235 C  
BRANCH  23  26
HETATM   26  C   UNL     1     -11.675  14.131  66.792  1.00  0.00    -0.410 A  
HETATM   27  C   UNL     1     -10.656  14.783  66.118  1.00  0.00    -0.314 A  
HETATM   28  C   UNL     1     -10.859  14.558  64.737  1.00  0.00    -0.410 A  
HETATM   29  C   UNL     1     -12.010  13.815  64.640  1.00  0.00    -0.416 A  
HETATM   30  O   UNL     1     -12.526  13.575  65.873  1.00  0.00    -0.444 OA 
ENDBRANCH  23  26
ENDBRANCH  13  18
ENDBRANCH   2   3
TORSDOF 4
ENDMDL
MODEL       32
REMARK 921   NORMALIZED FREE ENERGY PREDICTED BY IDOCK:   -6.10 KCAL/MOL
REMARK 922        TOTAL FREE ENERGY PREDICTED BY IDOCK:   -8.09 KCAL/MOL
REMARK 923 INTER-LIGAND FREE ENERGY PREDICTED BY IDOCK:   -7.72 KCAL/MOL
REMARK 924 INTRA-LIGAND FREE ENERGY PREDICTED BY IDOCK:   -0.37 KCAL/MOL
REMARK 927      BINDING AFFINITY PREDICTED BY RF-SCORE:    0.00 PKD
ROOT
HETATM    1  C   UNL     1      -6.128  10.389  62.768  1.00  0.00    -0.145 C  
HETATM    2  O   UNL     1      -6.402   9.087  63.280  1.00  0.00    -0.089 OA 
ENDROOT
BRANCH   2   3
HETATM    3  C   UNL     1      -7.403   8.988  64.208  1.00  0.00    -0.103 A  
HETATM    4  C   UNL     1      -7.833   7.723  64.628  1.00  0.00    -0.130 A  
HETATM    5  C   UNL     1      -8.853   7.639  65.585  1.00  0.00    -0.086 A  
HETATM    6  C   UNL     1      -8.932  10.046  65.796  1.00  0.00    -0.157 A  
HETATM    7  C   UNL     1      -9.396   8.796  66.188  1.00  0.00    -0.297 A  
HETATM    8  C   UNL     1      -7.965  10.126  64.808  1.00  0.00    -0.146 A  
HETATM    9  C   UNL     1     -10.387   8.831  67.173  1.00  0.00    -0.293 A  
HETATM   10  N   UNL     1     -11.000   7.662  67.637  1.00  0.00    -0.521 NA 
HETATM   11  N   UNL     1     -10.838   9.971  67.720  1.00  0.00    -0.282 NA 
HETATM   12  H1  UNL     1     -11.722   7.688  68.356  1.00  0.00     0.000 HD 
HETATM   13  C   UNL     1     -10.300  11.126  67.303  1.00  0.00    -0.208 A  
HETATM   14  H2  UNL     1     -10.266   7.027  67.952  1.00  0.00     0.000 HD 
HETATM   15  N   UNL     1      -9.367  11.179  66.345  1.00  0.00    -0.182 NA 
BRANCH   4  16
HETATM   16  O   UNL     1      -7.392   6.491  64.225  1.00  0.00    -0.061 OA 
HETATM   17  C   UNL     1      -8.340   5.445  64.068  1.00  0.00    -0.116 C  
ENDBRANCH   4  16
BRANCH  13  18
HETATM   18  N   UNL     1     -10.747  12.330  67.831  1.00  0.00    -0.209 NA 
HETATM   19  C   UNL     1     -10.445  14.771  68.104  1.00  0.00    -0.239 C  
HETATM   20  C   UNL     1      -9.760  13.423  67.814  1.00  0.00    -0.216 C  
HETATM   21  N   UNL     1     -11.308  14.719  69.292  1.00  0.00    -0.278 N  
HETATM   22  C   UNL     1     -12.264  13.599  69.270  1.00  0.00    -0.238 C  
HETATM   23  C   UNL     1     -11.429  15.877  70.068  1.00  0.00    -0.354 C  
HETATM   24  O   UNL     1     -10.804  16.894  69.760  1.00  0.00    -0.281 OA 
HETATM   25  C   UNL     1     -11.547  12.254  69.058  1.00  0.00    -0.316 C  
BRANCH  23  26
HETATM   26  C   UNL     1     -12.297  15.881  71.235  1.00  0.00    -0.408 A  
HETATM   27  C   UNL     1     -11.967  15.993  72.576  1.00  0.00    -0.649 A  
HETATM   28  C   UNL     1     -13.173  15.906  73.310  1.00  0.00    -0.698 A  
HETATM   29  C   UNL     1     -14.167  15.707  72.382  1.00  0.00    -0.434 A  
HETATM   30  O   UNL     1     -13.646  15.663  71.129  1.00  0.00    -0.582 OA 
ENDBRANCH  23  26
ENDBRANCH  13  18
ENDBRANCH   2   3
TORSDOF 4
ENDMDL
MODEL       33
REMARK 921   NORMALIZED FREE ENERGY PREDICTED BY IDOCK:   -6.09 KCAL/MOL
REMARK 922        TOTAL FREE ENERGY PREDICTED BY IDOCK:   -8.08 KCAL/MOL
REMARK 923 INTER-LIGAND FREE ENERGY PREDICTED BY IDOCK:   -7.54 KCAL/MOL
REMARK 924 INTRA-LIGAND FREE ENERGY PREDICTED BY IDOCK:   -0.54 KCAL/MOL
REMARK 927      BINDING AFFINITY PREDICTED BY RF-SCORE:    0.00 PKD
ROOT
HETATM    1  C   UNL     1      -9.817  20.954  67.240  1.00  0.00    -0.160 C  
HETATM    2  O   UNL     1      -9.569  20.129  66.103  1.00  0.00    -0.389 OA 
ENDROOT
BRANCH   2   3
HETATM    3  C   UNL     1      -9.113  18.862  66.348  1.00  0.00    -0.311 A  
HETATM    4  C   UNL     1      -7.784  18.538  66.050  1.00  0.00    -0.171 A  
HETATM    5  C   UNL     1      -7.330  17.239  66.314  1.00  0.00    -0.342 A  
HETATM    6  C   UNL     1      -9.462  16.627  67.276  1.00  0.00    -0.232 A  
HETATM    7  C   UNL     1      -8.158  16.282  66.943  1.00  0.00    -0.270 A  
HETATM    8  C   UNL     1      -9.924  17.894  66.960  1.00  0.00    -0.324 A  
HETATM    9  C   UNL     1      -7.803  14.974  67.286  1.00  0.00    -0.211 A  
HETATM   10  N   UNL     1      -6.544  14.450  66.969  1.00  0.00    -0.237 NA 
HETATM   11  N   UNL     1      -8.636  14.125  67.907  1.00  0.00    -0.167 NA 
HETATM   12  H1  UNL     1      -6.285  13.496  67.219  1.00  0.00     0.000 HD 
HETATM   13  C   UNL     1      -9.863  14.564  68.220  1.00  0.00    -0.229 A  
HETATM   14  H2  UNL     1      -5.838  15.078  67.354  1.00  0.00     0.000 HD 
HETATM   15  N   UNL     1     -10.290  15.794  67.904  1.00  0.00    -0.256 NA 
BRANCH   4  16
HETATM   16  O   UNL     1      -6.809  19.332  65.509  1.00  0.00    -0.272 OA 
HETATM   17  C   UNL     1      -5.665  18.713  64.937  1.00  0.00    -0.228 C  
ENDBRANCH   4  16
BRANCH  13  18
HETATM   18  N   UNL     1     -10.764  13.716  68.851  1.00  0.00    -0.238 NA 
HETATM   19  C   UNL     1     -12.593  13.398  70.488  1.00  0.00    -0.211 C  
HETATM   20  C   UNL     1     -11.391  14.264  70.066  1.00  0.00    -0.165 C  
HETATM   21  N   UNL     1     -12.264  11.967  70.538  1.00  0.00    -0.363 N  
HETATM   22  C   UNL     1     -11.623  11.472  69.308  1.00  0.00    -0.322 C  
HETATM   23  C   UNL     1     -12.916  11.176  71.491  1.00  0.00    -0.437 C  
HETATM   24  O   UNL     1     -13.720  11.688  72.271  1.00  0.00    -0.183 OA 
HETATM   25  C   UNL     1     -10.379  12.304  68.951  1.00  0.00    -0.059 C  
BRANCH  23  26
HETATM   26  C   UNL     1     -12.645   9.749  71.556  1.00  0.00    -0.398 A  
HETATM   27  C   UNL     1     -13.528   8.682  71.504  1.00  0.00    -0.344 A  
HETATM   28  C   UNL     1     -12.763   7.501  71.643  1.00  0.00    -0.385 A  
HETATM   29  C   UNL     1     -11.462   7.911  71.811  1.00  0.00    -0.269 A  
HETATM   30  O   UNL     1     -11.383   9.266  71.787  1.00  0.00    -0.369 OA 
ENDBRANCH  23  26
ENDBRANCH  13  18
ENDBRANCH   2   3
TORSDOF 4
ENDMDL
MODEL       34
REMARK 921   NORMALIZED FREE ENERGY PREDICTED BY IDOCK:   -6.08 KCAL/MOL
REMARK 922        TOTAL FREE ENERGY PREDICTED BY IDOCK:   -8.07 KCAL/MOL
REMARK 923 INTER-LIGAND FREE ENERGY PREDICTED BY IDOCK:   -7.45 KCAL/MOL
REMARK 924 INTRA-LIGAND FREE ENERGY PREDICTED BY IDOCK:   -0.62 KCAL/MOL
REMARK 927      BINDING AFFINITY PREDICTED BY RF-SCORE:    0.00 PKD
ROOT
HETATM    1  C   UNL     1      -7.428  17.281  68.015  1.00  0.00    -0.194 C  
HETATM    2  O   UNL     1      -7.636  16.674  66.742  1.00  0.00    -0.202 OA 
ENDROOT
BRANCH   2   3
HETATM    3  C   UNL     1      -8.764  15.912  66.599  1.00  0.00    -0.289 A  
HETATM    4  C   UNL     1      -9.888  16.457  65.965  1.00  0.00    -0.335 A  
HETATM    5  C   UNL     1     -11.033  15.662  65.819  1.00  0.00    -0.250 A  
HETATM    6  C   UNL     1      -9.911  13.764  66.812  1.00  0.00    -0.270 A  
HETATM    7  C   UNL     1     -11.047  14.308  66.224  1.00  0.00    -0.323 A  
HETATM    8  C   UNL     1      -8.802  14.571  67.007  1.00  0.00    -0.256 A  
HETATM    9  C   UNL     1     -12.114  13.415  66.096  1.00  0.00    -0.429 A  
HETATM   10  N   UNL     1     -13.349  13.819  65.576  1.00  0.00    -0.562 NA 
HETATM   11  N   UNL     1     -12.047  12.131  66.482  1.00  0.00    -0.582 NA 
HETATM   12  H1  UNL     1     -14.127  13.167  65.483  1.00  0.00     0.000 HD 
HETATM   13  C   UNL     1     -10.895  11.689  67.004  1.00  0.00    -0.266 A  
HETATM   14  H2  UNL     1     -13.182  14.241  64.662  1.00  0.00     0.000 HD 
HETATM   15  N   UNL     1      -9.835  12.488  67.185  1.00  0.00    -0.207 NA 
BRANCH   4  16
HETATM   16  O   UNL     1     -10.053  17.711  65.442  1.00  0.00    -0.482 OA 
HETATM   17  C   UNL     1     -10.479  18.759  66.302  1.00  0.00    -0.435 C  
ENDBRANCH   4  16
BRANCH  13  18
HETATM   18  N   UNL     1     -10.785  10.372  67.430  1.00  0.00    -0.269 NA 
HETATM   19  C   UNL     1     -10.653   8.746  69.292  1.00  0.00    -0.197 C  
HETATM   20  C   UNL     1     -10.424  10.203  68.849  1.00  0.00    -0.210 C  
HETATM   21  N   UNL     1     -10.049   7.777  68.368  1.00  0.00    -0.186 N  
HETATM   22  C   UNL     1     -10.425   7.999  66.961  1.00  0.00    -0.340 C  
HETATM   23  C   UNL     1      -9.559   6.579  68.900  1.00  0.00    -0.127 C  
HETATM   24  O   UNL     1      -9.622   6.373  70.113  1.00  0.00    -0.159 OA 
HETATM   25  C   UNL     1     -10.113   9.439  66.519  1.00  0.00    -0.262 C  
BRANCH  23  26
HETATM   26  C   UNL     1      -8.981   5.577  68.019  1.00  0.00    -0.108 A  
HETATM   27  C   UNL     1      -9.475   4.335  67.656  1.00  0.00    -0.217 A  
HETATM   28  C   UNL     1      -8.516   3.737  66.806  1.00  0.00    -0.105 A  
HETATM   29  C   UNL     1      -7.473   4.629  66.727  1.00  0.00    -0.086 A  
HETATM   30  O   UNL     1      -7.732   5.730  67.477  1.00  0.00    -0.095 OA 
ENDBRANCH  23  26
ENDBRANCH  13  18
ENDBRANCH   2   3
TORSDOF 4
ENDMDL
MODEL       35
REMARK 921   NORMALIZED FREE ENERGY PREDICTED BY IDOCK:   -6.07 KCAL/MOL
REMARK 922        TOTAL FREE ENERGY PREDICTED BY IDOCK:   -8.05 KCAL/MOL
REMARK 923 INTER-LIGAND FREE ENERGY PREDICTED BY IDOCK:   -7.59 KCAL/MOL
REMARK 924 INTRA-LIGAND FREE ENERGY PREDICTED BY IDOCK:   -0.46 KCAL/MOL
REMARK 927      BINDING AFFINITY PREDICTED BY RF-SCORE:    0.00 PKD
ROOT
HETATM    1  C   UNL     1     -11.277  16.248  69.719  1.00  0.00    -0.314 C  
HETATM    2  O   UNL     1     -12.466  15.831  70.386  1.00  0.00    -0.399 OA 
ENDROOT
BRANCH   2   3
HETATM    3  C   UNL     1     -12.547  14.511  70.735  1.00  0.00    -0.351 A  
HETATM    4  C   UNL     1     -13.372  14.128  71.800  1.00  0.00    -0.380 A  
HETATM    5  C   UNL     1     -13.451  12.770  72.139  1.00  0.00    -0.591 A  
HETATM    6  C   UNL     1     -12.000  12.167  70.301  1.00  0.00    -0.305 A  
HETATM    7  C   UNL     1     -12.782  11.781  71.384  1.00  0.00    -0.413 A  
HETATM    8  C   UNL     1     -11.879  13.515  70.005  1.00  0.00    -0.371 A  
HETATM    9  C   UNL     1     -12.816  10.401  71.607  1.00  0.00    -0.474 A  
HETATM   10  N   UNL     1     -13.511   9.852  72.690  1.00  0.00    -0.561 NA 
HETATM   11  N   UNL     1     -12.173   9.516  70.830  1.00  0.00    -0.241 NA 
HETATM   12  H1  UNL     1     -13.536   8.846  72.853  1.00  0.00     0.000 HD 
HETATM   13  C   UNL     1     -11.475   9.984  69.786  1.00  0.00    -0.184 A  
HETATM   14  H2  UNL     1     -14.473  10.187  72.647  1.00  0.00     0.000 HD 
HETATM   15  N   UNL     1     -11.370  11.292  69.519  1.00  0.00    -0.273 NA 
BRANCH   4  16
HETATM   16  O   UNL     1     -14.152  14.913  72.606  1.00  0.00    -0.435 OA 
HETATM   17  C   UNL     1     -13.519  15.860  73.454  1.00  0.00    -0.421 C  
ENDBRANCH   4  16
BRANCH  13  18
HETATM   18  N   UNL     1     -10.781   9.105  68.964  1.00  0.00    -0.194 NA 
HETATM   19  C   UNL     1      -9.104   7.302  68.718  1.00  0.00    -0.127 C  
HETATM   20  C   UNL     1      -9.594   8.484  69.576  1.00  0.00    -0.170 C  
HETATM   21  N   UNL     1      -8.970   7.655  67.299  1.00  0.00    -0.126 N  
HETATM   22  C   UNL     1     -10.175   8.290  66.739  1.00  0.00    -0.304 C  
HETATM   23  C   UNL     1      -7.961   7.029  66.558  1.00  0.00    -0.108 C  
HETATM   24  O   UNL     1      -7.204   6.225  67.105  1.00  0.00    -0.072 OA 
HETATM   25  C   UNL     1     -10.599   9.515  67.567  1.00  0.00    -0.275 C  
BRANCH  23  26
HETATM   26  C   UNL     1      -7.811   7.324  65.142  1.00  0.00    -0.123 A  
HETATM   27  C   UNL     1      -7.928   6.480  64.050  1.00  0.00    -0.081 A  
HETATM   28  C   UNL     1      -7.655   7.251  62.896  1.00  0.00    -0.105 A  
HETATM   29  C   UNL     1      -7.350   8.513  63.348  1.00  0.00    -0.103 A  
HETATM   30  O   UNL     1      -7.414   8.561  64.704  1.00  0.00    -0.089 OA 
ENDBRANCH  23  26
ENDBRANCH  13  18
ENDBRANCH   2   3
TORSDOF 4
ENDMDL
MODEL       36
REMARK 921   NORMALIZED FREE ENERGY PREDICTED BY IDOCK:   -6.05 KCAL/MOL
REMARK 922        TOTAL FREE ENERGY PREDICTED BY IDOCK:   -8.03 KCAL/MOL
REMARK 923 INTER-LIGAND FREE ENERGY PREDICTED BY IDOCK:   -7.56 KCAL/MOL
REMARK 924 INTRA-LIGAND FREE ENERGY PREDICTED BY IDOCK:   -0.46 KCAL/MOL
REMARK 927      BINDING AFFINITY PREDICTED BY RF-SCORE:    0.00 PKD
ROOT
HETATM    1  C   UNL     1      -6.656  17.150  68.191  1.00  0.00    -0.158 C  
HETATM    2  O   UNL     1      -7.316  17.170  66.927  1.00  0.00    -0.168 OA 
ENDROOT
BRANCH   2   3
HETATM    3  C   UNL     1      -8.417  16.369  66.794  1.00  0.00    -0.244 A  
HETATM    4  C   UNL     1      -9.586  16.891  66.225  1.00  0.00    -0.276 A  
HETATM    5  C   UNL     1     -10.703  16.055  66.088  1.00  0.00    -0.246 A  
HETATM    6  C   UNL     1      -9.468  14.167  66.960  1.00  0.00    -0.251 A  
HETATM    7  C   UNL     1     -10.647  14.687  66.437  1.00  0.00    -0.301 A  
HETATM    8  C   UNL     1      -8.386  15.011  67.148  1.00  0.00    -0.244 A  
HETATM    9  C   UNL     1     -11.681  13.755  66.311  1.00  0.00    -0.376 A  
HETATM   10  N   UNL     1     -12.951  14.128  65.855  1.00  0.00    -0.477 NA 
HETATM   11  N   UNL     1     -11.548  12.461  66.640  1.00  0.00    -0.391 NA 
HETATM   12  H1  UNL     1     -13.705  13.449  65.763  1.00  0.00     0.000 HD 
HETATM   13  C   UNL     1     -10.359  12.048  67.101  1.00  0.00    -0.213 A  
HETATM   14  H2  UNL     1     -12.835  14.593  64.953  1.00  0.00     0.000 HD 
HETATM   15  N   UNL     1      -9.327  12.881  67.276  1.00  0.00    -0.204 NA 
BRANCH   4  16
HETATM   16  O   UNL     1      -9.822  18.157  65.762  1.00  0.00    -0.527 OA 
HETATM   17  C   UNL     1     -10.222  19.159  66.685  1.00  0.00    -0.411 C  
ENDBRANCH   4  16
BRANCH  13  18
HETATM   18  N   UNL     1     -10.181  10.720  67.468  1.00  0.00    -0.188 NA 
HETATM   19  C   UNL     1     -10.064   8.334  66.819  1.00  0.00    -0.303 C  
HETATM   20  C   UNL     1     -10.602   9.732  66.460  1.00  0.00    -0.080 C  
HETATM   21  N   UNL     1     -10.340   7.968  68.215  1.00  0.00    -0.205 N  
HETATM   22  C   UNL     1      -9.918   8.995  69.182  1.00  0.00    -0.185 C  
HETATM   23  C   UNL     1     -10.566   6.618  68.507  1.00  0.00    -0.233 C  
HETATM   24  O   UNL     1     -10.552   5.781  67.603  1.00  0.00    -0.226 OA 
HETATM   25  C   UNL     1     -10.532  10.365  68.848  1.00  0.00    -0.212 C  
BRANCH  23  26
HETATM   26  C   UNL     1     -10.812   6.205  69.879  1.00  0.00    -0.353 A  
HETATM   27  C   UNL     1     -11.833   6.574  70.740  1.00  0.00    -0.394 A  
HETATM   28  C   UNL     1     -11.597   5.919  71.971  1.00  0.00    -0.289 A  
HETATM   29  C   UNL     1     -10.427   5.218  71.808  1.00  0.00    -0.214 A  
HETATM   30  O   UNL     1      -9.930   5.405  70.558  1.00  0.00    -0.191 OA 
ENDBRANCH  23  26
ENDBRANCH  13  18
ENDBRANCH   2   3
TORSDOF 4
ENDMDL
MODEL       37
REMARK 921   NORMALIZED FREE ENERGY PREDICTED BY IDOCK:   -6.02 KCAL/MOL
REMARK 922        TOTAL FREE ENERGY PREDICTED BY IDOCK:   -7.99 KCAL/MOL
REMARK 923 INTER-LIGAND FREE ENERGY PREDICTED BY IDOCK:   -7.49 KCAL/MOL
REMARK 924 INTRA-LIGAND FREE ENERGY PREDICTED BY IDOCK:   -0.50 KCAL/MOL
REMARK 927      BINDING AFFINITY PREDICTED BY RF-SCORE:    0.00 PKD
ROOT
HETATM    1  C   UNL     1     -11.360  14.274  68.545  1.00  0.00    -0.282 C  
HETATM    2  O   UNL     1     -12.030  14.310  69.803  1.00  0.00    -0.298 OA 
ENDROOT
BRANCH   2   3
HETATM    3  C   UNL     1     -12.251  13.108  70.418  1.00  0.00    -0.316 A  
HETATM    4  C   UNL     1     -13.251  13.006  71.393  1.00  0.00    -0.192 A  
HETATM    5  C   UNL     1     -13.472  11.766  72.008  1.00  0.00    -0.319 A  
HETATM    6  C   UNL     1     -11.803  10.712  70.611  1.00  0.00    -0.363 A  
HETATM    7  C   UNL     1     -12.763  10.609  71.610  1.00  0.00    -0.531 A  
HETATM    8  C   UNL     1     -11.548  11.951  70.047  1.00  0.00    -0.301 A  
HETATM    9  C   UNL     1     -12.923   9.320  72.126  1.00  0.00    -0.424 A  
HETATM   10  N   UNL     1     -13.809   9.056  73.177  1.00  0.00    -1.177 NA 
HETATM   11  N   UNL     1     -12.231   8.260  71.680  1.00  0.00    -0.300 NA 
HETATM   12  H1  UNL     1     -13.926   8.115  73.552  1.00  0.00     0.000 HD 
HETATM   13  C   UNL     1     -11.353   8.453  70.686  1.00  0.00    -0.244 A  
HETATM   14  H2  UNL     1     -14.730   9.401  72.904  1.00  0.00     0.000 HD 
HETATM   15  N   UNL     1     -11.122   9.661  70.157  1.00  0.00    -0.256 NA 
BRANCH   4  16
HETATM   16  O   UNL     1     -14.090  13.979  71.866  1.00  0.00    -0.444 OA 
HETATM   17  C   UNL     1     -13.568  14.955  72.756  1.00  0.00    -0.435 C  
ENDBRANCH   4  16
BRANCH  13  18
HETATM   18  N   UNL     1     -10.604   7.388  70.204  1.00  0.00    -0.225 NA 
HETATM   19  C   UNL     1     -10.452   5.374  68.773  1.00  0.00    -0.149 C  
HETATM   20  C   UNL     1     -11.384   6.323  69.550  1.00  0.00    -0.404 C  
HETATM   21  N   UNL     1      -9.313   4.917  69.582  1.00  0.00    -0.118 N  
HETATM   22  C   UNL     1      -8.579   6.017  70.229  1.00  0.00    -0.143 C  
HETATM   23  C   UNL     1      -8.813   3.632  69.345  1.00  0.00    -0.092 C  
HETATM   24  O   UNL     1      -9.339   2.913  68.495  1.00  0.00    -0.176 OA 
HETATM   25  C   UNL     1      -9.518   6.904  71.064  1.00  0.00    -0.163 C  
BRANCH  23  26
HETATM   26  C   UNL     1      -7.667   3.150  70.100  1.00  0.00    -0.043 A  
HETATM   27  C   UNL     1      -7.631   2.478  71.311  1.00  0.00    -0.040 A  
HETATM   28  C   UNL     1      -6.270   2.266  71.629  1.00  0.00    -0.014 A  
HETATM   29  C   UNL     1      -5.549   2.851  70.617  1.00  0.00    -0.013 A  
HETATM   30  O   UNL     1      -6.382   3.412  69.702  1.00  0.00    -0.027 OA 
ENDBRANCH  23  26
ENDBRANCH  13  18
ENDBRANCH   2   3
TORSDOF 4
ENDMDL
MODEL       38
REMARK 921   NORMALIZED FREE ENERGY PREDICTED BY IDOCK:   -5.97 KCAL/MOL
REMARK 922        TOTAL FREE ENERGY PREDICTED BY IDOCK:   -7.93 KCAL/MOL
REMARK 923 INTER-LIGAND FREE ENERGY PREDICTED BY IDOCK:   -7.37 KCAL/MOL
REMARK 924 INTRA-LIGAND FREE ENERGY PREDICTED BY IDOCK:   -0.56 KCAL/MOL
REMARK 927      BINDING AFFINITY PREDICTED BY RF-SCORE:    0.00 PKD
ROOT
HETATM    1  C   UNL     1      -9.164   3.581  67.847  1.00  0.00    -0.183 C  
HETATM    2  O   UNL     1      -9.550   3.223  69.171  1.00  0.00    -0.157 OA 
ENDROOT
BRANCH   2   3
HETATM    3  C   UNL     1      -9.881   4.248  70.016  1.00  0.00    -0.205 A  
HETATM    4  C   UNL     1      -9.983   4.004  71.391  1.00  0.00    -0.140 A  
HETATM    5  C   UNL     1     -10.314   5.066  72.243  1.00  0.00    -0.267 A  
HETATM    6  C   UNL     1     -10.322   6.623  70.394  1.00  0.00    -0.199 A  
HETATM    7  C   UNL     1     -10.468   6.383  71.755  1.00  0.00    -0.246 A  
HETATM    8  C   UNL     1     -10.052   5.560  69.548  1.00  0.00    -0.305 A  
HETATM    9  C   UNL     1     -10.762   7.520  72.513  1.00  0.00    -0.285 A  
HETATM   10  N   UNL     1     -10.996   7.441  73.891  1.00  0.00    -0.489 NA 
HETATM   11  N   UNL     1     -10.870   8.748  71.983  1.00  0.00    -0.355 NA 
HETATM   12  H1  UNL     1     -11.210   8.271  74.443  1.00  0.00     0.000 HD 
HETATM   13  C   UNL     1     -10.674   8.884  70.663  1.00  0.00    -0.234 A  
HETATM   14  H2  UNL     1     -10.194   6.978  74.318  1.00  0.00     0.000 HD 
HETATM   15  N   UNL     1     -10.415   7.842  69.864  1.00  0.00    -0.227 NA 
BRANCH   4  16
HETATM   16  O   UNL     1      -9.803   2.828  72.068  1.00  0.00    -0.152 OA 
HETATM   17  C   UNL     1      -8.588   2.626  72.775  1.00  0.00    -0.071 C  
ENDBRANCH   4  16
BRANCH  13  18
HETATM   18  N   UNL     1     -10.790  10.134  70.070  1.00  0.00    -0.287 NA 
HETATM   19  C   UNL     1     -11.711  12.431  70.117  1.00  0.00    -0.185 C  
HETATM   20  C   UNL     1     -11.877  10.977  70.597  1.00  0.00    -0.333 C  
HETATM   21  N   UNL     1     -11.488  12.522  68.668  1.00  0.00    -0.281 N  
HETATM   22  C   UNL     1     -10.405  11.648  68.188  1.00  0.00    -0.194 C  
HETATM   23  C   UNL     1     -11.988  13.644  67.996  1.00  0.00    -0.350 C  
HETATM   24  O   UNL     1     -12.613  14.506  68.615  1.00  0.00     0.042 OA 
HETATM   25  C   UNL     1     -10.634  10.187  68.612  1.00  0.00    -0.210 C  
BRANCH  23  26
HETATM   26  C   UNL     1     -11.763  13.792  66.566  1.00  0.00    -0.385 A  
HETATM   27  C   UNL     1     -12.568  13.409  65.505  1.00  0.00    -0.520 A  
HETATM   28  C   UNL     1     -11.879  13.747  64.318  1.00  0.00    -0.451 A  
HETATM   29  C   UNL     1     -10.677  14.282  64.716  1.00  0.00    -0.416 A  
HETATM   30  O   UNL     1     -10.586  14.288  66.071  1.00  0.00    -0.288 OA 
ENDBRANCH  23  26
ENDBRANCH  13  18
ENDBRANCH   2   3
TORSDOF 4
ENDMDL
MODEL       39
REMARK 921   NORMALIZED FREE ENERGY PREDICTED BY IDOCK:   -5.97 KCAL/MOL
REMARK 922        TOTAL FREE ENERGY PREDICTED BY IDOCK:   -7.92 KCAL/MOL
REMARK 923 INTER-LIGAND FREE ENERGY PREDICTED BY IDOCK:   -7.40 KCAL/MOL
REMARK 924 INTRA-LIGAND FREE ENERGY PREDICTED BY IDOCK:   -0.52 KCAL/MOL
REMARK 927      BINDING AFFINITY PREDICTED BY RF-SCORE:    0.00 PKD
ROOT
HETATM    1  C   UNL     1      -7.136   5.861  67.782  1.00  0.00    -0.071 C  
HETATM    2  O   UNL     1      -8.398   6.081  67.157  1.00  0.00    -0.106 OA 
ENDROOT
BRANCH   2   3
HETATM    3  C   UNL     1      -8.545   7.249  66.460  1.00  0.00    -0.133 A  
HETATM    4  C   UNL     1      -8.274   7.272  65.086  1.00  0.00    -0.110 A  
HETATM    5  C   UNL     1      -8.437   8.474  64.385  1.00  0.00    -0.089 A  
HETATM    6  C   UNL     1      -9.250   9.589  66.371  1.00  0.00    -0.166 A  
HETATM    7  C   UNL     1      -8.942   9.634  65.016  1.00  0.00    -0.255 A  
HETATM    8  C   UNL     1      -9.032   8.414  67.073  1.00  0.00    -0.161 A  
HETATM    9  C   UNL     1      -9.179  10.872  64.412  1.00  0.00    -0.198 A  
HETATM   10  N   UNL     1      -8.868  11.101  63.067  1.00  0.00    -0.441 NA 
HETATM   11  N   UNL     1      -9.685  11.925  65.071  1.00  0.00    -0.202 NA 
HETATM   12  H1  UNL     1      -9.041  12.004  62.626  1.00  0.00     0.000 HD 
HETATM   13  C   UNL     1      -9.986  11.772  66.368  1.00  0.00    -0.211 A  
HETATM   14  H2  UNL     1      -9.338  10.386  62.511  1.00  0.00     0.000 HD 
HETATM   15  N   UNL     1      -9.765  10.628  67.027  1.00  0.00    -0.173 NA 
BRANCH   4  16
HETATM   16  O   UNL     1      -7.848   6.251  64.280  1.00  0.00    -0.105 OA 
HETATM   17  C   UNL     1      -7.756   6.480  62.881  1.00  0.00    -0.097 C  
ENDBRANCH   4  16
BRANCH  13  18
HETATM   18  N   UNL     1     -10.498  12.840  67.093  1.00  0.00    -0.232 NA 
HETATM   19  C   UNL     1     -10.410  15.242  67.686  1.00  0.00    -0.250 C  
HETATM   20  C   UNL     1      -9.626  14.026  67.157  1.00  0.00    -0.245 C  
HETATM   21  N   UNL     1     -11.154  14.939  68.916  1.00  0.00    -0.244 N  
HETATM   22  C   UNL     1     -11.996  13.735  68.807  1.00  0.00    -0.365 C  
HETATM   23  C   UNL     1     -11.317  15.964  69.854  1.00  0.00    -0.348 C  
HETATM   24  O   UNL     1     -10.823  17.074  69.647  1.00  0.00    -0.242 OA 
HETATM   25  C   UNL     1     -11.174  12.516  68.354  1.00  0.00    -0.272 C  
BRANCH  23  26
HETATM   26  C   UNL     1     -12.073  15.718  71.072  1.00  0.00    -0.418 A  
HETATM   27  C   UNL     1     -11.618  15.417  72.345  1.00  0.00    -0.545 A  
HETATM   28  C   UNL     1     -12.757  15.238  73.163  1.00  0.00    -0.586 A  
HETATM   29  C   UNL     1     -13.845  15.402  72.339  1.00  0.00    -0.562 A  
HETATM   30  O   UNL     1     -13.443  15.665  71.069  1.00  0.00    -0.575 OA 
ENDBRANCH  23  26
ENDBRANCH  13  18
ENDBRANCH   2   3
TORSDOF 4
ENDMDL
MODEL       40
REMARK 921   NORMALIZED FREE ENERGY PREDICTED BY IDOCK:   -5.94 KCAL/MOL
REMARK 922        TOTAL FREE ENERGY PREDICTED BY IDOCK:   -7.89 KCAL/MOL
REMARK 923 INTER-LIGAND FREE ENERGY PREDICTED BY IDOCK:   -7.28 KCAL/MOL
REMARK 924 INTRA-LIGAND FREE ENERGY PREDICTED BY IDOCK:   -0.61 KCAL/MOL
REMARK 927      BINDING AFFINITY PREDICTED BY RF-SCORE:    0.00 PKD
ROOT
HETATM    1  C   UNL     1      -7.262  17.363  66.196  1.00  0.00    -0.292 C  
HETATM    2  O   UNL     1      -8.619  17.151  65.812  1.00  0.00    -0.525 OA 
ENDROOT
BRANCH   2   3
HETATM    3  C   UNL     1      -9.413  16.478  66.699  1.00  0.00    -0.258 A  
HETATM    4  C   UNL     1     -10.334  17.189  67.478  1.00  0.00    -0.341 A  
HETATM    5  C   UNL     1     -11.147  16.485  68.377  1.00  0.00    -0.333 A  
HETATM    6  C   UNL     1     -10.222  14.373  67.645  1.00  0.00    -0.229 A  
HETATM    7  C   UNL     1     -11.110  15.074  68.454  1.00  0.00    -0.284 A  
HETATM    8  C   UNL     1      -9.381  15.079  66.800  1.00  0.00    -0.271 A  
HETATM    9  C   UNL     1     -11.894  14.267  69.282  1.00  0.00    -0.330 A  
HETATM   10  N   UNL     1     -12.797  14.818  70.199  1.00  0.00    -0.586 NA 
HETATM   11  N   UNL     1     -11.822  12.927  69.284  1.00  0.00    -0.314 NA 
HETATM   12  H1  UNL     1     -13.369  14.229  70.803  1.00  0.00     0.000 HD 
HETATM   13  C   UNL     1     -10.961  12.341  68.440  1.00  0.00    -0.236 A  
HETATM   14  H2  UNL     1     -13.421  15.442  69.687  1.00  0.00     0.000 HD 
HETATM   15  N   UNL     1     -10.156  13.043  67.633  1.00  0.00    -0.214 NA 
BRANCH   4  16
HETATM   16  O   UNL     1     -10.576  18.537  67.503  1.00  0.00    -0.409 OA 
HETATM   17  C   UNL     1      -9.969  19.320  68.521  1.00  0.00    -0.433 C  
ENDBRANCH   4  16
BRANCH  13  18
HETATM   18  N   UNL     1     -10.843  10.958  68.418  1.00  0.00    -0.204 NA 
HETATM   19  C   UNL     1     -10.763   8.813  69.652  1.00  0.00    -0.208 C  
HETATM   20  C   UNL     1     -10.546  10.337  69.721  1.00  0.00    -0.271 C  
HETATM   21  N   UNL     1     -10.094   8.202  68.495  1.00  0.00    -0.195 N  
HETATM   22  C   UNL     1     -10.408   8.870  67.221  1.00  0.00    -0.280 C  
HETATM   23  C   UNL     1      -9.604   6.899  68.632  1.00  0.00    -0.133 C  
HETATM   24  O   UNL     1      -9.719   6.307  69.707  1.00  0.00    -0.158 OA 
HETATM   25  C   UNL     1     -10.108  10.378  67.289  1.00  0.00    -0.200 C  
BRANCH  23  26
HETATM   26  C   UNL     1      -8.963   6.243  67.504  1.00  0.00    -0.108 A  
HETATM   27  C   UNL     1      -7.631   6.249  67.123  1.00  0.00    -0.096 A  
HETATM   28  C   UNL     1      -7.533   5.486  65.937  1.00  0.00    -0.082 A  
HETATM   29  C   UNL     1      -8.814   5.088  65.637  1.00  0.00    -0.143 A  
HETATM   30  O   UNL     1      -9.688   5.563  66.561  1.00  0.00    -0.146 OA 
ENDBRANCH  23  26
ENDBRANCH  13  18
ENDBRANCH   2   3
TORSDOF 4
ENDMDL
MODEL       41
REMARK 921   NORMALIZED FREE ENERGY PREDICTED BY IDOCK:   -5.94 KCAL/MOL
REMARK 922        TOTAL FREE ENERGY PREDICTED BY IDOCK:   -7.89 KCAL/MOL
REMARK 923 INTER-LIGAND FREE ENERGY PREDICTED BY IDOCK:   -7.39 KCAL/MOL
REMARK 924 INTRA-LIGAND FREE ENERGY PREDICTED BY IDOCK:   -0.50 KCAL/MOL
REMARK 927      BINDING AFFINITY PREDICTED BY RF-SCORE:    0.00 PKD
ROOT
HETATM    1  C   UNL     1     -10.168   7.704  71.464  1.00  0.00    -0.184 C  
HETATM    2  O   UNL     1     -10.922   7.399  70.293  1.00  0.00    -0.248 OA 
ENDROOT
BRANCH   2   3
HETATM    3  C   UNL     1     -10.490   7.952  69.119  1.00  0.00    -0.209 A  
HETATM    4  C   UNL     1     -10.504   7.184  67.948  1.00  0.00    -0.212 A  
HETATM    5  C   UNL     1     -10.066   7.768  66.751  1.00  0.00    -0.341 A  
HETATM    6  C   UNL     1      -9.720   9.895  67.849  1.00  0.00    -0.140 A  
HETATM    7  C   UNL     1      -9.689   9.128  66.689  1.00  0.00    -0.287 A  
HETATM    8  C   UNL     1     -10.099   9.297  69.040  1.00  0.00    -0.207 A  
HETATM    9  C   UNL     1      -9.272   9.823  65.551  1.00  0.00    -0.215 A  
HETATM   10  N   UNL     1      -9.131   9.183  64.314  1.00  0.00    -0.427 NA 
HETATM   11  N   UNL     1      -8.952  11.126  65.562  1.00  0.00    -0.193 NA 
HETATM   12  H1  UNL     1      -8.826   9.690  63.483  1.00  0.00     0.000 HD 
HETATM   13  C   UNL     1      -9.050  11.789  66.723  1.00  0.00    -0.194 A  
HETATM   14  H2  UNL     1     -10.015   8.726  64.095  1.00  0.00     0.000 HD 
HETATM   15  N   UNL     1      -9.417  11.191  67.863  1.00  0.00    -0.170 NA 
BRANCH   4  16
HETATM   16  O   UNL     1     -10.896   5.883  67.781  1.00  0.00    -0.273 OA 
HETATM   17  C   UNL     1     -10.399   5.159  66.664  1.00  0.00    -0.281 C  
ENDBRANCH   4  16
BRANCH  13  18
HETATM   18  N   UNL     1      -8.715  13.136  66.784  1.00  0.00    -0.142 NA 
HETATM   19  C   UNL     1      -7.334  14.938  67.769  1.00  0.00    -0.166 C  
HETATM   20  C   UNL     1      -7.925  13.529  67.963  1.00  0.00    -0.151 C  
HETATM   21  N   UNL     1      -8.342  15.914  67.332  1.00  0.00    -0.162 N  
HETATM   22  C   UNL     1      -9.117  15.467  66.162  1.00  0.00    -0.304 C  
HETATM   23  C   UNL     1      -8.200  17.239  67.756  1.00  0.00    -0.203 C  
HETATM   24  O   UNL     1      -7.265  17.554  68.494  1.00  0.00    -0.219 OA 
HETATM   25  C   UNL     1      -9.763  14.092  66.410  1.00  0.00    -0.298 C  
BRANCH  23  26
HETATM   26  C   UNL     1      -9.157  18.246  67.322  1.00  0.00    -0.256 A  
HETATM   27  C   UNL     1     -10.267  18.746  67.981  1.00  0.00    -0.438 A  
HETATM   28  C   UNL     1     -10.880  19.680  67.114  1.00  0.00    -0.526 A  
HETATM   29  C   UNL     1     -10.134  19.671  65.960  1.00  0.00    -0.461 A  
HETATM   30  O   UNL     1      -9.108  18.789  66.065  1.00  0.00    -0.479 OA 
ENDBRANCH  23  26
ENDBRANCH  13  18
ENDBRANCH   2   3
TORSDOF 4
ENDMDL
MODEL       42
REMARK 921   NORMALIZED FREE ENERGY PREDICTED BY IDOCK:   -5.81 KCAL/MOL
REMARK 922        TOTAL FREE ENERGY PREDICTED BY IDOCK:   -7.74 KCAL/MOL
REMARK 923 INTER-LIGAND FREE ENERGY PREDICTED BY IDOCK:   -7.24 KCAL/MOL
REMARK 924 INTRA-LIGAND FREE ENERGY PREDICTED BY IDOCK:   -0.50 KCAL/MOL
REMARK 927      BINDING AFFINITY PREDICTED BY RF-SCORE:    0.00 PKD
ROOT
HETATM    1  C   UNL     1     -12.134  15.670  71.481  1.00  0.00    -0.425 C  
HETATM    2  O   UNL     1     -11.522  16.391  70.414  1.00  0.00    -0.313 OA 
ENDROOT
BRANCH   2   3
HETATM    3  C   UNL     1     -11.199  15.677  69.293  1.00  0.00    -0.320 A  
HETATM    4  C   UNL     1     -10.990  16.349  68.082  1.00  0.00    -0.339 A  
HETATM    5  C   UNL     1     -10.652  15.604  66.944  1.00  0.00    -0.311 A  
HETATM    6  C   UNL     1     -10.608  13.556  68.228  1.00  0.00    -0.250 A  
HETATM    7  C   UNL     1     -10.442  14.209  67.012  1.00  0.00    -0.271 A  
HETATM    8  C   UNL     1     -10.999  14.288  69.337  1.00  0.00    -0.242 A  
HETATM    9  C   UNL     1     -10.069  13.373  65.956  1.00  0.00    -0.304 A  
HETATM   10  N   UNL     1      -9.916  13.863  64.654  1.00  0.00    -0.626 NA 
HETATM   11  N   UNL     1      -9.862  12.055  66.100  1.00  0.00    -0.230 NA 
HETATM   12  H1  UNL     1      -9.645  13.253  63.883  1.00  0.00     0.000 HD 
HETATM   13  C   UNL     1     -10.011  11.524  67.322  1.00  0.00    -0.191 A  
HETATM   14  H2  UNL     1      -9.256  14.640  64.687  1.00  0.00     0.000 HD 
HETATM   15  N   UNL     1     -10.391  12.251  68.380  1.00  0.00    -0.221 NA 
BRANCH   4  16
HETATM   16  O   UNL     1     -11.073  17.691  67.822  1.00  0.00    -0.220 OA 
HETATM   17  C   UNL     1      -9.913  18.492  67.994  1.00  0.00    -0.355 C  
ENDBRANCH   4  16
BRANCH  13  18
HETATM   18  N   UNL     1      -9.821  10.162  67.515  1.00  0.00    -0.172 NA 
HETATM   19  C   UNL     1      -9.946   7.853  66.630  1.00  0.00    -0.246 C  
HETATM   20  C   UNL     1     -10.483   9.293  66.526  1.00  0.00    -0.134 C  
HETATM   21  N   UNL     1      -9.948   7.352  68.011  1.00  0.00    -0.158 N  
HETATM   22  C   UNL     1      -9.292   8.263  68.963  1.00  0.00    -0.147 C  
HETATM   23  C   UNL     1     -10.170   5.985  68.213  1.00  0.00    -0.181 C  
HETATM   24  O   UNL     1     -10.379   5.245  67.250  1.00  0.00    -0.206 OA 
HETATM   25  C   UNL     1      -9.899   9.675  68.897  1.00  0.00    -0.174 C  
BRANCH  23  26
HETATM   26  C   UNL     1     -10.149   5.439  69.561  1.00  0.00    -0.240 A  
HETATM   27  C   UNL     1      -9.476   4.332  70.051  1.00  0.00    -0.254 A  
HETATM   28  C   UNL     1      -9.816   4.210  71.418  1.00  0.00    -0.254 A  
HETATM   29  C   UNL     1     -10.707   5.223  71.679  1.00  0.00    -0.156 A  
HETATM   30  O   UNL     1     -10.936   5.954  70.557  1.00  0.00    -0.295 OA 
ENDBRANCH  23  26
ENDBRANCH  13  18
ENDBRANCH   2   3
TORSDOF 4
ENDMDL
MODEL       43
REMARK 921   NORMALIZED FREE ENERGY PREDICTED BY IDOCK:   -5.81 KCAL/MOL
REMARK 922        TOTAL FREE ENERGY PREDICTED BY IDOCK:   -7.73 KCAL/MOL
REMARK 923 INTER-LIGAND FREE ENERGY PREDICTED BY IDOCK:   -7.15 KCAL/MOL
REMARK 924 INTRA-LIGAND FREE ENERGY PREDICTED BY IDOCK:   -0.59 KCAL/MOL
REMARK 927      BINDING AFFINITY PREDICTED BY RF-SCORE:    0.00 PKD
ROOT
HETATM    1  C   UNL     1      -9.646   8.822  70.131  1.00  0.00    -0.173 C  
HETATM    2  O   UNL     1      -8.974   8.548  68.904  1.00  0.00    -0.144 OA 
ENDROOT
BRANCH   2   3
HETATM    3  C   UNL     1      -9.274   9.358  67.843  1.00  0.00    -0.129 A  
HETATM    4  C   UNL     1      -9.703   8.786  66.638  1.00  0.00    -0.242 A  
HETATM    5  C   UNL     1     -10.013   9.630  65.563  1.00  0.00    -0.279 A  
HETATM    6  C   UNL     1      -9.593  11.595  66.908  1.00  0.00    -0.186 A  
HETATM    7  C   UNL     1      -9.978  11.036  65.695  1.00  0.00    -0.299 A  
HETATM    8  C   UNL     1      -9.231  10.757  67.950  1.00  0.00    -0.151 A  
HETATM    9  C   UNL     1     -10.300  11.971  64.707  1.00  0.00    -0.280 A  
HETATM   10  N   UNL     1     -10.652  11.575  63.411  1.00  0.00    -0.537 NA 
HETATM   11  N   UNL     1     -10.268  13.297  64.912  1.00  0.00    -0.318 NA 
HETATM   12  H1  UNL     1     -10.887  12.257  62.690  1.00  0.00     0.000 HD 
HETATM   13  C   UNL     1      -9.920  13.738  66.129  1.00  0.00    -0.308 A  
HETATM   14  H2  UNL     1     -11.428  10.917  63.485  1.00  0.00     0.000 HD 
HETATM   15  N   UNL     1      -9.572  12.909  67.121  1.00  0.00    -0.219 NA 
BRANCH   4  16
HETATM   16  O   UNL     1      -9.871   7.463  66.329  1.00  0.00    -0.111 OA 
HETATM   17  C   UNL     1      -8.780   6.749  65.767  1.00  0.00    -0.110 C  
ENDBRANCH   4  16
BRANCH  13  18
HETATM   18  N   UNL     1      -9.859  15.102  66.382  1.00  0.00    -0.264 NA 
HETATM   19  C   UNL     1     -10.879  17.348  66.176  1.00  0.00     0.040 C  
HETATM   20  C   UNL     1     -10.793  15.925  65.593  1.00  0.00    -0.284 C  
HETATM   21  N   UNL     1      -9.556  17.942  66.407  1.00  0.00    -0.299 N  
HETATM   22  C   UNL     1      -8.654  17.074  67.183  1.00  0.00    -0.202 C  
HETATM   23  C   UNL     1      -9.421  19.326  66.255  1.00  0.00    -0.345 C  
HETATM   24  O   UNL     1     -10.391  20.006  65.914  1.00  0.00    -0.485 OA 
HETATM   25  C   UNL     1      -8.521  15.684  66.536  1.00  0.00    -0.276 C  
BRANCH  23  26
HETATM   26  C   UNL     1      -8.137  19.962  66.504  1.00  0.00    -0.328 A  
HETATM   27  C   UNL     1      -7.044  20.095  65.663  1.00  0.00    -0.316 A  
HETATM   28  C   UNL     1      -6.034  20.762  66.395  1.00  0.00    -0.269 A  
HETATM   29  C   UNL     1      -6.551  20.965  67.653  1.00  0.00    -0.354 A  
HETATM   30  O   UNL     1      -7.809  20.462  67.737  1.00  0.00    -0.279 OA 
ENDBRANCH  23  26
ENDBRANCH  13  18
ENDBRANCH   2   3
TORSDOF 4
ENDMDL
MODEL       44
REMARK 921   NORMALIZED FREE ENERGY PREDICTED BY IDOCK:   -5.78 KCAL/MOL
REMARK 922        TOTAL FREE ENERGY PREDICTED BY IDOCK:   -7.70 KCAL/MOL
REMARK 923 INTER-LIGAND FREE ENERGY PREDICTED BY IDOCK:   -7.14 KCAL/MOL
REMARK 924 INTRA-LIGAND FREE ENERGY PREDICTED BY IDOCK:   -0.56 KCAL/MOL
REMARK 927      BINDING AFFINITY PREDICTED BY RF-SCORE:    0.00 PKD
ROOT
HETATM    1  C   UNL     1     -12.207  15.714  63.865  1.00  0.00     0.333 C  
HETATM    2  O   UNL     1     -11.109  16.487  64.344  1.00  0.00    -0.894 OA 
ENDROOT
BRANCH   2   3
HETATM    3  C   UNL     1     -10.297  15.895  65.273  1.00  0.00    -0.324 A  
HETATM    4  C   UNL     1      -9.390  16.680  65.996  1.00  0.00    -0.235 A  
HETATM    5  C   UNL     1      -8.570  16.060  66.949  1.00  0.00    -0.263 A  
HETATM    6  C   UNL     1      -9.631  13.923  66.555  1.00  0.00    -0.287 A  
HETATM    7  C   UNL     1      -8.696  14.685  67.247  1.00  0.00    -0.224 A  
HETATM    8  C   UNL     1     -10.398  14.528  65.573  1.00  0.00    -0.379 A  
HETATM    9  C   UNL     1      -7.961  13.971  68.198  1.00  0.00    -0.149 A  
HETATM   10  N   UNL     1      -6.942  14.577  68.941  1.00  0.00    -0.104 NA 
HETATM   11  N   UNL     1      -8.154  12.666  68.446  1.00  0.00    -0.155 NA 
HETATM   12  H1  UNL     1      -6.406  14.056  69.634  1.00  0.00     0.000 HD 
HETATM   13  C   UNL     1      -9.105  12.026  67.752  1.00  0.00    -0.187 A  
HETATM   14  H2  UNL     1      -7.335  15.398  69.401  1.00  0.00     0.000 HD 
HETATM   15  N   UNL     1      -9.834  12.631  66.806  1.00  0.00    -0.230 NA 
BRANCH   4  16
HETATM   16  O   UNL     1      -9.164  18.027  65.910  1.00  0.00    -0.520 OA 
HETATM   17  C   UNL     1     -10.076  18.914  66.542  1.00  0.00    -0.398 C  
ENDBRANCH   4  16
BRANCH  13  18
HETATM   18  N   UNL     1      -9.329  10.672  67.966  1.00  0.00    -0.145 NA 
HETATM   19  C   UNL     1     -10.069   8.478  67.091  1.00  0.00    -0.262 C  
HETATM   20  C   UNL     1     -10.159  10.009  66.946  1.00  0.00    -0.229 C  
HETATM   21  N   UNL     1     -10.290   8.031  68.473  1.00  0.00    -0.207 N  
HETATM   22  C   UNL     1      -9.451   8.737  69.456  1.00  0.00    -0.165 C  
HETATM   23  C   UNL     1     -10.909   6.792  68.672  1.00  0.00    -0.224 C  
HETATM   24  O   UNL     1     -11.271   6.121  67.703  1.00  0.00    -0.294 OA 
HETATM   25  C   UNL     1      -9.619  10.262  69.344  1.00  0.00    -0.218 C  
BRANCH  23  26
HETATM   26  C   UNL     1     -11.120   6.295  70.022  1.00  0.00    -0.388 A  
HETATM   27  C   UNL     1     -12.082   6.655  70.952  1.00  0.00    -0.379 A  
HETATM   28  C   UNL     1     -11.833   5.903  72.122  1.00  0.00    -0.247 A  
HETATM   29  C   UNL     1     -10.711   5.154  71.859  1.00  0.00    -0.149 A  
HETATM   30  O   UNL     1     -10.257   5.404  70.604  1.00  0.00    -0.219 OA 
ENDBRANCH  23  26
ENDBRANCH  13  18
ENDBRANCH   2   3
TORSDOF 4
ENDMDL
MODEL       45
REMARK 921   NORMALIZED FREE ENERGY PREDICTED BY IDOCK:   -5.76 KCAL/MOL
REMARK 922        TOTAL FREE ENERGY PREDICTED BY IDOCK:   -7.67 KCAL/MOL
REMARK 923 INTER-LIGAND FREE ENERGY PREDICTED BY IDOCK:   -7.05 KCAL/MOL
REMARK 924 INTRA-LIGAND FREE ENERGY PREDICTED BY IDOCK:   -0.62 KCAL/MOL
REMARK 927      BINDING AFFINITY PREDICTED BY RF-SCORE:    0.00 PKD
ROOT
HETATM    1  C   UNL     1     -11.008  12.904  65.485  1.00  0.00    -0.274 C  
HETATM    2  O   UNL     1     -10.332  13.271  66.685  1.00  0.00    -0.267 OA 
ENDROOT
BRANCH   2   3
HETATM    3  C   UNL     1     -10.884  12.839  67.860  1.00  0.00    -0.220 A  
HETATM    4  C   UNL     1     -11.711  13.701  68.591  1.00  0.00    -0.354 A  
HETATM    5  C   UNL     1     -12.276  13.241  69.789  1.00  0.00    -0.285 A  
HETATM    6  C   UNL     1     -11.304  11.050  69.473  1.00  0.00    -0.287 A  
HETATM    7  C   UNL     1     -12.092  11.911  70.228  1.00  0.00    -0.409 A  
HETATM    8  C   UNL     1     -10.701  11.526  68.320  1.00  0.00    -0.247 A  
HETATM    9  C   UNL     1     -12.632  11.335  71.381  1.00  0.00    -0.351 A  
HETATM   10  N   UNL     1     -13.402  12.082  72.281  1.00  0.00    -0.546 NA 
HETATM   11  N   UNL     1     -12.434  10.052  71.724  1.00  0.00    -0.400 NA 
HETATM   12  H1  UNL     1     -13.796  11.661  73.122  1.00  0.00     0.000 HD 
HETATM   13  C   UNL     1     -11.689   9.291  70.910  1.00  0.00    -0.296 A  
HETATM   14  H2  UNL     1     -14.165  12.512  71.758  1.00  0.00     0.000 HD 
HETATM   15  N   UNL     1     -11.114   9.773  69.801  1.00  0.00    -0.244 NA 
BRANCH   4  16
HETATM   16  O   UNL     1     -12.071  14.991  68.306  1.00  0.00    -0.240 OA 
HETATM   17  C   UNL     1     -11.375  16.051  68.945  1.00  0.00    -0.370 C  
ENDBRANCH   4  16
BRANCH  13  18
HETATM   18  N   UNL     1     -11.446   7.962  71.232  1.00  0.00    -0.261 NA 
HETATM   19  C   UNL     1     -10.963   6.248  72.952  1.00  0.00    -0.254 C  
HETATM   20  C   UNL     1     -10.883   7.739  72.576  1.00  0.00    -0.328 C  
HETATM   21  N   UNL     1     -10.438   5.373  71.894  1.00  0.00    -0.219 N  
HETATM   22  C   UNL     1     -11.017   5.648  70.569  1.00  0.00    -0.197 C  
HETATM   23  C   UNL     1      -9.811   4.183  72.278  1.00  0.00    -0.165 C  
HETATM   24  O   UNL     1      -9.692   3.906  73.473  1.00  0.00    -0.106 OA 
HETATM   25  C   UNL     1     -10.854   7.128  70.181  1.00  0.00    -0.257 C  
BRANCH  23  26
HETATM   26  C   UNL     1      -9.303   3.271  71.265  1.00  0.00    -0.136 A  
HETATM   27  C   UNL     1      -9.744   2.004  70.922  1.00  0.00    -0.135 A  
HETATM   28  C   UNL     1      -8.891   1.529  69.899  1.00  0.00    -0.112 A  
HETATM   29  C   UNL     1      -7.954   2.514  69.700  1.00  0.00    -0.041 A  
HETATM   30  O   UNL     1      -8.177   3.558  70.539  1.00  0.00    -0.052 OA 
ENDBRANCH  23  26
ENDBRANCH  13  18
ENDBRANCH   2   3
TORSDOF 4
ENDMDL
MODEL       46
REMARK 921   NORMALIZED FREE ENERGY PREDICTED BY IDOCK:   -5.75 KCAL/MOL
REMARK 922        TOTAL FREE ENERGY PREDICTED BY IDOCK:   -7.66 KCAL/MOL
REMARK 923 INTER-LIGAND FREE ENERGY PREDICTED BY IDOCK:   -7.07 KCAL/MOL
REMARK 924 INTRA-LIGAND FREE ENERGY PREDICTED BY IDOCK:   -0.59 KCAL/MOL
REMARK 927      BINDING AFFINITY PREDICTED BY RF-SCORE:    0.00 PKD
ROOT
HETATM    1  C   UNL     1     -11.564  15.489  68.458  1.00  0.00    -0.368 C  
HETATM    2  O   UNL     1     -12.436  14.818  67.552  1.00  0.00     0.041 OA 
ENDROOT
BRANCH   2   3
HETATM    3  C   UNL     1     -11.916  13.751  66.871  1.00  0.00    -0.421 A  
HETATM    4  C   UNL     1     -11.639  13.874  65.504  1.00  0.00    -0.327 A  
HETATM    5  C   UNL     1     -11.099  12.774  64.823  1.00  0.00    -0.333 A  
HETATM    6  C   UNL     1     -10.996  11.486  66.866  1.00  0.00    -0.296 A  
HETATM    7  C   UNL     1     -10.758  11.582  65.500  1.00  0.00    -0.328 A  
HETATM    8  C   UNL     1     -11.584  12.554  67.524  1.00  0.00    -0.424 A  
HETATM    9  C   UNL     1     -10.184  10.440  64.933  1.00  0.00    -0.260 A  
HETATM   10  N   UNL     1      -9.932  10.353  63.559  1.00  0.00    -0.446 NA 
HETATM   11  N   UNL     1      -9.863   9.349  65.646  1.00  0.00    -0.286 NA 
HETATM   12  H1  UNL     1      -9.514   9.520  63.146  1.00  0.00     0.000 HD 
HETATM   13  C   UNL     1     -10.097   9.367  66.965  1.00  0.00    -0.240 A  
HETATM   14  H2  UNL     1      -9.362  11.155  63.293  1.00  0.00     0.000 HD 
HETATM   15  N   UNL     1     -10.668  10.410  67.580  1.00  0.00    -0.266 NA 
BRANCH   4  16
HETATM   16  O   UNL     1     -11.826  14.955  64.685  1.00  0.00    -0.419 OA 
HETATM   17  C   UNL     1     -10.878  16.012  64.722  1.00  0.00    -0.294 C  
ENDBRANCH   4  16
BRANCH  13  18
HETATM   18  N   UNL     1      -9.794   8.254  67.739  1.00  0.00    -0.162 NA 
HETATM   19  C   UNL     1      -9.455   5.808  67.900  1.00  0.00    -0.110 C  
HETATM   20  C   UNL     1     -10.122   6.957  67.122  1.00  0.00    -0.209 C  
HETATM   21  N   UNL     1      -9.694   5.896  69.347  1.00  0.00    -0.146 N  
HETATM   22  C   UNL     1      -9.368   7.216  69.913  1.00  0.00    -0.150 C  
HETATM   23  C   UNL     1      -9.792   4.702  70.071  1.00  0.00    -0.224 C  
HETATM   24  O   UNL     1      -9.701   3.620  69.490  1.00  0.00    -0.177 OA 
HETATM   25  C   UNL     1     -10.109   8.342  69.169  1.00  0.00    -0.202 C  
BRANCH  23  26
HETATM   26  C   UNL     1      -9.996   4.742  71.510  1.00  0.00    -0.194 A  
HETATM   27  C   UNL     1      -9.214   4.215  72.525  1.00  0.00    -0.146 A  
HETATM   28  C   UNL     1      -9.870   4.497  73.745  1.00  0.00    -0.172 A  
HETATM   29  C   UNL     1     -11.034   5.145  73.409  1.00  0.00    -0.320 A  
HETATM   30  O   UNL     1     -11.133   5.274  72.061  1.00  0.00    -0.187 OA 
ENDBRANCH  23  26
ENDBRANCH  13  18
ENDBRANCH   2   3
TORSDOF 4
ENDMDL
MODEL       47
REMARK 921   NORMALIZED FREE ENERGY PREDICTED BY IDOCK:   -5.72 KCAL/MOL
REMARK 922        TOTAL FREE ENERGY PREDICTED BY IDOCK:   -7.63 KCAL/MOL
REMARK 923 INTER-LIGAND FREE ENERGY PREDICTED BY IDOCK:   -7.04 KCAL/MOL
REMARK 924 INTRA-LIGAND FREE ENERGY PREDICTED BY IDOCK:   -0.58 KCAL/MOL
REMARK 927      BINDING AFFINITY PREDICTED BY RF-SCORE:    0.00 PKD
ROOT
HETATM    1  C   UNL     1     -13.016  15.199  71.635  1.00  0.00    -0.375 C  
HETATM    2  O   UNL     1     -12.502  15.931  70.525  1.00  0.00    -0.380 OA 
ENDROOT
BRANCH   2   3
HETATM    3  C   UNL     1     -11.956  15.201  69.505  1.00  0.00    -0.321 A  
HETATM    4  C   UNL     1     -11.369  15.864  68.420  1.00  0.00    -0.361 A  
HETATM    5  C   UNL     1     -10.806  15.102  67.386  1.00  0.00    -0.302 A  
HETATM    6  C   UNL     1     -11.297  13.045  68.559  1.00  0.00    -0.288 A  
HETATM    7  C   UNL     1     -10.750  13.692  67.457  1.00  0.00    -0.266 A  
HETATM    8  C   UNL     1     -11.903  13.800  69.550  1.00  0.00    -0.394 A  
HETATM    9  C   UNL     1     -10.185  12.835  66.508  1.00  0.00    -0.253 A  
HETATM   10  N   UNL     1      -9.643  13.322  65.313  1.00  0.00    -0.499 NA 
HETATM   11  N   UNL     1     -10.145  11.502  66.654  1.00  0.00    -0.206 NA 
HETATM   12  H1  UNL     1      -9.231  12.697  64.621  1.00  0.00     0.000 HD 
HETATM   13  C   UNL     1     -10.665  10.974  67.771  1.00  0.00    -0.227 A  
HETATM   14  H2  UNL     1      -8.948  14.030  65.550  1.00  0.00     0.000 HD 
HETATM   15  N   UNL     1     -11.248  11.723  68.715  1.00  0.00    -0.230 NA 
BRANCH   4  16
HETATM   16  O   UNL     1     -11.256  17.210  68.196  1.00  0.00    -0.236 OA 
HETATM   17  C   UNL     1     -10.140  17.900  68.740  1.00  0.00    -0.384 C  
ENDBRANCH   4  16
BRANCH  13  18
HETATM   18  N   UNL     1     -10.659   9.598  67.957  1.00  0.00    -0.236 NA 
HETATM   19  C   UNL     1     -10.762   7.663  69.497  1.00  0.00    -0.209 C  
HETATM   20  C   UNL     1     -10.422   9.157  69.343  1.00  0.00    -0.219 C  
HETATM   21  N   UNL     1     -10.137   6.835  68.456  1.00  0.00    -0.156 N  
HETATM   22  C   UNL     1     -10.387   7.327  67.091  1.00  0.00    -0.297 C  
HETATM   23  C   UNL     1      -9.755   5.532  68.794  1.00  0.00    -0.143 C  
HETATM   24  O   UNL     1      -9.925   5.118  69.943  1.00  0.00    -0.202 OA 
HETATM   25  C   UNL     1      -9.966   8.799  66.940  1.00  0.00    -0.257 C  
BRANCH  23  26
HETATM   26  C   UNL     1      -9.162   4.666  67.788  1.00  0.00    -0.126 A  
HETATM   27  C   UNL     1      -7.832   4.516  67.429  1.00  0.00    -0.089 A  
HETATM   28  C   UNL     1      -7.789   3.575  66.374  1.00  0.00    -0.085 A  
HETATM   29  C   UNL     1      -9.095   3.231  66.120  1.00  0.00    -0.153 A  
HETATM   30  O   UNL     1      -9.934   3.904  66.949  1.00  0.00    -0.153 OA 
ENDBRANCH  23  26
ENDBRANCH  13  18
ENDBRANCH   2   3
TORSDOF 4
ENDMDL
MODEL       48
REMARK 921   NORMALIZED FREE ENERGY PREDICTED BY IDOCK:   -5.72 KCAL/MOL
REMARK 922        TOTAL FREE ENERGY PREDICTED BY IDOCK:   -7.62 KCAL/MOL
REMARK 923 INTER-LIGAND FREE ENERGY PREDICTED BY IDOCK:   -7.11 KCAL/MOL
REMARK 924 INTRA-LIGAND FREE ENERGY PREDICTED BY IDOCK:   -0.51 KCAL/MOL
REMARK 927      BINDING AFFINITY PREDICTED BY RF-SCORE:    0.00 PKD
ROOT
HETATM    1  C   UNL     1     -12.634  13.811  64.999  1.00  0.00    -0.389 C  
HETATM    2  O   UNL     1     -11.364  13.593  65.608  1.00  0.00    -0.298 OA 
ENDROOT
BRANCH   2   3
HETATM    3  C   UNL     1     -10.956  12.293  65.736  1.00  0.00    -0.301 A  
HETATM    4  C   UNL     1     -10.280  11.675  64.677  1.00  0.00    -0.281 A  
HETATM    5  C   UNL     1      -9.861  10.345  64.827  1.00  0.00    -0.406 A  
HETATM    6  C   UNL     1     -10.671  10.287  67.105  1.00  0.00    -0.241 A  
HETATM    7  C   UNL     1     -10.037   9.650  66.045  1.00  0.00    -0.318 A  
HETATM    8  C   UNL     1     -11.135  11.581  66.932  1.00  0.00    -0.366 A  
HETATM    9  C   UNL     1      -9.631   8.341  66.319  1.00  0.00    -0.196 A  
HETATM   10  N   UNL     1      -9.029   7.541  65.341  1.00  0.00    -0.379 NA 
HETATM   11  N   UNL     1      -9.810   7.751  67.511  1.00  0.00    -0.160 NA 
HETATM   12  H1  UNL     1      -8.733   6.586  65.541  1.00  0.00     0.000 HD 
HETATM   13  C   UNL     1     -10.398   8.461  68.483  1.00  0.00    -0.200 A  
HETATM   14  H2  UNL     1      -8.225   8.048  64.973  1.00  0.00     0.000 HD 
HETATM   15  N   UNL     1     -10.840   9.711  68.294  1.00  0.00    -0.215 NA 
BRANCH   4  16
HETATM   16  O   UNL     1      -9.949  12.191  63.453  1.00  0.00    -0.407 OA 
HETATM   17  C   UNL     1      -9.281  11.356  62.519  1.00  0.00    -0.113 C  
ENDBRANCH   4  16
BRANCH  13  18
HETATM   18  N   UNL     1     -10.617   7.886  69.728  1.00  0.00    -0.240 NA 
HETATM   19  C   UNL     1     -10.496   8.051  72.195  1.00  0.00    -0.265 C  
HETATM   20  C   UNL     1      -9.933   8.550  70.851  1.00  0.00    -0.191 C  
HETATM   21  N   UNL     1     -10.554   6.585  72.270  1.00  0.00    -0.207 N  
HETATM   22  C   UNL     1     -11.231   5.969  71.117  1.00  0.00    -0.261 C  
HETATM   23  C   UNL     1     -10.361   5.983  73.518  1.00  0.00    -0.244 C  
HETATM   24  O   UNL     1     -10.128   6.678  74.509  1.00  0.00    -0.352 OA 
HETATM   25  C   UNL     1     -10.599   6.421  69.789  1.00  0.00    -0.254 C  
BRANCH  23  26
HETATM   26  C   UNL     1     -10.441   4.537  73.646  1.00  0.00    -0.222 A  
HETATM   27  C   UNL     1      -9.423   3.598  73.676  1.00  0.00    -0.122 A  
HETATM   28  C   UNL     1     -10.031   2.326  73.778  1.00  0.00    -0.147 A  
HETATM   29  C   UNL     1     -11.387   2.553  73.767  1.00  0.00    -0.161 A  
HETATM   30  O   UNL     1     -11.645   3.882  73.660  1.00  0.00    -0.173 OA 
ENDBRANCH  23  26
ENDBRANCH  13  18
ENDBRANCH   2   3
TORSDOF 4
ENDMDL
MODEL       49
REMARK 921   NORMALIZED FREE ENERGY PREDICTED BY IDOCK:   -5.64 KCAL/MOL
REMARK 922        TOTAL FREE ENERGY PREDICTED BY IDOCK:   -7.53 KCAL/MOL
REMARK 923 INTER-LIGAND FREE ENERGY PREDICTED BY IDOCK:   -6.91 KCAL/MOL
REMARK 924 INTRA-LIGAND FREE ENERGY PREDICTED BY IDOCK:   -0.61 KCAL/MOL
REMARK 927      BINDING AFFINITY PREDICTED BY RF-SCORE:    0.00 PKD
ROOT
HETATM    1  C   UNL     1      -6.904   6.464  65.920  1.00  0.00    -0.056 C  
HETATM    2  O   UNL     1      -8.221   6.693  65.426  1.00  0.00    -0.131 OA 
ENDROOT
BRANCH   2   3
HETATM    3  C   UNL     1      -8.962   7.650  66.065  1.00  0.00    -0.139 A  
HETATM    4  C   UNL     1     -10.031   7.263  66.882  1.00  0.00    -0.232 A  
HETATM    5  C   UNL     1     -10.776   8.254  67.536  1.00  0.00    -0.217 A  
HETATM    6  C   UNL     1      -9.331   9.990  66.671  1.00  0.00    -0.166 A  
HETATM    7  C   UNL     1     -10.421   9.619  67.450  1.00  0.00    -0.319 A  
HETATM    8  C   UNL     1      -8.634   9.012  65.980  1.00  0.00    -0.158 A  
HETATM    9  C   UNL     1     -11.066  10.685  68.084  1.00  0.00    -0.285 A  
HETATM   10  N   UNL     1     -12.215  10.490  68.859  1.00  0.00    -0.773 NA 
HETATM   11  N   UNL     1     -10.657  11.959  67.976  1.00  0.00    -0.200 NA 
HETATM   12  H1  UNL     1     -12.685  11.268  69.321  1.00  0.00     0.000 HD 
HETATM   13  C   UNL     1      -9.571  12.211  67.232  1.00  0.00    -0.185 A  
HETATM   14  H2  UNL     1     -11.999   9.788  69.567  1.00  0.00     0.000 HD 
HETATM   15  N   UNL     1      -8.914  11.250  66.571  1.00  0.00    -0.178 NA 
BRANCH   4  16
HETATM   16  O   UNL     1     -10.490   6.002  67.153  1.00  0.00    -0.198 OA 
HETATM   17  C   UNL     1      -9.915   5.285  68.236  1.00  0.00    -0.156 C  
ENDBRANCH   4  16
BRANCH  13  18
HETATM   18  N   UNL     1      -9.121  13.516  67.080  1.00  0.00    -0.223 NA 
HETATM   19  C   UNL     1      -7.272  15.156  67.227  1.00  0.00    -0.162 C  
HETATM   20  C   UNL     1      -7.830  13.809  67.726  1.00  0.00    -0.172 C  
HETATM   21  N   UNL     1      -8.268  16.234  67.290  1.00  0.00    -0.162 N  
HETATM   22  C   UNL     1      -9.547  15.886  66.648  1.00  0.00    -0.246 C  
HETATM   23  C   UNL     1      -7.815  17.532  67.551  1.00  0.00    -0.199 C  
HETATM   24  O   UNL     1      -6.616  17.740  67.742  1.00  0.00    -0.181 OA 
HETATM   25  C   UNL     1     -10.123  14.579  67.220  1.00  0.00    -0.247 C  
BRANCH  23  26
HETATM   26  C   UNL     1      -8.762  18.636  67.592  1.00  0.00    -0.272 A  
HETATM   27  C   UNL     1      -9.651  18.995  68.591  1.00  0.00    -0.458 A  
HETATM   28  C   UNL     1     -10.368  20.121  68.125  1.00  0.00    -0.441 A  
HETATM   29  C   UNL     1      -9.905  20.365  66.853  1.00  0.00    -0.431 A  
HETATM   30  O   UNL     1      -8.955  19.457  66.512  1.00  0.00    -0.324 OA 
ENDBRANCH  23  26
ENDBRANCH  13  18
ENDBRANCH   2   3
TORSDOF 4
ENDMDL
MODEL       50
REMARK 921   NORMALIZED FREE ENERGY PREDICTED BY IDOCK:   -5.64 KCAL/MOL
REMARK 922        TOTAL FREE ENERGY PREDICTED BY IDOCK:   -7.52 KCAL/MOL
REMARK 923 INTER-LIGAND FREE ENERGY PREDICTED BY IDOCK:   -6.95 KCAL/MOL
REMARK 924 INTRA-LIGAND FREE ENERGY PREDICTED BY IDOCK:   -0.57 KCAL/MOL
REMARK 927      BINDING AFFINITY PREDICTED BY RF-SCORE:    0.00 PKD
ROOT
HETATM    1  C   UNL     1      -7.836  17.005  68.411  1.00  0.00    -0.233 C  
HETATM    2  O   UNL     1      -9.224  17.122  68.109  1.00  0.00    -0.246 OA 
ENDROOT
BRANCH   2   3
HETATM    3  C   UNL     1      -9.866  15.982  67.707  1.00  0.00    -0.231 A  
HETATM    4  C   UNL     1     -10.444  15.929  66.433  1.00  0.00    -0.308 A  
HETATM    5  C   UNL     1     -11.091  14.752  66.033  1.00  0.00    -0.330 A  
HETATM    6  C   UNL     1     -10.487  13.650  68.099  1.00  0.00    -0.247 A  
HETATM    7  C   UNL     1     -11.102  13.601  66.853  1.00  0.00    -0.314 A  
HETATM    8  C   UNL     1      -9.900  14.834  68.514  1.00  0.00    -0.218 A  
HETATM    9  C   UNL     1     -11.682  12.368  66.545  1.00  0.00    -0.379 A  
HETATM   10  N   UNL     1     -12.390  12.169  65.354  1.00  0.00    -0.479 NA 
HETATM   11  N   UNL     1     -11.632  11.307  67.365  1.00  0.00    -0.554 NA 
HETATM   12  H1  UNL     1     -12.813  11.269  65.129  1.00  0.00     0.000 HD 
HETATM   13  C   UNL     1     -10.982  11.442  68.530  1.00  0.00    -0.221 A  
HETATM   14  H2  UNL     1     -11.780  12.430  64.579  1.00  0.00     0.000 HD 
HETATM   15  N   UNL     1     -10.423  12.597  68.911  1.00  0.00    -0.142 NA 
BRANCH   4  16
HETATM   16  O   UNL     1     -10.482  16.899  65.468  1.00  0.00    -0.560 OA 
HETATM   17  C   UNL     1     -11.334  16.713  64.346  1.00  0.00     0.238 C  
ENDBRANCH   4  16
BRANCH  13  18
HETATM   18  N   UNL     1     -10.917  10.375  69.417  1.00  0.00    -0.235 NA 
HETATM   19  C   UNL     1     -11.984   9.022  71.194  1.00  0.00    -0.298 C  
HETATM   20  C   UNL     1     -11.933  10.388  70.484  1.00  0.00    -0.334 C  
HETATM   21  N   UNL     1     -10.653   8.547  71.595  1.00  0.00    -0.259 N  
HETATM   22  C   UNL     1      -9.671   8.570  70.498  1.00  0.00    -0.177 C  
HETATM   23  C   UNL     1     -10.554   7.780  72.761  1.00  0.00    -0.341 C  
HETATM   24  O   UNL     1     -11.561   7.542  73.430  1.00  0.00    -0.096 OA 
HETATM   25  C   UNL     1      -9.579   9.966  69.858  1.00  0.00    -0.227 C  
BRANCH  23  26
HETATM   26  C   UNL     1      -9.261   7.262  73.180  1.00  0.00    -0.159 A  
HETATM   27  C   UNL     1      -8.260   7.880  73.912  1.00  0.00    -0.286 A  
HETATM   28  C   UNL     1      -7.193   6.959  74.018  1.00  0.00    -0.094 A  
HETATM   29  C   UNL     1      -7.582   5.845  73.314  1.00  0.00    -0.098 A  
HETATM   30  O   UNL     1      -8.818   6.028  72.781  1.00  0.00    -0.125 OA 
ENDBRANCH  23  26
ENDBRANCH  13  18
ENDBRANCH   2   3
TORSDOF 4
ENDMDL
MODEL       51
REMARK 921   NORMALIZED FREE ENERGY PREDICTED BY IDOCK:   -5.60 KCAL/MOL
REMARK 922        TOTAL FREE ENERGY PREDICTED BY IDOCK:   -7.47 KCAL/MOL
REMARK 923 INTER-LIGAND FREE ENERGY PREDICTED BY IDOCK:   -6.88 KCAL/MOL
REMARK 924 INTRA-LIGAND FREE ENERGY PREDICTED BY IDOCK:   -0.59 KCAL/MOL
REMARK 927      BINDING AFFINITY PREDICTED BY RF-SCORE:    0.00 PKD
ROOT
HETATM    1  C   UNL     1      -5.967   4.997  71.139  1.00  0.00    -0.017 C  
HETATM    2  O   UNL     1      -7.126   4.424  70.538  1.00  0.00    -0.040 OA 
ENDROOT
BRANCH   2   3
HETATM    3  C   UNL     1      -8.317   5.054  70.772  1.00  0.00    -0.107 A  
HETATM    4  C   UNL     1      -9.309   4.401  71.514  1.00  0.00    -0.143 A  
HETATM    5  C   UNL     1     -10.522   5.062  71.752  1.00  0.00    -0.246 A  
HETATM    6  C   UNL     1      -9.723   7.050  70.631  1.00  0.00    -0.172 A  
HETATM    7  C   UNL     1     -10.730   6.395  71.329  1.00  0.00    -0.288 A  
HETATM    8  C   UNL     1      -8.549   6.372  70.347  1.00  0.00    -0.142 A  
HETATM    9  C   UNL     1     -11.879   7.162  71.540  1.00  0.00    -0.313 A  
HETATM   10  N   UNL     1     -13.007   6.632  72.177  1.00  0.00    -0.548 NA 
HETATM   11  N   UNL     1     -11.997   8.435  71.130  1.00  0.00    -0.289 NA 
HETATM   12  H1  UNL     1     -13.844   7.193  72.331  1.00  0.00     0.000 HD 
HETATM   13  C   UNL     1     -10.955   8.992  70.498  1.00  0.00    -0.252 A  
HETATM   14  H2  UNL     1     -12.710   6.257  73.079  1.00  0.00     0.000 HD 
HETATM   15  N   UNL     1      -9.830   8.317  70.233  1.00  0.00    -0.182 NA 
BRANCH   4  16
HETATM   16  O   UNL     1      -9.280   3.150  72.069  1.00  0.00    -0.101 OA 
HETATM   17  C   UNL     1     -10.487   2.600  72.577  1.00  0.00    -0.078 C  
ENDBRANCH   4  16
BRANCH  13  18
HETATM   18  N   UNL     1     -11.039  10.302  70.043  1.00  0.00    -0.289 NA 
HETATM   19  C   UNL     1     -11.961  12.585  70.299  1.00  0.00    -0.283 C  
HETATM   20  C   UNL     1     -12.152  11.087  70.603  1.00  0.00    -0.373 C  
HETATM   21  N   UNL     1     -11.661  12.837  68.883  1.00  0.00    -0.310 N  
HETATM   22  C   UNL     1     -10.554  12.015  68.366  1.00  0.00    -0.217 C  
HETATM   23  C   UNL     1     -12.124  14.029  68.316  1.00  0.00    -0.277 C  
HETATM   24  O   UNL     1     -12.781  14.820  68.995  1.00  0.00     0.129 OA 
HETATM   25  C   UNL     1     -10.806  10.517  68.610  1.00  0.00    -0.237 C  
BRANCH  23  26
HETATM   26  C   UNL     1     -11.824  14.335  66.926  1.00  0.00    -0.433 A  
HETATM   27  C   UNL     1     -12.456  13.900  65.773  1.00  0.00    -0.530 A  
HETATM   28  C   UNL     1     -11.757  14.458  64.678  1.00  0.00    -0.438 A  
HETATM   29  C   UNL     1     -10.714  15.171  65.219  1.00  0.00    -0.404 A  
HETATM   30  O   UNL     1     -10.729  15.081  66.574  1.00  0.00    -0.300 OA 
ENDBRANCH  23  26
ENDBRANCH  13  18
ENDBRANCH   2   3
TORSDOF 4
ENDMDL
MODEL       52
REMARK 921   NORMALIZED FREE ENERGY PREDICTED BY IDOCK:   -5.58 KCAL/MOL
REMARK 922        TOTAL FREE ENERGY PREDICTED BY IDOCK:   -7.45 KCAL/MOL
REMARK 923 INTER-LIGAND FREE ENERGY PREDICTED BY IDOCK:   -6.88 KCAL/MOL
REMARK 924 INTRA-LIGAND FREE ENERGY PREDICTED BY IDOCK:   -0.57 KCAL/MOL
REMARK 927      BINDING AFFINITY PREDICTED BY RF-SCORE:    0.00 PKD
ROOT
HETATM    1  C   UNL     1     -10.812   5.677  71.312  1.00  0.00    -0.219 C  
HETATM    2  O   UNL     1     -10.766   5.231  69.959  1.00  0.00    -0.287 OA 
ENDROOT
BRANCH   2   3
HETATM    3  C   UNL     1     -10.463   6.169  69.010  1.00  0.00    -0.248 A  
HETATM    4  C   UNL     1     -10.148   5.758  67.709  1.00  0.00    -0.162 A  
HETATM    5  C   UNL     1      -9.847   6.731  66.747  1.00  0.00    -0.236 A  
HETATM    6  C   UNL     1     -10.289   8.510  68.325  1.00  0.00    -0.201 A  
HETATM    7  C   UNL     1      -9.933   8.111  67.041  1.00  0.00    -0.329 A  
HETATM    8  C   UNL     1     -10.528   7.543  69.288  1.00  0.00    -0.216 A  
HETATM    9  C   UNL     1      -9.692   9.166  66.156  1.00  0.00    -0.287 A  
HETATM   10  N   UNL     1      -9.268   8.936  64.842  1.00  0.00    -0.436 NA 
HETATM   11  N   UNL     1      -9.817  10.457  66.501  1.00  0.00    -0.197 NA 
HETATM   12  H1  UNL     1      -9.093   9.705  64.197  1.00  0.00     0.000 HD 
HETATM   13  C   UNL     1     -10.203  10.740  67.753  1.00  0.00    -0.182 A  
HETATM   14  H2  UNL     1      -9.938   8.305  64.403  1.00  0.00     0.000 HD 
HETATM   15  N   UNL     1     -10.428   9.789  68.668  1.00  0.00    -0.201 NA 
BRANCH   4  16
HETATM   16  O   UNL     1     -10.080   4.487  67.204  1.00  0.00    -0.184 OA 
HETATM   17  C   UNL     1      -8.803   3.896  67.013  1.00  0.00    -0.126 C  
ENDBRANCH   4  16
BRANCH  13  18
HETATM   18  N   UNL     1     -10.332  12.062  68.157  1.00  0.00    -0.192 NA 
HETATM   19  C   UNL     1     -11.670  13.822  69.270  1.00  0.00    -0.327 C  
HETATM   20  C   UNL     1     -11.696  12.469  68.535  1.00  0.00    -0.324 C  
HETATM   21  N   UNL     1     -10.886  14.836  68.552  1.00  0.00    -0.244 N  
HETATM   22  C   UNL     1      -9.537  14.375  68.181  1.00  0.00    -0.218 C  
HETATM   23  C   UNL     1     -11.291  16.172  68.651  1.00  0.00    -0.365 C  
HETATM   24  O   UNL     1     -12.292  16.465  69.307  1.00  0.00     0.104 OA 
HETATM   25  C   UNL     1      -9.594  13.063  67.379  1.00  0.00    -0.211 C  
BRANCH  23  26
HETATM   26  C   UNL     1     -10.526  17.213  67.983  1.00  0.00    -0.369 A  
HETATM   27  C   UNL     1     -10.523  17.584  66.648  1.00  0.00    -0.270 A  
HETATM   28  C   UNL     1      -9.579  18.626  66.507  1.00  0.00    -0.351 A  
HETATM   29  C   UNL     1      -9.029  18.810  67.754  1.00  0.00    -0.286 A  
HETATM   30  O   UNL     1      -9.574  17.943  68.646  1.00  0.00    -0.315 OA 
ENDBRANCH  23  26
ENDBRANCH  13  18
ENDBRANCH   2   3
TORSDOF 4
ENDMDL
MODEL       53
REMARK 921   NORMALIZED FREE ENERGY PREDICTED BY IDOCK:   -5.58 KCAL/MOL
REMARK 922        TOTAL FREE ENERGY PREDICTED BY IDOCK:   -7.44 KCAL/MOL
REMARK 923 INTER-LIGAND FREE ENERGY PREDICTED BY IDOCK:   -6.96 KCAL/MOL
REMARK 924 INTRA-LIGAND FREE ENERGY PREDICTED BY IDOCK:   -0.48 KCAL/MOL
REMARK 927      BINDING AFFINITY PREDICTED BY RF-SCORE:    0.00 PKD
ROOT
HETATM    1  C   UNL     1     -10.473   4.213  74.230  1.00  0.00    -0.240 C  
HETATM    2  O   UNL     1      -9.371   4.769  73.518  1.00  0.00    -0.125 OA 
ENDROOT
BRANCH   2   3
HETATM    3  C   UNL     1      -9.592   5.116  72.213  1.00  0.00    -0.150 A  
HETATM    4  C   UNL     1      -9.742   4.113  71.248  1.00  0.00    -0.185 A  
HETATM    5  C   UNL     1      -9.976   4.485  69.917  1.00  0.00    -0.273 A  
HETATM    6  C   UNL     1     -10.033   6.826  70.521  1.00  0.00    -0.183 A  
HETATM    7  C   UNL     1     -10.141   5.839  69.548  1.00  0.00    -0.278 A  
HETATM    8  C   UNL     1      -9.744   6.456  71.825  1.00  0.00    -0.172 A  
HETATM    9  C   UNL     1     -10.411   6.323  68.265  1.00  0.00    -0.194 A  
HETATM   10  N   UNL     1     -10.493   5.465  67.161  1.00  0.00    -0.242 NA 
HETATM   11  N   UNL     1     -10.580   7.626  67.992  1.00  0.00    -0.186 NA 
HETATM   12  H1  UNL     1     -10.691   5.818  66.226  1.00  0.00     0.000 HD 
HETATM   13  C   UNL     1     -10.495   8.498  69.006  1.00  0.00    -0.200 A  
HETATM   14  H2  UNL     1     -11.182   4.744  67.376  1.00  0.00     0.000 HD 
HETATM   15  N   UNL     1     -10.213   8.119  70.258  1.00  0.00    -0.197 NA 
BRANCH   4  16
HETATM   16  O   UNL     1      -9.690   2.755  71.408  1.00  0.00    -0.151 OA 
HETATM   17  C   UNL     1      -9.385   1.946  70.281  1.00  0.00    -0.102 C  
ENDBRANCH   4  16
BRANCH  13  18
HETATM   18  N   UNL     1     -10.649   9.858  68.767  1.00  0.00    -0.214 NA 
HETATM   19  C   UNL     1     -11.458  12.070  69.528  1.00  0.00    -0.282 C  
HETATM   20  C   UNL     1     -11.609  10.542  69.651  1.00  0.00    -0.271 C  
HETATM   21  N   UNL     1     -11.454  12.523  68.130  1.00  0.00    -0.295 N  
HETATM   22  C   UNL     1     -10.492  11.796  67.284  1.00  0.00    -0.214 C  
HETATM   23  C   UNL     1     -12.004  13.778  67.845  1.00  0.00    -0.356 C  
HETATM   24  O   UNL     1     -12.493  14.457  68.750  1.00  0.00    -0.134 OA 
HETATM   25  C   UNL     1     -10.714  10.276  67.362  1.00  0.00    -0.281 C  
BRANCH  23  26
HETATM   26  C   UNL     1     -11.993  14.281  66.481  1.00  0.00    -0.427 A  
HETATM   27  C   UNL     1     -12.767  13.900  65.397  1.00  0.00    -0.525 A  
HETATM   28  C   UNL     1     -12.342  14.671  64.290  1.00  0.00    -0.375 A  
HETATM   29  C   UNL     1     -11.308  15.452  64.748  1.00  0.00    -0.376 A  
HETATM   30  O   UNL     1     -11.071  15.204  66.062  1.00  0.00    -0.338 OA 
ENDBRANCH  23  26
ENDBRANCH  13  18
ENDBRANCH   2   3
TORSDOF 4
ENDMDL
MODEL       54
REMARK 921   NORMALIZED FREE ENERGY PREDICTED BY IDOCK:   -5.57 KCAL/MOL
REMARK 922        TOTAL FREE ENERGY PREDICTED BY IDOCK:   -7.43 KCAL/MOL
REMARK 923 INTER-LIGAND FREE ENERGY PREDICTED BY IDOCK:   -6.95 KCAL/MOL
REMARK 924 INTRA-LIGAND FREE ENERGY PREDICTED BY IDOCK:   -0.48 KCAL/MOL
REMARK 927      BINDING AFFINITY PREDICTED BY RF-SCORE:    0.00 PKD
ROOT
HETATM    1  C   UNL     1      -9.251   3.783  68.147  1.00  0.00    -0.163 C  
HETATM    2  O   UNL     1      -9.745   3.874  69.481  1.00  0.00    -0.199 OA 
ENDROOT
BRANCH   2   3
HETATM    3  C   UNL     1     -10.202   5.097  69.888  1.00  0.00    -0.291 A  
HETATM    4  C   UNL     1     -10.529   5.299  71.235  1.00  0.00    -0.204 A  
HETATM    5  C   UNL     1     -10.988   6.561  71.637  1.00  0.00    -0.291 A  
HETATM    6  C   UNL     1     -10.683   7.446  69.408  1.00  0.00    -0.211 A  
HETATM    7  C   UNL     1     -11.051   7.645  70.734  1.00  0.00    -0.276 A  
HETATM    8  C   UNL     1     -10.285   6.183  69.002  1.00  0.00    -0.237 A  
HETATM    9  C   UNL     1     -11.457   8.950  71.029  1.00  0.00    -0.294 A  
HETATM   10  N   UNL     1     -11.914   9.303  72.304  1.00  0.00    -0.237 NA 
HETATM   11  N   UNL     1     -11.468   9.939  70.122  1.00  0.00    -0.256 NA 
HETATM   12  H1  UNL     1     -12.210  10.254  72.520  1.00  0.00     0.000 HD 
HETATM   13  C   UNL     1     -11.059   9.657  68.878  1.00  0.00    -0.059 A  
HETATM   14  H2  UNL     1     -11.196   9.037  72.979  1.00  0.00     0.000 HD 
HETATM   15  N   UNL     1     -10.680   8.427  68.507  1.00  0.00    -0.090 NA 
BRANCH   4  16
HETATM   16  O   UNL     1     -10.470   4.409  72.274  1.00  0.00    -0.183 OA 
HETATM   17  C   UNL     1     -11.423   4.520  73.321  1.00  0.00    -0.219 C  
ENDBRANCH   4  16
BRANCH  13  18
HETATM   18  N   UNL     1     -11.067  10.646  67.903  1.00  0.00    -0.291 NA 
HETATM   19  C   UNL     1     -10.695  11.310  65.547  1.00  0.00    -0.220 C  
HETATM   20  C   UNL     1     -10.349  10.305  66.662  1.00  0.00    -0.219 C  
HETATM   21  N   UNL     1     -10.566  12.705  65.989  1.00  0.00    -0.266 N  
HETATM   22  C   UNL     1     -11.286  12.990  67.241  1.00  0.00    -0.306 C  
HETATM   23  C   UNL     1     -10.166  13.658  65.045  1.00  0.00    -0.334 C  
HETATM   24  O   UNL     1      -9.911  13.313  63.890  1.00  0.00    -0.181 OA 
HETATM   25  C   UNL     1     -10.864  12.024  68.362  1.00  0.00    -0.233 C  
BRANCH  23  26
HETATM   26  C   UNL     1     -10.055  15.056  65.429  1.00  0.00    -0.362 A  
HETATM   27  C   UNL     1      -9.250  15.643  66.392  1.00  0.00    -0.346 A  
HETATM   28  C   UNL     1      -9.546  17.026  66.396  1.00  0.00    -0.301 A  
HETATM   29  C   UNL     1     -10.539  17.203  65.463  1.00  0.00    -0.150 A  
HETATM   30  O   UNL     1     -10.873  16.016  64.893  1.00  0.00    -0.534 OA 
ENDBRANCH  23  26
ENDBRANCH  13  18
ENDBRANCH   2   3
TORSDOF 4
ENDMDL
MODEL       55
REMARK 921   NORMALIZED FREE ENERGY PREDICTED BY IDOCK:   -5.48 KCAL/MOL
REMARK 922        TOTAL FREE ENERGY PREDICTED BY IDOCK:   -7.33 KCAL/MOL
REMARK 923 INTER-LIGAND FREE ENERGY PREDICTED BY IDOCK:   -7.48 KCAL/MOL
REMARK 924 INTRA-LIGAND FREE ENERGY PREDICTED BY IDOCK:    0.16 KCAL/MOL
REMARK 927      BINDING AFFINITY PREDICTED BY RF-SCORE:    0.00 PKD
ROOT
HETATM    1  C   UNL     1      -8.644  18.127  69.141  1.00  0.00     0.130 C  
HETATM    2  O   UNL     1      -9.931  17.860  68.590  1.00  0.00    -0.351 OA 
ENDROOT
BRANCH   2   3
HETATM    3  C   UNL     1     -10.026  16.802  67.729  1.00  0.00    -0.268 A  
HETATM    4  C   UNL     1     -10.073  17.037  66.349  1.00  0.00    -0.317 A  
HETATM    5  C   UNL     1     -10.162  15.941  65.479  1.00  0.00    -0.394 A  
HETATM    6  C   UNL     1     -10.035  14.389  67.330  1.00  0.00    -0.247 A  
HETATM    7  C   UNL     1     -10.125  14.613  65.961  1.00  0.00    -0.330 A  
HETATM    8  C   UNL     1     -10.006  15.476  68.189  1.00  0.00    -0.217 A  
HETATM    9  C   UNL     1     -10.171  13.449  65.188  1.00  0.00    -0.299 A  
HETATM   10  N   UNL     1     -10.320  13.498  63.797  1.00  0.00    -0.487 NA 
HETATM   11  N   UNL     1     -10.107  12.216  65.714  1.00  0.00    -0.242 NA 
HETATM   12  H1  UNL     1     -10.354  12.649  63.234  1.00  0.00     0.000 HD 
HETATM   13  C   UNL     1      -9.982  12.104  67.044  1.00  0.00    -0.202 A  
HETATM   14  H2  UNL     1      -9.580  14.093  63.424  1.00  0.00     0.000 HD 
HETATM   15  N   UNL     1      -9.958  13.168  67.856  1.00  0.00    -0.226 NA 
BRANCH   4  16
HETATM   16  O   UNL     1     -10.047  18.232  65.682  1.00  0.00    -0.532 OA 
HETATM   17  C   UNL     1     -10.674  19.359  66.276  1.00  0.00    -0.411 C  
ENDBRANCH   4  16
BRANCH  13  18
HETATM   18  N   UNL     1      -9.927  10.847  67.633  1.00  0.00    -0.170 NA 
HETATM   19  C   UNL     1     -10.080   8.387  67.407  1.00  0.00    -0.236 C  
HETATM   20  C   UNL     1     -10.485   9.752  66.820  1.00  0.00    -0.189 C  
HETATM   21  N   UNL     1     -10.339   8.297  68.850  1.00  0.00    -0.217 N  
HETATM   22  C   UNL     1      -9.778   9.423  69.615  1.00  0.00    -0.190 C  
HETATM   23  C   UNL     1     -10.691   7.049  69.377  1.00  0.00    -0.238 C  
HETATM   24  O   UNL     1     -10.798   6.073  68.633  1.00  0.00    -0.279 OA 
HETATM   25  C   UNL     1     -10.260  10.774  69.060  1.00  0.00    -0.213 C  
BRANCH  23  26
HETATM   26  C   UNL     1     -10.926   6.906  70.806  1.00  0.00    -0.259 A  
HETATM   27  C   UNL     1     -10.746   5.800  71.620  1.00  0.00    -0.314 A  
HETATM   28  C   UNL     1     -11.152   6.172  72.923  1.00  0.00    -0.281 A  
HETATM   29  C   UNL     1     -11.593   7.470  72.825  1.00  0.00    -0.248 A  
HETATM   30  O   UNL     1     -11.487   7.913  71.546  1.00  0.00    -0.253 OA 
ENDBRANCH  23  26
ENDBRANCH  13  18
ENDBRANCH   2   3
TORSDOF 4
ENDMDL
MODEL       56
REMARK 921   NORMALIZED FREE ENERGY PREDICTED BY IDOCK:   -5.46 KCAL/MOL
REMARK 922        TOTAL FREE ENERGY PREDICTED BY IDOCK:   -7.31 KCAL/MOL
REMARK 923 INTER-LIGAND FREE ENERGY PREDICTED BY IDOCK:   -6.73 KCAL/MOL
REMARK 924 INTRA-LIGAND FREE ENERGY PREDICTED BY IDOCK:   -0.58 KCAL/MOL
REMARK 927      BINDING AFFINITY PREDICTED BY RF-SCORE:    0.00 PKD
ROOT
HETATM    1  C   UNL     1     -12.397  12.984  63.443  1.00  0.00    -0.394 C  
HETATM    2  O   UNL     1     -12.396  13.615  64.720  1.00  0.00    -0.429 OA 
ENDROOT
BRANCH   2   3
HETATM    3  C   UNL     1     -11.464  13.180  65.623  1.00  0.00    -0.323 A  
HETATM    4  C   UNL     1     -10.359  13.988  65.917  1.00  0.00    -0.318 A  
HETATM    5  C   UNL     1      -9.417  13.532  66.850  1.00  0.00    -0.258 A  
HETATM    6  C   UNL     1     -10.725  11.545  67.284  1.00  0.00    -0.244 A  
HETATM    7  C   UNL     1      -9.602  12.319  67.551  1.00  0.00    -0.184 A  
HETATM    8  C   UNL     1     -11.623  11.972  66.319  1.00  0.00    -0.378 A  
HETATM    9  C   UNL     1      -8.752  11.785  68.524  1.00  0.00    -0.118 A  
HETATM   10  N   UNL     1      -7.549  12.412  68.869  1.00  0.00    -0.302 NA 
HETATM   11  N   UNL     1      -9.005  10.636  69.169  1.00  0.00    -0.158 NA 
HETATM   12  H1  UNL     1      -6.930  12.022  69.578  1.00  0.00     0.000 HD 
HETATM   13  C   UNL     1     -10.135   9.980  68.868  1.00  0.00    -0.190 A  
HETATM   14  H2  UNL     1      -7.762  13.374  69.133  1.00  0.00     0.000 HD 
HETATM   15  N   UNL     1     -10.988  10.410  67.930  1.00  0.00    -0.280 NA 
BRANCH   4  16
HETATM   16  O   UNL     1     -10.035  15.217  65.407  1.00  0.00    -0.344 OA 
HETATM   17  C   UNL     1     -10.171  16.359  66.240  1.00  0.00    -0.330 C  
ENDBRANCH   4  16
BRANCH  13  18
HETATM   18  N   UNL     1     -10.430   8.779  69.499  1.00  0.00    -0.218 NA 
HETATM   19  C   UNL     1     -11.835   7.505  71.090  1.00  0.00    -0.299 C  
HETATM   20  C   UNL     1     -11.311   8.892  70.674  1.00  0.00    -0.259 C  
HETATM   21  N   UNL     1     -10.760   6.509  71.201  1.00  0.00    -0.233 N  
HETATM   22  C   UNL     1      -9.897   6.447  70.010  1.00  0.00    -0.168 C  
HETATM   23  C   UNL     1     -10.897   5.500  72.161  1.00  0.00    -0.235 C  
HETATM   24  O   UNL     1     -11.885   5.479  72.897  1.00  0.00    -0.247 OA 
HETATM   25  C   UNL     1      -9.322   7.831  69.662  1.00  0.00    -0.153 C  
BRANCH  23  26
HETATM   26  C   UNL     1      -9.873   4.475  72.286  1.00  0.00    -0.170 A  
HETATM   27  C   UNL     1      -9.944   3.121  72.003  1.00  0.00    -0.223 A  
HETATM   28  C   UNL     1      -8.688   2.560  72.328  1.00  0.00    -0.089 A  
HETATM   29  C   UNL     1      -7.930   3.593  72.827  1.00  0.00    -0.077 A  
HETATM   30  O   UNL     1      -8.645   4.747  72.831  1.00  0.00    -0.110 OA 
ENDBRANCH  23  26
ENDBRANCH  13  18
ENDBRANCH   2   3
TORSDOF 4
ENDMDL
MODEL       57
REMARK 921   NORMALIZED FREE ENERGY PREDICTED BY IDOCK:   -5.45 KCAL/MOL
REMARK 922        TOTAL FREE ENERGY PREDICTED BY IDOCK:   -7.28 KCAL/MOL
REMARK 923 INTER-LIGAND FREE ENERGY PREDICTED BY IDOCK:   -6.70 KCAL/MOL
REMARK 924 INTRA-LIGAND FREE ENERGY PREDICTED BY IDOCK:   -0.58 KCAL/MOL
REMARK 927      BINDING AFFINITY PREDICTED BY RF-SCORE:    0.00 PKD
ROOT
HETATM    1  C   UNL     1      -8.292   3.984  66.363  1.00  0.00    -0.105 C  
HETATM    2  O   UNL     1      -9.645   4.095  66.796  1.00  0.00    -0.184 OA 
ENDROOT
BRANCH   2   3
HETATM    3  C   UNL     1      -9.936   5.121  67.653  1.00  0.00    -0.161 A  
HETATM    4  C   UNL     1      -9.956   4.883  69.033  1.00  0.00    -0.167 A  
HETATM    5  C   UNL     1     -10.248   5.946  69.899  1.00  0.00    -0.280 A  
HETATM    6  C   UNL     1     -10.378   7.494  68.046  1.00  0.00    -0.204 A  
HETATM    7  C   UNL     1     -10.443   7.259  69.414  1.00  0.00    -0.223 A  
HETATM    8  C   UNL     1     -10.147   6.429  67.190  1.00  0.00    -0.217 A  
HETATM    9  C   UNL     1     -10.703   8.397  70.183  1.00  0.00    -0.236 A  
HETATM   10  N   UNL     1     -10.856   8.323  71.572  1.00  0.00    -0.238 NA 
HETATM   11  N   UNL     1     -10.853   9.621  69.654  1.00  0.00    -0.238 NA 
HETATM   12  H1  UNL     1     -11.046   9.153  72.132  1.00  0.00     0.000 HD 
HETATM   13  C   UNL     1     -10.735   9.753  68.325  1.00  0.00    -0.233 A  
HETATM   14  H2  UNL     1     -10.027   7.869  71.955  1.00  0.00     0.000 HD 
HETATM   15  N   UNL     1     -10.513   8.709  67.517  1.00  0.00    -0.268 NA 
BRANCH   4  16
HETATM   16  O   UNL     1      -9.726   3.712  69.704  1.00  0.00    -0.188 OA 
HETATM   17  C   UNL     1      -9.171   3.771  71.010  1.00  0.00    -0.130 C  
ENDBRANCH   4  16
BRANCH  13  18
HETATM   18  N   UNL     1     -10.897  10.998  67.734  1.00  0.00    -0.229 NA 
HETATM   19  C   UNL     1     -11.390  12.343  65.714  1.00  0.00    -0.352 C  
HETATM   20  C   UNL     1     -10.878  10.996  66.260  1.00  0.00    -0.170 C  
HETATM   21  N   UNL     1     -10.734  13.493  66.352  1.00  0.00    -0.286 N  
HETATM   22  C   UNL     1     -10.763  13.439  67.823  1.00  0.00    -0.248 C  
HETATM   23  C   UNL     1     -10.536  14.645  65.583  1.00  0.00    -0.342 C  
HETATM   24  O   UNL     1     -10.886  14.666  64.402  1.00  0.00    -0.259 OA 
HETATM   25  C   UNL     1     -10.174  12.118  68.347  1.00  0.00    -0.210 C  
BRANCH  23  26
HETATM   26  C   UNL     1      -9.919  15.819  66.182  1.00  0.00    -0.311 A  
HETATM   27  C   UNL     1      -8.582  16.173  66.248  1.00  0.00    -0.373 A  
HETATM   28  C   UNL     1      -8.508  17.389  66.965  1.00  0.00    -0.245 A  
HETATM   29  C   UNL     1      -9.798  17.692  67.331  1.00  0.00    -0.305 A  
HETATM   30  O   UNL     1     -10.654  16.736  66.887  1.00  0.00    -0.298 OA 
ENDBRANCH  23  26
ENDBRANCH  13  18
ENDBRANCH   2   3
TORSDOF 4
ENDMDL
MODEL       58
REMARK 921   NORMALIZED FREE ENERGY PREDICTED BY IDOCK:   -5.42 KCAL/MOL
REMARK 922        TOTAL FREE ENERGY PREDICTED BY IDOCK:   -7.25 KCAL/MOL
REMARK 923 INTER-LIGAND FREE ENERGY PREDICTED BY IDOCK:   -6.64 KCAL/MOL
REMARK 924 INTRA-LIGAND FREE ENERGY PREDICTED BY IDOCK:   -0.61 KCAL/MOL
REMARK 927      BINDING AFFINITY PREDICTED BY RF-SCORE:    0.00 PKD
ROOT
HETATM    1  C   UNL     1     -12.735  14.628  73.304  1.00  0.00    -0.440 C  
HETATM    2  O   UNL     1     -13.546  13.977  72.329  1.00  0.00    -0.430 OA 
ENDROOT
BRANCH   2   3
HETATM    3  C   UNL     1     -12.892  13.321  71.322  1.00  0.00    -0.312 A  
HETATM    4  C   UNL     1     -12.428  14.043  70.215  1.00  0.00    -0.338 A  
HETATM    5  C   UNL     1     -11.754  13.358  69.195  1.00  0.00    -0.375 A  
HETATM    6  C   UNL     1     -11.892  11.279  70.423  1.00  0.00    -0.350 A  
HETATM    7  C   UNL     1     -11.465  11.978  69.300  1.00  0.00    -0.361 A  
HETATM    8  C   UNL     1     -12.609  11.948  71.400  1.00  0.00    -0.346 A  
HETATM    9  C   UNL     1     -10.772  11.202  68.366  1.00  0.00    -0.198 A  
HETATM   10  N   UNL     1     -10.324  11.741  67.154  1.00  0.00    -0.212 NA 
HETATM   11  N   UNL     1     -10.512   9.897  68.544  1.00  0.00    -0.196 NA 
HETATM   12  H1  UNL     1      -9.819  11.175  66.474  1.00  0.00     0.000 HD 
HETATM   13  C   UNL     1     -10.932   9.320  69.679  1.00  0.00    -0.175 A  
HETATM   14  H2  UNL     1      -9.754  12.559  67.367  1.00  0.00     0.000 HD 
HETATM   15  N   UNL     1     -11.625   9.987  70.610  1.00  0.00    -0.314 NA 
BRANCH   4  16
HETATM   16  O   UNL     1     -12.540  15.383  69.958  1.00  0.00    -0.332 OA 
HETATM   17  C   UNL     1     -11.364  16.180  69.967  1.00  0.00    -0.328 C  
ENDBRANCH   4  16
BRANCH  13  18
HETATM   18  N   UNL     1     -10.698   7.969  69.899  1.00  0.00    -0.247 NA 
HETATM   19  C   UNL     1      -9.902   6.168  71.398  1.00  0.00    -0.175 C  
HETATM   20  C   UNL     1      -9.827   7.666  71.047  1.00  0.00    -0.174 C  
HETATM   21  N   UNL     1      -9.719   5.306  70.223  1.00  0.00    -0.180 N  
HETATM   22  C   UNL     1     -10.599   5.661  69.096  1.00  0.00    -0.264 C  
HETATM   23  C   UNL     1      -9.091   4.069  70.407  1.00  0.00    -0.114 C  
HETATM   24  O   UNL     1      -8.690   3.742  71.525  1.00  0.00    -0.089 OA 
HETATM   25  C   UNL     1     -10.447   7.144  68.713  1.00  0.00    -0.202 C  
BRANCH  23  26
HETATM   26  C   UNL     1      -8.917   3.170  69.277  1.00  0.00    -0.117 A  
HETATM   27  C   UNL     1      -9.570   1.982  68.989  1.00  0.00    -0.078 A  
HETATM   28  C   UNL     1      -9.008   1.478  67.793  1.00  0.00    -0.162 A  
HETATM   29  C   UNL     1      -8.019   2.363  67.437  1.00  0.00    -0.065 A  
HETATM   30  O   UNL     1      -7.937   3.373  68.341  1.00  0.00    -0.065 OA 
ENDBRANCH  23  26
ENDBRANCH  13  18
ENDBRANCH   2   3
TORSDOF 4
ENDMDL
MODEL       59
REMARK 921   NORMALIZED FREE ENERGY PREDICTED BY IDOCK:   -5.42 KCAL/MOL
REMARK 922        TOTAL FREE ENERGY PREDICTED BY IDOCK:   -7.25 KCAL/MOL
REMARK 923 INTER-LIGAND FREE ENERGY PREDICTED BY IDOCK:   -6.65 KCAL/MOL
REMARK 924 INTRA-LIGAND FREE ENERGY PREDICTED BY IDOCK:   -0.59 KCAL/MOL
REMARK 927      BINDING AFFINITY PREDICTED BY RF-SCORE:    0.00 PKD
ROOT
HETATM    1  C   UNL     1      -6.323  19.672  69.942  1.00  0.00    -0.318 C  
HETATM    2  O   UNL     1      -5.891  18.986  68.769  1.00  0.00    -0.203 OA 
ENDROOT
BRANCH   2   3
HETATM    3  C   UNL     1      -6.855  18.349  68.037  1.00  0.00    -0.217 A  
HETATM    4  C   UNL     1      -7.588  19.070  67.087  1.00  0.00    -0.229 A  
HETATM    5  C   UNL     1      -8.567  18.402  66.338  1.00  0.00    -0.264 A  
HETATM    6  C   UNL     1      -8.007  16.294  67.382  1.00  0.00    -0.155 A  
HETATM    7  C   UNL     1      -8.770  17.009  66.467  1.00  0.00    -0.297 A  
HETATM    8  C   UNL     1      -7.081  16.970  68.161  1.00  0.00    -0.178 A  
HETATM    9  C   UNL     1      -9.688  16.235  65.752  1.00  0.00    -0.264 A  
HETATM   10  N   UNL     1     -10.572  16.810  64.832  1.00  0.00    -0.666 NA 
HETATM   11  N   UNL     1      -9.809  14.907  65.910  1.00  0.00    -0.314 NA 
HETATM   12  H1  UNL     1     -11.242  16.245  64.311  1.00  0.00     0.000 HD 
HETATM   13  C   UNL     1      -9.000  14.301  66.790  1.00  0.00    -0.227 A  
HETATM   14  H2  UNL     1     -10.022  17.345  64.160  1.00  0.00     0.000 HD 
HETATM   15  N   UNL     1      -8.114  14.975  67.533  1.00  0.00    -0.166 NA 
BRANCH   4  16
HETATM   16  O   UNL     1      -7.498  20.397  66.760  1.00  0.00    -0.283 OA 
HETATM   17  C   UNL     1      -6.473  20.811  65.867  1.00  0.00    -0.214 C  
ENDBRANCH   4  16
BRANCH  13  18
HETATM   18  N   UNL     1      -9.101  12.932  66.997  1.00  0.00    -0.222 NA 
HETATM   19  C   UNL     1      -9.838  10.711  66.190  1.00  0.00    -0.217 C  
HETATM   20  C   UNL     1     -10.046  12.235  66.107  1.00  0.00    -0.245 C  
HETATM   21  N   UNL     1      -9.800  10.224  67.576  1.00  0.00    -0.169 N  
HETATM   22  C   UNL     1      -8.855  10.964  68.428  1.00  0.00    -0.147 C  
HETATM   23  C   UNL     1     -10.299   8.943  67.836  1.00  0.00    -0.230 C  
HETATM   24  O   UNL     1     -10.774   8.268  66.920  1.00  0.00    -0.299 OA 
HETATM   25  C   UNL     1      -9.133  12.477  68.391  1.00  0.00    -0.135 C  
BRANCH  23  26
HETATM   26  C   UNL     1     -10.253   8.407  69.187  1.00  0.00    -0.211 A  
HETATM   27  C   UNL     1     -11.075   8.677  70.269  1.00  0.00    -0.230 A  
HETATM   28  C   UNL     1     -10.586   7.924  71.361  1.00  0.00    -0.246 A  
HETATM   29  C   UNL     1      -9.471   7.266  70.899  1.00  0.00    -0.159 A  
HETATM   30  O   UNL     1      -9.246   7.572  69.595  1.00  0.00    -0.147 OA 
ENDBRANCH  23  26
ENDBRANCH  13  18
ENDBRANCH   2   3
TORSDOF 4
ENDMDL
MODEL       60
REMARK 921   NORMALIZED FREE ENERGY PREDICTED BY IDOCK:   -5.39 KCAL/MOL
REMARK 922        TOTAL FREE ENERGY PREDICTED BY IDOCK:   -7.21 KCAL/MOL
REMARK 923 INTER-LIGAND FREE ENERGY PREDICTED BY IDOCK:   -6.65 KCAL/MOL
REMARK 924 INTRA-LIGAND FREE ENERGY PREDICTED BY IDOCK:   -0.56 KCAL/MOL
REMARK 927      BINDING AFFINITY PREDICTED BY RF-SCORE:    0.00 PKD
ROOT
HETATM    1  C   UNL     1      -9.360  10.340  63.598  1.00  0.00    -0.296 C  
HETATM    2  O   UNL     1     -10.560  10.962  64.050  1.00  0.00    -0.372 OA 
ENDROOT
BRANCH   2   3
HETATM    3  C   UNL     1     -10.714  11.095  65.403  1.00  0.00    -0.192 A  
HETATM    4  C   UNL     1     -11.415  12.194  65.914  1.00  0.00    -0.363 A  
HETATM    5  C   UNL     1     -11.572  12.311  67.302  1.00  0.00    -0.427 A  
HETATM    6  C   UNL     1     -10.451  10.199  67.663  1.00  0.00    -0.245 A  
HETATM    7  C   UNL     1     -11.108  11.308  68.183  1.00  0.00    -0.319 A  
HETATM    8  C   UNL     1     -10.248  10.117  66.295  1.00  0.00    -0.288 A  
HETATM    9  C   UNL     1     -11.238  11.301  69.575  1.00  0.00    -0.272 A  
HETATM   10  N   UNL     1     -11.824  12.371  70.260  1.00  0.00    -0.534 NA 
HETATM   11  N   UNL     1     -10.794  10.299  70.349  1.00  0.00    -0.291 NA 
HETATM   12  H1  UNL     1     -11.919  12.366  71.275  1.00  0.00     0.000 HD 
HETATM   13  C   UNL     1     -10.206   9.253  69.750  1.00  0.00    -0.211 A  
HETATM   14  H2  UNL     1     -12.749  12.532  69.859  1.00  0.00     0.000 HD 
HETATM   15  N   UNL     1     -10.019   9.196  68.425  1.00  0.00    -0.174 NA 
BRANCH   4  16
HETATM   16  O   UNL     1     -12.000  13.229  65.234  1.00  0.00    -0.347 OA 
HETATM   17  C   UNL     1     -11.189  14.320  64.823  1.00  0.00    -0.385 C  
ENDBRANCH   4  16
BRANCH  13  18
HETATM   18  N   UNL     1      -9.718   8.201  70.513  1.00  0.00    -0.173 NA 
HETATM   19  C   UNL     1      -7.886   6.614  71.017  1.00  0.00    -0.102 C  
HETATM   20  C   UNL     1      -8.534   7.524  69.956  1.00  0.00    -0.137 C  
HETATM   21  N   UNL     1      -8.863   5.736  71.675  1.00  0.00    -0.136 N  
HETATM   22  C   UNL     1     -10.037   6.457  72.197  1.00  0.00    -0.177 C  
HETATM   23  C   UNL     1      -8.434   4.471  72.090  1.00  0.00    -0.113 C  
HETATM   24  O   UNL     1      -7.274   4.113  71.880  1.00  0.00    -0.054 OA 
HETATM   25  C   UNL     1     -10.713   7.296  71.100  1.00  0.00    -0.228 C  
BRANCH  23  26
HETATM   26  C   UNL     1      -9.358   3.580  72.774  1.00  0.00    -0.108 A  
HETATM   27  C   UNL     1     -10.228   2.640  72.245  1.00  0.00    -0.195 A  
HETATM   28  C   UNL     1     -10.929   2.065  73.330  1.00  0.00    -0.278 A  
HETATM   29  C   UNL     1     -10.477   2.709  74.457  1.00  0.00    -0.138 A  
HETATM   30  O   UNL     1      -9.549   3.645  74.129  1.00  0.00    -0.095 OA 
ENDBRANCH  23  26
ENDBRANCH  13  18
ENDBRANCH   2   3
TORSDOF 4
ENDMDL
MODEL       61
REMARK 921   NORMALIZED FREE ENERGY PREDICTED BY IDOCK:   -5.37 KCAL/MOL
REMARK 922        TOTAL FREE ENERGY PREDICTED BY IDOCK:   -7.19 KCAL/MOL
REMARK 923 INTER-LIGAND FREE ENERGY PREDICTED BY IDOCK:   -6.66 KCAL/MOL
REMARK 924 INTRA-LIGAND FREE ENERGY PREDICTED BY IDOCK:   -0.53 KCAL/MOL
REMARK 927      BINDING AFFINITY PREDICTED BY RF-SCORE:    0.00 PKD
ROOT
HETATM    1  C   UNL     1      -6.946  18.865  69.068  1.00  0.00    -0.311 C  
HETATM    2  O   UNL     1      -8.361  18.767  68.932  1.00  0.00    -0.301 OA 
ENDROOT
BRANCH   2   3
HETATM    3  C   UNL     1      -8.836  17.757  68.139  1.00  0.00    -0.267 A  
HETATM    4  C   UNL     1      -9.457  18.068  66.923  1.00  0.00    -0.288 A  
HETATM    5  C   UNL     1      -9.931  17.022  66.119  1.00  0.00    -0.314 A  
HETATM    6  C   UNL     1      -9.068  15.370  67.660  1.00  0.00    -0.182 A  
HETATM    7  C   UNL     1      -9.724  15.669  66.472  1.00  0.00    -0.286 A  
HETATM    8  C   UNL     1      -8.653  16.408  68.479  1.00  0.00    -0.223 A  
HETATM    9  C   UNL     1     -10.119  14.550  65.734  1.00  0.00    -0.342 A  
HETATM   10  N   UNL     1     -10.842  14.676  64.542  1.00  0.00    -0.625 NA 
HETATM   11  N   UNL     1      -9.866  13.290  66.120  1.00  0.00    -0.287 NA 
HETATM   12  H1  UNL     1     -11.130  13.859  64.004  1.00  0.00     0.000 HD 
HETATM   13  C   UNL     1      -9.193  13.104  67.264  1.00  0.00    -0.221 A  
HETATM   14  H2  UNL     1     -10.316  15.292  63.921  1.00  0.00     0.000 HD 
HETATM   15  N   UNL     1      -8.803  14.122  68.041  1.00  0.00    -0.173 NA 
BRANCH   4  16
HETATM   16  O   UNL     1      -9.690  19.298  66.370  1.00  0.00    -0.338 OA 
HETATM   17  C   UNL     1     -11.030  19.757  66.264  1.00  0.00    -0.141 C  
ENDBRANCH   4  16
BRANCH  13  18
HETATM   18  N   UNL     1      -8.921  11.817  67.709  1.00  0.00    -0.167 NA 
HETATM   19  C   UNL     1      -7.759   9.657  67.381  1.00  0.00    -0.095 C  
HETATM   20  C   UNL     1      -8.315  10.925  66.706  1.00  0.00    -0.138 C  
HETATM   21  N   UNL     1      -8.734   9.025  68.280  1.00  0.00    -0.130 N  
HETATM   22  C   UNL     1      -9.325   9.961  69.250  1.00  0.00    -0.206 C  
HETATM   23  C   UNL     1      -8.703   7.632  68.407  1.00  0.00    -0.127 C  
HETATM   24  O   UNL     1      -7.890   6.971  67.759  1.00  0.00    -0.110 OA 
HETATM   25  C   UNL     1      -9.944  11.181  68.547  1.00  0.00    -0.199 C  
BRANCH  23  26
HETATM   26  C   UNL     1      -9.629   6.966  69.310  1.00  0.00    -0.149 A  
HETATM   27  C   UNL     1      -9.364   6.144  70.393  1.00  0.00    -0.173 A  
HETATM   28  C   UNL     1     -10.611   5.727  70.914  1.00  0.00    -0.329 A  
HETATM   29  C   UNL     1     -11.567   6.284  70.099  1.00  0.00    -0.315 A  
HETATM   30  O   UNL     1     -10.984   7.011  69.111  1.00  0.00    -0.219 OA 
ENDBRANCH  23  26
ENDBRANCH  13  18
ENDBRANCH   2   3
TORSDOF 4
ENDMDL
MODEL       62
REMARK 921   NORMALIZED FREE ENERGY PREDICTED BY IDOCK:   -5.36 KCAL/MOL
REMARK 922        TOTAL FREE ENERGY PREDICTED BY IDOCK:   -7.18 KCAL/MOL
REMARK 923 INTER-LIGAND FREE ENERGY PREDICTED BY IDOCK:   -6.61 KCAL/MOL
REMARK 924 INTRA-LIGAND FREE ENERGY PREDICTED BY IDOCK:   -0.57 KCAL/MOL
REMARK 927      BINDING AFFINITY PREDICTED BY RF-SCORE:    0.00 PKD
ROOT
HETATM    1  C   UNL     1     -12.783  12.016  63.464  1.00  0.00    -0.443 C  
HETATM    2  O   UNL     1     -12.742  13.062  64.432  1.00  0.00    -0.652 OA 
ENDROOT
BRANCH   2   3
HETATM    3  C   UNL     1     -11.636  13.116  65.235  1.00  0.00    -0.321 A  
HETATM    4  C   UNL     1     -10.894  14.302  65.309  1.00  0.00    -0.355 A  
HETATM    5  C   UNL     1      -9.768  14.344  66.143  1.00  0.00    -0.335 A  
HETATM    6  C   UNL     1     -10.184  12.090  66.914  1.00  0.00    -0.208 A  
HETATM    7  C   UNL     1      -9.416  13.248  66.963  1.00  0.00    -0.243 A  
HETATM    8  C   UNL     1     -11.262  12.033  66.046  1.00  0.00    -0.385 A  
HETATM    9  C   UNL     1      -8.341  13.189  67.854  1.00  0.00    -0.170 A  
HETATM   10  N   UNL     1      -7.437  14.250  67.981  1.00  0.00    -0.125 NA 
HETATM   11  N   UNL     1      -8.081  12.120  68.622  1.00  0.00    -0.096 NA 
HETATM   12  H1  UNL     1      -6.653  14.207  68.632  1.00  0.00     0.000 HD 
HETATM   13  C   UNL     1      -8.903  11.065  68.532  1.00  0.00    -0.159 A  
HETATM   14  H2  UNL     1      -7.971  15.094  68.189  1.00  0.00     0.000 HD 
HETATM   15  N   UNL     1      -9.938  11.031  67.683  1.00  0.00    -0.171 NA 
BRANCH   4  16
HETATM   16  O   UNL     1     -11.106  15.487  64.659  1.00  0.00    -0.412 OA 
HETATM   17  C   UNL     1     -10.641  16.688  65.259  1.00  0.00    -0.205 C  
ENDBRANCH   4  16
BRANCH  13  18
HETATM   18  N   UNL     1      -8.664   9.931  69.297  1.00  0.00    -0.156 NA 
HETATM   19  C   UNL     1      -7.618   7.698  69.515  1.00  0.00    -0.098 C  
HETATM   20  C   UNL     1      -8.156   8.768  68.547  1.00  0.00    -0.116 C  
HETATM   21  N   UNL     1      -8.567   7.387  70.593  1.00  0.00    -0.140 N  
HETATM   22  C   UNL     1      -9.060   8.582  71.298  1.00  0.00    -0.196 C  
HETATM   23  C   UNL     1      -8.590   6.080  71.091  1.00  0.00    -0.129 C  
HETATM   24  O   UNL     1      -7.846   5.224  70.611  1.00  0.00    -0.084 OA 
HETATM   25  C   UNL     1      -9.664   9.603  70.318  1.00  0.00    -0.259 C  
BRANCH  23  26
HETATM   26  C   UNL     1      -9.492   5.735  72.179  1.00  0.00    -0.149 A  
HETATM   27  C   UNL     1      -9.225   5.594  73.531  1.00  0.00    -0.134 A  
HETATM   28  C   UNL     1     -10.435   5.216  74.157  1.00  0.00    -0.326 A  
HETATM   29  C   UNL     1     -11.365   5.109  73.150  1.00  0.00    -0.313 A  
HETATM   30  O   UNL     1     -10.799   5.394  71.949  1.00  0.00    -0.231 OA 
ENDBRANCH  23  26
ENDBRANCH  13  18
ENDBRANCH   2   3
TORSDOF 4
ENDMDL
MODEL       63
REMARK 921   NORMALIZED FREE ENERGY PREDICTED BY IDOCK:   -5.31 KCAL/MOL
REMARK 922        TOTAL FREE ENERGY PREDICTED BY IDOCK:   -7.11 KCAL/MOL
REMARK 923 INTER-LIGAND FREE ENERGY PREDICTED BY IDOCK:   -6.58 KCAL/MOL
REMARK 924 INTRA-LIGAND FREE ENERGY PREDICTED BY IDOCK:   -0.53 KCAL/MOL
REMARK 927      BINDING AFFINITY PREDICTED BY RF-SCORE:    0.00 PKD
ROOT
HETATM    1  C   UNL     1      -8.782   1.505  69.663  1.00  0.00    -0.059 C  
HETATM    2  O   UNL     1      -9.450   1.696  70.908  1.00  0.00    -0.106 OA 
ENDROOT
BRANCH   2   3
HETATM    3  C   UNL     1      -9.802   2.978  71.229  1.00  0.00    -0.075 A  
HETATM    4  C   UNL     1     -10.269   3.264  72.518  1.00  0.00    -0.146 A  
HETATM    5  C   UNL     1     -10.618   4.584  72.834  1.00  0.00    -0.275 A  
HETATM    6  C   UNL     1      -9.928   5.350  70.646  1.00  0.00    -0.214 A  
HETATM    7  C   UNL     1     -10.434   5.636  71.909  1.00  0.00    -0.279 A  
HETATM    8  C   UNL     1      -9.639   4.035  70.319  1.00  0.00    -0.271 A  
HETATM    9  C   UNL     1     -10.712   6.989  72.125  1.00  0.00    -0.218 A  
HETATM   10  N   UNL     1     -11.279   7.438  73.323  1.00  0.00    -0.596 NA 
HETATM   11  N   UNL     1     -10.487   7.941  71.205  1.00  0.00    -0.202 NA 
HETATM   12  H1  UNL     1     -11.482   8.424  73.480  1.00  0.00     0.000 HD 
HETATM   13  C   UNL     1      -9.961   7.569  70.030  1.00  0.00    -0.186 A  
HETATM   14  H2  UNL     1     -10.690   7.112  74.090  1.00  0.00     0.000 HD 
HETATM   15  N   UNL     1      -9.691   6.292  69.735  1.00  0.00    -0.159 NA 
BRANCH   4  16
HETATM   16  O   UNL     1     -10.452   2.410  73.572  1.00  0.00    -0.113 OA 
HETATM   17  C   UNL     1      -9.330   2.062  74.371  1.00  0.00    -0.076 C  
ENDBRANCH   4  16
BRANCH  13  18
HETATM   18  N   UNL     1      -9.725   8.518  69.044  1.00  0.00    -0.167 NA 
HETATM   19  C   UNL     1      -8.597  10.602  68.327  1.00  0.00    -0.128 C  
HETATM   20  C   UNL     1      -9.112   9.771  69.518  1.00  0.00    -0.216 C  
HETATM   21  N   UNL     1      -9.605  10.754  67.270  1.00  0.00    -0.159 N  
HETATM   22  C   UNL     1     -10.201   9.476  66.844  1.00  0.00    -0.249 C  
HETATM   23  C   UNL     1      -9.604  11.939  66.527  1.00  0.00    -0.214 C  
HETATM   24  O   UNL     1      -8.789  12.827  66.782  1.00  0.00    -0.212 OA 
HETATM   25  C   UNL     1     -10.780   8.701  68.041  1.00  0.00    -0.074 C  
BRANCH  23  26
HETATM   26  C   UNL     1     -10.564  12.120  65.449  1.00  0.00    -0.272 A  
HETATM   27  C   UNL     1     -10.341  12.339  64.100  1.00  0.00    -0.396 A  
HETATM   28  C   UNL     1     -11.607  12.481  63.486  1.00  0.00    -0.584 A  
HETATM   29  C   UNL     1     -12.532  12.380  64.497  1.00  0.00    -0.435 A  
HETATM   30  O   UNL     1     -11.912  12.189  65.690  1.00  0.00    -0.503 OA 
ENDBRANCH  23  26
ENDBRANCH  13  18
ENDBRANCH   2   3
TORSDOF 4
ENDMDL
MODEL       64
REMARK 921   NORMALIZED FREE ENERGY PREDICTED BY IDOCK:   -5.24 KCAL/MOL
REMARK 922        TOTAL FREE ENERGY PREDICTED BY IDOCK:   -7.03 KCAL/MOL
REMARK 923 INTER-LIGAND FREE ENERGY PREDICTED BY IDOCK:   -6.45 KCAL/MOL
REMARK 924 INTRA-LIGAND FREE ENERGY PREDICTED BY IDOCK:   -0.58 KCAL/MOL
REMARK 927      BINDING AFFINITY PREDICTED BY RF-SCORE:    0.00 PKD
ROOT
HETATM    1  C   UNL     1      -8.780   3.791  64.378  1.00  0.00    -0.110 C  
HETATM    2  O   UNL     1      -9.767   3.452  65.349  1.00  0.00    -0.143 OA 
ENDROOT
BRANCH   2   3
HETATM    3  C   UNL     1      -9.747   4.157  66.521  1.00  0.00    -0.209 A  
HETATM    4  C   UNL     1      -9.399   3.507  67.712  1.00  0.00    -0.197 A  
HETATM    5  C   UNL     1      -9.375   4.244  68.903  1.00  0.00    -0.222 A  
HETATM    6  C   UNL     1      -9.917   6.282  67.719  1.00  0.00    -0.127 A  
HETATM    7  C   UNL     1      -9.615   5.637  68.913  1.00  0.00    -0.168 A  
HETATM    8  C   UNL     1      -9.997   5.538  66.553  1.00  0.00    -0.214 A  
HETATM    9  C   UNL     1      -9.584   6.477  70.030  1.00  0.00    -0.159 A  
HETATM   10  N   UNL     1      -9.351   5.976  71.316  1.00  0.00    -0.156 NA 
HETATM   11  N   UNL     1      -9.798   7.800  69.960  1.00  0.00    -0.180 NA 
HETATM   12  H1  UNL     1      -9.328   6.589  72.130  1.00  0.00     0.000 HD 
HETATM   13  C   UNL     1     -10.044   8.336  68.756  1.00  0.00    -0.200 A  
HETATM   14  H2  UNL     1      -8.478   5.450  71.294  1.00  0.00     0.000 HD 
HETATM   15  N   UNL     1     -10.118   7.596  67.642  1.00  0.00    -0.177 NA 
BRANCH   4  16
HETATM   16  O   UNL     1      -9.065   2.193  67.905  1.00  0.00    -0.140 OA 
HETATM   17  C   UNL     1      -9.695   1.477  68.957  1.00  0.00     0.006 C  
ENDBRANCH   4  16
BRANCH  13  18
HETATM   18  N   UNL     1     -10.287   9.698  68.638  1.00  0.00    -0.196 NA 
HETATM   19  C   UNL     1     -11.299  11.762  69.556  1.00  0.00    -0.248 C  
HETATM   20  C   UNL     1     -11.340  10.223  69.524  1.00  0.00    -0.241 C  
HETATM   21  N   UNL     1     -11.255  12.350  68.211  1.00  0.00    -0.242 N  
HETATM   22  C   UNL     1     -10.198  11.780  67.359  1.00  0.00    -0.199 C  
HETATM   23  C   UNL     1     -11.882  13.586  68.014  1.00  0.00    -0.365 C  
HETATM   24  O   UNL     1     -12.467  14.136  68.948  1.00  0.00    -0.191 OA 
HETATM   25  C   UNL     1     -10.309  10.248  67.278  1.00  0.00    -0.232 C  
BRANCH  23  26
HETATM   26  C   UNL     1     -11.837  14.221  66.706  1.00  0.00    -0.426 A  
HETATM   27  C   UNL     1     -12.544  13.916  65.555  1.00  0.00    -0.560 A  
HETATM   28  C   UNL     1     -12.110  14.810  64.549  1.00  0.00    -0.460 A  
HETATM   29  C   UNL     1     -11.136  15.587  65.129  1.00  0.00    -0.374 A  
HETATM   30  O   UNL     1     -10.944  15.221  66.423  1.00  0.00    -0.320 OA 
ENDBRANCH  23  26
ENDBRANCH  13  18
ENDBRANCH   2   3
TORSDOF 4
ENDMDL
MODEL       65
REMARK 921   NORMALIZED FREE ENERGY PREDICTED BY IDOCK:   -5.24 KCAL/MOL
REMARK 922        TOTAL FREE ENERGY PREDICTED BY IDOCK:   -7.03 KCAL/MOL
REMARK 923 INTER-LIGAND FREE ENERGY PREDICTED BY IDOCK:   -6.50 KCAL/MOL
REMARK 924 INTRA-LIGAND FREE ENERGY PREDICTED BY IDOCK:   -0.53 KCAL/MOL
REMARK 927      BINDING AFFINITY PREDICTED BY RF-SCORE:    0.00 PKD
ROOT
HETATM    1  C   UNL     1      -7.850   2.073  70.410  1.00  0.00    -0.042 C  
HETATM    2  O   UNL     1      -9.268   2.225  70.404  1.00  0.00    -0.099 OA 
ENDROOT
BRANCH   2   3
HETATM    3  C   UNL     1      -9.760   3.440  70.796  1.00  0.00    -0.120 A  
HETATM    4  C   UNL     1     -10.098   3.646  72.140  1.00  0.00    -0.142 A  
HETATM    5  C   UNL     1     -10.593   4.898  72.528  1.00  0.00    -0.271 A  
HETATM    6  C   UNL     1     -10.303   5.769  70.291  1.00  0.00    -0.252 A  
HETATM    7  C   UNL     1     -10.682   5.971  71.613  1.00  0.00    -0.303 A  
HETATM    8  C   UNL     1      -9.870   4.513  69.899  1.00  0.00    -0.298 A  
HETATM    9  C   UNL     1     -11.125   7.267  71.894  1.00  0.00    -0.238 A  
HETATM   10  N   UNL     1     -11.596   7.620  73.164  1.00  0.00    -0.636 NA 
HETATM   11  N   UNL     1     -11.160   8.246  70.977  1.00  0.00    -0.245 NA 
HETATM   12  H1  UNL     1     -11.919   8.565  73.368  1.00  0.00     0.000 HD 
HETATM   13  C   UNL     1     -10.737   7.963  69.737  1.00  0.00    -0.233 A  
HETATM   14  H2  UNL     1     -10.874   7.381  73.843  1.00  0.00     0.000 HD 
HETATM   15  N   UNL     1     -10.323   6.741  69.380  1.00  0.00    -0.190 NA 
BRANCH   4  16
HETATM   16  O   UNL     1     -10.019   2.768  73.188  1.00  0.00    -0.104 OA 
HETATM   17  C   UNL     1     -11.160   1.988  73.511  1.00  0.00    -0.192 C  
ENDBRANCH   4  16
BRANCH  13  18
HETATM   18  N   UNL     1     -10.769   8.942  68.752  1.00  0.00    -0.146 NA 
HETATM   19  C   UNL     1     -10.257   9.639  66.433  1.00  0.00    -0.217 C  
HETATM   20  C   UNL     1      -9.902   8.685  67.589  1.00  0.00    -0.180 C  
HETATM   21  N   UNL     1     -10.333  11.041  66.865  1.00  0.00    -0.225 N  
HETATM   22  C   UNL     1     -11.197  11.242  68.041  1.00  0.00    -0.287 C  
HETATM   23  C   UNL     1      -9.959  12.031  65.950  1.00  0.00    -0.236 C  
HETATM   24  O   UNL     1      -9.558  11.716  64.829  1.00  0.00    -0.217 OA 
HETATM   25  C   UNL     1     -10.773  10.336  69.209  1.00  0.00    -0.234 C  
BRANCH  23  26
HETATM   26  C   UNL     1     -10.049  13.434  66.324  1.00  0.00    -0.299 A  
HETATM   27  C   UNL     1      -9.049  14.303  66.726  1.00  0.00    -0.269 A  
HETATM   28  C   UNL     1      -9.663  15.545  67.007  1.00  0.00    -0.230 A  
HETATM   29  C   UNL     1     -11.009  15.357  66.799  1.00  0.00    -0.282 A  
HETATM   30  O   UNL     1     -11.255  14.079  66.413  1.00  0.00    -0.308 OA 
ENDBRANCH  23  26
ENDBRANCH  13  18
ENDBRANCH   2   3
TORSDOF 4
ENDMDL
MODEL       66
REMARK 921   NORMALIZED FREE ENERGY PREDICTED BY IDOCK:   -5.19 KCAL/MOL
REMARK 922        TOTAL FREE ENERGY PREDICTED BY IDOCK:   -6.97 KCAL/MOL
REMARK 923 INTER-LIGAND FREE ENERGY PREDICTED BY IDOCK:   -6.36 KCAL/MOL
REMARK 924 INTRA-LIGAND FREE ENERGY PREDICTED BY IDOCK:   -0.61 KCAL/MOL
REMARK 927      BINDING AFFINITY PREDICTED BY RF-SCORE:    0.00 PKD
ROOT
HETATM    1  C   UNL     1      -7.922  18.507  68.429  1.00  0.00    -0.315 C  
HETATM    2  O   UNL     1      -7.776  17.913  67.141  1.00  0.00    -0.202 OA 
ENDROOT
BRANCH   2   3
HETATM    3  C   UNL     1      -8.710  16.980  66.782  1.00  0.00    -0.245 A  
HETATM    4  C   UNL     1      -9.814  17.369  66.012  1.00  0.00    -0.183 A  
HETATM    5  C   UNL     1     -10.758  16.400  65.646  1.00  0.00    -0.280 A  
HETATM    6  C   UNL     1      -9.456  14.653  66.697  1.00  0.00    -0.278 A  
HETATM    7  C   UNL     1     -10.577  15.036  65.969  1.00  0.00    -0.329 A  
HETATM    8  C   UNL     1      -8.556  15.623  67.106  1.00  0.00    -0.235 A  
HETATM    9  C   UNL     1     -11.430  13.982  65.628  1.00  0.00    -0.319 A  
HETATM   10  N   UNL     1     -12.631  14.205  64.945  1.00  0.00    -0.645 NA 
HETATM   11  N   UNL     1     -11.181  12.703  65.948  1.00  0.00    -0.301 NA 
HETATM   12  H1  UNL     1     -13.253  13.436  64.696  1.00  0.00     0.000 HD 
HETATM   13  C   UNL     1     -10.054  12.429  66.619  1.00  0.00    -0.221 A  
HETATM   14  H2  UNL     1     -12.416  14.723  64.093  1.00  0.00     0.000 HD 
HETATM   15  N   UNL     1      -9.198  13.384  67.006  1.00  0.00    -0.235 NA 
BRANCH   4  16
HETATM   16  O   UNL     1     -10.133  18.613  65.539  1.00  0.00    -0.419 OA 
HETATM   17  C   UNL     1     -10.774  19.531  66.413  1.00  0.00    -0.427 C  
ENDBRANCH   4  16
BRANCH  13  18
HETATM   18  N   UNL     1      -9.763  11.121  66.985  1.00  0.00    -0.184 NA 
HETATM   19  C   UNL     1     -10.531   8.795  67.341  1.00  0.00    -0.279 C  
HETATM   20  C   UNL     1     -10.937  10.280  67.276  1.00  0.00    -0.210 C  
HETATM   21  N   UNL     1      -9.363   8.570  68.205  1.00  0.00    -0.137 N  
HETATM   22  C   UNL     1      -8.224   9.448  67.886  1.00  0.00    -0.115 C  
HETATM   23  C   UNL     1      -9.289   7.362  68.906  1.00  0.00    -0.145 C  
HETATM   24  O   UNL     1     -10.197   6.535  68.808  1.00  0.00    -0.153 OA 
HETATM   25  C   UNL     1      -8.637  10.930  67.905  1.00  0.00    -0.130 C  
BRANCH  23  26
HETATM   26  C   UNL     1      -8.136   7.083  69.748  1.00  0.00    -0.126 A  
HETATM   27  C   UNL     1      -7.178   6.089  69.627  1.00  0.00    -0.074 A  
HETATM   28  C   UNL     1      -6.292   6.230  70.720  1.00  0.00    -0.040 A  
HETATM   29  C   UNL     1      -6.777   7.275  71.469  1.00  0.00    -0.051 A  
HETATM   30  O   UNL     1      -7.905   7.779  70.906  1.00  0.00    -0.086 OA 
ENDBRANCH  23  26
ENDBRANCH  13  18
ENDBRANCH   2   3
TORSDOF 4
ENDMDL
MODEL       67
REMARK 921   NORMALIZED FREE ENERGY PREDICTED BY IDOCK:   -5.17 KCAL/MOL
REMARK 922        TOTAL FREE ENERGY PREDICTED BY IDOCK:   -6.94 KCAL/MOL
REMARK 923 INTER-LIGAND FREE ENERGY PREDICTED BY IDOCK:   -6.63 KCAL/MOL
REMARK 924 INTRA-LIGAND FREE ENERGY PREDICTED BY IDOCK:   -0.31 KCAL/MOL
REMARK 927      BINDING AFFINITY PREDICTED BY RF-SCORE:    0.00 PKD
ROOT
HETATM    1  C   UNL     1     -10.307  15.867  67.830  1.00  0.00    -0.278 C  
HETATM    2  O   UNL     1     -11.600  15.332  68.101  1.00  0.00    -0.337 OA 
ENDROOT
BRANCH   2   3
HETATM    3  C   UNL     1     -11.647  14.140  68.771  1.00  0.00    -0.327 A  
HETATM    4  C   UNL     1     -12.363  14.050  69.970  1.00  0.00    -0.337 A  
HETATM    5  C   UNL     1     -12.408  12.819  70.640  1.00  0.00    -0.381 A  
HETATM    6  C   UNL     1     -11.143  11.749  68.879  1.00  0.00    -0.243 A  
HETATM    7  C   UNL     1     -11.815  11.659  70.092  1.00  0.00    -0.428 A  
HETATM    8  C   UNL     1     -11.052  12.980  68.250  1.00  0.00    -0.293 A  
HETATM    9  C   UNL     1     -11.827  10.378  70.651  1.00  0.00    -0.350 A  
HETATM   10  N   UNL     1     -12.412  10.128  71.897  1.00  0.00    -0.348 NA 
HETATM   11  N   UNL     1     -11.262   9.314  70.059  1.00  0.00    -0.210 NA 
HETATM   12  H1  UNL     1     -12.420   9.194  72.305  1.00  0.00     0.000 HD 
HETATM   13  C   UNL     1     -10.669   9.495  68.871  1.00  0.00    -0.195 A  
HETATM   14  H2  UNL     1     -13.375  10.465  71.865  1.00  0.00     0.000 HD 
HETATM   15  N   UNL     1     -10.592  10.694  68.281  1.00  0.00    -0.180 NA 
BRANCH   4  16
HETATM   16  O   UNL     1     -13.061  15.027  70.628  1.00  0.00    -0.362 OA 
HETATM   17  C   UNL     1     -12.442  15.689  71.722  1.00  0.00    -0.438 C  
ENDBRANCH   4  16
BRANCH  13  18
HETATM   18  N   UNL     1     -10.059   8.425  68.229  1.00  0.00    -0.192 NA 
HETATM   19  C   UNL     1      -7.992   7.341  67.404  1.00  0.00    -0.112 C  
HETATM   20  C   UNL     1      -8.673   8.667  67.793  1.00  0.00    -0.137 C  
HETATM   21  N   UNL     1      -8.811   6.538  66.486  1.00  0.00    -0.133 N  
HETATM   22  C   UNL     1     -10.192   6.340  66.957  1.00  0.00    -0.201 C  
HETATM   23  C   UNL     1      -8.151   5.744  65.542  1.00  0.00    -0.128 C  
HETATM   24  O   UNL     1      -6.920   5.749  65.484  1.00  0.00    -0.064 OA 
HETATM   25  C   UNL     1     -10.877   7.684  67.263  1.00  0.00    -0.193 C  
BRANCH  23  26
HETATM   26  C   UNL     1      -8.920   4.908  64.633  1.00  0.00    -0.111 A  
HETATM   27  C   UNL     1      -9.741   3.828  64.913  1.00  0.00    -0.183 A  
HETATM   28  C   UNL     1     -10.226   3.343  63.677  1.00  0.00    -0.210 A  
HETATM   29  C   UNL     1      -9.646   4.127  62.708  1.00  0.00    -0.137 A  
HETATM   30  O   UNL     1      -8.834   5.057  63.274  1.00  0.00    -0.123 OA 
ENDBRANCH  23  26
ENDBRANCH  13  18
ENDBRANCH   2   3
TORSDOF 4
ENDMDL
MODEL       68
REMARK 921   NORMALIZED FREE ENERGY PREDICTED BY IDOCK:   -5.17 KCAL/MOL
REMARK 922        TOTAL FREE ENERGY PREDICTED BY IDOCK:   -6.94 KCAL/MOL
REMARK 923 INTER-LIGAND FREE ENERGY PREDICTED BY IDOCK:   -6.48 KCAL/MOL
REMARK 924 INTRA-LIGAND FREE ENERGY PREDICTED BY IDOCK:   -0.46 KCAL/MOL
REMARK 927      BINDING AFFINITY PREDICTED BY RF-SCORE:    0.00 PKD
ROOT
HETATM    1  C   UNL     1     -10.861  19.346  66.779  1.00  0.00    -0.388 C  
HETATM    2  O   UNL     1     -10.391  18.436  65.788  1.00  0.00    -0.588 OA 
ENDROOT
BRANCH   2   3
HETATM    3  C   UNL     1      -9.535  17.455  66.207  1.00  0.00    -0.226 A  
HETATM    4  C   UNL     1      -8.231  17.794  66.591  1.00  0.00    -0.259 A  
HETATM    5  C   UNL     1      -7.369  16.779  67.026  1.00  0.00    -0.238 A  
HETATM    6  C   UNL     1      -9.120  15.123  66.817  1.00  0.00    -0.256 A  
HETATM    7  C   UNL     1      -7.810  15.443  67.159  1.00  0.00    -0.249 A  
HETATM    8  C   UNL     1      -9.951  16.120  66.333  1.00  0.00    -0.315 A  
HETATM    9  C   UNL     1      -7.053  14.359  67.614  1.00  0.00    -0.183 A  
HETATM   10  N   UNL     1      -5.700  14.500  67.945  1.00  0.00    -0.228 NA 
HETATM   11  N   UNL     1      -7.548  13.118  67.739  1.00  0.00    -0.139 NA 
HETATM   12  H1  UNL     1      -5.148  13.709  68.277  1.00  0.00     0.000 HD 
HETATM   13  C   UNL     1      -8.835  12.918  67.420  1.00  0.00    -0.199 A  
HETATM   14  H2  UNL     1      -5.622  15.248  68.634  1.00  0.00     0.000 HD 
HETATM   15  N   UNL     1      -9.619  13.896  66.951  1.00  0.00    -0.259 NA 
BRANCH   4  16
HETATM   16  O   UNL     1      -7.635  19.026  66.604  1.00  0.00    -0.227 OA 
HETATM   17  C   UNL     1      -7.382  19.648  67.856  1.00  0.00    -0.280 C  
ENDBRANCH   4  16
BRANCH  13  18
HETATM   18  N   UNL     1      -9.385  11.647  67.519  1.00  0.00    -0.166 NA 
HETATM   19  C   UNL     1     -10.474   9.906  68.902  1.00  0.00    -0.211 C  
HETATM   20  C   UNL     1      -9.570  11.153  68.895  1.00  0.00    -0.142 C  
HETATM   21  N   UNL     1     -10.047   8.898  67.922  1.00  0.00    -0.194 N  
HETATM   22  C   UNL     1      -9.858   9.444  66.568  1.00  0.00    -0.258 C  
HETATM   23  C   UNL     1     -10.253   7.550  68.235  1.00  0.00    -0.186 C  
HETATM   24  O   UNL     1     -10.758   7.238  69.315  1.00  0.00    -0.222 OA 
HETATM   25  C   UNL     1      -8.889  10.639  66.575  1.00  0.00    -0.151 C  
BRANCH  23  26
HETATM   26  C   UNL     1      -9.876   6.519  67.281  1.00  0.00    -0.140 A  
HETATM   27  C   UNL     1     -10.672   5.601  66.616  1.00  0.00    -0.339 A  
HETATM   28  C   UNL     1      -9.815   4.798  65.830  1.00  0.00    -0.214 A  
HETATM   29  C   UNL     1      -8.539   5.243  66.086  1.00  0.00    -0.120 A  
HETATM   30  O   UNL     1      -8.563   6.263  66.981  1.00  0.00    -0.105 OA 
ENDBRANCH  23  26
ENDBRANCH  13  18
ENDBRANCH   2   3
TORSDOF 4
ENDMDL
MODEL       69
REMARK 921   NORMALIZED FREE ENERGY PREDICTED BY IDOCK:   -5.16 KCAL/MOL
REMARK 922        TOTAL FREE ENERGY PREDICTED BY IDOCK:   -6.93 KCAL/MOL
REMARK 923 INTER-LIGAND FREE ENERGY PREDICTED BY IDOCK:   -6.39 KCAL/MOL
REMARK 924 INTRA-LIGAND FREE ENERGY PREDICTED BY IDOCK:   -0.54 KCAL/MOL
REMARK 927      BINDING AFFINITY PREDICTED BY RF-SCORE:    0.00 PKD
ROOT
HETATM    1  C   UNL     1      -7.679   8.064  63.818  1.00  0.00    -0.135 C  
HETATM    2  O   UNL     1      -8.447   7.305  64.750  1.00  0.00    -0.036 OA 
ENDROOT
BRANCH   2   3
HETATM    3  C   UNL     1      -9.091   8.006  65.733  1.00  0.00    -0.055 A  
HETATM    4  C   UNL     1      -9.649   7.317  66.817  1.00  0.00    -0.185 A  
HETATM    5  C   UNL     1     -10.299   8.049  67.821  1.00  0.00    -0.294 A  
HETATM    6  C   UNL     1      -9.735  10.138  66.741  1.00  0.00    -0.187 A  
HETATM    7  C   UNL     1     -10.331   9.462  67.800  1.00  0.00    -0.291 A  
HETATM    8  C   UNL     1      -9.145   9.408  65.723  1.00  0.00    -0.249 A  
HETATM    9  C   UNL     1     -10.915  10.293  68.759  1.00  0.00    -0.243 A  
HETATM   10  N   UNL     1     -11.606   9.770  69.858  1.00  0.00    -0.424 NA 
HETATM   11  N   UNL     1     -10.885  11.633  68.686  1.00  0.00    -0.202 NA 
HETATM   12  H1  UNL     1     -12.032  10.377  70.558  1.00  0.00     0.000 HD 
HETATM   13  C   UNL     1     -10.253  12.193  67.645  1.00  0.00    -0.197 A  
HETATM   14  H2  UNL     1     -10.982   9.124  70.342  1.00  0.00     0.000 HD 
HETATM   15  N   UNL     1      -9.691  11.467  66.671  1.00  0.00    -0.195 NA 
BRANCH   4  16
HETATM   16  O   UNL     1      -9.665   5.970  67.061  1.00  0.00    -0.125 OA 
HETATM   17  C   UNL     1     -10.678   5.179  66.457  1.00  0.00    -0.193 C  
ENDBRANCH   4  16
BRANCH  13  18
HETATM   18  N   UNL     1     -10.209  13.575  67.521  1.00  0.00    -0.232 NA 
HETATM   19  C   UNL     1     -10.465  15.590  66.106  1.00  0.00    -0.313 C  
HETATM   20  C   UNL     1     -10.180  14.077  66.136  1.00  0.00    -0.302 C  
HETATM   21  N   UNL     1      -9.640  16.337  67.065  1.00  0.00    -0.227 N  
HETATM   22  C   UNL     1      -9.689  15.786  68.430  1.00  0.00    -0.203 C  
HETATM   23  C   UNL     1      -9.255  17.638  66.726  1.00  0.00    -0.271 C  
HETATM   24  O   UNL     1      -9.588  18.117  65.641  1.00  0.00    -0.419 OA 
HETATM   25  C   UNL     1      -9.322  14.291  68.444  1.00  0.00    -0.208 C  
BRANCH  23  26
HETATM   26  C   UNL     1      -8.464  18.426  67.658  1.00  0.00    -0.255 A  
HETATM   27  C   UNL     1      -8.739  19.662  68.220  1.00  0.00    -0.361 A  
HETATM   28  C   UNL     1      -7.634  20.006  69.032  1.00  0.00    -0.078 A  
HETATM   29  C   UNL     1      -6.729  18.981  68.893  1.00  0.00    -0.291 A  
HETATM   30  O   UNL     1      -7.208  18.036  68.045  1.00  0.00    -0.218 OA 
ENDBRANCH  23  26
ENDBRANCH  13  18
ENDBRANCH   2   3
TORSDOF 4
ENDMDL
MODEL       70
REMARK 921   NORMALIZED FREE ENERGY PREDICTED BY IDOCK:   -5.15 KCAL/MOL
REMARK 922        TOTAL FREE ENERGY PREDICTED BY IDOCK:   -6.92 KCAL/MOL
REMARK 923 INTER-LIGAND FREE ENERGY PREDICTED BY IDOCK:   -6.38 KCAL/MOL
REMARK 924 INTRA-LIGAND FREE ENERGY PREDICTED BY IDOCK:   -0.53 KCAL/MOL
REMARK 927      BINDING AFFINITY PREDICTED BY RF-SCORE:    0.00 PKD
ROOT
HETATM    1  C   UNL     1     -11.413  15.727  68.431  1.00  0.00    -0.365 C  
HETATM    2  O   UNL     1     -12.383  14.699  68.249  1.00  0.00    -0.132 OA 
ENDROOT
BRANCH   2   3
HETATM    3  C   UNL     1     -11.916  13.468  67.877  1.00  0.00    -0.337 A  
HETATM    4  C   UNL     1     -11.668  13.204  66.524  1.00  0.00    -0.382 A  
HETATM    5  C   UNL     1     -11.182  11.941  66.160  1.00  0.00    -0.387 A  
HETATM    6  C   UNL     1     -11.074  11.252  68.475  1.00  0.00    -0.235 A  
HETATM    7  C   UNL     1     -10.865  10.965  67.131  1.00  0.00    -0.337 A  
HETATM    8  C   UNL     1     -11.609  12.481  68.826  1.00  0.00    -0.366 A  
HETATM    9  C   UNL     1     -10.344   9.691  66.888  1.00  0.00    -0.238 A  
HETATM   10  N   UNL     1     -10.129   9.224  65.586  1.00  0.00    -0.359 NA 
HETATM   11  N   UNL     1     -10.043   8.822  67.866  1.00  0.00    -0.195 NA 
HETATM   12  H1  UNL     1      -9.749   8.294  65.409  1.00  0.00     0.000 HD 
HETATM   13  C   UNL     1     -10.244   9.206  69.134  1.00  0.00    -0.207 A  
HETATM   14  H2  UNL     1      -9.539   9.901  65.104  1.00  0.00     0.000 HD 
HETATM   15  N   UNL     1     -10.765  10.398  69.450  1.00  0.00    -0.227 NA 
BRANCH   4  16
HETATM   16  O   UNL     1     -11.839  14.029  65.445  1.00  0.00    -0.333 OA 
HETATM   17  C   UNL     1     -12.268  13.463  64.215  1.00  0.00    -0.392 C  
ENDBRANCH   4  16
BRANCH  13  18
HETATM   18  N   UNL     1      -9.960   8.334  70.177  1.00  0.00    -0.185 NA 
HETATM   19  C   UNL     1      -8.300   7.332  71.715  1.00  0.00    -0.104 C  
HETATM   20  C   UNL     1      -8.532   8.023  70.358  1.00  0.00    -0.130 C  
HETATM   21  N   UNL     1      -9.223   6.211  71.940  1.00  0.00    -0.147 N  
HETATM   22  C   UNL     1     -10.636   6.568  71.728  1.00  0.00    -0.215 C  
HETATM   23  C   UNL     1      -8.762   5.119  72.683  1.00  0.00    -0.123 C  
HETATM   24  O   UNL     1      -7.605   5.107  73.108  1.00  0.00    -0.093 OA 
HETATM   25  C   UNL     1     -10.856   7.183  70.335  1.00  0.00    -0.246 C  
BRANCH  23  26
HETATM   26  C   UNL     1      -9.651   4.001  72.957  1.00  0.00    -0.126 A  
HETATM   27  C   UNL     1     -10.063   2.979  72.118  1.00  0.00    -0.202 A  
HETATM   28  C   UNL     1     -10.953   2.166  72.857  1.00  0.00    -0.153 A  
HETATM   29  C   UNL     1     -11.066   2.757  74.093  1.00  0.00    -0.009 A  
HETATM   30  O   UNL     1     -10.306   3.880  74.154  1.00  0.00    -0.158 OA 
ENDBRANCH  23  26
ENDBRANCH  13  18
ENDBRANCH   2   3
TORSDOF 4
ENDMDL
MODEL       71
REMARK 921   NORMALIZED FREE ENERGY PREDICTED BY IDOCK:   -5.14 KCAL/MOL
REMARK 922        TOTAL FREE ENERGY PREDICTED BY IDOCK:   -6.90 KCAL/MOL
REMARK 923 INTER-LIGAND FREE ENERGY PREDICTED BY IDOCK:   -6.74 KCAL/MOL
REMARK 924 INTRA-LIGAND FREE ENERGY PREDICTED BY IDOCK:   -0.16 KCAL/MOL
REMARK 927      BINDING AFFINITY PREDICTED BY RF-SCORE:    0.00 PKD
ROOT
HETATM    1  C   UNL     1     -11.061  16.421  69.042  1.00  0.00    -0.315 C  
HETATM    2  O   UNL     1     -11.962  15.643  68.258  1.00  0.00    -0.246 OA 
ENDROOT
BRANCH   2   3
HETATM    3  C   UNL     1     -11.486  14.458  67.766  1.00  0.00    -0.336 A  
HETATM    4  C   UNL     1     -10.819  14.441  66.535  1.00  0.00    -0.310 A  
HETATM    5  C   UNL     1     -10.330  13.221  66.048  1.00  0.00    -0.290 A  
HETATM    6  C   UNL     1     -11.054  12.068  68.047  1.00  0.00    -0.241 A  
HETATM    7  C   UNL     1     -10.428  12.032  66.806  1.00  0.00    -0.243 A  
HETATM    8  C   UNL     1     -11.587  13.265  68.497  1.00  0.00    -0.368 A  
HETATM    9  C   UNL     1      -9.948  10.772  66.439  1.00  0.00    -0.216 A  
HETATM   10  N   UNL     1      -9.343  10.552  65.196  1.00  0.00    -0.198 NA 
HETATM   11  N   UNL     1     -10.055   9.688  67.224  1.00  0.00    -0.197 NA 
HETATM   12  H1  UNL     1      -8.993   9.633  64.929  1.00  0.00     0.000 HD 
HETATM   13  C   UNL     1     -10.642   9.833  68.420  1.00  0.00    -0.226 A  
HETATM   14  H2  UNL     1      -8.578  11.220  65.098  1.00  0.00     0.000 HD 
HETATM   15  N   UNL     1     -11.151  10.999  68.835  1.00  0.00    -0.218 NA 
BRANCH   4  16
HETATM   16  O   UNL     1     -10.558  15.483  65.686  1.00  0.00    -0.327 OA 
HETATM   17  C   UNL     1     -11.394  15.666  64.553  1.00  0.00    -0.320 C  
ENDBRANCH   4  16
BRANCH  13  18
HETATM   18  N   UNL     1     -10.787   8.735  69.259  1.00  0.00    -0.140 NA 
HETATM   19  C   UNL     1     -10.931   7.821  71.555  1.00  0.00    -0.233 C  
HETATM   20  C   UNL     1     -10.427   8.975  70.667  1.00  0.00    -0.230 C  
HETATM   21  N   UNL     1     -10.561   6.502  71.025  1.00  0.00    -0.225 N  
HETATM   22  C   UNL     1     -10.926   6.319  69.610  1.00  0.00    -0.374 C  
HETATM   23  C   UNL     1     -10.308   5.474  71.940  1.00  0.00    -0.216 C  
HETATM   24  O   UNL     1     -10.375   5.695  73.150  1.00  0.00    -0.181 OA 
HETATM   25  C   UNL     1     -10.344   7.440  68.731  1.00  0.00    -0.199 C  
BRANCH  23  26
HETATM   26  C   UNL     1      -9.969   4.144  71.459  1.00  0.00    -0.160 A  
HETATM   27  C   UNL     1     -10.008   2.931  72.128  1.00  0.00    -0.235 A  
HETATM   28  C   UNL     1      -9.548   1.943  71.226  1.00  0.00    -0.213 A  
HETATM   29  C   UNL     1      -9.218   2.610  70.071  1.00  0.00    -0.132 A  
HETATM   30  O   UNL     1      -9.443   3.942  70.210  1.00  0.00    -0.152 OA 
ENDBRANCH  23  26
ENDBRANCH  13  18
ENDBRANCH   2   3
TORSDOF 4
ENDMDL
MODEL       72
REMARK 921   NORMALIZED FREE ENERGY PREDICTED BY IDOCK:   -5.13 KCAL/MOL
REMARK 922        TOTAL FREE ENERGY PREDICTED BY IDOCK:   -6.89 KCAL/MOL
REMARK 923 INTER-LIGAND FREE ENERGY PREDICTED BY IDOCK:   -6.53 KCAL/MOL
REMARK 924 INTRA-LIGAND FREE ENERGY PREDICTED BY IDOCK:   -0.36 KCAL/MOL
REMARK 927      BINDING AFFINITY PREDICTED BY RF-SCORE:    0.00 PKD
ROOT
HETATM    1  C   UNL     1      -6.851   8.443  68.955  1.00  0.00    -0.056 C  
HETATM    2  O   UNL     1      -7.856   8.068  68.016  1.00  0.00    -0.121 OA 
ENDROOT
BRANCH   2   3
HETATM    3  C   UNL     1      -8.646   9.070  67.525  1.00  0.00    -0.120 A  
HETATM    4  C   UNL     1      -9.838   8.748  66.864  1.00  0.00    -0.229 A  
HETATM    5  C   UNL     1     -10.641   9.787  66.374  1.00  0.00    -0.117 A  
HETATM    6  C   UNL     1      -9.151  11.452  67.298  1.00  0.00    -0.162 A  
HETATM    7  C   UNL     1     -10.314  11.143  66.602  1.00  0.00    -0.286 A  
HETATM    8  C   UNL     1      -8.331  10.422  67.729  1.00  0.00    -0.114 A  
HETATM    9  C   UNL     1     -11.054  12.256  66.193  1.00  0.00    -0.311 A  
HETATM   10  N   UNL     1     -12.222  12.119  65.433  1.00  0.00    -0.495 NA 
HETATM   11  N   UNL     1     -10.693  13.519  66.468  1.00  0.00    -0.285 NA 
HETATM   12  H1  UNL     1     -12.761  12.931  65.135  1.00  0.00     0.000 HD 
HETATM   13  C   UNL     1      -9.573  13.714  67.178  1.00  0.00    -0.241 A  
HETATM   14  H2  UNL     1     -12.850  11.491  65.934  1.00  0.00     0.000 HD 
HETATM   15  N   UNL     1      -8.795  12.703  67.584  1.00  0.00    -0.174 NA 
BRANCH   4  16
HETATM   16  O   UNL     1     -10.368   7.513  66.605  1.00  0.00    -0.264 OA 
HETATM   17  C   UNL     1     -10.878   6.748  67.687  1.00  0.00    -0.289 C  
ENDBRANCH   4  16
BRANCH  13  18
HETATM   18  N   UNL     1      -9.154  15.004  67.473  1.00  0.00    -0.181 NA 
HETATM   19  C   UNL     1      -8.488  17.254  66.684  1.00  0.00    -0.260 C  
HETATM   20  C   UNL     1      -8.608  15.759  66.332  1.00  0.00    -0.311 C  
HETATM   21  N   UNL     1      -7.810  17.476  67.969  1.00  0.00    -0.218 N  
HETATM   22  C   UNL     1      -8.381  16.685  69.073  1.00  0.00    -0.182 C  
HETATM   23  C   UNL     1      -7.033  18.630  68.111  1.00  0.00    -0.243 C  
HETATM   24  O   UNL     1      -6.915  19.414  67.167  1.00  0.00    -0.199 OA 
HETATM   25  C   UNL     1      -8.417  15.186  68.729  1.00  0.00    -0.180 C  
BRANCH  23  26
HETATM   26  C   UNL     1      -6.370  18.907  69.375  1.00  0.00    -0.275 A  
HETATM   27  C   UNL     1      -6.263  20.101  70.070  1.00  0.00    -0.384 A  
HETATM   28  C   UNL     1      -5.489  19.842  71.225  1.00  0.00    -0.351 A  
HETATM   29  C   UNL     1      -5.135  18.516  71.154  1.00  0.00    -0.265 A  
HETATM   30  O   UNL     1      -5.638  17.949  70.028  1.00  0.00    -0.220 OA 
ENDBRANCH  23  26
ENDBRANCH  13  18
ENDBRANCH   2   3
TORSDOF 4
ENDMDL
MODEL       73
REMARK 921   NORMALIZED FREE ENERGY PREDICTED BY IDOCK:   -5.07 KCAL/MOL
REMARK 922        TOTAL FREE ENERGY PREDICTED BY IDOCK:   -6.81 KCAL/MOL
REMARK 923 INTER-LIGAND FREE ENERGY PREDICTED BY IDOCK:   -7.41 KCAL/MOL
REMARK 924 INTRA-LIGAND FREE ENERGY PREDICTED BY IDOCK:    0.59 KCAL/MOL
REMARK 927      BINDING AFFINITY PREDICTED BY RF-SCORE:    0.00 PKD
ROOT
HETATM    1  C   UNL     1     -11.089   9.454  68.808  1.00  0.00     0.051 C  
HETATM    2  O   UNL     1     -11.833   9.597  70.016  1.00  0.00    -0.116 OA 
ENDROOT
BRANCH   2   3
HETATM    3  C   UNL     1     -12.146  10.872  70.401  1.00  0.00    -0.363 A  
HETATM    4  C   UNL     1     -13.008  11.074  71.485  1.00  0.00    -0.448 A  
HETATM    5  C   UNL     1     -13.312  12.386  71.872  1.00  0.00    -0.450 A  
HETATM    6  C   UNL     1     -11.818  13.287  70.197  1.00  0.00    -0.263 A  
HETATM    7  C   UNL     1     -12.707  13.499  71.244  1.00  0.00    -0.432 A  
HETATM    8  C   UNL     1     -11.567  11.990  69.780  1.00  0.00    -0.348 A  
HETATM    9  C   UNL     1     -12.906  14.844  71.568  1.00  0.00    -0.335 A  
HETATM   10  N   UNL     1     -13.813  15.232  72.561  1.00  0.00    -0.511 NA 
HETATM   11  N   UNL     1     -12.276  15.851  70.942  1.00  0.00    -0.399 NA 
HETATM   12  H1  UNL     1     -13.958  16.213  72.797  1.00  0.00     0.000 HD 
HETATM   13  C   UNL     1     -11.408  15.542  69.968  1.00  0.00    -0.321 A  
HETATM   14  H2  UNL     1     -13.569  14.736  73.418  1.00  0.00     0.000 HD 
HETATM   15  N   UNL     1     -11.181  14.281  69.581  1.00  0.00    -0.237 NA 
BRANCH   4  16
HETATM   16  O   UNL     1     -13.636  10.142  72.266  1.00  0.00    -0.355 OA 
HETATM   17  C   UNL     1     -13.069   8.843  72.369  1.00  0.00    -0.418 C  
ENDBRANCH   4  16
BRANCH  13  18
HETATM   18  N   UNL     1     -10.745  16.552  69.284  1.00  0.00    -0.316 NA 
HETATM   19  C   UNL     1     -10.833  18.483  67.737  1.00  0.00    -0.247 C  
HETATM   20  C   UNL     1     -11.517  17.182  68.199  1.00  0.00     0.396 C  
HETATM   21  N   UNL     1      -9.401  18.298  67.467  1.00  0.00    -0.260 N  
HETATM   22  C   UNL     1      -8.677  17.649  68.573  1.00  0.00    -0.285 C  
HETATM   23  C   UNL     1      -8.819  19.071  66.456  1.00  0.00    -0.327 C  
HETATM   24  O   UNL     1      -9.509  19.859  65.808  1.00  0.00    -0.336 OA 
HETATM   25  C   UNL     1      -9.333  16.313  68.963  1.00  0.00    -0.254 C  
BRANCH  23  26
HETATM   26  C   UNL     1      -7.398  18.945  66.175  1.00  0.00    -0.266 A  
HETATM   27  C   UNL     1      -6.729  19.028  64.964  1.00  0.00    -0.026 A  
HETATM   28  C   UNL     1      -5.359  18.800  65.228  1.00  0.00    -0.219 A  
HETATM   29  C   UNL     1      -5.270  18.552  66.577  1.00  0.00    -0.139 A  
HETATM   30  O   UNL     1      -6.498  18.610  67.153  1.00  0.00    -0.185 OA 
ENDBRANCH  23  26
ENDBRANCH  13  18
ENDBRANCH   2   3
TORSDOF 4
ENDMDL
MODEL       74
REMARK 921   NORMALIZED FREE ENERGY PREDICTED BY IDOCK:   -5.05 KCAL/MOL
REMARK 922        TOTAL FREE ENERGY PREDICTED BY IDOCK:   -6.79 KCAL/MOL
REMARK 923 INTER-LIGAND FREE ENERGY PREDICTED BY IDOCK:   -6.25 KCAL/MOL
REMARK 924 INTRA-LIGAND FREE ENERGY PREDICTED BY IDOCK:   -0.54 KCAL/MOL
REMARK 927      BINDING AFFINITY PREDICTED BY RF-SCORE:    0.00 PKD
ROOT
HETATM    1  C   UNL     1      -9.085   5.148  72.941  1.00  0.00    -0.122 C  
HETATM    2  O   UNL     1      -9.677   4.296  71.963  1.00  0.00    -0.148 OA 
ENDROOT
BRANCH   2   3
HETATM    3  C   UNL     1      -9.711   4.764  70.678  1.00  0.00    -0.200 A  
HETATM    4  C   UNL     1      -9.513   3.874  69.615  1.00  0.00    -0.193 A  
HETATM    5  C   UNL     1      -9.559   4.367  68.303  1.00  0.00    -0.199 A  
HETATM    6  C   UNL     1     -10.115   6.583  69.095  1.00  0.00    -0.168 A  
HETATM    7  C   UNL     1      -9.877   5.717  68.034  1.00  0.00    -0.155 A  
HETATM    8  C   UNL     1     -10.011   6.104  70.391  1.00  0.00    -0.223 A  
HETATM    9  C   UNL     1      -9.986   6.309  66.772  1.00  0.00    -0.170 A  
HETATM   10  N   UNL     1      -9.721   5.589  65.601  1.00  0.00    -0.366 NA 
HETATM   11  N   UNL     1     -10.318   7.596  66.590  1.00  0.00    -0.246 NA 
HETATM   12  H1  UNL     1      -9.801   6.021  64.681  1.00  0.00     0.000 HD 
HETATM   13  C   UNL     1     -10.565   8.342  67.676  1.00  0.00    -0.195 A  
HETATM   14  H2  UNL     1     -10.307   4.754  65.607  1.00  0.00     0.000 HD 
HETATM   15  N   UNL     1     -10.457   7.859  68.920  1.00  0.00    -0.211 NA 
BRANCH   4  16
HETATM   16  O   UNL     1      -9.265   2.529  69.657  1.00  0.00    -0.111 OA 
HETATM   17  C   UNL     1      -9.110   1.824  68.434  1.00  0.00    -0.153 C  
ENDBRANCH   4  16
BRANCH  13  18
HETATM   18  N   UNL     1     -10.898   9.683  67.537  1.00  0.00    -0.260 NA 
HETATM   19  C   UNL     1     -11.189  11.658  66.073  1.00  0.00    -0.240 C  
HETATM   20  C   UNL     1     -10.494  10.296  66.259  1.00  0.00    -0.144 C  
HETATM   21  N   UNL     1     -11.060  12.521  67.255  1.00  0.00    -0.261 N  
HETATM   22  C   UNL     1     -11.457  11.857  68.508  1.00  0.00    -0.295 C  
HETATM   23  C   UNL     1     -10.987  13.904  67.054  1.00  0.00    -0.295 C  
HETATM   24  O   UNL     1     -11.008  14.362  65.910  1.00  0.00    -0.301 OA 
HETATM   25  C   UNL     1     -10.691  10.538  68.711  1.00  0.00    -0.216 C  
BRANCH  23  26
HETATM   26  C   UNL     1     -10.890  14.798  68.196  1.00  0.00    -0.254 A  
HETATM   27  C   UNL     1     -11.899  15.390  68.939  1.00  0.00    -0.350 A  
HETATM   28  C   UNL     1     -11.276  16.197  69.919  1.00  0.00    -0.349 A  
HETATM   29  C   UNL     1      -9.924  16.085  69.698  1.00  0.00    -0.226 A  
HETATM   30  O   UNL     1      -9.681  15.265  68.643  1.00  0.00    -0.199 OA 
ENDBRANCH  23  26
ENDBRANCH  13  18
ENDBRANCH   2   3
TORSDOF 4
ENDMDL
MODEL       75
REMARK 921   NORMALIZED FREE ENERGY PREDICTED BY IDOCK:   -5.04 KCAL/MOL
REMARK 922        TOTAL FREE ENERGY PREDICTED BY IDOCK:   -6.78 KCAL/MOL
REMARK 923 INTER-LIGAND FREE ENERGY PREDICTED BY IDOCK:   -6.21 KCAL/MOL
REMARK 924 INTRA-LIGAND FREE ENERGY PREDICTED BY IDOCK:   -0.57 KCAL/MOL
REMARK 927      BINDING AFFINITY PREDICTED BY RF-SCORE:    0.00 PKD
ROOT
HETATM    1  C   UNL     1      -6.662   6.665  69.194  1.00  0.00    -0.052 C  
HETATM    2  O   UNL     1      -7.629   6.292  68.216  1.00  0.00    -0.095 OA 
ENDROOT
BRANCH   2   3
HETATM    3  C   UNL     1      -8.073   7.279  67.379  1.00  0.00    -0.113 A  
HETATM    4  C   UNL     1      -8.519   6.945  66.094  1.00  0.00    -0.136 A  
HETATM    5  C   UNL     1      -8.978   7.967  65.251  1.00  0.00     0.086 A  
HETATM    6  C   UNL     1      -8.669   9.618  66.991  1.00  0.00    -0.128 A  
HETATM    7  C   UNL     1      -9.073   9.304  65.698  1.00  0.00    -0.268 A  
HETATM    8  C   UNL     1      -8.161   8.615  67.799  1.00  0.00    -0.118 A  
HETATM    9  C   UNL     1      -9.547  10.394  64.962  1.00  0.00    -0.280 A  
HETATM   10  N   UNL     1      -9.939  10.259  63.625  1.00  0.00    -0.486 NA 
HETATM   11  N   UNL     1      -9.632  11.637  65.462  1.00  0.00    -0.227 NA 
HETATM   12  H1  UNL     1     -10.285  11.054  63.088  1.00  0.00     0.000 HD 
HETATM   13  C   UNL     1      -9.253  11.832  66.732  1.00  0.00    -0.194 A  
HETATM   14  H2  UNL     1     -10.641   9.520  63.578  1.00  0.00     0.000 HD 
HETATM   15  N   UNL     1      -8.763  10.847  67.496  1.00  0.00    -0.129 NA 
BRANCH   4  16
HETATM   16  O   UNL     1      -8.576   5.714  65.499  1.00  0.00    -0.144 OA 
HETATM   17  C   UNL     1      -7.451   5.259  64.762  1.00  0.00    -0.069 C  
ENDBRANCH   4  16
BRANCH  13  18
HETATM   18  N   UNL     1      -9.310  13.104  67.286  1.00  0.00    -0.216 NA 
HETATM   19  C   UNL     1     -10.069  14.594  69.112  1.00  0.00    -0.172 C  
HETATM   20  C   UNL     1     -10.312  13.275  68.353  1.00  0.00    -0.251 C  
HETATM   21  N   UNL     1      -9.908  15.741  68.208  1.00  0.00    -0.211 N  
HETATM   22  C   UNL     1      -8.910  15.513  67.149  1.00  0.00    -0.212 C  
HETATM   23  C   UNL     1     -10.360  16.990  68.646  1.00  0.00    -0.351 C  
HETATM   24  O   UNL     1     -10.896  17.100  69.750  1.00  0.00    -0.128 OA 
HETATM   25  C   UNL     1      -9.219  14.233  66.354  1.00  0.00    -0.199 C  
BRANCH  23  26
HETATM   26  C   UNL     1     -10.192  18.160  67.797  1.00  0.00    -0.383 A  
HETATM   27  C   UNL     1      -9.457  19.312  68.022  1.00  0.00    -0.400 A  
HETATM   28  C   UNL     1      -9.652  20.156  66.904  1.00  0.00    -0.564 A  
HETATM   29  C   UNL     1     -10.524  19.491  66.076  1.00  0.00    -0.516 A  
HETATM   30  O   UNL     1     -10.878  18.297  66.618  1.00  0.00    -0.251 OA 
ENDBRANCH  23  26
ENDBRANCH  13  18
ENDBRANCH   2   3
TORSDOF 4
ENDMDL
MODEL       76
REMARK 921   NORMALIZED FREE ENERGY PREDICTED BY IDOCK:   -5.03 KCAL/MOL
REMARK 922        TOTAL FREE ENERGY PREDICTED BY IDOCK:   -6.76 KCAL/MOL
REMARK 923 INTER-LIGAND FREE ENERGY PREDICTED BY IDOCK:   -6.18 KCAL/MOL
REMARK 924 INTRA-LIGAND FREE ENERGY PREDICTED BY IDOCK:   -0.59 KCAL/MOL
REMARK 927      BINDING AFFINITY PREDICTED BY RF-SCORE:    0.00 PKD
ROOT
HETATM    1  C   UNL     1     -11.422  12.656  63.455  1.00  0.00    -0.491 C  
HETATM    2  O   UNL     1     -10.423  13.014  64.407  1.00  0.00    -0.378 OA 
ENDROOT
BRANCH   2   3
HETATM    3  C   UNL     1     -10.660  12.669  65.709  1.00  0.00    -0.272 A  
HETATM    4  C   UNL     1     -11.255  13.597  66.572  1.00  0.00    -0.310 A  
HETATM    5  C   UNL     1     -11.499  13.226  67.902  1.00  0.00    -0.341 A  
HETATM    6  C   UNL     1     -10.678  10.989  67.486  1.00  0.00    -0.244 A  
HETATM    7  C   UNL     1     -11.229  11.917  68.362  1.00  0.00    -0.312 A  
HETATM    8  C   UNL     1     -10.386  11.379  66.189  1.00  0.00    -0.294 A  
HETATM    9  C   UNL     1     -11.463  11.426  69.650  1.00  0.00    -0.309 A  
HETATM   10  N   UNL     1     -11.961  12.248  70.668  1.00  0.00    -0.503 NA 
HETATM   11  N   UNL     1     -11.204  10.160  70.011  1.00  0.00    -0.279 NA 
HETATM   12  H1  UNL     1     -12.131  11.890  71.607  1.00  0.00     0.000 HD 
HETATM   13  C   UNL     1     -10.709   9.329  69.083  1.00  0.00    -0.183 A  
HETATM   14  H2  UNL     1     -12.826  12.673  70.332  1.00  0.00     0.000 HD 
HETATM   15  N   UNL     1     -10.432   9.728  67.836  1.00  0.00    -0.224 NA 
BRANCH   4  16
HETATM   16  O   UNL     1     -11.655  14.880  66.308  1.00  0.00    -0.328 OA 
HETATM   17  C   UNL     1     -10.748  15.943  66.560  1.00  0.00    -0.258 C  
ENDBRANCH   4  16
BRANCH  13  18
HETATM   18  N   UNL     1     -10.412   8.014  69.416  1.00  0.00    -0.222 NA 
HETATM   19  C   UNL     1     -10.325   6.223  71.123  1.00  0.00    -0.209 C  
HETATM   20  C   UNL     1     -10.325   7.741  70.861  1.00  0.00    -0.200 C  
HETATM   21  N   UNL     1      -9.352   5.508  70.286  1.00  0.00    -0.151 N  
HETATM   22  C   UNL     1      -9.468   5.829  68.853  1.00  0.00    -0.124 C  
HETATM   23  C   UNL     1      -8.740   4.368  70.818  1.00  0.00    -0.092 C  
HETATM   24  O   UNL     1      -9.006   4.004  71.965  1.00  0.00    -0.113 OA 
HETATM   25  C   UNL     1      -9.385   7.346  68.610  1.00  0.00    -0.139 C  
BRANCH  23  26
HETATM   26  C   UNL     1      -7.793   3.611  70.014  1.00  0.00    -0.047 A  
HETATM   27  C   UNL     1      -6.414   3.721  69.942  1.00  0.00    -0.033 A  
HETATM   28  C   UNL     1      -5.971   2.780  68.985  1.00  0.00    -0.024 A  
HETATM   29  C   UNL     1      -7.103   2.174  68.497  1.00  0.00    -0.043 A  
HETATM   30  O   UNL     1      -8.211   2.688  69.091  1.00  0.00    -0.053 OA 
ENDBRANCH  23  26
ENDBRANCH  13  18
ENDBRANCH   2   3
TORSDOF 4
ENDMDL
MODEL       77
REMARK 921   NORMALIZED FREE ENERGY PREDICTED BY IDOCK:   -5.02 KCAL/MOL
REMARK 922        TOTAL FREE ENERGY PREDICTED BY IDOCK:   -6.76 KCAL/MOL
REMARK 923 INTER-LIGAND FREE ENERGY PREDICTED BY IDOCK:   -6.15 KCAL/MOL
REMARK 924 INTRA-LIGAND FREE ENERGY PREDICTED BY IDOCK:   -0.61 KCAL/MOL
REMARK 927      BINDING AFFINITY PREDICTED BY RF-SCORE:    0.00 PKD
ROOT
HETATM    1  C   UNL     1      -6.294   6.618  64.211  1.00  0.00    -0.038 C  
HETATM    2  O   UNL     1      -7.698   6.775  64.025  1.00  0.00    -0.102 OA 
ENDROOT
BRANCH   2   3
HETATM    3  C   UNL     1      -8.449   6.996  65.148  1.00  0.00    -0.014 A  
HETATM    4  C   UNL     1      -8.906   5.906  65.898  1.00  0.00    -0.149 A  
HETATM    5  C   UNL     1      -9.666   6.149  67.050  1.00  0.00    -0.167 A  
HETATM    6  C   UNL     1      -9.416   8.539  66.779  1.00  0.00    -0.194 A  
HETATM    7  C   UNL     1      -9.911   7.463  67.508  1.00  0.00    -0.225 A  
HETATM    8  C   UNL     1      -8.715   8.294  65.610  1.00  0.00    -0.188 A  
HETATM    9  C   UNL     1     -10.623   7.823  68.656  1.00  0.00    -0.120 A  
HETATM   10  N   UNL     1     -11.235   6.862  69.469  1.00  0.00    -0.467 NA 
HETATM   11  N   UNL     1     -10.795   9.096  69.044  1.00  0.00    -0.148 NA 
HETATM   12  H1  UNL     1     -11.754   7.125  70.306  1.00  0.00     0.000 HD 
HETATM   13  C   UNL     1     -10.247  10.063  68.295  1.00  0.00    -0.173 A  
HETATM   14  H2  UNL     1     -10.524   6.183  69.740  1.00  0.00     0.000 HD 
HETATM   15  N   UNL     1      -9.573   9.803  67.167  1.00  0.00    -0.164 NA 
BRANCH   4  16
HETATM   16  O   UNL     1      -8.719   4.569  65.669  1.00  0.00    -0.119 OA 
HETATM   17  C   UNL     1      -9.751   3.836  65.025  1.00  0.00    -0.183 C  
ENDBRANCH   4  16
BRANCH  13  18
HETATM   18  N   UNL     1     -10.412  11.395  68.650  1.00  0.00    -0.195 NA 
HETATM   19  C   UNL     1     -11.791  13.154  69.715  1.00  0.00    -0.316 C  
HETATM   20  C   UNL     1     -11.784  11.773  69.032  1.00  0.00    -0.328 C  
HETATM   21  N   UNL     1     -11.049  14.163  68.947  1.00  0.00    -0.254 N  
HETATM   22  C   UNL     1      -9.691  13.731  68.574  1.00  0.00    -0.193 C  
HETATM   23  C   UNL     1     -11.495  15.488  69.002  1.00  0.00    -0.352 C  
HETATM   24  O   UNL     1     -12.496  15.775  69.660  1.00  0.00    -0.233 OA 
HETATM   25  C   UNL     1      -9.718  12.388  67.824  1.00  0.00    -0.201 C  
BRANCH  23  26
HETATM   26  C   UNL     1     -10.773  16.526  68.283  1.00  0.00    -0.345 A  
HETATM   27  C   UNL     1     -10.076  17.617  68.778  1.00  0.00    -0.377 A  
HETATM   28  C   UNL     1      -9.587  18.338  67.665  1.00  0.00    -0.287 A  
HETATM   29  C   UNL     1     -10.042  17.672  66.552  1.00  0.00    -0.350 A  
HETATM   30  O   UNL     1     -10.782  16.593  66.914  1.00  0.00    -0.266 OA 
ENDBRANCH  23  26
ENDBRANCH  13  18
ENDBRANCH   2   3
TORSDOF 4
ENDMDL
MODEL       78
REMARK 921   NORMALIZED FREE ENERGY PREDICTED BY IDOCK:   -4.99 KCAL/MOL
REMARK 922        TOTAL FREE ENERGY PREDICTED BY IDOCK:   -6.72 KCAL/MOL
REMARK 923 INTER-LIGAND FREE ENERGY PREDICTED BY IDOCK:   -6.08 KCAL/MOL
REMARK 924 INTRA-LIGAND FREE ENERGY PREDICTED BY IDOCK:   -0.64 KCAL/MOL
REMARK 927      BINDING AFFINITY PREDICTED BY RF-SCORE:    0.00 PKD
ROOT
HETATM    1  C   UNL     1      -6.195   9.532  71.449  1.00  0.00    -0.007 C  
HETATM    2  O   UNL     1      -6.303   9.553  70.027  1.00  0.00    -0.045 OA 
ENDROOT
BRANCH   2   3
HETATM    3  C   UNL     1      -7.402  10.176  69.501  1.00  0.00    -0.123 A  
HETATM    4  C   UNL     1      -8.565   9.435  69.258  1.00  0.00    -0.143 A  
HETATM    5  C   UNL     1      -9.685  10.089  68.726  1.00  0.00    -0.174 A  
HETATM    6  C   UNL     1      -8.543  12.220  68.794  1.00  0.00     0.130 A  
HETATM    7  C   UNL     1      -9.688  11.485  68.508  1.00  0.00    -0.191 A  
HETATM    8  C   UNL     1      -7.420  11.559  69.264  1.00  0.00     0.033 A  
HETATM    9  C   UNL     1     -10.753  12.246  68.018  1.00  0.00    -0.218 A  
HETATM   10  N   UNL     1     -11.959  11.652  67.628  1.00  0.00    -0.625 NA 
HETATM   11  N   UNL     1     -10.693  13.577  67.859  1.00  0.00    -0.243 NA 
HETATM   12  H1  UNL     1     -12.736  12.207  67.270  1.00  0.00     0.000 HD 
HETATM   13  C   UNL     1      -9.556  14.202  68.199  1.00  0.00    -0.218 A  
HETATM   14  H2  UNL     1     -12.304  11.098  68.412  1.00  0.00     0.000 HD 
HETATM   15  N   UNL     1      -8.482  13.542  68.651  1.00  0.00    -0.079 NA 
BRANCH   4  16
HETATM   16  O   UNL     1      -8.790   8.100  69.465  1.00  0.00    -0.141 OA 
HETATM   17  C   UNL     1      -9.290   7.680  70.726  1.00  0.00    -0.162 C  
ENDBRANCH   4  16
BRANCH  13  18
HETATM   18  N   UNL     1      -9.444  15.576  68.038  1.00  0.00    -0.194 NA 
HETATM   19  C   UNL     1     -10.475  17.729  67.381  1.00  0.00    -0.364 C  
HETATM   20  C   UNL     1     -10.502  16.197  67.222  1.00  0.00    -0.309 C  
HETATM   21  N   UNL     1      -9.128  18.288  67.200  1.00  0.00    -0.260 N  
HETATM   22  C   UNL     1      -8.104  17.622  68.022  1.00  0.00    -0.243 C  
HETATM   23  C   UNL     1      -9.018  19.565  66.638  1.00  0.00    -0.351 C  
HETATM   24  O   UNL     1     -10.030  20.176  66.292  1.00  0.00    -0.448 OA 
HETATM   25  C   UNL     1      -8.098  16.102  67.786  1.00  0.00    -0.146 C  
BRANCH  23  26
HETATM   26  C   UNL     1      -7.707  20.171  66.469  1.00  0.00    -0.277 A  
HETATM   27  C   UNL     1      -6.786  20.005  65.447  1.00  0.00    -0.328 A  
HETATM   28  C   UNL     1      -5.656  20.790  65.773  1.00  0.00    -0.248 A  
HETATM   29  C   UNL     1      -5.932  21.363  66.991  1.00  0.00    -0.339 A  
HETATM   30  O   UNL     1      -7.156  20.974  67.433  1.00  0.00    -0.365 OA 
ENDBRANCH  23  26
ENDBRANCH  13  18
ENDBRANCH   2   3
TORSDOF 4
ENDMDL
MODEL       79
REMARK 921   NORMALIZED FREE ENERGY PREDICTED BY IDOCK:   -4.96 KCAL/MOL
REMARK 922        TOTAL FREE ENERGY PREDICTED BY IDOCK:   -6.68 KCAL/MOL
REMARK 923 INTER-LIGAND FREE ENERGY PREDICTED BY IDOCK:   -6.14 KCAL/MOL
REMARK 924 INTRA-LIGAND FREE ENERGY PREDICTED BY IDOCK:   -0.54 KCAL/MOL
REMARK 927      BINDING AFFINITY PREDICTED BY RF-SCORE:    0.00 PKD
ROOT
HETATM    1  C   UNL     1     -12.333  15.466  70.938  1.00  0.00    -0.398 C  
HETATM    2  O   UNL     1     -12.864  14.641  69.904  1.00  0.00    -0.186 OA 
ENDROOT
BRANCH   2   3
HETATM    3  C   UNL     1     -11.972  13.862  69.218  1.00  0.00    -0.357 A  
HETATM    4  C   UNL     1     -11.258  14.412  68.146  1.00  0.00    -0.281 A  
HETATM    5  C   UNL     1     -10.343  13.603  67.458  1.00  0.00    -0.241 A  
HETATM    6  C   UNL     1     -10.754  11.757  68.965  1.00  0.00    -0.169 A  
HETATM    7  C   UNL     1     -10.072  12.279  67.872  1.00  0.00    -0.200 A  
HETATM    8  C   UNL     1     -11.700  12.541  69.605  1.00  0.00    -0.372 A  
HETATM    9  C   UNL     1      -9.159  11.397  67.288  1.00  0.00    -0.162 A  
HETATM   10  N   UNL     1      -8.432  11.748  66.144  1.00  0.00    -0.385 NA 
HETATM   11  N   UNL     1      -8.934  10.158  67.752  1.00  0.00    -0.128 NA 
HETATM   12  H1  UNL     1      -7.766  11.104  65.718  1.00  0.00     0.000 HD 
HETATM   13  C   UNL     1      -9.615   9.759  68.836  1.00  0.00    -0.167 A  
HETATM   14  H2  UNL     1      -7.943  12.621  66.339  1.00  0.00     0.000 HD 
HETATM   15  N   UNL     1     -10.526  10.533  69.438  1.00  0.00    -0.230 NA 
BRANCH   4  16
HETATM   16  O   UNL     1     -11.320  15.680  67.635  1.00  0.00    -0.313 OA 
HETATM   17  C   UNL     1     -10.356  16.075  66.670  1.00  0.00    -0.298 C  
ENDBRANCH   4  16
BRANCH  13  18
HETATM   18  N   UNL     1      -9.426   8.480  69.342  1.00  0.00    -0.161 NA 
HETATM   19  C   UNL     1      -9.394   6.032  68.972  1.00  0.00    -0.124 C  
HETATM   20  C   UNL     1      -9.940   7.390  68.493  1.00  0.00    -0.165 C  
HETATM   21  N   UNL     1      -9.562   5.838  70.419  1.00  0.00    -0.165 N  
HETATM   22  C   UNL     1      -9.049   6.961  71.222  1.00  0.00    -0.149 C  
HETATM   23  C   UNL     1      -9.782   4.537  70.885  1.00  0.00    -0.193 C  
HETATM   24  O   UNL     1      -9.853   3.600  70.089  1.00  0.00    -0.170 OA 
HETATM   25  C   UNL     1      -9.670   8.297  70.777  1.00  0.00    -0.172 C  
BRANCH  23  26
HETATM   26  C   UNL     1      -9.922   4.293  72.312  1.00  0.00    -0.172 A  
HETATM   27  C   UNL     1     -10.962   4.629  73.164  1.00  0.00    -0.364 A  
HETATM   28  C   UNL     1     -10.594   4.198  74.460  1.00  0.00    -0.229 A  
HETATM   29  C   UNL     1      -9.336   3.658  74.336  1.00  0.00    -0.095 A  
HETATM   30  O   UNL     1      -8.910   3.735  73.049  1.00  0.00    -0.093 OA 
ENDBRANCH  23  26
ENDBRANCH  13  18
ENDBRANCH   2   3
TORSDOF 4
ENDMDL
MODEL       80
REMARK 921   NORMALIZED FREE ENERGY PREDICTED BY IDOCK:   -4.93 KCAL/MOL
REMARK 922        TOTAL FREE ENERGY PREDICTED BY IDOCK:   -6.65 KCAL/MOL
REMARK 923 INTER-LIGAND FREE ENERGY PREDICTED BY IDOCK:   -6.01 KCAL/MOL
REMARK 924 INTRA-LIGAND FREE ENERGY PREDICTED BY IDOCK:   -0.64 KCAL/MOL
REMARK 927      BINDING AFFINITY PREDICTED BY RF-SCORE:    0.00 PKD
ROOT
HETATM    1  C   UNL     1     -11.584  15.254  68.279  1.00  0.00    -0.341 C  
HETATM    2  O   UNL     1     -12.468  14.626  67.354  1.00  0.00    -0.058 OA 
ENDROOT
BRANCH   2   3
HETATM    3  C   UNL     1     -11.931  13.659  66.548  1.00  0.00    -0.424 A  
HETATM    4  C   UNL     1     -11.735  13.926  65.187  1.00  0.00    -0.350 A  
HETATM    5  C   UNL     1     -11.177  12.929  64.376  1.00  0.00    -0.389 A  
HETATM    6  C   UNL     1     -10.899  11.459  66.277  1.00  0.00    -0.263 A  
HETATM    7  C   UNL     1     -10.739  11.698  64.916  1.00  0.00    -0.352 A  
HETATM    8  C   UNL     1     -11.504  12.426  67.063  1.00  0.00    -0.423 A  
HETATM    9  C   UNL     1     -10.139  10.649  64.214  1.00  0.00    -0.343 A  
HETATM   10  N   UNL     1      -9.958  10.707  62.827  1.00  0.00    -0.716 NA 
HETATM   11  N   UNL     1      -9.725   9.515  64.799  1.00  0.00    -0.061 NA 
HETATM   12  H1  UNL     1      -9.520   9.942  62.314  1.00  0.00     0.000 HD 
HETATM   13  C   UNL     1      -9.888   9.394  66.124  1.00  0.00    -0.285 A  
HETATM   14  H2  UNL     1      -9.444  11.562  62.613  1.00  0.00     0.000 HD 
HETATM   15  N   UNL     1     -10.478  10.341  66.865  1.00  0.00    -0.237 NA 
BRANCH   4  16
HETATM   16  O   UNL     1     -12.021  15.068  64.488  1.00  0.00    -0.440 OA 
HETATM   17  C   UNL     1     -11.102  16.149  64.542  1.00  0.00    -0.221 C  
ENDBRANCH   4  16
BRANCH  13  18
HETATM   18  N   UNL     1      -9.488   8.232  66.770  1.00  0.00    -0.182 NA 
HETATM   19  C   UNL     1      -8.838   7.081  68.863  1.00  0.00    -0.130 C  
HETATM   20  C   UNL     1      -8.937   8.428  68.122  1.00  0.00    -0.139 C  
HETATM   21  N   UNL     1      -8.179   6.044  68.057  1.00  0.00    -0.112 N  
HETATM   22  C   UNL     1      -8.754   5.900  66.709  1.00  0.00    -0.117 C  
HETATM   23  C   UNL     1      -7.417   5.079  68.725  1.00  0.00    -0.069 C  
HETATM   24  O   UNL     1      -7.296   5.128  69.950  1.00  0.00    -0.057 OA 
HETATM   25  C   UNL     1      -8.768   7.243  65.959  1.00  0.00    -0.151 C  
BRANCH  23  26
HETATM   26  C   UNL     1      -6.773   4.015  67.971  1.00  0.00    -0.047 A  
HETATM   27  C   UNL     1      -7.125   2.680  67.858  1.00  0.00    -0.049 A  
HETATM   28  C   UNL     1      -6.154   2.062  67.036  1.00  0.00    -0.020 A  
HETATM   29  C   UNL     1      -5.242   3.042  66.724  1.00  0.00    -0.012 A  
HETATM   30  O   UNL     1      -5.592   4.218  67.306  1.00  0.00    -0.019 OA 
ENDBRANCH  23  26
ENDBRANCH  13  18
ENDBRANCH   2   3
TORSDOF 4
ENDMDL
MODEL       81
REMARK 921   NORMALIZED FREE ENERGY PREDICTED BY IDOCK:   -4.90 KCAL/MOL
REMARK 922        TOTAL FREE ENERGY PREDICTED BY IDOCK:   -6.61 KCAL/MOL
REMARK 923 INTER-LIGAND FREE ENERGY PREDICTED BY IDOCK:   -6.30 KCAL/MOL
REMARK 924 INTRA-LIGAND FREE ENERGY PREDICTED BY IDOCK:   -0.30 KCAL/MOL
REMARK 927      BINDING AFFINITY PREDICTED BY RF-SCORE:    0.00 PKD
ROOT
HETATM    1  C   UNL     1     -10.104   4.917  69.755  1.00  0.00    -0.249 C  
HETATM    2  O   UNL     1     -10.611   5.019  68.426  1.00  0.00    -0.019 OA 
ENDROOT
BRANCH   2   3
HETATM    3  C   UNL     1      -9.969   5.887  67.586  1.00  0.00    -0.138 A  
HETATM    4  C   UNL     1      -9.047   5.391  66.655  1.00  0.00    -0.124 A  
HETATM    5  C   UNL     1      -8.404   6.292  65.796  1.00  0.00    -0.145 A  
HETATM    6  C   UNL     1      -9.673   8.144  66.694  1.00  0.00    -0.248 A  
HETATM    7  C   UNL     1      -8.724   7.669  65.796  1.00  0.00    -0.151 A  
HETATM    8  C   UNL     1     -10.263   7.259  67.581  1.00  0.00    -0.257 A  
HETATM    9  C   UNL     1      -8.176   8.649  64.965  1.00  0.00    -0.157 A  
HETATM   10  N   UNL     1      -7.166   8.346  64.043  1.00  0.00    -0.090 NA 
HETATM   11  N   UNL     1      -8.547   9.938  65.004  1.00  0.00    -0.150 NA 
HETATM   12  H1  UNL     1      -6.766   9.061  63.437  1.00  0.00     0.000 HD 
HETATM   13  C   UNL     1      -9.499  10.292  65.880  1.00  0.00    -0.190 A  
HETATM   14  H2  UNL     1      -7.499   7.584  63.453  1.00  0.00     0.000 HD 
HETATM   15  N   UNL     1     -10.055   9.419  66.729  1.00  0.00    -0.240 NA 
BRANCH   4  16
HETATM   16  O   UNL     1      -8.652   4.097  66.445  1.00  0.00    -0.111 OA 
HETATM   17  C   UNL     1      -9.647   3.103  66.251  1.00  0.00     0.048 C  
ENDBRANCH   4  16
BRANCH  13  18
HETATM   18  N   UNL     1      -9.904  11.618  65.966  1.00  0.00    -0.222 NA 
HETATM   19  C   UNL     1     -10.830  13.631  64.864  1.00  0.00    -0.375 C  
HETATM   20  C   UNL     1     -10.073  12.303  64.673  1.00  0.00    -0.250 C  
HETATM   21  N   UNL     1     -10.262  14.451  65.943  1.00  0.00    -0.310 N  
HETATM   22  C   UNL     1     -10.095  13.716  67.208  1.00  0.00    -0.239 C  
HETATM   23  C   UNL     1     -10.323  15.843  65.812  1.00  0.00    -0.376 C  
HETATM   24  O   UNL     1     -10.821  16.346  64.804  1.00  0.00    -0.697 OA 
HETATM   25  C   UNL     1      -9.268  12.434  67.006  1.00  0.00    -0.208 C  
BRANCH  23  26
HETATM   26  C   UNL     1      -9.801  16.694  66.870  1.00  0.00    -0.263 A  
HETATM   27  C   UNL     1     -10.454  17.235  67.966  1.00  0.00    -0.375 A  
HETATM   28  C   UNL     1      -9.508  18.016  68.670  1.00  0.00    -0.317 A  
HETATM   29  C   UNL     1      -8.342  17.941  67.946  1.00  0.00    -0.247 A  
HETATM   30  O   UNL     1      -8.516  17.167  66.844  1.00  0.00    -0.201 OA 
ENDBRANCH  23  26
ENDBRANCH  13  18
ENDBRANCH   2   3
TORSDOF 4
ENDMDL
MODEL       82
REMARK 921   NORMALIZED FREE ENERGY PREDICTED BY IDOCK:   -4.83 KCAL/MOL
REMARK 922        TOTAL FREE ENERGY PREDICTED BY IDOCK:   -6.52 KCAL/MOL
REMARK 923 INTER-LIGAND FREE ENERGY PREDICTED BY IDOCK:   -5.94 KCAL/MOL
REMARK 924 INTRA-LIGAND FREE ENERGY PREDICTED BY IDOCK:   -0.58 KCAL/MOL
REMARK 927      BINDING AFFINITY PREDICTED BY RF-SCORE:    0.00 PKD
ROOT
HETATM    1  C   UNL     1     -12.395  14.298  64.338  1.00  0.00    -0.391 C  
HETATM    2  O   UNL     1     -12.527  14.212  65.755  1.00  0.00    -0.466 OA 
ENDROOT
BRANCH   2   3
HETATM    3  C   UNL     1     -11.572  13.493  66.421  1.00  0.00    -0.350 A  
HETATM    4  C   UNL     1     -10.656  14.160  67.244  1.00  0.00    -0.277 A  
HETATM    5  C   UNL     1      -9.689  13.409  67.926  1.00  0.00    -0.226 A  
HETATM    6  C   UNL     1     -10.611  11.342  67.075  1.00  0.00    -0.248 A  
HETATM    7  C   UNL     1      -9.670  11.997  67.861  1.00  0.00    -0.194 A  
HETATM    8  C   UNL     1     -11.529  12.092  66.357  1.00  0.00    -0.430 A  
HETATM    9  C   UNL     1      -8.780  11.147  68.522  1.00  0.00    -0.161 A  
HETATM   10  N   UNL     1      -7.736  11.649  69.308  1.00  0.00    -0.355 NA 
HETATM   11  N   UNL     1      -8.838   9.809  68.433  1.00  0.00    -0.119 NA 
HETATM   12  H1  UNL     1      -7.087  11.029  69.791  1.00  0.00     0.000 HD 
HETATM   13  C   UNL     1      -9.806   9.270  67.679  1.00  0.00    -0.176 A  
HETATM   14  H2  UNL     1      -8.140  12.280  70.001  1.00  0.00     0.000 HD 
HETATM   15  N   UNL     1     -10.682  10.015  66.993  1.00  0.00    -0.213 NA 
BRANCH   4  16
HETATM   16  O   UNL     1     -10.549  15.501  67.498  1.00  0.00    -0.283 OA 
HETATM   17  C   UNL     1     -11.352  16.067  68.524  1.00  0.00    -0.382 C  
ENDBRANCH   4  16
BRANCH  13  18
HETATM   18  N   UNL     1      -9.895   7.890  67.546  1.00  0.00    -0.158 NA 
HETATM   19  C   UNL     1     -10.243   5.674  68.592  1.00  0.00    -0.200 C  
HETATM   20  C   UNL     1      -9.806   7.135  68.808  1.00  0.00    -0.158 C  
HETATM   21  N   UNL     1      -9.578   5.054  67.438  1.00  0.00    -0.137 N  
HETATM   22  C   UNL     1      -9.679   5.856  66.207  1.00  0.00    -0.096 C  
HETATM   23  C   UNL     1      -9.302   3.684  67.497  1.00  0.00    -0.202 C  
HETATM   24  O   UNL     1      -9.595   3.038  68.505  1.00  0.00    -0.170 OA 
HETATM   25  C   UNL     1      -9.163   7.288  66.427  1.00  0.00    -0.159 C  
BRANCH  23  26
HETATM   26  C   UNL     1      -8.674   3.021  66.365  1.00  0.00    -0.133 A  
HETATM   27  C   UNL     1      -9.222   2.144  65.443  1.00  0.00    -0.051 A  
HETATM   28  C   UNL     1      -8.183   1.760  64.565  1.00  0.00    -0.074 A  
HETATM   29  C   UNL     1      -7.050   2.392  65.019  1.00  0.00    -0.056 A  
HETATM   30  O   UNL     1      -7.330   3.134  66.121  1.00  0.00    -0.069 OA 
ENDBRANCH  23  26
ENDBRANCH  13  18
ENDBRANCH   2   3
TORSDOF 4
ENDMDL
MODEL       83
REMARK 921   NORMALIZED FREE ENERGY PREDICTED BY IDOCK:   -4.81 KCAL/MOL
REMARK 922        TOTAL FREE ENERGY PREDICTED BY IDOCK:   -6.49 KCAL/MOL
REMARK 923 INTER-LIGAND FREE ENERGY PREDICTED BY IDOCK:   -5.93 KCAL/MOL
REMARK 924 INTRA-LIGAND FREE ENERGY PREDICTED BY IDOCK:   -0.57 KCAL/MOL
REMARK 927      BINDING AFFINITY PREDICTED BY RF-SCORE:    0.00 PKD
ROOT
HETATM    1  C   UNL     1      -6.335   3.930  69.932  1.00  0.00    -0.028 C  
HETATM    2  O   UNL     1      -7.268   3.480  70.911  1.00  0.00    -0.033 OA 
ENDROOT
BRANCH   2   3
HETATM    3  C   UNL     1      -8.407   4.223  71.064  1.00  0.00    -0.084 A  
HETATM    4  C   UNL     1      -9.362   3.835  72.012  1.00  0.00    -0.128 A  
HETATM    5  C   UNL     1     -10.519   4.611  72.163  1.00  0.00    -0.219 A  
HETATM    6  C   UNL     1      -9.728   6.211  70.530  1.00  0.00    -0.173 A  
HETATM    7  C   UNL     1     -10.702   5.811  71.438  1.00  0.00    -0.319 A  
HETATM    8  C   UNL     1      -8.614   5.410  70.343  1.00  0.00    -0.127 A  
HETATM    9  C   UNL     1     -11.794   6.679  71.532  1.00  0.00    -0.337 A  
HETATM   10  N   UNL     1     -12.888   6.394  72.357  1.00  0.00    -0.508 NA 
HETATM   11  N   UNL     1     -11.889   7.818  70.828  1.00  0.00    -0.237 NA 
HETATM   12  H1  UNL     1     -13.683   7.027  72.425  1.00  0.00     0.000 HD 
HETATM   13  C   UNL     1     -10.879   8.136  70.006  1.00  0.00    -0.233 A  
HETATM   14  H2  UNL     1     -12.534   6.231  73.300  1.00  0.00     0.000 HD 
HETATM   15  N   UNL     1      -9.811   7.346  69.839  1.00  0.00    -0.178 NA 
BRANCH   4  16
HETATM   16  O   UNL     1      -9.343   2.758  72.857  1.00  0.00    -0.088 OA 
HETATM   17  C   UNL     1     -10.514   2.453  73.600  1.00  0.00    -0.134 C  
ENDBRANCH   4  16
BRANCH  13  18
HETATM   18  N   UNL     1     -10.941   9.298  69.247  1.00  0.00    -0.146 NA 
HETATM   19  C   UNL     1     -10.607  10.437  67.075  1.00  0.00    -0.245 C  
HETATM   20  C   UNL     1     -10.206   9.250  67.972  1.00  0.00    -0.209 C  
HETATM   21  N   UNL     1     -10.553  11.721  67.786  1.00  0.00    -0.195 N  
HETATM   22  C   UNL     1     -11.287  11.712  69.063  1.00  0.00    -0.275 C  
HETATM   23  C   UNL     1     -10.205  12.862  67.056  1.00  0.00    -0.243 C  
HETATM   24  O   UNL     1      -9.932  12.768  65.858  1.00  0.00    -0.267 OA 
HETATM   25  C   UNL     1     -10.813  10.566  69.974  1.00  0.00    -0.259 C  
BRANCH  23  26
HETATM   26  C   UNL     1     -10.169  14.160  67.711  1.00  0.00    -0.242 A  
HETATM   27  C   UNL     1     -11.130  15.158  67.741  1.00  0.00    -0.313 A  
HETATM   28  C   UNL     1     -10.592  16.233  68.485  1.00  0.00    -0.294 A  
HETATM   29  C   UNL     1      -9.319  15.850  68.837  1.00  0.00    -0.233 A  
HETATM   30  O   UNL     1      -9.045  14.612  68.351  1.00  0.00    -0.179 OA 
ENDBRANCH  23  26
ENDBRANCH  13  18
ENDBRANCH   2   3
TORSDOF 4
ENDMDL
MODEL       84
REMARK 921   NORMALIZED FREE ENERGY PREDICTED BY IDOCK:   -4.81 KCAL/MOL
REMARK 922        TOTAL FREE ENERGY PREDICTED BY IDOCK:   -6.49 KCAL/MOL
REMARK 923 INTER-LIGAND FREE ENERGY PREDICTED BY IDOCK:   -5.94 KCAL/MOL
REMARK 924 INTRA-LIGAND FREE ENERGY PREDICTED BY IDOCK:   -0.55 KCAL/MOL
REMARK 927      BINDING AFFINITY PREDICTED BY RF-SCORE:    0.00 PKD
ROOT
HETATM    1  C   UNL     1      -6.803   6.910  68.077  1.00  0.00    -0.078 C  
HETATM    2  O   UNL     1      -7.702   7.136  66.994  1.00  0.00    -0.103 OA 
ENDROOT
BRANCH   2   3
HETATM    3  C   UNL     1      -8.414   8.305  67.018  1.00  0.00    -0.122 A  
HETATM    4  C   UNL     1      -9.812   8.262  66.943  1.00  0.00    -0.247 A  
HETATM    5  C   UNL     1     -10.528   9.467  66.976  1.00  0.00    -0.302 A  
HETATM    6  C   UNL     1      -8.491  10.734  67.281  1.00  0.00    -0.124 A  
HETATM    7  C   UNL     1      -9.876  10.707  67.163  1.00  0.00    -0.208 A  
HETATM    8  C   UNL     1      -7.784   9.547  67.188  1.00  0.00    -0.091 A  
HETATM    9  C   UNL     1     -10.486  11.961  67.248  1.00  0.00    -0.222 A  
HETATM   10  N   UNL     1     -11.869  12.115  67.092  1.00  0.00    -0.591 NA 
HETATM   11  N   UNL     1      -9.803  13.098  67.452  1.00  0.00    -0.222 NA 
HETATM   12  H1  UNL     1     -12.314  13.030  67.154  1.00  0.00     0.000 HD 
HETATM   13  C   UNL     1      -8.472  13.017  67.590  1.00  0.00    -0.187 A  
HETATM   14  H2  UNL     1     -12.330  11.496  67.760  1.00  0.00     0.000 HD 
HETATM   15  N   UNL     1      -7.809  11.858  67.496  1.00  0.00    -0.142 NA 
BRANCH   4  16
HETATM   16  O   UNL     1     -10.632   7.172  66.832  1.00  0.00    -0.305 OA 
HETATM   17  C   UNL     1     -10.945   6.431  68.003  1.00  0.00    -0.311 C  
ENDBRANCH   4  16
BRANCH  13  18
HETATM   18  N   UNL     1      -7.723  14.170  67.788  1.00  0.00    -0.151 NA 
HETATM   19  C   UNL     1      -6.277  15.536  69.261  1.00  0.00    -0.123 C  
HETATM   20  C   UNL     1      -7.363  14.447  69.190  1.00  0.00    -0.113 C  
HETATM   21  N   UNL     1      -6.610  16.715  68.450  1.00  0.00    -0.137 N  
HETATM   22  C   UNL     1      -6.980  16.384  67.064  1.00  0.00    -0.219 C  
HETATM   23  C   UNL     1      -6.172  17.966  68.899  1.00  0.00    -0.214 C  
HETATM   24  O   UNL     1      -5.548  18.057  69.958  1.00  0.00    -0.221 OA 
HETATM   25  C   UNL     1      -8.122  15.354  67.019  1.00  0.00    -0.230 C  
BRANCH  23  26
HETATM   26  C   UNL     1      -6.452  19.157  68.113  1.00  0.00    -0.227 A  
HETATM   27  C   UNL     1      -7.651  19.824  67.921  1.00  0.00    -0.331 A  
HETATM   28  C   UNL     1      -7.393  20.902  67.043  1.00  0.00    -0.325 A  
HETATM   29  C   UNL     1      -6.061  20.813  66.716  1.00  0.00    -0.227 A  
HETATM   30  O   UNL     1      -5.490  19.747  67.335  1.00  0.00    -0.168 OA 
ENDBRANCH  23  26
ENDBRANCH  13  18
ENDBRANCH   2   3
TORSDOF 4
ENDMDL
MODEL       85
REMARK 921   NORMALIZED FREE ENERGY PREDICTED BY IDOCK:   -4.79 KCAL/MOL
REMARK 922        TOTAL FREE ENERGY PREDICTED BY IDOCK:   -6.47 KCAL/MOL
REMARK 923 INTER-LIGAND FREE ENERGY PREDICTED BY IDOCK:   -6.03 KCAL/MOL
REMARK 924 INTRA-LIGAND FREE ENERGY PREDICTED BY IDOCK:   -0.44 KCAL/MOL
REMARK 927      BINDING AFFINITY PREDICTED BY RF-SCORE:    0.00 PKD
ROOT
HETATM    1  C   UNL     1     -12.282  15.408  64.154  1.00  0.00    -0.057 C  
HETATM    2  O   UNL     1     -11.129  16.136  64.571  1.00  0.00    -0.634 OA 
ENDROOT
BRANCH   2   3
HETATM    3  C   UNL     1     -10.270  15.497  65.422  1.00  0.00    -0.377 A  
HETATM    4  C   UNL     1      -9.269  16.230  66.072  1.00  0.00    -0.316 A  
HETATM    5  C   UNL     1      -8.402  15.562  66.947  1.00  0.00    -0.290 A  
HETATM    6  C   UNL     1      -9.592  13.481  66.629  1.00  0.00    -0.278 A  
HETATM    7  C   UNL     1      -8.568  14.190  67.246  1.00  0.00    -0.231 A  
HETATM    8  C   UNL     1     -10.410  14.132  65.720  1.00  0.00    -0.338 A  
HETATM    9  C   UNL     1      -7.790  13.432  68.125  1.00  0.00    -0.145 A  
HETATM   10  N   UNL     1      -6.684  13.982  68.784  1.00  0.00    -0.093 NA 
HETATM   11  N   UNL     1      -8.022  12.135  68.379  1.00  0.00    -0.153 NA 
HETATM   12  H1  UNL     1      -6.117  13.429  69.425  1.00  0.00     0.000 HD 
HETATM   13  C   UNL     1      -9.058  11.548  67.764  1.00  0.00    -0.165 A  
HETATM   14  H2  UNL     1      -6.998  14.815  69.281  1.00  0.00     0.000 HD 
HETATM   15  N   UNL     1      -9.835  12.197  66.887  1.00  0.00    -0.200 NA 
BRANCH   4  16
HETATM   16  O   UNL     1      -8.988  17.566  65.977  1.00  0.00    -0.497 OA 
HETATM   17  C   UNL     1      -9.964  18.502  66.412  1.00  0.00    -0.379 C  
ENDBRANCH   4  16
BRANCH  13  18
HETATM   18  N   UNL     1      -9.327  10.204  67.985  1.00  0.00    -0.141 NA 
HETATM   19  C   UNL     1      -9.740   8.355  69.579  1.00  0.00    -0.177 C  
HETATM   20  C   UNL     1      -9.108   9.744  69.368  1.00  0.00    -0.201 C  
HETATM   21  N   UNL     1      -9.360   7.400  68.529  1.00  0.00    -0.142 N  
HETATM   22  C   UNL     1      -9.580   7.913  67.166  1.00  0.00    -0.171 C  
HETATM   23  C   UNL     1      -9.237   6.051  68.881  1.00  0.00    -0.124 C  
HETATM   24  O   UNL     1      -9.423   5.699  70.047  1.00  0.00    -0.150 OA 
HETATM   25  C   UNL     1      -8.873   9.264  66.955  1.00  0.00    -0.127 C  
BRANCH  23  26
HETATM   26  C   UNL     1      -8.894   5.066  67.867  1.00  0.00    -0.103 A  
HETATM   27  C   UNL     1      -7.651   4.714  67.368  1.00  0.00    -0.085 A  
HETATM   28  C   UNL     1      -7.865   3.730  66.375  1.00  0.00    -0.089 A  
HETATM   29  C   UNL     1      -9.227   3.563  66.294  1.00  0.00    -0.171 A  
HETATM   30  O   UNL     1      -9.859   4.385  67.172  1.00  0.00    -0.200 OA 
ENDBRANCH  23  26
ENDBRANCH  13  18
ENDBRANCH   2   3
TORSDOF 4
ENDMDL
MODEL       86
REMARK 921   NORMALIZED FREE ENERGY PREDICTED BY IDOCK:   -4.79 KCAL/MOL
REMARK 922        TOTAL FREE ENERGY PREDICTED BY IDOCK:   -6.47 KCAL/MOL
REMARK 923 INTER-LIGAND FREE ENERGY PREDICTED BY IDOCK:   -5.97 KCAL/MOL
REMARK 924 INTRA-LIGAND FREE ENERGY PREDICTED BY IDOCK:   -0.50 KCAL/MOL
REMARK 927      BINDING AFFINITY PREDICTED BY RF-SCORE:    0.00 PKD
ROOT
HETATM    1  C   UNL     1      -9.889   5.340  74.308  1.00  0.00    -0.191 C  
HETATM    2  O   UNL     1      -9.275   4.258  73.611  1.00  0.00    -0.098 OA 
ENDROOT
BRANCH   2   3
HETATM    3  C   UNL     1      -9.331   4.293  72.245  1.00  0.00    -0.124 A  
HETATM    4  C   UNL     1      -9.575   3.112  71.534  1.00  0.00    -0.157 A  
HETATM    5  C   UNL     1      -9.637   3.165  70.134  1.00  0.00    -0.172 A  
HETATM    6  C   UNL     1      -9.339   5.565  70.156  1.00  0.00    -0.146 A  
HETATM    7  C   UNL     1      -9.538   4.392  69.439  1.00  0.00    -0.269 A  
HETATM    8  C   UNL     1      -9.220   5.499  71.535  1.00  0.00    -0.164 A  
HETATM    9  C   UNL     1      -9.620   4.570  68.055  1.00  0.00    -0.154 A  
HETATM   10  N   UNL     1      -9.762   3.483  67.184  1.00  0.00    -0.343 NA 
HETATM   11  N   UNL     1      -9.542   5.772  67.463  1.00  0.00    -0.112 NA 
HETATM   12  H1  UNL     1      -9.822   3.613  66.175  1.00  0.00     0.000 HD 
HETATM   13  C   UNL     1      -9.388   6.850  68.244  1.00  0.00    -0.125 A  
HETATM   14  H2  UNL     1     -10.579   2.948  67.481  1.00  0.00     0.000 HD 
HETATM   15  N   UNL     1      -9.273   6.762  69.575  1.00  0.00    -0.147 NA 
BRANCH   4  16
HETATM   16  O   UNL     1      -9.769   1.845  72.016  1.00  0.00    -0.103 OA 
HETATM   17  C   UNL     1     -10.935   1.578  72.782  1.00  0.00    -0.132 C  
ENDBRANCH   4  16
BRANCH  13  18
HETATM   18  N   UNL     1      -9.287   8.112  67.674  1.00  0.00    -0.139 NA 
HETATM   19  C   UNL     1      -8.375  10.412  67.754  1.00  0.00    -0.114 C  
HETATM   20  C   UNL     1      -8.753   9.157  68.564  1.00  0.00    -0.129 C  
HETATM   21  N   UNL     1      -9.452  10.842  66.851  1.00  0.00    -0.167 N  
HETATM   22  C   UNL     1      -9.964   9.757  65.996  1.00  0.00    -0.272 C  
HETATM   23  C   UNL     1      -9.590  12.211  66.599  1.00  0.00    -0.220 C  
HETATM   24  O   UNL     1      -8.836  13.018  67.146  1.00  0.00    -0.203 OA 
HETATM   25  C   UNL     1     -10.409   8.546  66.834  1.00  0.00    -0.297 C  
BRANCH  23  26
HETATM   26  C   UNL     1     -10.621  12.680  65.687  1.00  0.00    -0.273 A  
HETATM   27  C   UNL     1     -10.511  13.081  64.366  1.00  0.00    -0.426 A  
HETATM   28  C   UNL     1     -11.800  13.477  63.941  1.00  0.00    -0.460 A  
HETATM   29  C   UNL     1     -12.619  13.332  65.035  1.00  0.00    -0.423 A  
HETATM   30  O   UNL     1     -11.912  12.878  66.102  1.00  0.00    -0.404 OA 
ENDBRANCH  23  26
ENDBRANCH  13  18
ENDBRANCH   2   3
TORSDOF 4
ENDMDL
MODEL       87
REMARK 921   NORMALIZED FREE ENERGY PREDICTED BY IDOCK:   -4.78 KCAL/MOL
REMARK 922        TOTAL FREE ENERGY PREDICTED BY IDOCK:   -6.46 KCAL/MOL
REMARK 923 INTER-LIGAND FREE ENERGY PREDICTED BY IDOCK:   -5.86 KCAL/MOL
REMARK 924 INTRA-LIGAND FREE ENERGY PREDICTED BY IDOCK:   -0.60 KCAL/MOL
REMARK 927      BINDING AFFINITY PREDICTED BY RF-SCORE:    0.00 PKD
ROOT
HETATM    1  C   UNL     1     -10.983   6.579  66.989  1.00  0.00    -0.396 C  
HETATM    2  O   UNL     1      -9.650   6.936  66.635  1.00  0.00    -0.169 OA 
ENDROOT
BRANCH   2   3
HETATM    3  C   UNL     1      -9.018   7.841  67.444  1.00  0.00    -0.123 A  
HETATM    4  C   UNL     1      -8.357   7.393  68.595  1.00  0.00    -0.129 A  
HETATM    5  C   UNL     1      -7.707   8.331  69.409  1.00  0.00    -0.102 A  
HETATM    6  C   UNL     1      -8.263  10.124  67.885  1.00  0.00    -0.109 A  
HETATM    7  C   UNL     1      -7.640   9.697  69.052  1.00  0.00    -0.076 A  
HETATM    8  C   UNL     1      -8.953   9.203  67.114  1.00  0.00    -0.137 A  
HETATM    9  C   UNL     1      -6.994  10.711  69.765  1.00  0.00    -0.145 A  
HETATM   10  N   UNL     1      -6.367  10.458  70.990  1.00  0.00    -0.341 NA 
HETATM   11  N   UNL     1      -6.950  11.986  69.350  1.00  0.00    -0.034 NA 
HETATM   12  H1  UNL     1      -5.896  11.198  71.510  1.00  0.00     0.000 HD 
HETATM   13  C   UNL     1      -7.549  12.293  68.191  1.00  0.00    -0.127 A  
HETATM   14  H2  UNL     1      -5.701   9.699  70.851  1.00  0.00     0.000 HD 
HETATM   15  N   UNL     1      -8.212  11.386  67.463  1.00  0.00    -0.126 NA 
BRANCH   4  16
HETATM   16  O   UNL     1      -8.242   6.117  69.076  1.00  0.00    -0.110 OA 
HETATM   17  C   UNL     1      -9.172   5.669  70.052  1.00  0.00    -0.144 C  
ENDBRANCH   4  16
BRANCH  13  18
HETATM   18  N   UNL     1      -7.542  13.604  67.731  1.00  0.00    -0.147 NA 
HETATM   19  C   UNL     1      -6.323  15.734  67.407  1.00  0.00    -0.139 C  
HETATM   20  C   UNL     1      -6.425  14.430  68.221  1.00  0.00    -0.115 C  
HETATM   21  N   UNL     1      -7.615  16.424  67.290  1.00  0.00    -0.150 N  
HETATM   22  C   UNL     1      -8.702  15.552  66.815  1.00  0.00    -0.267 C  
HETATM   23  C   UNL     1      -7.609  17.822  67.232  1.00  0.00    -0.201 C  
HETATM   24  O   UNL     1      -6.544  18.438  67.303  1.00  0.00    -0.191 OA 
HETATM   25  C   UNL     1      -8.835  14.295  67.692  1.00  0.00    -0.196 C  
BRANCH  23  26
HETATM   26  C   UNL     1      -8.862  18.547  67.084  1.00  0.00    -0.270 A  
HETATM   27  C   UNL     1      -9.791  18.903  68.048  1.00  0.00    -0.404 A  
HETATM   28  C   UNL     1     -10.848  19.565  67.382  1.00  0.00    -0.536 A  
HETATM   29  C   UNL     1     -10.526  19.544  66.046  1.00  0.00    -0.516 A  
HETATM   30  O   UNL     1      -9.342  18.908  65.853  1.00  0.00    -0.454 OA 
ENDBRANCH  23  26
ENDBRANCH  13  18
ENDBRANCH   2   3
TORSDOF 4
ENDMDL
MODEL       88
REMARK 921   NORMALIZED FREE ENERGY PREDICTED BY IDOCK:   -4.77 KCAL/MOL
REMARK 922        TOTAL FREE ENERGY PREDICTED BY IDOCK:   -6.45 KCAL/MOL
REMARK 923 INTER-LIGAND FREE ENERGY PREDICTED BY IDOCK:   -6.03 KCAL/MOL
REMARK 924 INTRA-LIGAND FREE ENERGY PREDICTED BY IDOCK:   -0.42 KCAL/MOL
REMARK 927      BINDING AFFINITY PREDICTED BY RF-SCORE:    0.00 PKD
ROOT
HETATM    1  C   UNL     1      -6.416  18.719  67.133  1.00  0.00    -0.191 C  
HETATM    2  O   UNL     1      -6.681  17.674  66.200  1.00  0.00    -0.247 OA 
ENDROOT
BRANCH   2   3
HETATM    3  C   UNL     1      -7.813  16.934  66.408  1.00  0.00    -0.313 A  
HETATM    4  C   UNL     1      -9.068  17.533  66.246  1.00  0.00    -0.193 A  
HETATM    5  C   UNL     1     -10.219  16.760  66.454  1.00  0.00    -0.329 A  
HETATM    6  C   UNL     1      -8.886  14.784  66.861  1.00  0.00    -0.248 A  
HETATM    7  C   UNL     1     -10.136  15.379  66.745  1.00  0.00    -0.266 A  
HETATM    8  C   UNL     1      -7.752  15.565  66.711  1.00  0.00    -0.111 A  
HETATM    9  C   UNL     1     -11.211  14.506  66.937  1.00  0.00    -0.336 A  
HETATM   10  N   UNL     1     -12.535  14.957  66.910  1.00  0.00    -0.159 NA 
HETATM   11  N   UNL     1     -11.057  13.196  67.186  1.00  0.00    -0.272 NA 
HETATM   12  H1  UNL     1     -13.318  14.320  67.050  1.00  0.00     0.000 HD 
HETATM   13  C   UNL     1      -9.809  12.708  67.241  1.00  0.00    -0.206 A  
HETATM   14  H2  UNL     1     -12.682  15.446  66.026  1.00  0.00     0.000 HD 
HETATM   15  N   UNL     1      -8.727  13.482  67.095  1.00  0.00    -0.219 NA 
BRANCH   4  16
HETATM   16  O   UNL     1      -9.364  18.825  65.901  1.00  0.00    -0.466 OA 
HETATM   17  C   UNL     1     -10.626  19.359  66.273  1.00  0.00    -0.475 C  
ENDBRANCH   4  16
BRANCH  13  18
HETATM   18  N   UNL     1      -9.602  11.361  67.511  1.00  0.00    -0.166 NA 
HETATM   19  C   UNL     1      -8.185   9.585  68.492  1.00  0.00    -0.113 C  
HETATM   20  C   UNL     1      -8.227  11.008  67.904  1.00  0.00    -0.119 C  
HETATM   21  N   UNL     1      -8.868   8.604  67.638  1.00  0.00    -0.135 N  
HETATM   22  C   UNL     1     -10.231   9.011  67.257  1.00  0.00    -0.256 C  
HETATM   23  C   UNL     1      -8.373   7.296  67.615  1.00  0.00    -0.117 C  
HETATM   24  O   UNL     1      -7.379   7.001  68.281  1.00  0.00    -0.091 OA 
HETATM   25  C   UNL     1     -10.237  10.402  66.600  1.00  0.00    -0.234 C  
BRANCH  23  26
HETATM   26  C   UNL     1      -9.037   6.283  66.809  1.00  0.00    -0.135 A  
HETATM   27  C   UNL     1     -10.033   5.388  67.165  1.00  0.00    -0.199 A  
HETATM   28  C   UNL     1     -10.307   4.596  66.026  1.00  0.00    -0.318 A  
HETATM   29  C   UNL     1      -9.440   5.024  65.050  1.00  0.00     0.039 A  
HETATM   30  O   UNL     1      -8.650   6.023  65.520  1.00  0.00    -0.152 OA 
ENDBRANCH  23  26
ENDBRANCH  13  18
ENDBRANCH   2   3
TORSDOF 4
ENDMDL
MODEL       89
REMARK 921   NORMALIZED FREE ENERGY PREDICTED BY IDOCK:   -4.73 KCAL/MOL
REMARK 922        TOTAL FREE ENERGY PREDICTED BY IDOCK:   -6.40 KCAL/MOL
REMARK 923 INTER-LIGAND FREE ENERGY PREDICTED BY IDOCK:   -6.02 KCAL/MOL
REMARK 924 INTRA-LIGAND FREE ENERGY PREDICTED BY IDOCK:   -0.38 KCAL/MOL
REMARK 927      BINDING AFFINITY PREDICTED BY RF-SCORE:    0.00 PKD
ROOT
HETATM    1  C   UNL     1      -8.800  10.386  62.331  1.00  0.00    -0.250 C  
HETATM    2  O   UNL     1      -9.645   9.845  63.344  1.00  0.00    -0.203 OA 
ENDROOT
BRANCH   2   3
HETATM    3  C   UNL     1      -9.315  10.132  64.640  1.00  0.00    -0.277 A  
HETATM    4  C   UNL     1      -8.893   9.101  65.489  1.00  0.00    -0.191 A  
HETATM    5  C   UNL     1      -8.551   9.412  66.812  1.00  0.00    -0.134 A  
HETATM    6  C   UNL     1      -8.928  11.768  66.416  1.00  0.00    -0.201 A  
HETATM    7  C   UNL     1      -8.549  10.746  67.279  1.00  0.00    -0.130 A  
HETATM    8  C   UNL     1      -9.321  11.448  65.127  1.00  0.00    -0.172 A  
HETATM    9  C   UNL     1      -8.194  11.176  68.561  1.00  0.00    -0.149 A  
HETATM   10  N   UNL     1      -7.843  10.268  69.567  1.00  0.00    -0.159 NA 
HETATM   11  N   UNL     1      -8.192  12.467  68.928  1.00  0.00     0.121 NA 
HETATM   12  H1  UNL     1      -7.584  10.582  70.502  1.00  0.00     0.000 HD 
HETATM   13  C   UNL     1      -8.537  13.383  68.012  1.00  0.00    -0.174 A  
HETATM   14  H2  UNL     1      -7.086   9.684  69.211  1.00  0.00     0.000 HD 
HETATM   15  N   UNL     1      -8.915  13.051  66.771  1.00  0.00    -0.207 NA 
BRANCH   4  16
HETATM   16  O   UNL     1      -8.758   7.767  65.215  1.00  0.00    -0.096 OA 
HETATM   17  C   UNL     1      -8.432   6.882  66.277  1.00  0.00    -0.131 C  
ENDBRANCH   4  16
BRANCH  13  18
HETATM   18  N   UNL     1      -8.563  14.729  68.352  1.00  0.00    -0.160 NA 
HETATM   19  C   UNL     1      -9.851  16.823  68.640  1.00  0.00    -0.261 C  
HETATM   20  C   UNL     1      -9.776  15.454  67.937  1.00  0.00    -0.207 C  
HETATM   21  N   UNL     1      -8.596  17.579  68.530  1.00  0.00    -0.275 N  
HETATM   22  C   UNL     1      -7.411  16.806  68.938  1.00  0.00    -0.240 C  
HETATM   23  C   UNL     1      -8.675  18.975  68.464  1.00  0.00    -0.357 C  
HETATM   24  O   UNL     1      -9.774  19.532  68.475  1.00  0.00    -0.370 OA 
HETATM   25  C   UNL     1      -7.315  15.479  68.165  1.00  0.00    -0.115 C  
BRANCH  23  26
HETATM   26  C   UNL     1      -7.457  19.766  68.387  1.00  0.00    -0.314 A  
HETATM   27  C   UNL     1      -6.498  20.003  69.359  1.00  0.00    -0.365 A  
HETATM   28  C   UNL     1      -5.532  20.864  68.790  1.00  0.00    -0.391 A  
HETATM   29  C   UNL     1      -5.972  21.137  67.517  1.00  0.00    -0.342 A  
HETATM   30  O   UNL     1      -7.147  20.502  67.273  1.00  0.00    -0.272 OA 
ENDBRANCH  23  26
ENDBRANCH  13  18
ENDBRANCH   2   3
TORSDOF 4
ENDMDL
MODEL       90
REMARK 921   NORMALIZED FREE ENERGY PREDICTED BY IDOCK:   -4.72 KCAL/MOL
REMARK 922        TOTAL FREE ENERGY PREDICTED BY IDOCK:   -6.39 KCAL/MOL
REMARK 923 INTER-LIGAND FREE ENERGY PREDICTED BY IDOCK:   -5.80 KCAL/MOL
REMARK 924 INTRA-LIGAND FREE ENERGY PREDICTED BY IDOCK:   -0.60 KCAL/MOL
REMARK 927      BINDING AFFINITY PREDICTED BY RF-SCORE:    0.00 PKD
ROOT
HETATM    1  C   UNL     1     -10.597  19.717  66.279  1.00  0.00    -0.482 C  
HETATM    2  O   UNL     1      -9.310  19.271  65.857  1.00  0.00    -0.429 OA 
ENDROOT
BRANCH   2   3
HETATM    3  C   UNL     1      -8.674  18.369  66.666  1.00  0.00    -0.286 A  
HETATM    4  C   UNL     1      -7.898  18.831  67.737  1.00  0.00    -0.242 A  
HETATM    5  C   UNL     1      -7.259  17.894  68.561  1.00  0.00    -0.261 A  
HETATM    6  C   UNL     1      -8.254  16.058  67.343  1.00  0.00    -0.167 A  
HETATM    7  C   UNL     1      -7.446  16.505  68.382  1.00  0.00    -0.186 A  
HETATM    8  C   UNL     1      -8.836  16.986  66.495  1.00  0.00    -0.295 A  
HETATM    9  C   UNL     1      -6.891  15.485  69.160  1.00  0.00    -0.155 A  
HETATM   10  N   UNL     1      -6.009  15.764  70.210  1.00  0.00    -0.138 NA 
HETATM   11  N   UNL     1      -7.134  14.183  68.946  1.00  0.00    -0.107 NA 
HETATM   12  H1  UNL     1      -5.604  15.020  70.778  1.00  0.00     0.000 HD 
HETATM   13  C   UNL     1      -7.958  13.853  67.941  1.00  0.00    -0.160 A  
HETATM   14  H2  UNL     1      -6.468  16.423  70.839  1.00  0.00     0.000 HD 
HETATM   15  N   UNL     1      -8.508  14.767  67.134  1.00  0.00    -0.212 NA 
BRANCH   4  16
HETATM   16  O   UNL     1      -7.649  20.120  68.122  1.00  0.00    -0.280 OA 
HETATM   17  C   UNL     1      -6.734  20.896  67.361  1.00  0.00    -0.367 C  
ENDBRANCH   4  16
BRANCH  13  18
HETATM   18  N   UNL     1      -8.226  12.517  67.674  1.00  0.00    -0.159 NA 
HETATM   19  C   UNL     1      -9.589  10.818  66.497  1.00  0.00    -0.183 C  
HETATM   20  C   UNL     1      -9.532  12.256  67.045  1.00  0.00    -0.204 C  
HETATM   21  N   UNL     1      -9.155   9.822  67.487  1.00  0.00    -0.131 N  
HETATM   22  C   UNL     1      -7.853  10.137  68.100  1.00  0.00    -0.096 C  
HETATM   23  C   UNL     1      -9.755   8.559  67.454  1.00  0.00    -0.170 C  
HETATM   24  O   UNL     1     -10.635   8.315  66.626  1.00  0.00    -0.268 OA 
HETATM   25  C   UNL     1      -7.848  11.549  68.710  1.00  0.00    -0.117 C  
BRANCH  23  26
HETATM   26  C   UNL     1      -9.335   7.532  68.394  1.00  0.00    -0.141 A  
HETATM   27  C   UNL     1      -8.542   6.416  68.182  1.00  0.00    -0.117 A  
HETATM   28  C   UNL     1      -8.463   5.721  69.411  1.00  0.00    -0.112 A  
HETATM   29  C   UNL     1      -9.242   6.429  70.296  1.00  0.00    -0.155 A  
HETATM   30  O   UNL     1      -9.795   7.508  69.685  1.00  0.00    -0.177 OA 
ENDBRANCH  23  26
ENDBRANCH  13  18
ENDBRANCH   2   3
TORSDOF 4
ENDMDL
MODEL       91
REMARK 921   NORMALIZED FREE ENERGY PREDICTED BY IDOCK:   -4.68 KCAL/MOL
REMARK 922        TOTAL FREE ENERGY PREDICTED BY IDOCK:   -6.34 KCAL/MOL
REMARK 923 INTER-LIGAND FREE ENERGY PREDICTED BY IDOCK:   -5.80 KCAL/MOL
REMARK 924 INTRA-LIGAND FREE ENERGY PREDICTED BY IDOCK:   -0.54 KCAL/MOL
REMARK 927      BINDING AFFINITY PREDICTED BY RF-SCORE:    0.00 PKD
ROOT
HETATM    1  C   UNL     1     -12.840   7.846  71.824  1.00  0.00    -0.328 C  
HETATM    2  O   UNL     1     -11.911   7.181  70.972  1.00  0.00    -0.320 OA 
ENDROOT
BRANCH   2   3
HETATM    3  C   UNL     1     -10.853   7.919  70.517  1.00  0.00    -0.241 A  
HETATM    4  C   UNL     1      -9.578   7.342  70.473  1.00  0.00    -0.172 A  
HETATM    5  C   UNL     1      -8.505   8.109  69.997  1.00  0.00    -0.128 A  
HETATM    6  C   UNL     1      -9.976   9.962  69.499  1.00  0.00    -0.222 A  
HETATM    7  C   UNL     1      -8.699   9.414  69.491  1.00  0.00    -0.162 A  
HETATM    8  C   UNL     1     -11.023   9.222  70.024  1.00  0.00    -0.254 A  
HETATM    9  C   UNL     1      -7.715  10.254  68.961  1.00  0.00    -0.110 A  
HETATM   10  N   UNL     1      -6.367   9.875  68.933  1.00  0.00    -0.041 NA 
HETATM   11  N   UNL     1      -7.977  11.476  68.475  1.00  0.00    -0.139 NA 
HETATM   12  H1  UNL     1      -5.650  10.488  68.547  1.00  0.00     0.000 HD 
HETATM   13  C   UNL     1      -9.248  11.902  68.491  1.00  0.00    -0.134 A  
HETATM   14  H2  UNL     1      -6.304   8.977  68.454  1.00  0.00     0.000 HD 
HETATM   15  N   UNL     1     -10.244  11.170  69.005  1.00  0.00    -0.201 NA 
BRANCH   4  16
HETATM   16  O   UNL     1      -9.193   6.082  70.844  1.00  0.00    -0.152 OA 
HETATM   17  C   UNL     1      -9.455   5.000  69.962  1.00  0.00    -0.166 C  
ENDBRANCH   4  16
BRANCH  13  18
HETATM   18  N   UNL     1      -9.563  13.166  68.011  1.00  0.00    -0.215 NA 
HETATM   19  C   UNL     1      -9.665  14.754  66.115  1.00  0.00    -0.312 C  
HETATM   20  C   UNL     1      -8.996  13.492  66.691  1.00  0.00    -0.117 C  
HETATM   21  N   UNL     1      -9.696  15.862  67.078  1.00  0.00    -0.225 N  
HETATM   22  C   UNL     1     -10.254  15.482  68.387  1.00  0.00    -0.215 C  
HETATM   23  C   UNL     1      -9.602  17.167  66.582  1.00  0.00    -0.267 C  
HETATM   24  O   UNL     1      -9.473  17.358  65.371  1.00  0.00    -0.178 OA 
HETATM   25  C   UNL     1      -9.517  14.268  68.979  1.00  0.00     0.014 C  
BRANCH  23  26
HETATM   26  C   UNL     1      -9.660  18.297  67.496  1.00  0.00    -0.280 A  
HETATM   27  C   UNL     1     -10.707  19.165  67.756  1.00  0.00    -0.463 A  
HETATM   28  C   UNL     1     -10.241  20.110  68.699  1.00  0.00    -0.363 A  
HETATM   29  C   UNL     1      -8.925  19.791  68.935  1.00  0.00    -0.120 A  
HETATM   30  O   UNL     1      -8.557  18.715  68.193  1.00  0.00    -0.290 OA 
ENDBRANCH  23  26
ENDBRANCH  13  18
ENDBRANCH   2   3
TORSDOF 4
ENDMDL
MODEL       92
REMARK 921   NORMALIZED FREE ENERGY PREDICTED BY IDOCK:   -4.67 KCAL/MOL
REMARK 922        TOTAL FREE ENERGY PREDICTED BY IDOCK:   -6.33 KCAL/MOL
REMARK 923 INTER-LIGAND FREE ENERGY PREDICTED BY IDOCK:   -5.75 KCAL/MOL
REMARK 924 INTRA-LIGAND FREE ENERGY PREDICTED BY IDOCK:   -0.58 KCAL/MOL
REMARK 927      BINDING AFFINITY PREDICTED BY RF-SCORE:    0.00 PKD
ROOT
HETATM    1  C   UNL     1      -6.587  18.081  65.472  1.00  0.00    -0.121 C  
HETATM    2  O   UNL     1      -7.555  18.580  66.392  1.00  0.00    -0.238 OA 
ENDROOT
BRANCH   2   3
HETATM    3  C   UNL     1      -8.470  17.682  66.872  1.00  0.00    -0.241 A  
HETATM    4  C   UNL     1      -9.597  18.147  67.560  1.00  0.00    -0.280 A  
HETATM    5  C   UNL     1     -10.529  17.216  68.039  1.00  0.00    -0.369 A  
HETATM    6  C   UNL     1      -9.294  15.387  67.051  1.00  0.00    -0.224 A  
HETATM    7  C   UNL     1     -10.394  15.835  67.773  1.00  0.00    -0.275 A  
HETATM    8  C   UNL     1      -8.346  16.305  66.630  1.00  0.00    -0.315 A  
HETATM    9  C   UNL     1     -11.275  14.823  68.167  1.00  0.00    -0.294 A  
HETATM   10  N   UNL     1     -12.403  15.099  68.949  1.00  0.00    -0.603 NA 
HETATM   11  N   UNL     1     -11.095  13.530  67.855  1.00  0.00    -0.256 NA 
HETATM   12  H1  UNL     1     -13.045  14.361  69.236  1.00  0.00     0.000 HD 
HETATM   13  C   UNL     1     -10.022  13.202  67.122  1.00  0.00    -0.236 A  
HETATM   14  H2  UNL     1     -12.946  15.820  68.473  1.00  0.00     0.000 HD 
HETATM   15  N   UNL     1      -9.117  14.107  66.728  1.00  0.00    -0.260 NA 
BRANCH   4  16
HETATM   16  O   UNL     1      -9.948  19.436  67.858  1.00  0.00    -0.335 OA 
HETATM   17  C   UNL     1     -10.594  20.216  66.862  1.00  0.00    -0.214 C  
ENDBRANCH   4  16
BRANCH  13  18
HETATM   18  N   UNL     1      -9.788  11.875  66.789  1.00  0.00    -0.195 NA 
HETATM   19  C   UNL     1      -9.346   9.549  67.514  1.00  0.00    -0.126 C  
HETATM   20  C   UNL     1      -9.254  11.043  67.881  1.00  0.00    -0.155 C  
HETATM   21  N   UNL     1      -8.800   9.265  66.180  1.00  0.00    -0.147 N  
HETATM   22  C   UNL     1      -9.351  10.135  65.127  1.00  0.00    -0.235 C  
HETATM   23  C   UNL     1      -8.184   8.026  65.972  1.00  0.00    -0.120 C  
HETATM   24  O   UNL     1      -8.091   7.221  66.900  1.00  0.00    -0.116 OA 
HETATM   25  C   UNL     1      -9.176  11.622  65.480  1.00  0.00    -0.099 C  
BRANCH  23  26
HETATM   26  C   UNL     1      -7.658   7.689  64.659  1.00  0.00    -0.111 A  
HETATM   27  C   UNL     1      -8.108   6.751  63.745  1.00  0.00     0.003 A  
HETATM   28  C   UNL     1      -7.229   6.791  62.639  1.00  0.00    -0.054 A  
HETATM   29  C   UNL     1      -6.268   7.723  62.953  1.00  0.00    -0.071 A  
HETATM   30  O   UNL     1      -6.502   8.251  64.182  1.00  0.00    -0.066 OA 
ENDBRANCH  23  26
ENDBRANCH  13  18
ENDBRANCH   2   3
TORSDOF 4
ENDMDL
MODEL       93
REMARK 921   NORMALIZED FREE ENERGY PREDICTED BY IDOCK:   -4.66 KCAL/MOL
REMARK 922        TOTAL FREE ENERGY PREDICTED BY IDOCK:   -6.31 KCAL/MOL
REMARK 923 INTER-LIGAND FREE ENERGY PREDICTED BY IDOCK:   -5.98 KCAL/MOL
REMARK 924 INTRA-LIGAND FREE ENERGY PREDICTED BY IDOCK:   -0.33 KCAL/MOL
REMARK 927      BINDING AFFINITY PREDICTED BY RF-SCORE:    0.00 PKD
ROOT
HETATM    1  C   UNL     1      -8.430  18.048  67.255  1.00  0.00    -0.234 C  
HETATM    2  O   UNL     1      -7.866  16.795  66.875  1.00  0.00    -0.175 OA 
ENDROOT
BRANCH   2   3
HETATM    3  C   UNL     1      -8.697  15.708  66.913  1.00  0.00    -0.253 A  
HETATM    4  C   UNL     1      -9.745  15.609  65.990  1.00  0.00    -0.346 A  
HETATM    5  C   UNL     1     -10.583  14.486  66.036  1.00  0.00    -0.311 A  
HETATM    6  C   UNL     1      -9.273  13.512  67.820  1.00  0.00    -0.213 A  
HETATM    7  C   UNL     1     -10.343  13.424  66.937  1.00  0.00    -0.257 A  
HETATM    8  C   UNL     1      -8.483  14.650  67.810  1.00  0.00    -0.178 A  
HETATM    9  C   UNL     1     -11.086  12.245  67.048  1.00  0.00    -0.287 A  
HETATM   10  N   UNL     1     -12.229  12.025  66.270  1.00  0.00    -0.410 NA 
HETATM   11  N   UNL     1     -10.783  11.265  67.913  1.00  0.00    -0.195 NA 
HETATM   12  H1  UNL     1     -12.771  11.165  66.351  1.00  0.00     0.000 HD 
HETATM   13  C   UNL     1      -9.709  11.427  68.698  1.00  0.00    -0.176 A  
HETATM   14  H2  UNL     1     -11.969  12.141  65.291  1.00  0.00     0.000 HD 
HETATM   15  N   UNL     1      -8.961  12.537  68.672  1.00  0.00    -0.032 NA 
BRANCH   4  16
HETATM   16  O   UNL     1     -10.101  16.484  64.999  1.00  0.00    -0.483 OA 
HETATM   17  C   UNL     1     -11.355  16.312  64.354  1.00  0.00    -0.129 C  
ENDBRANCH   4  16
BRANCH  13  18
HETATM   18  N   UNL     1      -9.367  10.445  69.618  1.00  0.00    -0.133 NA 
HETATM   19  C   UNL     1      -7.669   8.899  70.543  1.00  0.00    -0.104 C  
HETATM   20  C   UNL     1      -8.124   9.714  69.317  1.00  0.00    -0.107 C  
HETATM   21  N   UNL     1      -8.754   8.090  71.114  1.00  0.00    -0.127 N  
HETATM   22  C   UNL     1      -9.980   8.862  71.379  1.00  0.00    -0.308 C  
HETATM   23  C   UNL     1      -8.421   6.865  71.701  1.00  0.00    -0.117 C  
HETATM   24  O   UNL     1      -7.249   6.483  71.709  1.00  0.00    -0.083 OA 
HETATM   25  C   UNL     1     -10.459   9.603  70.118  1.00  0.00    -0.273 C  
BRANCH  23  26
HETATM   26  C   UNL     1      -9.458   6.045  72.307  1.00  0.00    -0.150 A  
HETATM   27  C   UNL     1     -10.585   5.483  71.729  1.00  0.00    -0.296 A  
HETATM   28  C   UNL     1     -11.286   4.808  72.754  1.00  0.00    -0.178 A  
HETATM   29  C   UNL     1     -10.572   5.026  73.908  1.00  0.00    -0.289 A  
HETATM   30  O   UNL     1      -9.482   5.794  73.654  1.00  0.00    -0.137 OA 
ENDBRANCH  23  26
ENDBRANCH  13  18
ENDBRANCH   2   3
TORSDOF 4
ENDMDL
MODEL       94
REMARK 921   NORMALIZED FREE ENERGY PREDICTED BY IDOCK:   -4.59 KCAL/MOL
REMARK 922        TOTAL FREE ENERGY PREDICTED BY IDOCK:   -6.23 KCAL/MOL
REMARK 923 INTER-LIGAND FREE ENERGY PREDICTED BY IDOCK:   -5.85 KCAL/MOL
REMARK 924 INTRA-LIGAND FREE ENERGY PREDICTED BY IDOCK:   -0.38 KCAL/MOL
REMARK 927      BINDING AFFINITY PREDICTED BY RF-SCORE:    0.00 PKD
ROOT
HETATM    1  C   UNL     1     -10.968  16.522  68.852  1.00  0.00    -0.325 C  
HETATM    2  O   UNL     1     -11.955  15.500  68.735  1.00  0.00    -0.336 OA 
ENDROOT
BRANCH   2   3
HETATM    3  C   UNL     1     -11.551  14.312  68.188  1.00  0.00    -0.332 A  
HETATM    4  C   UNL     1     -11.276  14.243  66.816  1.00  0.00    -0.332 A  
HETATM    5  C   UNL     1     -10.855  13.021  66.273  1.00  0.00    -0.295 A  
HETATM    6  C   UNL     1     -10.863  11.981  68.456  1.00  0.00    -0.233 A  
HETATM    7  C   UNL     1     -10.629  11.890  67.088  1.00  0.00    -0.264 A  
HETATM    8  C   UNL     1     -11.335  13.174  68.979  1.00  0.00    -0.332 A  
HETATM    9  C   UNL     1     -10.178  10.637  66.664  1.00  0.00    -0.231 A  
HETATM   10  N   UNL     1      -9.949  10.361  65.311  1.00  0.00    -0.293 NA 
HETATM   11  N   UNL     1      -9.961   9.611  67.502  1.00  0.00    -0.173 NA 
HETATM   12  H1  UNL     1      -9.620   9.447  65.001  1.00  0.00     0.000 HD 
HETATM   13  C   UNL     1     -10.180   9.809  68.809  1.00  0.00    -0.194 A  
HETATM   14  H2  UNL     1      -9.304  11.065  64.952  1.00  0.00     0.000 HD 
HETATM   15  N   UNL     1     -10.637  10.971  69.293  1.00  0.00    -0.219 NA 
BRANCH   4  16
HETATM   16  O   UNL     1     -11.361  15.231  65.874  1.00  0.00    -0.292 OA 
HETATM   17  C   UNL     1     -10.209  16.016  65.602  1.00  0.00    -0.386 C  
ENDBRANCH   4  16
BRANCH  13  18
HETATM   18  N   UNL     1      -9.983   8.772  69.711  1.00  0.00    -0.186 NA 
HETATM   19  C   UNL     1     -10.377   7.805  71.956  1.00  0.00    -0.214 C  
HETATM   20  C   UNL     1     -10.312   9.092  71.111  1.00  0.00    -0.291 C  
HETATM   21  N   UNL     1      -9.200   6.947  71.764  1.00  0.00    -0.143 N  
HETATM   22  C   UNL     1      -8.903   6.673  70.349  1.00  0.00    -0.152 C  
HETATM   23  C   UNL     1      -8.759   6.186  72.852  1.00  0.00    -0.122 C  
HETATM   24  O   UNL     1      -9.340   6.263  73.936  1.00  0.00    -0.129 OA 
HETATM   25  C   UNL     1      -8.763   7.975  69.542  1.00  0.00    -0.136 C  
BRANCH  23  26
HETATM   26  C   UNL     1      -7.616   5.298  72.699  1.00  0.00    -0.097 A  
HETATM   27  C   UNL     1      -6.264   5.581  72.794  1.00  0.00    -0.047 A  
HETATM   28  C   UNL     1      -5.567   4.380  72.529  1.00  0.00    -0.007 A  
HETATM   29  C   UNL     1      -6.529   3.439  72.249  1.00  0.00    -0.014 A  
HETATM   30  O   UNL     1      -7.768   3.989  72.322  1.00  0.00    -0.075 OA 
ENDBRANCH  23  26
ENDBRANCH  13  18
ENDBRANCH   2   3
TORSDOF 4
ENDMDL
MODEL       95
REMARK 921   NORMALIZED FREE ENERGY PREDICTED BY IDOCK:   -4.58 KCAL/MOL
REMARK 922        TOTAL FREE ENERGY PREDICTED BY IDOCK:   -6.21 KCAL/MOL
REMARK 923 INTER-LIGAND FREE ENERGY PREDICTED BY IDOCK:   -5.98 KCAL/MOL
REMARK 924 INTRA-LIGAND FREE ENERGY PREDICTED BY IDOCK:   -0.23 KCAL/MOL
REMARK 927      BINDING AFFINITY PREDICTED BY RF-SCORE:    0.00 PKD
ROOT
HETATM    1  C   UNL     1     -14.252   9.064  71.291  1.00  0.00    -0.043 C  
HETATM    2  O   UNL     1     -13.159   9.889  71.688  1.00  0.00    -0.374 OA 
ENDROOT
BRANCH   2   3
HETATM    3  C   UNL     1     -12.255  10.223  70.717  1.00  0.00    -0.350 A  
HETATM    4  C   UNL     1     -11.592   9.210  70.012  1.00  0.00     0.060 A  
HETATM    5  C   UNL     1     -10.675   9.569  69.015  1.00  0.00    -0.224 A  
HETATM    6  C   UNL     1     -11.162  11.917  69.332  1.00  0.00    -0.211 A  
HETATM    7  C   UNL     1     -10.467  10.920  68.656  1.00  0.00    -0.216 A  
HETATM    8  C   UNL     1     -12.024  11.560  70.356  1.00  0.00    -0.459 A  
HETATM    9  C   UNL     1      -9.608  11.391  67.659  1.00  0.00    -0.169 A  
HETATM   10  N   UNL     1      -8.793  10.522  66.924  1.00  0.00    -0.136 NA 
HETATM   11  N   UNL     1      -9.479  12.692  67.355  1.00  0.00    -0.184 NA 
HETATM   12  H1  UNL     1      -8.167  10.866  66.197  1.00  0.00     0.000 HD 
HETATM   13  C   UNL     1     -10.221  13.575  68.038  1.00  0.00    -0.243 A  
HETATM   14  H2  UNL     1      -9.392   9.807  66.510  1.00  0.00     0.000 HD 
HETATM   15  N   UNL     1     -11.047  13.208  69.026  1.00  0.00    -0.249 NA 
BRANCH   4  16
HETATM   16  O   UNL     1     -11.704   7.853  70.154  1.00  0.00    -0.037 OA 
HETATM   17  C   UNL     1     -10.754   7.019  69.508  1.00  0.00    -0.241 C  
ENDBRANCH   4  16
BRANCH  13  18
HETATM   18  N   UNL     1     -10.110  14.933  67.768  1.00  0.00    -0.233 NA 
HETATM   19  C   UNL     1     -10.880  16.917  66.504  1.00  0.00     0.032 C  
HETATM   20  C   UNL     1     -10.780  15.380  66.535  1.00  0.00    -0.308 C  
HETATM   21  N   UNL     1      -9.596  17.568  66.795  1.00  0.00    -0.271 N  
HETATM   22  C   UNL     1      -8.957  17.074  68.027  1.00  0.00    -0.230 C  
HETATM   23  C   UNL     1      -9.323  18.790  66.171  1.00  0.00    -0.161 C  
HETATM   24  O   UNL     1     -10.138  19.277  65.385  1.00  0.00    -0.261 OA 
HETATM   25  C   UNL     1      -8.797  15.544  67.999  1.00  0.00    -0.165 C  
BRANCH  23  26
HETATM   26  C   UNL     1      -8.078  19.487  66.454  1.00  0.00    -0.320 A  
HETATM   27  C   UNL     1      -7.877  20.778  66.913  1.00  0.00    -0.200 A  
HETATM   28  C   UNL     1      -6.480  20.980  66.990  1.00  0.00    -0.405 A  
HETATM   29  C   UNL     1      -5.904  19.817  66.538  1.00  0.00    -0.170 A  
HETATM   30  O   UNL     1      -6.859  18.920  66.186  1.00  0.00    -0.212 OA 
ENDBRANCH  23  26
ENDBRANCH  13  18
ENDBRANCH   2   3
TORSDOF 4
ENDMDL
MODEL       96
REMARK 921   NORMALIZED FREE ENERGY PREDICTED BY IDOCK:   -4.56 KCAL/MOL
REMARK 922        TOTAL FREE ENERGY PREDICTED BY IDOCK:   -6.18 KCAL/MOL
REMARK 923 INTER-LIGAND FREE ENERGY PREDICTED BY IDOCK:   -5.62 KCAL/MOL
REMARK 924 INTRA-LIGAND FREE ENERGY PREDICTED BY IDOCK:   -0.57 KCAL/MOL
REMARK 927      BINDING AFFINITY PREDICTED BY RF-SCORE:    0.00 PKD
ROOT
HETATM    1  C   UNL     1      -9.459   3.038  68.414  1.00  0.00    -0.146 C  
HETATM    2  O   UNL     1      -9.400   3.167  66.996  1.00  0.00    -0.184 OA 
ENDROOT
BRANCH   2   3
HETATM    3  C   UNL     1      -8.972   4.369  66.503  1.00  0.00    -0.117 A  
HETATM    4  C   UNL     1      -7.897   4.404  65.606  1.00  0.00    -0.094 A  
HETATM    5  C   UNL     1      -7.475   5.643  65.103  1.00  0.00    -0.078 A  
HETATM    6  C   UNL     1      -9.252   6.788  66.278  1.00  0.00    -0.127 A  
HETATM    7  C   UNL     1      -8.159   6.838  65.420  1.00  0.00    -0.129 A  
HETATM    8  C   UNL     1      -9.629   5.569  66.817  1.00  0.00    -0.156 A  
HETATM    9  C   UNL     1      -7.852   8.119  64.953  1.00  0.00    -0.128 A  
HETATM   10  N   UNL     1      -6.747   8.351  64.126  1.00  0.00    -0.070 NA 
HETATM   11  N   UNL     1      -8.564   9.210  65.278  1.00  0.00    -0.157 NA 
HETATM   12  H1  UNL     1      -6.523   9.286  63.785  1.00  0.00     0.000 HD 
HETATM   13  C   UNL     1      -9.625   9.053  66.082  1.00  0.00    -0.272 A  
HETATM   14  H2  UNL     1      -6.824   7.733  63.319  1.00  0.00     0.000 HD 
HETATM   15  N   UNL     1      -9.970   7.865  66.593  1.00  0.00    -0.256 NA 
BRANCH   4  16
HETATM   16  O   UNL     1      -7.152   3.364  65.120  1.00  0.00    -0.062 OA 
HETATM   17  C   UNL     1      -7.387   2.917  63.792  1.00  0.00    -0.061 C  
ENDBRANCH   4  16
BRANCH  13  18
HETATM   18  N   UNL     1     -10.382  10.156  66.456  1.00  0.00    -0.223 NA 
HETATM   19  C   UNL     1     -11.755  12.110  65.804  1.00  0.00    -0.327 C  
HETATM   20  C   UNL     1     -10.654  11.121  65.376  1.00  0.00    -0.227 C  
HETATM   21  N   UNL     1     -11.498  12.698  67.126  1.00  0.00    -0.325 N  
HETATM   22  C   UNL     1     -11.213  11.694  68.166  1.00  0.00    -0.263 C  
HETATM   23  C   UNL     1     -11.929  14.009  67.356  1.00  0.00    -0.404 C  
HETATM   24  O   UNL     1     -12.485  14.642  66.457  1.00  0.00    -0.193 OA 
HETATM   25  C   UNL     1     -10.057  10.768  67.749  1.00  0.00    -0.174 C  
BRANCH  23  26
HETATM   26  C   UNL     1     -11.725  14.620  68.660  1.00  0.00    -0.329 A  
HETATM   27  C   UNL     1     -12.611  14.757  69.716  1.00  0.00    -0.158 A  
HETATM   28  C   UNL     1     -11.932  15.455  70.741  1.00  0.00    -0.402 A  
HETATM   29  C   UNL     1     -10.683  15.740  70.243  1.00  0.00    -0.329 A  
HETATM   30  O   UNL     1     -10.558  15.264  68.977  1.00  0.00    -0.227 OA 
ENDBRANCH  23  26
ENDBRANCH  13  18
ENDBRANCH   2   3
TORSDOF 4
ENDMDL
MODEL       97
REMARK 921   NORMALIZED FREE ENERGY PREDICTED BY IDOCK:   -4.55 KCAL/MOL
REMARK 922        TOTAL FREE ENERGY PREDICTED BY IDOCK:   -6.18 KCAL/MOL
REMARK 923 INTER-LIGAND FREE ENERGY PREDICTED BY IDOCK:   -5.55 KCAL/MOL
REMARK 924 INTRA-LIGAND FREE ENERGY PREDICTED BY IDOCK:   -0.62 KCAL/MOL
REMARK 927      BINDING AFFINITY PREDICTED BY RF-SCORE:    0.00 PKD
ROOT
HETATM    1  C   UNL     1      -7.270   3.809  69.518  1.00  0.00    -0.045 C  
HETATM    2  O   UNL     1      -8.621   4.036  69.124  1.00  0.00    -0.075 OA 
ENDROOT
BRANCH   2   3
HETATM    3  C   UNL     1      -9.208   5.190  69.567  1.00  0.00    -0.119 A  
HETATM    4  C   UNL     1     -10.040   5.152  70.693  1.00  0.00    -0.239 A  
HETATM    5  C   UNL     1     -10.627   6.344  71.140  1.00  0.00    -0.282 A  
HETATM    6  C   UNL     1      -9.473   7.617  69.439  1.00  0.00    -0.152 A  
HETATM    7  C   UNL     1     -10.334   7.584  70.529  1.00  0.00    -0.217 A  
HETATM    8  C   UNL     1      -8.941   6.429  68.965  1.00  0.00    -0.128 A  
HETATM    9  C   UNL     1     -10.830   8.835  70.910  1.00  0.00    -0.238 A  
HETATM   10  N   UNL     1     -11.754   8.969  71.953  1.00  0.00    -0.367 NA 
HETATM   11  N   UNL     1     -10.488   9.978  70.296  1.00  0.00    -0.285 NA 
HETATM   12  H1  UNL     1     -12.116   9.881  72.230  1.00  0.00     0.000 HD 
HETATM   13  C   UNL     1      -9.620   9.911  69.277  1.00  0.00    -0.205 A  
HETATM   14  H2  UNL     1     -11.359   8.523  72.781  1.00  0.00     0.000 HD 
HETATM   15  N   UNL     1      -9.120   8.750  68.835  1.00  0.00    -0.141 NA 
BRANCH   4  16
HETATM   16  O   UNL     1     -10.391   4.077  71.464  1.00  0.00    -0.075 OA 
HETATM   17  C   UNL     1      -9.580   3.744  72.581  1.00  0.00    -0.133 C  
ENDBRANCH   4  16
BRANCH  13  18
HETATM   18  N   UNL     1      -9.249  11.067  68.604  1.00  0.00    -0.183 NA 
HETATM   19  C   UNL     1      -7.464  12.618  67.871  1.00  0.00    -0.124 C  
HETATM   20  C   UNL     1      -7.888  11.549  68.896  1.00  0.00    -0.071 C  
HETATM   21  N   UNL     1      -8.481  13.665  67.698  1.00  0.00    -0.170 N  
HETATM   22  C   UNL     1      -9.827  13.132  67.427  1.00  0.00    -0.226 C  
HETATM   23  C   UNL     1      -8.045  14.962  67.407  1.00  0.00    -0.196 C  
HETATM   24  O   UNL     1      -6.839  15.203  67.324  1.00  0.00    -0.233 OA 
HETATM   25  C   UNL     1     -10.259  12.126  68.508  1.00  0.00    -0.207 C  
BRANCH  23  26
HETATM   26  C   UNL     1      -9.017  16.023  67.197  1.00  0.00    -0.202 A  
HETATM   27  C   UNL     1      -9.519  16.535  66.012  1.00  0.00    -0.317 A  
HETATM   28  C   UNL     1     -10.410  17.578  66.352  1.00  0.00    -0.334 A  
HETATM   29  C   UNL     1     -10.374  17.674  67.723  1.00  0.00    -0.365 A  
HETATM   30  O   UNL     1      -9.516  16.758  68.241  1.00  0.00    -0.227 OA 
ENDBRANCH  23  26
ENDBRANCH  13  18
ENDBRANCH   2   3
TORSDOF 4
ENDMDL
MODEL       98
REMARK 921   NORMALIZED FREE ENERGY PREDICTED BY IDOCK:   -4.46 KCAL/MOL
REMARK 922        TOTAL FREE ENERGY PREDICTED BY IDOCK:   -6.07 KCAL/MOL
REMARK 923 INTER-LIGAND FREE ENERGY PREDICTED BY IDOCK:   -5.47 KCAL/MOL
REMARK 924 INTRA-LIGAND FREE ENERGY PREDICTED BY IDOCK:   -0.59 KCAL/MOL
REMARK 927      BINDING AFFINITY PREDICTED BY RF-SCORE:    0.00 PKD
ROOT
HETATM    1  C   UNL     1      -6.277  16.972  66.861  1.00  0.00    -0.200 C  
HETATM    2  O   UNL     1      -7.496  16.677  66.183  1.00  0.00    -0.219 OA 
ENDROOT
BRANCH   2   3
HETATM    3  C   UNL     1      -8.448  16.000  66.894  1.00  0.00    -0.241 A  
HETATM    4  C   UNL     1      -9.648  16.642  67.226  1.00  0.00    -0.243 A  
HETATM    5  C   UNL     1     -10.617  15.932  67.948  1.00  0.00    -0.300 A  
HETATM    6  C   UNL     1      -9.266  13.927  67.901  1.00  0.00    -0.198 A  
HETATM    7  C   UNL     1     -10.442  14.568  68.274  1.00  0.00    -0.242 A  
HETATM    8  C   UNL     1      -8.286  14.649  67.239  1.00  0.00    -0.234 A  
HETATM    9  C   UNL     1     -11.351  13.754  68.955  1.00  0.00    -0.289 A  
HETATM   10  N   UNL     1     -12.558  14.259  69.450  1.00  0.00    -0.495 NA 
HETATM   11  N   UNL     1     -11.126  12.455  69.209  1.00  0.00    -0.191 NA 
HETATM   12  H1  UNL     1     -13.221  13.665  69.947  1.00  0.00     0.000 HD 
HETATM   13  C   UNL     1      -9.977  11.918  68.775  1.00  0.00    -0.092 A  
HETATM   14  H2  UNL     1     -13.053  14.702  68.675  1.00  0.00     0.000 HD 
HETATM   15  N   UNL     1      -9.044  12.636  68.139  1.00  0.00    -0.202 NA 
BRANCH   4  16
HETATM   16  O   UNL     1     -10.041  17.923  66.946  1.00  0.00    -0.317 OA 
HETATM   17  C   UNL     1     -10.107  18.864  68.007  1.00  0.00    -0.377 C  
ENDBRANCH   4  16
BRANCH  13  18
HETATM   18  N   UNL     1      -9.697  10.581  69.029  1.00  0.00    -0.202 NA 
HETATM   19  C   UNL     1     -10.511   8.275  69.406  1.00  0.00    -0.220 C  
HETATM   20  C   UNL     1     -10.847   9.776  69.475  1.00  0.00    -0.240 C  
HETATM   21  N   UNL     1      -9.230   7.955  70.050  1.00  0.00    -0.153 N  
HETATM   22  C   UNL     1      -8.117   8.799  69.584  1.00  0.00    -0.101 C  
HETATM   23  C   UNL     1      -9.102   6.710  70.675  1.00  0.00    -0.155 C  
HETATM   24  O   UNL     1     -10.054   5.928  70.694  1.00  0.00    -0.181 OA 
HETATM   25  C   UNL     1      -8.445  10.295  69.737  1.00  0.00    -0.062 C  
BRANCH  23  26
HETATM   26  C   UNL     1      -7.841   6.338  71.298  1.00  0.00    -0.108 A  
HETATM   27  C   UNL     1      -7.299   6.754  72.503  1.00  0.00    -0.090 A  
HETATM   28  C   UNL     1      -6.039   6.126  72.632  1.00  0.00    -0.045 A  
HETATM   29  C   UNL     1      -5.863   5.392  71.484  1.00  0.00    -0.024 A  
HETATM   30  O   UNL     1      -6.933   5.535  70.660  1.00  0.00    -0.053 OA 
ENDBRANCH  23  26
ENDBRANCH  13  18
ENDBRANCH   2   3
TORSDOF 4
ENDMDL
MODEL       99
REMARK 921   NORMALIZED FREE ENERGY PREDICTED BY IDOCK:   -4.45 KCAL/MOL
REMARK 922        TOTAL FREE ENERGY PREDICTED BY IDOCK:   -6.05 KCAL/MOL
REMARK 923 INTER-LIGAND FREE ENERGY PREDICTED BY IDOCK:   -5.49 KCAL/MOL
REMARK 924 INTRA-LIGAND FREE ENERGY PREDICTED BY IDOCK:   -0.57 KCAL/MOL
REMARK 927      BINDING AFFINITY PREDICTED BY RF-SCORE:    0.00 PKD
ROOT
HETATM    1  C   UNL     1     -10.339  10.880  63.980  1.00  0.00    -0.349 C  
HETATM    2  O   UNL     1      -9.770   9.767  64.666  1.00  0.00    -0.268 OA 
ENDROOT
BRANCH   2   3
HETATM    3  C   UNL     1      -9.154  10.027  65.860  1.00  0.00    -0.159 A  
HETATM    4  C   UNL     1      -8.950   8.984  66.772  1.00  0.00    -0.135 A  
HETATM    5  C   UNL     1      -8.311   9.264  67.988  1.00  0.00    -0.120 A  
HETATM    6  C   UNL     1      -7.972  11.570  67.343  1.00  0.00    -0.143 A  
HETATM    7  C   UNL     1      -7.803  10.552  68.273  1.00  0.00    -0.111 A  
HETATM    8  C   UNL     1      -8.656  11.302  66.168  1.00  0.00    -0.156 A  
HETATM    9  C   UNL     1      -7.121  10.937  69.431  1.00  0.00    -0.131 A  
HETATM   10  N   UNL     1      -6.917  10.046  70.491  1.00  0.00    -0.267 NA 
HETATM   11  N   UNL     1      -6.643  12.176  69.624  1.00  0.00    -0.076 NA 
HETATM   12  H1  UNL     1      -6.419  10.327  71.335  1.00  0.00     0.000 HD 
HETATM   13  C   UNL     1      -6.823  13.079  68.651  1.00  0.00    -0.099 A  
HETATM   14  H2  UNL     1      -6.457   9.215  70.118  1.00  0.00     0.000 HD 
HETATM   15  N   UNL     1      -7.489  12.798  67.524  1.00  0.00    -0.145 NA 
BRANCH   4  16
HETATM   16  O   UNL     1      -9.298   7.665  66.658  1.00  0.00    -0.171 OA 
HETATM   17  C   UNL     1     -10.641   7.287  66.927  1.00  0.00    -0.305 C  
ENDBRANCH   4  16
BRANCH  13  18
HETATM   18  N   UNL     1      -6.359  14.378  68.814  1.00  0.00    -0.082 NA 
HETATM   19  C   UNL     1      -5.412  16.126  70.289  1.00  0.00    -0.175 C  
HETATM   20  C   UNL     1      -6.233  14.825  70.212  1.00  0.00    -0.167 C  
HETATM   21  N   UNL     1      -5.884  17.144  69.342  1.00  0.00    -0.198 N  
HETATM   22  C   UNL     1      -6.011  16.644  67.962  1.00  0.00    -0.124 C  
HETATM   23  C   UNL     1      -5.772  18.489  69.713  1.00  0.00    -0.247 C  
HETATM   24  O   UNL     1      -5.310  18.787  70.815  1.00  0.00    -0.232 OA 
HETATM   25  C   UNL     1      -6.900  15.390  67.900  1.00  0.00    -0.149 C  
BRANCH  23  26
HETATM   26  C   UNL     1      -6.197  19.533  68.794  1.00  0.00    -0.249 A  
HETATM   27  C   UNL     1      -5.456  20.549  68.214  1.00  0.00    -0.285 A  
HETATM   28  C   UNL     1      -6.346  21.316  67.426  1.00  0.00    -0.426 A  
HETATM   29  C   UNL     1      -7.587  20.750  67.598  1.00  0.00    -0.209 A  
HETATM   30  O   UNL     1      -7.512  19.690  68.443  1.00  0.00    -0.307 OA 
ENDBRANCH  23  26
ENDBRANCH  13  18
ENDBRANCH   2   3
TORSDOF 4
ENDMDL
MODEL      100
REMARK 921   NORMALIZED FREE ENERGY PREDICTED BY IDOCK:   -4.44 KCAL/MOL
REMARK 922        TOTAL FREE ENERGY PREDICTED BY IDOCK:   -6.04 KCAL/MOL
REMARK 923 INTER-LIGAND FREE ENERGY PREDICTED BY IDOCK:   -5.45 KCAL/MOL
REMARK 924 INTRA-LIGAND FREE ENERGY PREDICTED BY IDOCK:   -0.59 KCAL/MOL
REMARK 927      BINDING AFFINITY PREDICTED BY RF-SCORE:    0.00 PKD
ROOT
HETATM    1  C   UNL     1     -11.670  14.737  69.734  1.00  0.00    -0.310 C  
HETATM    2  O   UNL     1     -10.435  14.542  69.049  1.00  0.00    -0.239 OA 
ENDROOT
BRANCH   2   3
HETATM    3  C   UNL     1     -10.443  13.661  68.002  1.00  0.00    -0.248 A  
HETATM    4  C   UNL     1     -10.909  14.082  66.750  1.00  0.00    -0.294 A  
HETATM    5  C   UNL     1     -10.904  13.170  65.685  1.00  0.00    -0.294 A  
HETATM    6  C   UNL     1      -9.866  11.477  67.066  1.00  0.00    -0.192 A  
HETATM    7  C   UNL     1     -10.367  11.871  65.830  1.00  0.00    -0.277 A  
HETATM    8  C   UNL     1      -9.927  12.362  68.130  1.00  0.00    -0.215 A  
HETATM    9  C   UNL     1     -10.277  10.894  64.834  1.00  0.00    -0.316 A  
HETATM   10  N   UNL     1     -10.788  11.111  63.549  1.00  0.00    -0.640 NA 
HETATM   11  N   UNL     1      -9.730   9.686  65.038  1.00  0.00    -0.246 NA 
HETATM   12  H1  UNL     1     -10.722  10.398  62.822  1.00  0.00     0.000 HD 
HETATM   13  C   UNL     1      -9.240   9.414  66.255  1.00  0.00    -0.180 A  
HETATM   14  H2  UNL     1     -10.371  11.968  63.186  1.00  0.00     0.000 HD 
HETATM   15  N   UNL     1      -9.311  10.284  67.270  1.00  0.00    -0.148 NA 
BRANCH   4  16
HETATM   16  O   UNL     1     -11.399  15.307  66.385  1.00  0.00    -0.284 OA 
HETATM   17  C   UNL     1     -10.501  16.271  65.857  1.00  0.00    -0.345 C  
ENDBRANCH   4  16
BRANCH  13  18
HETATM   18  N   UNL     1      -8.678   8.171  66.515  1.00  0.00    -0.136 NA 
HETATM   19  C   UNL     1      -7.574   6.121  65.674  1.00  0.00    -0.085 C  
HETATM   20  C   UNL     1      -8.489   7.312  65.333  1.00  0.00    -0.087 C  
HETATM   21  N   UNL     1      -7.991   5.425  66.899  1.00  0.00    -0.101 N  
HETATM   22  C   UNL     1      -8.185   6.328  68.046  1.00  0.00    -0.115 C  
HETATM   23  C   UNL     1      -7.773   4.045  66.977  1.00  0.00    -0.085 C  
HETATM   24  O   UNL     1      -7.266   3.446  66.027  1.00  0.00    -0.065 OA 
HETATM   25  C   UNL     1      -9.164   7.464  67.705  1.00  0.00    -0.131 C  
BRANCH  23  26
HETATM   26  C   UNL     1      -8.142   3.320  68.183  1.00  0.00    -0.073 A  
HETATM   27  C   UNL     1      -7.330   2.713  69.127  1.00  0.00    -0.044 A  
HETATM   28  C   UNL     1      -8.180   2.115  70.085  1.00  0.00    -0.062 A  
HETATM   29  C   UNL     1      -9.463   2.356  69.655  1.00  0.00    -0.045 A  
HETATM   30  O   UNL     1      -9.451   3.059  68.493  1.00  0.00    -0.188 OA 
ENDBRANCH  23  26
ENDBRANCH  13  18
ENDBRANCH   2   3
TORSDOF 4
ENDMDL
MODEL      101
REMARK 921   NORMALIZED FREE ENERGY PREDICTED BY IDOCK:   -4.43 KCAL/MOL
REMARK 922        TOTAL FREE ENERGY PREDICTED BY IDOCK:   -6.03 KCAL/MOL
REMARK 923 INTER-LIGAND FREE ENERGY PREDICTED BY IDOCK:   -5.70 KCAL/MOL
REMARK 924 INTRA-LIGAND FREE ENERGY PREDICTED BY IDOCK:   -0.33 KCAL/MOL
REMARK 927      BINDING AFFINITY PREDICTED BY RF-SCORE:    0.00 PKD
ROOT
HETATM    1  C   UNL     1     -11.875  16.125  71.442  1.00  0.00    -0.430 C  
HETATM    2  O   UNL     1     -10.712  16.380  70.659  1.00  0.00    -0.076 OA 
ENDROOT
BRANCH   2   3
HETATM    3  C   UNL     1     -10.653  15.782  69.430  1.00  0.00    -0.255 A  
HETATM    4  C   UNL     1     -10.923  16.537  68.282  1.00  0.00    -0.346 A  
HETATM    5  C   UNL     1     -10.851  15.912  67.029  1.00  0.00    -0.252 A  
HETATM    6  C   UNL     1     -10.130  13.838  68.041  1.00  0.00    -0.245 A  
HETATM    7  C   UNL     1     -10.438  14.567  66.899  1.00  0.00    -0.269 A  
HETATM    8  C   UNL     1     -10.258  14.443  69.281  1.00  0.00    -0.077 A  
HETATM    9  C   UNL     1     -10.296  13.854  65.705  1.00  0.00    -0.325 A  
HETATM   10  N   UNL     1     -10.621  14.424  64.468  1.00  0.00    -0.597 NA 
HETATM   11  N   UNL     1      -9.873  12.581  65.655  1.00  0.00    -0.248 NA 
HETATM   12  H1  UNL     1     -10.517  13.904  63.598  1.00  0.00     0.000 HD 
HETATM   13  C   UNL     1      -9.563  11.975  66.810  1.00  0.00    -0.208 A  
HETATM   14  H2  UNL     1     -10.097  15.295  64.378  1.00  0.00     0.000 HD 
HETATM   15  N   UNL     1      -9.697  12.579  67.997  1.00  0.00    -0.209 NA 
BRANCH   4  16
HETATM   16  O   UNL     1     -11.268  17.858  68.186  1.00  0.00    -0.003 OA 
HETATM   17  C   UNL     1     -10.296  18.786  67.726  1.00  0.00    -0.411 C  
ENDBRANCH   4  16
BRANCH  13  18
HETATM   18  N   UNL     1      -9.135  10.654  66.807  1.00  0.00    -0.151 NA 
HETATM   19  C   UNL     1      -7.289   9.020  66.591  1.00  0.00    -0.086 C  
HETATM   20  C   UNL     1      -7.790  10.435  66.247  1.00  0.00    -0.132 C  
HETATM   21  N   UNL     1      -8.279   7.981  66.277  1.00  0.00    -0.111 N  
HETATM   22  C   UNL     1      -9.611   8.255  66.844  1.00  0.00    -0.207 C  
HETATM   23  C   UNL     1      -7.810   6.727  65.871  1.00  0.00    -0.103 C  
HETATM   24  O   UNL     1      -6.599   6.528  65.762  1.00  0.00    -0.041 OA 
HETATM   25  C   UNL     1     -10.125   9.642  66.421  1.00  0.00    -0.247 C  
BRANCH  23  26
HETATM   26  C   UNL     1      -8.754   5.659  65.580  1.00  0.00    -0.151 A  
HETATM   27  C   UNL     1      -9.594   4.971  66.439  1.00  0.00    -0.171 A  
HETATM   28  C   UNL     1     -10.282   4.008  65.666  1.00  0.00    -0.083 A  
HETATM   29  C   UNL     1      -9.798   4.134  64.386  1.00  0.00    -0.152 A  
HETATM   30  O   UNL     1      -8.855   5.110  64.329  1.00  0.00    -0.115 OA 
ENDBRANCH  23  26
ENDBRANCH  13  18
ENDBRANCH   2   3
TORSDOF 4
ENDMDL
MODEL      102
REMARK 921   NORMALIZED FREE ENERGY PREDICTED BY IDOCK:   -4.43 KCAL/MOL
REMARK 922        TOTAL FREE ENERGY PREDICTED BY IDOCK:   -6.02 KCAL/MOL
REMARK 923 INTER-LIGAND FREE ENERGY PREDICTED BY IDOCK:   -5.40 KCAL/MOL
REMARK 924 INTRA-LIGAND FREE ENERGY PREDICTED BY IDOCK:   -0.63 KCAL/MOL
REMARK 927      BINDING AFFINITY PREDICTED BY RF-SCORE:    0.00 PKD
ROOT
HETATM    1  C   UNL     1     -12.759   6.999  70.947  1.00  0.00    -0.167 C  
HETATM    2  O   UNL     1     -11.691   6.613  70.086  1.00  0.00    -0.394 OA 
ENDROOT
BRANCH   2   3
HETATM    3  C   UNL     1     -10.515   7.301  70.217  1.00  0.00    -0.219 A  
HETATM    4  C   UNL     1      -9.449   6.719  70.916  1.00  0.00    -0.157 A  
HETATM    5  C   UNL     1      -8.249   7.433  71.034  1.00  0.00    -0.110 A  
HETATM    6  C   UNL     1      -9.117   9.232  69.671  1.00  0.00    -0.167 A  
HETATM    7  C   UNL     1      -8.068   8.683  70.399  1.00  0.00    -0.107 A  
HETATM    8  C   UNL     1     -10.321   8.549  69.606  1.00  0.00    -0.218 A  
HETATM    9  C   UNL     1      -6.909   9.464  70.418  1.00  0.00    -0.089 A  
HETATM   10  N   UNL     1      -5.781   9.081  71.153  1.00  0.00    -0.042 NA 
HETATM   11  N   UNL     1      -6.801  10.633  69.769  1.00  0.00    -0.130 NA 
HETATM   12  H1  UNL     1      -4.936   9.651  71.167  1.00  0.00     0.000 HD 
HETATM   13  C   UNL     1      -7.856  11.061  69.061  1.00  0.00    -0.126 A  
HETATM   14  H2  UNL     1      -5.520   8.140  70.859  1.00  0.00     0.000 HD 
HETATM   15  N   UNL     1      -9.011  10.385  69.014  1.00  0.00    -0.171 NA 
BRANCH   4  16
HETATM   16  O   UNL     1      -9.395   5.501  71.538  1.00  0.00    -0.145 OA 
HETATM   17  C   UNL     1      -9.472   5.454  72.955  1.00  0.00    -0.143 C  
ENDBRANCH   4  16
BRANCH  13  18
HETATM   18  N   UNL     1      -7.794  12.272  68.386  1.00  0.00    -0.149 NA 
HETATM   19  C   UNL     1      -6.450  14.190  67.582  1.00  0.00    -0.135 C  
HETATM   20  C   UNL     1      -6.564  13.051  68.613  1.00  0.00    -0.092 C  
HETATM   21  N   UNL     1      -7.686  14.978  67.478  1.00  0.00    -0.169 N  
HETATM   22  C   UNL     1      -8.888  14.154  67.269  1.00  0.00    -0.218 C  
HETATM   23  C   UNL     1      -7.572  16.341  67.182  1.00  0.00    -0.195 C  
HETATM   24  O   UNL     1      -6.459  16.850  67.040  1.00  0.00    -0.162 OA 
HETATM   25  C   UNL     1      -9.022  13.074  68.358  1.00  0.00    -0.126 C  
BRANCH  23  26
HETATM   26  C   UNL     1      -8.770  17.154  67.037  1.00  0.00    -0.225 A  
HETATM   27  C   UNL     1      -9.495  17.831  68.004  1.00  0.00    -0.281 A  
HETATM   28  C   UNL     1     -10.591  18.440  67.351  1.00  0.00    -0.445 A  
HETATM   29  C   UNL     1     -10.498  18.071  66.030  1.00  0.00    -0.313 A  
HETATM   30  O   UNL     1      -9.417  17.272  65.836  1.00  0.00    -0.503 OA 
ENDBRANCH  23  26
ENDBRANCH  13  18
ENDBRANCH   2   3
TORSDOF 4
ENDMDL
MODEL      103
REMARK 921   NORMALIZED FREE ENERGY PREDICTED BY IDOCK:   -4.32 KCAL/MOL
REMARK 922        TOTAL FREE ENERGY PREDICTED BY IDOCK:   -5.89 KCAL/MOL
REMARK 923 INTER-LIGAND FREE ENERGY PREDICTED BY IDOCK:   -5.56 KCAL/MOL
REMARK 924 INTRA-LIGAND FREE ENERGY PREDICTED BY IDOCK:   -0.33 KCAL/MOL
REMARK 927      BINDING AFFINITY PREDICTED BY RF-SCORE:    0.00 PKD
ROOT
HETATM    1  C   UNL     1      -9.969   4.703  73.752  1.00  0.00    -0.156 C  
HETATM    2  O   UNL     1     -10.910   4.852  72.692  1.00  0.00    -0.213 OA 
ENDROOT
BRANCH   2   3
HETATM    3  C   UNL     1     -10.467   5.477  71.558  1.00  0.00    -0.235 A  
HETATM    4  C   UNL     1     -10.029   4.708  70.473  1.00  0.00    -0.225 A  
HETATM    5  C   UNL     1      -9.585   5.363  69.315  1.00  0.00    -0.198 A  
HETATM    6  C   UNL     1     -10.124   7.522  70.262  1.00  0.00    -0.194 A  
HETATM    7  C   UNL     1      -9.646   6.770  69.195  1.00  0.00    -0.139 A  
HETATM    8  C   UNL     1     -10.506   6.874  71.425  1.00  0.00    -0.230 A  
HETATM    9  C   UNL     1      -9.267   7.525  68.082  1.00  0.00    -0.137 A  
HETATM   10  N   UNL     1      -8.713   6.925  66.945  1.00  0.00    -0.115 NA 
HETATM   11  N   UNL     1      -9.377   8.861  68.029  1.00  0.00    -0.142 NA 
HETATM   12  H1  UNL     1      -8.436   7.476  66.133  1.00  0.00     0.000 HD 
HETATM   13  C   UNL     1      -9.885   9.494  69.096  1.00  0.00    -0.176 A  
HETATM   14  H2  UNL     1      -9.356   6.200  66.628  1.00  0.00     0.000 HD 
HETATM   15  N   UNL     1     -10.247   8.847  70.210  1.00  0.00    -0.192 NA 
BRANCH   4  16
HETATM   16  O   UNL     1      -9.958   3.346  70.360  1.00  0.00    -0.047 OA 
HETATM   17  C   UNL     1      -8.933   2.779  69.557  1.00  0.00    -0.108 C  
ENDBRANCH   4  16
BRANCH  13  18
HETATM   18  N   UNL     1     -10.003  10.878  69.091  1.00  0.00    -0.195 NA 
HETATM   19  C   UNL     1     -11.420  12.890  69.361  1.00  0.00    -0.260 C  
HETATM   20  C   UNL     1     -11.385  11.386  69.030  1.00  0.00    -0.280 C  
HETATM   21  N   UNL     1     -10.431  13.658  68.592  1.00  0.00    -0.243 N  
HETATM   22  C   UNL     1      -9.070  13.099  68.670  1.00  0.00     0.040 C  
HETATM   23  C   UNL     1     -10.753  14.972  68.236  1.00  0.00    -0.253 C  
HETATM   24  O   UNL     1     -11.847  15.445  68.548  1.00  0.00    -0.345 OA 
HETATM   25  C   UNL     1      -9.048  11.617  68.258  1.00  0.00    -0.187 C  
BRANCH  23  26
HETATM   26  C   UNL     1      -9.792  15.780  67.501  1.00  0.00    -0.229 A  
HETATM   27  C   UNL     1      -9.029  15.449  66.393  1.00  0.00    -0.351 A  
HETATM   28  C   UNL     1      -8.230  16.575  66.087  1.00  0.00    -0.279 A  
HETATM   29  C   UNL     1      -8.519  17.516  67.045  1.00  0.00    -0.234 A  
HETATM   30  O   UNL     1      -9.440  17.036  67.920  1.00  0.00    -0.238 OA 
ENDBRANCH  23  26
ENDBRANCH  13  18
ENDBRANCH   2   3
TORSDOF 4
ENDMDL
MODEL      104
REMARK 921   NORMALIZED FREE ENERGY PREDICTED BY IDOCK:   -4.31 KCAL/MOL
REMARK 922        TOTAL FREE ENERGY PREDICTED BY IDOCK:   -5.88 KCAL/MOL
REMARK 923 INTER-LIGAND FREE ENERGY PREDICTED BY IDOCK:   -5.48 KCAL/MOL
REMARK 924 INTRA-LIGAND FREE ENERGY PREDICTED BY IDOCK:   -0.40 KCAL/MOL
REMARK 927      BINDING AFFINITY PREDICTED BY RF-SCORE:    0.00 PKD
ROOT
HETATM    1  C   UNL     1     -12.374  13.268  63.396  1.00  0.00    -0.324 C  
HETATM    2  O   UNL     1     -12.627  13.411  64.792  1.00  0.00    -0.578 OA 
ENDROOT
BRANCH   2   3
HETATM    3  C   UNL     1     -11.626  13.027  65.642  1.00  0.00    -0.354 A  
HETATM    4  C   UNL     1     -10.945  13.997  66.389  1.00  0.00    -0.308 A  
HETATM    5  C   UNL     1      -9.928  13.587  67.262  1.00  0.00    -0.236 A  
HETATM    6  C   UNL     1     -10.344  11.261  66.745  1.00  0.00    -0.238 A  
HETATM    7  C   UNL     1      -9.633  12.219  67.459  1.00  0.00    -0.184 A  
HETATM    8  C   UNL     1     -11.308  11.675  65.841  1.00  0.00    -0.262 A  
HETATM    9  C   UNL     1      -8.669  11.694  68.325  1.00  0.00    -0.163 A  
HETATM   10  N   UNL     1      -7.828  12.525  69.074  1.00  0.00    -0.329 NA 
HETATM   11  N   UNL     1      -8.460  10.378  68.480  1.00  0.00    -0.122 NA 
HETATM   12  H1  UNL     1      -7.126  12.142  69.706  1.00  0.00     0.000 HD 
HETATM   13  C   UNL     1      -9.224   9.531  67.775  1.00  0.00    -0.124 A  
HETATM   14  H2  UNL     1      -8.416  13.165  69.609  1.00  0.00     0.000 HD 
HETATM   15  N   UNL     1     -10.149   9.953  66.905  1.00  0.00    -0.213 NA 
BRANCH   4  16
HETATM   16  O   UNL     1     -11.125  15.354  66.398  1.00  0.00    -0.313 OA 
HETATM   17  C   UNL     1     -10.779  16.096  65.237  1.00  0.00    -0.368 C  
ENDBRANCH   4  16
BRANCH  13  18
HETATM   18  N   UNL     1      -9.032   8.161  67.892  1.00  0.00    -0.134 NA 
HETATM   19  C   UNL     1      -9.651   5.863  67.210  1.00  0.00    -0.116 C  
HETATM   20  C   UNL     1     -10.108   7.330  67.325  1.00  0.00    -0.225 C  
HETATM   21  N   UNL     1      -9.056   5.361  68.456  1.00  0.00    -0.107 N  
HETATM   22  C   UNL     1      -8.000   6.235  68.992  1.00  0.00    -0.110 C  
HETATM   23  C   UNL     1      -9.228   4.008  68.767  1.00  0.00    -0.151 C  
HETATM   24  O   UNL     1      -9.883   3.281  68.017  1.00  0.00    -0.061 OA 
HETATM   25  C   UNL     1      -8.504   7.678  69.173  1.00  0.00    -0.138 C  
BRANCH  23  26
HETATM   26  C   UNL     1      -8.630   3.459  69.974  1.00  0.00    -0.062 A  
HETATM   27  C   UNL     1      -7.313   3.111  70.223  1.00  0.00    -0.040 A  
HETATM   28  C   UNL     1      -7.260   2.593  71.538  1.00  0.00    -0.032 A  
HETATM   29  C   UNL     1      -8.552   2.618  72.006  1.00  0.00    -0.069 A  
HETATM   30  O   UNL     1      -9.391   3.114  71.060  1.00  0.00    -0.118 OA 
ENDBRANCH  23  26
ENDBRANCH  13  18
ENDBRANCH   2   3
TORSDOF 4
ENDMDL
MODEL      105
REMARK 921   NORMALIZED FREE ENERGY PREDICTED BY IDOCK:   -4.30 KCAL/MOL
REMARK 922        TOTAL FREE ENERGY PREDICTED BY IDOCK:   -5.87 KCAL/MOL
REMARK 923 INTER-LIGAND FREE ENERGY PREDICTED BY IDOCK:   -5.80 KCAL/MOL
REMARK 924 INTRA-LIGAND FREE ENERGY PREDICTED BY IDOCK:   -0.06 KCAL/MOL
REMARK 927      BINDING AFFINITY PREDICTED BY RF-SCORE:    0.00 PKD
ROOT
HETATM    1  C   UNL     1     -12.468  13.959  70.817  1.00  0.00    -0.375 C  
HETATM    2  O   UNL     1     -11.170  14.193  70.277  1.00  0.00    -0.108 OA 
ENDROOT
BRANCH   2   3
HETATM    3  C   UNL     1     -10.987  13.885  68.956  1.00  0.00    -0.250 A  
HETATM    4  C   UNL     1     -11.246  14.854  67.979  1.00  0.00    -0.308 A  
HETATM    5  C   UNL     1     -11.046  14.526  66.631  1.00  0.00    -0.333 A  
HETATM    6  C   UNL     1     -10.220  12.333  67.229  1.00  0.00    -0.210 A  
HETATM    7  C   UNL     1     -10.516  13.273  66.249  1.00  0.00    -0.289 A  
HETATM    8  C   UNL     1     -10.475  12.642  68.555  1.00  0.00    -0.249 A  
HETATM    9  C   UNL     1     -10.242  12.851  64.944  1.00  0.00    -0.275 A  
HETATM   10  N   UNL     1     -10.536  13.656  63.838  1.00  0.00    -0.511 NA 
HETATM   11  N   UNL     1      -9.714  11.652  64.656  1.00  0.00    -0.220 NA 
HETATM   12  H1  UNL     1     -10.336  13.348  62.887  1.00  0.00     0.000 HD 
HETATM   13  C   UNL     1      -9.427  10.829  65.675  1.00  0.00    -0.209 A  
HETATM   14  H2  UNL     1     -10.081  14.559  63.977  1.00  0.00     0.000 HD 
HETATM   15  N   UNL     1      -9.683  11.147  66.950  1.00  0.00    -0.189 NA 
BRANCH   4  16
HETATM   16  O   UNL     1     -11.692  16.138  68.143  1.00  0.00    -0.228 OA 
HETATM   17  C   UNL     1     -10.740  17.169  68.362  1.00  0.00    -0.347 C  
ENDBRANCH   4  16
BRANCH  13  18
HETATM   18  N   UNL     1      -8.893   9.572  65.423  1.00  0.00    -0.165 NA 
HETATM   19  C   UNL     1      -7.888   7.973  63.822  1.00  0.00    -0.142 C  
HETATM   20  C   UNL     1      -8.781   9.216  63.998  1.00  0.00    -0.137 C  
HETATM   21  N   UNL     1      -8.274   6.874  64.718  1.00  0.00    -0.095 N  
HETATM   22  C   UNL     1      -8.390   7.285  66.128  1.00  0.00    -0.133 C  
HETATM   23  C   UNL     1      -8.094   5.563  64.264  1.00  0.00    -0.124 C  
HETATM   24  O   UNL     1      -7.647   5.358  63.134  1.00  0.00    -0.060 OA 
HETATM   25  C   UNL     1      -9.349   8.477  66.287  1.00  0.00    -0.224 C  
BRANCH  23  26
HETATM   26  C   UNL     1      -8.432   4.444  65.129  1.00  0.00    -0.123 A  
HETATM   27  C   UNL     1      -8.207   3.090  64.944  1.00  0.00    -0.087 A  
HETATM   28  C   UNL     1      -8.758   2.419  66.060  1.00  0.00    -0.123 A  
HETATM   29  C   UNL     1      -9.322   3.395  66.846  1.00  0.00    -0.175 A  
HETATM   30  O   UNL     1      -9.155   4.618  66.280  1.00  0.00    -0.116 OA 
ENDBRANCH  23  26
ENDBRANCH  13  18
ENDBRANCH   2   3
TORSDOF 4
ENDMDL
MODEL      106
REMARK 921   NORMALIZED FREE ENERGY PREDICTED BY IDOCK:   -4.23 KCAL/MOL
REMARK 922        TOTAL FREE ENERGY PREDICTED BY IDOCK:   -5.78 KCAL/MOL
REMARK 923 INTER-LIGAND FREE ENERGY PREDICTED BY IDOCK:   -5.32 KCAL/MOL
REMARK 924 INTRA-LIGAND FREE ENERGY PREDICTED BY IDOCK:   -0.46 KCAL/MOL
REMARK 927      BINDING AFFINITY PREDICTED BY RF-SCORE:    0.00 PKD
ROOT
HETATM    1  C   UNL     1     -11.362   8.918  70.230  1.00  0.00    -0.159 C  
HETATM    2  O   UNL     1     -10.109   8.239  70.280  1.00  0.00    -0.188 OA 
ENDROOT
BRANCH   2   3
HETATM    3  C   UNL     1      -9.103   8.743  69.502  1.00  0.00    -0.146 A  
HETATM    4  C   UNL     1      -8.229   7.864  68.850  1.00  0.00    -0.126 A  
HETATM    5  C   UNL     1      -7.208   8.395  68.050  1.00  0.00    -0.091 A  
HETATM    6  C   UNL     1      -7.994  10.648  68.444  1.00  0.00    -0.120 A  
HETATM    7  C   UNL     1      -7.094   9.786  67.827  1.00  0.00    -0.087 A  
HETATM    8  C   UNL     1      -8.965  10.121  69.280  1.00  0.00    -0.193 A  
HETATM    9  C   UNL     1      -6.143  10.423  67.025  1.00  0.00    -0.052 A  
HETATM   10  N   UNL     1      -5.131   9.705  66.379  1.00  0.00    -0.042 NA 
HETATM   11  N   UNL     1      -6.111  11.752  66.840  1.00  0.00    -0.150 NA 
HETATM   12  H1  UNL     1      -4.437  10.170  65.794  1.00  0.00     0.000 HD 
HETATM   13  C   UNL     1      -7.046  12.496  67.448  1.00  0.00    -0.146 A  
HETATM   14  H2  UNL     1      -5.572   8.974  65.822  1.00  0.00     0.000 HD 
HETATM   15  N   UNL     1      -7.974  11.966  68.253  1.00  0.00    -0.142 NA 
BRANCH   4  16
HETATM   16  O   UNL     1      -8.212   6.495  68.876  1.00  0.00    -0.116 OA 
HETATM   17  C   UNL     1      -9.143   5.786  68.071  1.00  0.00    -0.110 C  
ENDBRANCH   4  16
BRANCH  13  18
HETATM   18  N   UNL     1      -7.042  13.876  67.296  1.00  0.00    -0.116 NA 
HETATM   19  C   UNL     1      -5.877  16.042  67.585  1.00  0.00    -0.150 C  
HETATM   20  C   UNL     1      -6.010  14.586  68.072  1.00  0.00    -0.151 C  
HETATM   21  N   UNL     1      -7.176  16.723  67.490  1.00  0.00    -0.141 N  
HETATM   22  C   UNL     1      -8.177  15.965  66.721  1.00  0.00    -0.272 C  
HETATM   23  C   UNL     1      -7.217  18.097  67.748  1.00  0.00    -0.213 C  
HETATM   24  O   UNL     1      -6.188  18.696  68.066  1.00  0.00    -0.193 OA 
HETATM   25  C   UNL     1      -8.350  14.540  67.276  1.00  0.00    -0.212 C  
BRANCH  23  26
HETATM   26  C   UNL     1      -8.474  18.819  67.635  1.00  0.00    -0.272 A  
HETATM   27  C   UNL     1      -9.106  19.316  66.507  1.00  0.00    -0.383 A  
HETATM   28  C   UNL     1     -10.284  19.965  66.941  1.00  0.00    -0.600 A  
HETATM   29  C   UNL     1     -10.290  19.863  68.311  1.00  0.00    -0.393 A  
HETATM   30  O   UNL     1      -9.188  19.197  68.742  1.00  0.00    -0.360 OA 
ENDBRANCH  23  26
ENDBRANCH  13  18
ENDBRANCH   2   3
TORSDOF 4
ENDMDL
MODEL      107
REMARK 921   NORMALIZED FREE ENERGY PREDICTED BY IDOCK:   -4.18 KCAL/MOL
REMARK 922        TOTAL FREE ENERGY PREDICTED BY IDOCK:   -5.72 KCAL/MOL
REMARK 923 INTER-LIGAND FREE ENERGY PREDICTED BY IDOCK:   -5.51 KCAL/MOL
REMARK 924 INTRA-LIGAND FREE ENERGY PREDICTED BY IDOCK:   -0.20 KCAL/MOL
REMARK 927      BINDING AFFINITY PREDICTED BY RF-SCORE:    0.00 PKD
ROOT
HETATM    1  C   UNL     1     -10.669  19.275  65.800  1.00  0.00    -0.330 C  
HETATM    2  O   UNL     1     -10.546  18.623  67.062  1.00  0.00    -0.397 OA 
ENDROOT
BRANCH   2   3
HETATM    3  C   UNL     1      -9.604  17.636  67.157  1.00  0.00    -0.278 A  
HETATM    4  C   UNL     1      -8.246  17.966  67.060  1.00  0.00    -0.226 A  
HETATM    5  C   UNL     1      -7.293  16.945  67.167  1.00  0.00    -0.213 A  
HETATM    6  C   UNL     1      -9.017  15.302  67.588  1.00  0.00    -0.179 A  
HETATM    7  C   UNL     1      -7.669  15.612  67.449  1.00  0.00    -0.215 A  
HETATM    8  C   UNL     1      -9.958  16.304  67.423  1.00  0.00    -0.249 A  
HETATM    9  C   UNL     1      -6.807  14.523  67.613  1.00  0.00    -0.182 A  
HETATM   10  N   UNL     1      -5.423  14.654  67.449  1.00  0.00    -0.304 NA 
HETATM   11  N   UNL     1      -7.235  13.286  67.905  1.00  0.00    -0.119 NA 
HETATM   12  H1  UNL     1      -4.795  13.860  67.568  1.00  0.00     0.000 HD 
HETATM   13  C   UNL     1      -8.553  13.094  68.056  1.00  0.00    -0.182 A  
HETATM   14  H2  UNL     1      -5.104  15.402  68.065  1.00  0.00     0.000 HD 
HETATM   15  N   UNL     1      -9.446  14.078  67.891  1.00  0.00    -0.203 NA 
BRANCH   4  16
HETATM   16  O   UNL     1      -7.675  19.194  66.862  1.00  0.00    -0.230 OA 
HETATM   17  C   UNL     1      -6.292  19.261  66.546  1.00  0.00    -0.186 C  
ENDBRANCH   4  16
BRANCH  13  18
HETATM   18  N   UNL     1      -9.042  11.827  68.345  1.00  0.00    -0.188 NA 
HETATM   19  C   UNL     1     -10.966  10.363  68.876  1.00  0.00    -0.245 C  
HETATM   20  C   UNL     1     -10.404  11.796  68.905  1.00  0.00    -0.128 C  
HETATM   21  N   UNL     1     -10.030   9.381  69.439  1.00  0.00    -0.175 N  
HETATM   22  C   UNL     1      -8.678   9.464  68.860  1.00  0.00    -0.132 C  
HETATM   23  C   UNL     1     -10.563   8.272  70.106  1.00  0.00    -0.233 C  
HETATM   24  O   UNL     1     -11.784   8.153  70.225  1.00  0.00    -0.089 OA 
HETATM   25  C   UNL     1      -8.107  10.888  68.974  1.00  0.00    -0.126 C  
BRANCH  23  26
HETATM   26  C   UNL     1      -9.675   7.258  70.652  1.00  0.00    -0.175 A  
HETATM   27  C   UNL     1      -9.458   6.897  71.972  1.00  0.00    -0.147 A  
HETATM   28  C   UNL     1      -8.472   5.883  71.970  1.00  0.00    -0.125 A  
HETATM   29  C   UNL     1      -8.114   5.707  70.655  1.00  0.00    -0.116 A  
HETATM   30  O   UNL     1      -8.814   6.551  69.854  1.00  0.00    -0.141 OA 
ENDBRANCH  23  26
ENDBRANCH  13  18
ENDBRANCH   2   3
TORSDOF 4
ENDMDL
MODEL      108
REMARK 921   NORMALIZED FREE ENERGY PREDICTED BY IDOCK:   -4.15 KCAL/MOL
REMARK 922        TOTAL FREE ENERGY PREDICTED BY IDOCK:   -5.68 KCAL/MOL
REMARK 923 INTER-LIGAND FREE ENERGY PREDICTED BY IDOCK:   -5.13 KCAL/MOL
REMARK 924 INTRA-LIGAND FREE ENERGY PREDICTED BY IDOCK:   -0.55 KCAL/MOL
REMARK 927      BINDING AFFINITY PREDICTED BY RF-SCORE:    0.00 PKD
ROOT
HETATM    1  C   UNL     1     -11.942  14.972  68.493  1.00  0.00    -0.225 C  
HETATM    2  O   UNL     1     -12.715  13.896  67.965  1.00  0.00     0.334 OA 
ENDROOT
BRANCH   2   3
HETATM    3  C   UNL     1     -12.049  12.974  67.204  1.00  0.00    -0.264 A  
HETATM    4  C   UNL     1     -12.114  13.056  65.807  1.00  0.00    -0.454 A  
HETATM    5  C   UNL     1     -11.421  12.109  65.042  1.00  0.00    -0.377 A  
HETATM    6  C   UNL     1     -10.507  11.084  67.033  1.00  0.00    -0.240 A  
HETATM    7  C   UNL     1     -10.600  11.130  65.647  1.00  0.00    -0.286 A  
HETATM    8  C   UNL     1     -11.241  11.986  67.786  1.00  0.00    -0.331 A  
HETATM    9  C   UNL     1      -9.838  10.162  64.986  1.00  0.00    -0.322 A  
HETATM   10  N   UNL     1      -9.864  10.035  63.592  1.00  0.00    -0.493 NA 
HETATM   11  N   UNL     1      -9.059   9.277  65.627  1.00  0.00    -0.201 NA 
HETATM   12  H1  UNL     1      -9.309   9.329  63.111  1.00  0.00     0.000 HD 
HETATM   13  C   UNL     1      -9.007   9.337  66.966  1.00  0.00    -0.126 A  
HETATM   14  H2  UNL     1      -9.633  10.944  63.191  1.00  0.00     0.000 HD 
HETATM   15  N   UNL     1      -9.726  10.217  67.674  1.00  0.00    -0.159 NA 
BRANCH   4  16
HETATM   16  O   UNL     1     -12.788  13.961  65.032  1.00  0.00    -0.693 OA 
HETATM   17  C   UNL     1     -12.044  14.955  64.341  1.00  0.00    -0.401 C  
ENDBRANCH   4  16
BRANCH  13  18
HETATM   18  N   UNL     1      -8.226   8.432  67.671  1.00  0.00    -0.124 NA 
HETATM   19  C   UNL     1      -7.221   6.176  67.844  1.00  0.00    -0.083 C  
HETATM   20  C   UNL     1      -8.350   7.029  67.237  1.00  0.00    -0.122 C  
HETATM   21  N   UNL     1      -7.081   6.378  69.293  1.00  0.00    -0.078 N  
HETATM   22  C   UNL     1      -6.979   7.796  69.677  1.00  0.00    -0.048 C  
HETATM   23  C   UNL     1      -6.663   5.292  70.070  1.00  0.00    -0.044 C  
HETATM   24  O   UNL     1      -6.447   4.201  69.539  1.00  0.00    -0.031 OA 
HETATM   25  C   UNL     1      -8.161   8.612  69.126  1.00  0.00    -0.116 C  
BRANCH  23  26
HETATM   26  C   UNL     1      -6.480   5.454  71.504  1.00  0.00    -0.040 A  
HETATM   27  C   UNL     1      -7.413   5.764  72.480  1.00  0.00    -0.096 A  
HETATM   28  C   UNL     1      -6.719   5.838  73.710  1.00  0.00    -0.080 A  
HETATM   29  C   UNL     1      -5.397   5.608  73.413  1.00  0.00    -0.023 A  
HETATM   30  O   UNL     1      -5.238   5.402  72.080  1.00  0.00    -0.011 OA 
ENDBRANCH  23  26
ENDBRANCH  13  18
ENDBRANCH   2   3
TORSDOF 4
ENDMDL
MODEL      109
REMARK 921   NORMALIZED FREE ENERGY PREDICTED BY IDOCK:   -4.07 KCAL/MOL
REMARK 922        TOTAL FREE ENERGY PREDICTED BY IDOCK:   -5.59 KCAL/MOL
REMARK 923 INTER-LIGAND FREE ENERGY PREDICTED BY IDOCK:   -5.13 KCAL/MOL
REMARK 924 INTRA-LIGAND FREE ENERGY PREDICTED BY IDOCK:   -0.47 KCAL/MOL
REMARK 927      BINDING AFFINITY PREDICTED BY RF-SCORE:    0.00 PKD
ROOT
HETATM    1  C   UNL     1      -9.584   3.053  71.438  1.00  0.00    -0.157 C  
HETATM    2  O   UNL     1     -10.055   4.156  72.209  1.00  0.00    -0.170 OA 
ENDROOT
BRANCH   2   3
HETATM    3  C   UNL     1      -9.276   5.281  72.214  1.00  0.00    -0.138 A  
HETATM    4  C   UNL     1      -8.270   5.419  73.179  1.00  0.00    -0.115 A  
HETATM    5  C   UNL     1      -7.476   6.574  73.167  1.00  0.00    -0.089 A  
HETATM    6  C   UNL     1      -8.589   7.388  71.180  1.00  0.00    -0.122 A  
HETATM    7  C   UNL     1      -7.617   7.555  72.160  1.00  0.00    -0.086 A  
HETATM    8  C   UNL     1      -9.410   6.273  71.231  1.00  0.00    -0.164 A  
HETATM    9  C   UNL     1      -6.860   8.723  72.027  1.00  0.00    -0.032 A  
HETATM   10  N   UNL     1      -5.879   9.070  72.963  1.00  0.00    -0.228 NA 
HETATM   11  N   UNL     1      -7.034   9.601  71.027  1.00  0.00    -0.316 NA 
HETATM   12  H1  UNL     1      -5.327   9.922  72.866  1.00  0.00     0.000 HD 
HETATM   13  C   UNL     1      -7.973   9.332  70.109  1.00  0.00    -0.137 A  
HETATM   14  H2  UNL     1      -5.232   8.285  73.044  1.00  0.00     0.000 HD 
HETATM   15  N   UNL     1      -8.757   8.249  70.179  1.00  0.00    -0.131 NA 
BRANCH   4  16
HETATM   16  O   UNL     1      -7.926   4.560  74.188  1.00  0.00    -0.094 OA 
HETATM   17  C   UNL     1      -6.633   3.974  74.173  1.00  0.00    -0.044 C  
ENDBRANCH   4  16
BRANCH  13  18
HETATM   18  N   UNL     1      -8.197  10.220  69.065  1.00  0.00    -0.128 NA 
HETATM   19  C   UNL     1      -7.678  12.372  67.958  1.00  0.00    -0.135 C  
HETATM   20  C   UNL     1      -7.674  11.580  69.279  1.00  0.00     0.112 C  
HETATM   21  N   UNL     1      -8.969  12.296  67.261  1.00  0.00    -0.180 N  
HETATM   22  C   UNL     1      -9.457  10.917  67.088  1.00  0.00    -0.160 C  
HETATM   23  C   UNL     1      -9.377  13.404  66.512  1.00  0.00    -0.215 C  
HETATM   24  O   UNL     1      -8.672  14.414  66.470  1.00  0.00    -0.163 OA 
HETATM   25  C   UNL     1      -9.520  10.172  68.433  1.00  0.00    -0.143 C  
BRANCH  23  26
HETATM   26  C   UNL     1     -10.633  13.361  65.780  1.00  0.00    -0.282 A  
HETATM   27  C   UNL     1     -11.907  13.062  66.235  1.00  0.00    -0.466 A  
HETATM   28  C   UNL     1     -12.774  13.127  65.120  1.00  0.00    -0.468 A  
HETATM   29  C   UNL     1     -11.978  13.423  64.039  1.00  0.00    -0.464 A  
HETATM   30  O   UNL     1     -10.681  13.540  64.422  1.00  0.00    -0.408 OA 
ENDBRANCH  23  26
ENDBRANCH  13  18
ENDBRANCH   2   3
TORSDOF 4
ENDMDL
MODEL      110
REMARK 921   NORMALIZED FREE ENERGY PREDICTED BY IDOCK:   -4.05 KCAL/MOL
REMARK 922        TOTAL FREE ENERGY PREDICTED BY IDOCK:   -5.56 KCAL/MOL
REMARK 923 INTER-LIGAND FREE ENERGY PREDICTED BY IDOCK:   -5.02 KCAL/MOL
REMARK 924 INTRA-LIGAND FREE ENERGY PREDICTED BY IDOCK:   -0.55 KCAL/MOL
REMARK 927      BINDING AFFINITY PREDICTED BY RF-SCORE:    0.00 PKD
ROOT
HETATM    1  C   UNL     1     -11.247   1.839  73.415  1.00  0.00    -0.180 C  
HETATM    2  O   UNL     1     -10.655   2.983  74.025  1.00  0.00    -0.160 OA 
ENDROOT
BRANCH   2   3
HETATM    3  C   UNL     1      -9.850   3.757  73.234  1.00  0.00    -0.120 A  
HETATM    4  C   UNL     1      -8.520   3.375  73.021  1.00  0.00    -0.082 A  
HETATM    5  C   UNL     1      -7.710   4.174  72.202  1.00  0.00    -0.080 A  
HETATM    6  C   UNL     1      -9.563   5.648  71.711  1.00  0.00    -0.156 A  
HETATM    7  C   UNL     1      -8.229   5.302  71.528  1.00  0.00    -0.117 A  
HETATM    8  C   UNL     1     -10.343   4.889  72.568  1.00  0.00    -0.256 A  
HETATM    9  C   UNL     1      -7.528   6.147  70.663  1.00  0.00    -0.087 A  
HETATM   10  N   UNL     1      -6.161   5.972  70.416  1.00  0.00    -0.030 NA 
HETATM   11  N   UNL     1      -8.094   7.190  70.036  1.00  0.00    -0.125 NA 
HETATM   12  H1  UNL     1      -5.650   6.588  69.784  1.00  0.00     0.000 HD 
HETATM   13  C   UNL     1      -9.397   7.420  70.248  1.00  0.00    -0.162 A  
HETATM   14  H2  UNL     1      -6.021   5.012  70.099  1.00  0.00     0.000 HD 
HETATM   15  N   UNL     1     -10.133   6.674  71.082  1.00  0.00    -0.183 NA 
BRANCH   4  16
HETATM   16  O   UNL     1      -7.849   2.290  73.518  1.00  0.00    -0.042 OA 
HETATM   17  C   UNL     1      -6.441   2.221  73.349  1.00  0.00    -0.017 C  
ENDBRANCH   4  16
BRANCH  13  18
HETATM   18  N   UNL     1     -10.021   8.497  69.632  1.00  0.00    -0.188 NA 
HETATM   19  C   UNL     1     -10.747   9.626  67.552  1.00  0.00    -0.256 C  
HETATM   20  C   UNL     1      -9.765   8.624  68.187  1.00  0.00    -0.158 C  
HETATM   21  N   UNL     1     -10.815  10.893  68.294  1.00  0.00    -0.207 N  
HETATM   22  C   UNL     1     -11.053  10.712  69.736  1.00  0.00    -0.295 C  
HETATM   23  C   UNL     1     -11.053  12.066  67.570  1.00  0.00    -0.275 C  
HETATM   24  O   UNL     1     -11.176  12.020  66.345  1.00  0.00    -0.306 OA 
HETATM   25  C   UNL     1     -10.011   9.769  70.363  1.00  0.00    -0.233 C  
BRANCH  23  26
HETATM   26  C   UNL     1     -11.158  13.339  68.266  1.00  0.00    -0.266 A  
HETATM   27  C   UNL     1     -10.157  14.202  68.677  1.00  0.00    -0.229 A  
HETATM   28  C   UNL     1     -10.784  15.283  69.339  1.00  0.00    -0.266 A  
HETATM   29  C   UNL     1     -12.129  15.002  69.331  1.00  0.00    -0.255 A  
HETATM   30  O   UNL     1     -12.363  13.818  68.709  1.00  0.00    -0.284 OA 
ENDBRANCH  23  26
ENDBRANCH  13  18
ENDBRANCH   2   3
TORSDOF 4
ENDMDL
MODEL      111
REMARK 921   NORMALIZED FREE ENERGY PREDICTED BY IDOCK:   -4.01 KCAL/MOL
REMARK 922        TOTAL FREE ENERGY PREDICTED BY IDOCK:   -5.51 KCAL/MOL
REMARK 923 INTER-LIGAND FREE ENERGY PREDICTED BY IDOCK:   -5.40 KCAL/MOL
REMARK 924 INTRA-LIGAND FREE ENERGY PREDICTED BY IDOCK:   -0.12 KCAL/MOL
REMARK 927      BINDING AFFINITY PREDICTED BY RF-SCORE:    0.00 PKD
ROOT
HETATM    1  C   UNL     1      -5.445  19.005  71.019  1.00  0.00    -0.221 C  
HETATM    2  O   UNL     1      -5.292  17.949  70.074  1.00  0.00    -0.203 OA 
ENDROOT
BRANCH   2   3
HETATM    3  C   UNL     1      -6.385  17.643  69.309  1.00  0.00    -0.247 A  
HETATM    4  C   UNL     1      -7.040  18.660  68.603  1.00  0.00    -0.288 A  
HETATM    5  C   UNL     1      -8.153  18.329  67.818  1.00  0.00    -0.256 A  
HETATM    6  C   UNL     1      -7.891  15.981  68.335  1.00  0.00    -0.149 A  
HETATM    7  C   UNL     1      -8.574  16.989  67.664  1.00  0.00    -0.213 A  
HETATM    8  C   UNL     1      -6.828  16.320  69.155  1.00  0.00    -0.202 A  
HETATM    9  C   UNL     1      -9.643  16.540  66.883  1.00  0.00    -0.243 A  
HETATM   10  N   UNL     1     -10.469  17.432  66.189  1.00  0.00    -0.327 NA 
HETATM   11  N   UNL     1      -9.971  15.244  66.764  1.00  0.00    -0.237 NA 
HETATM   12  H1  UNL     1     -11.248  17.104  65.620  1.00  0.00     0.000 HD 
HETATM   13  C   UNL     1      -9.228  14.342  67.420  1.00  0.00    -0.198 A  
HETATM   14  H2  UNL     1      -9.874  18.016  65.601  1.00  0.00     0.000 HD 
HETATM   15  N   UNL     1      -8.205  14.693  68.209  1.00  0.00    -0.138 NA 
BRANCH   4  16
HETATM   16  O   UNL     1      -6.750  19.997  68.561  1.00  0.00    -0.291 OA 
HETATM   17  C   UNL     1      -6.162  20.531  67.383  1.00  0.00    -0.229 C  
ENDBRANCH   4  16
BRANCH  13  18
HETATM   18  N   UNL     1      -9.540  12.992  67.337  1.00  0.00    -0.205 NA 
HETATM   19  C   UNL     1     -10.914  11.079  68.099  1.00  0.00    -0.247 C  
HETATM   20  C   UNL     1     -10.354  12.471  68.449  1.00  0.00    -0.230 C  
HETATM   21  N   UNL     1      -9.878  10.168  67.595  1.00  0.00    -0.167 N  
HETATM   22  C   UNL     1      -9.080  10.741  66.498  1.00  0.00    -0.165 C  
HETATM   23  C   UNL     1     -10.007   8.804  67.881  1.00  0.00    -0.187 C  
HETATM   24  O   UNL     1     -10.956   8.403  68.557  1.00  0.00     0.014 OA 
HETATM   25  C   UNL     1      -8.466  12.093  66.900  1.00  0.00    -0.173 C  
BRANCH  23  26
HETATM   26  C   UNL     1      -9.022   7.861  67.375  1.00  0.00    -0.127 A  
HETATM   27  C   UNL     1      -7.656   7.814  67.594  1.00  0.00    -0.113 A  
HETATM   28  C   UNL     1      -7.151   6.724  66.848  1.00  0.00    -0.075 A  
HETATM   29  C   UNL     1      -8.229   6.188  66.185  1.00  0.00    -0.119 A  
HETATM   30  O   UNL     1      -9.359   6.884  66.474  1.00  0.00    -0.159 OA 
ENDBRANCH  23  26
ENDBRANCH  13  18
ENDBRANCH   2   3
TORSDOF 4
ENDMDL
MODEL      112
REMARK 921   NORMALIZED FREE ENERGY PREDICTED BY IDOCK:   -4.01 KCAL/MOL
REMARK 922        TOTAL FREE ENERGY PREDICTED BY IDOCK:   -5.51 KCAL/MOL
REMARK 923 INTER-LIGAND FREE ENERGY PREDICTED BY IDOCK:   -4.92 KCAL/MOL
REMARK 924 INTRA-LIGAND FREE ENERGY PREDICTED BY IDOCK:   -0.59 KCAL/MOL
REMARK 927      BINDING AFFINITY PREDICTED BY RF-SCORE:    0.00 PKD
ROOT
HETATM    1  C   UNL     1      -9.701   3.190  63.455  1.00  0.00    -0.120 C  
HETATM    2  O   UNL     1     -10.378   3.116  64.707  1.00  0.00     0.047 OA 
ENDROOT
BRANCH   2   3
HETATM    3  C   UNL     1      -9.973   3.988  65.681  1.00  0.00    -0.156 A  
HETATM    4  C   UNL     1      -8.989   3.592  66.595  1.00  0.00    -0.141 A  
HETATM    5  C   UNL     1      -8.578   4.500  67.581  1.00  0.00    -0.106 A  
HETATM    6  C   UNL     1     -10.022   6.219  66.681  1.00  0.00    -0.153 A  
HETATM    7  C   UNL     1      -9.077   5.822  67.621  1.00  0.00    -0.106 A  
HETATM    8  C   UNL     1     -10.467   5.300  65.745  1.00  0.00    -0.001 A  
HETATM    9  C   UNL     1      -8.716   6.818  68.532  1.00  0.00    -0.124 A  
HETATM   10  N   UNL     1      -7.819   6.565  69.576  1.00  0.00    -0.104 NA 
HETATM   11  N   UNL     1      -9.214   8.064  68.493  1.00  0.00    -0.136 NA 
HETATM   12  H1  UNL     1      -7.556   7.292  70.240  1.00  0.00     0.000 HD 
HETATM   13  C   UNL     1     -10.093   8.361  67.525  1.00  0.00    -0.218 A  
HETATM   14  H2  UNL     1      -6.963   6.187  69.169  1.00  0.00     0.000 HD 
HETATM   15  N   UNL     1     -10.510   7.457  66.631  1.00  0.00    -0.215 NA 
BRANCH   4  16
HETATM   16  O   UNL     1      -8.333   2.394  66.683  1.00  0.00    -0.083 OA 
HETATM   17  C   UNL     1      -7.640   2.082  67.883  1.00  0.00    -0.055 C  
ENDBRANCH   4  16
BRANCH  13  18
HETATM   18  N   UNL     1     -10.645   9.633  67.456  1.00  0.00    -0.270 NA 
HETATM   19  C   UNL     1     -11.375  11.560  66.085  1.00  0.00    -0.131 C  
HETATM   20  C   UNL     1     -10.459  10.326  66.169  1.00  0.00    -0.130 C  
HETATM   21  N   UNL     1     -11.282  12.412  67.279  1.00  0.00    -0.284 N  
HETATM   22  C   UNL     1     -11.457  11.671  68.539  1.00  0.00    -0.298 C  
HETATM   23  C   UNL     1     -11.448  13.792  67.116  1.00  0.00    -0.340 C  
HETATM   24  O   UNL     1     -11.643  14.261  65.993  1.00  0.00    -0.342 OA 
HETATM   25  C   UNL     1     -10.475  10.489  68.635  1.00  0.00    -0.191 C  
BRANCH  23  26
HETATM   26  C   UNL     1     -11.395  14.670  68.274  1.00  0.00    -0.297 A  
HETATM   27  C   UNL     1     -10.295  15.223  68.909  1.00  0.00    -0.243 A  
HETATM   28  C   UNL     1     -10.781  15.973  70.005  1.00  0.00    -0.328 A  
HETATM   29  C   UNL     1     -12.145  15.807  70.002  1.00  0.00    -0.324 A  
HETATM   30  O   UNL     1     -12.523  15.000  68.978  1.00  0.00    -0.069 OA 
ENDBRANCH  23  26
ENDBRANCH  13  18
ENDBRANCH   2   3
TORSDOF 4
ENDMDL
MODEL      113
REMARK 921   NORMALIZED FREE ENERGY PREDICTED BY IDOCK:   -3.98 KCAL/MOL
REMARK 922        TOTAL FREE ENERGY PREDICTED BY IDOCK:   -5.47 KCAL/MOL
REMARK 923 INTER-LIGAND FREE ENERGY PREDICTED BY IDOCK:   -5.44 KCAL/MOL
REMARK 924 INTRA-LIGAND FREE ENERGY PREDICTED BY IDOCK:   -0.03 KCAL/MOL
REMARK 927      BINDING AFFINITY PREDICTED BY RF-SCORE:    0.00 PKD
ROOT
HETATM    1  C   UNL     1     -10.939  17.400  68.103  1.00  0.00    -0.160 C  
HETATM    2  O   UNL     1     -10.575  16.617  66.968  1.00  0.00    -0.311 OA 
ENDROOT
BRANCH   2   3
HETATM    3  C   UNL     1      -9.729  15.565  67.190  1.00  0.00    -0.222 A  
HETATM    4  C   UNL     1      -8.347  15.754  67.073  1.00  0.00    -0.226 A  
HETATM    5  C   UNL     1      -7.493  14.668  67.312  1.00  0.00    -0.148 A  
HETATM    6  C   UNL     1      -9.364  13.252  67.896  1.00  0.00    -0.214 A  
HETATM    7  C   UNL     1      -7.993  13.418  67.741  1.00  0.00    -0.167 A  
HETATM    8  C   UNL     1     -10.208  14.312  67.603  1.00  0.00    -0.237 A  
HETATM    9  C   UNL     1      -7.238  12.281  68.041  1.00  0.00    -0.102 A  
HETATM   10  N   UNL     1      -5.847  12.263  67.883  1.00  0.00    -0.068 NA 
HETATM   11  N   UNL     1      -7.781  11.131  68.469  1.00  0.00    -0.121 NA 
HETATM   12  H1  UNL     1      -5.296  11.433  68.102  1.00  0.00     0.000 HD 
HETATM   13  C   UNL     1      -9.111  11.081  68.623  1.00  0.00    -0.174 A  
HETATM   14  H2  UNL     1      -5.461  13.044  68.412  1.00  0.00     0.000 HD 
HETATM   15  N   UNL     1      -9.907  12.117  68.332  1.00  0.00    -0.212 NA 
BRANCH   4  16
HETATM   16  O   UNL     1      -7.662  16.893  66.742  1.00  0.00    -0.195 OA 
HETATM   17  C   UNL     1      -7.304  17.799  67.776  1.00  0.00    -0.202 C  
ENDBRANCH   4  16
BRANCH  13  18
HETATM   18  N   UNL     1      -9.718   9.907  69.050  1.00  0.00    -0.183 NA 
HETATM   19  C   UNL     1     -11.490   8.789  70.367  1.00  0.00    -0.144 C  
HETATM   20  C   UNL     1     -10.635  10.058  70.192  1.00  0.00    -0.296 C  
HETATM   21  N   UNL     1     -10.681   7.562  70.366  1.00  0.00    -0.234 N  
HETATM   22  C   UNL     1      -9.768   7.467  69.215  1.00  0.00    -0.163 C  
HETATM   23  C   UNL     1     -11.114   6.489  71.152  1.00  0.00    -0.282 C  
HETATM   24  O   UNL     1     -12.134   6.597  71.836  1.00  0.00    -0.326 OA 
HETATM   25  C   UNL     1      -8.869   8.712  69.108  1.00  0.00    -0.137 C  
BRANCH  23  26
HETATM   26  C   UNL     1     -10.362   5.244  71.157  1.00  0.00    -0.221 A  
HETATM   27  C   UNL     1     -10.166   4.339  72.188  1.00  0.00    -0.234 A  
HETATM   28  C   UNL     1      -9.331   3.314  71.688  1.00  0.00    -0.207 A  
HETATM   29  C   UNL     1      -9.032   3.666  70.393  1.00  0.00    -0.098 A  
HETATM   30  O   UNL     1      -9.627   4.844  70.072  1.00  0.00    -0.155 OA 
ENDBRANCH  23  26
ENDBRANCH  13  18
ENDBRANCH   2   3
TORSDOF 4
ENDMDL
MODEL      114
REMARK 921   NORMALIZED FREE ENERGY PREDICTED BY IDOCK:   -3.94 KCAL/MOL
REMARK 922        TOTAL FREE ENERGY PREDICTED BY IDOCK:   -5.42 KCAL/MOL
REMARK 923 INTER-LIGAND FREE ENERGY PREDICTED BY IDOCK:   -5.41 KCAL/MOL
REMARK 924 INTRA-LIGAND FREE ENERGY PREDICTED BY IDOCK:   -0.02 KCAL/MOL
REMARK 927      BINDING AFFINITY PREDICTED BY RF-SCORE:    0.00 PKD
ROOT
HETATM    1  C   UNL     1     -10.766   2.538  72.884  1.00  0.00    -0.106 C  
HETATM    2  O   UNL     1     -10.195   3.773  73.306  1.00  0.00    -0.134 OA 
ENDROOT
BRANCH   2   3
HETATM    3  C   UNL     1      -9.352   4.396  72.426  1.00  0.00    -0.126 A  
HETATM    4  C   UNL     1      -8.125   3.800  72.107  1.00  0.00    -0.076 A  
HETATM    5  C   UNL     1      -7.276   4.446  71.198  1.00  0.00    -0.040 A  
HETATM    6  C   UNL     1      -8.904   6.196  70.833  1.00  0.00    -0.136 A  
HETATM    7  C   UNL     1      -7.666   5.636  70.543  1.00  0.00    -0.094 A  
HETATM    8  C   UNL     1      -9.715   5.585  71.776  1.00  0.00    -0.202 A  
HETATM    9  C   UNL     1      -6.920   6.344  69.596  1.00  0.00    -0.071 A  
HETATM   10  N   UNL     1      -5.628   5.946  69.234  1.00  0.00    -0.008 NA 
HETATM   11  N   UNL     1      -7.366   7.458  68.995  1.00  0.00    -0.088 NA 
HETATM   12  H1  UNL     1      -5.085   6.463  68.544  1.00  0.00     0.000 HD 
HETATM   13  C   UNL     1      -8.591   7.900  69.314  1.00  0.00    -0.138 A  
HETATM   14  H2  UNL     1      -5.674   4.972  68.933  1.00  0.00     0.000 HD 
HETATM   15  N   UNL     1      -9.357   7.294  70.230  1.00  0.00    -0.159 NA 
BRANCH   4  16
HETATM   16  O   UNL     1      -7.596   2.626  72.571  1.00  0.00    -0.049 OA 
HETATM   17  C   UNL     1      -7.314   1.590  71.642  1.00  0.00    -0.035 C  
ENDBRANCH   4  16
BRANCH  13  18
HETATM   18  N   UNL     1      -9.087   9.056  68.727  1.00  0.00    -0.136 NA 
HETATM   19  C   UNL     1     -10.360  11.168  68.940  1.00  0.00    -0.201 C  
HETATM   20  C   UNL     1     -10.124   9.755  69.505  1.00  0.00    -0.217 C  
HETATM   21  N   UNL     1     -10.558  11.165  67.484  1.00  0.00    -0.207 N  
HETATM   22  C   UNL     1      -9.506  10.439  66.754  1.00  0.00    -0.166 C  
HETATM   23  C   UNL     1     -11.415  12.126  66.936  1.00  0.00    -0.351 C  
HETATM   24  O   UNL     1     -11.994  12.927  67.672  1.00  0.00    -0.352 OA 
HETATM   25  C   UNL     1      -9.344   9.003  67.284  1.00  0.00    -0.139 C  
BRANCH  23  26
HETATM   26  C   UNL     1     -11.617  12.180  65.497  1.00  0.00    -0.343 A  
HETATM   27  C   UNL     1     -10.680  12.176  64.476  1.00  0.00    -0.353 A  
HETATM   28  C   UNL     1     -11.391  12.279  63.258  1.00  0.00    -0.414 A  
HETATM   29  C   UNL     1     -12.718  12.379  63.602  1.00  0.00    -0.354 A  
HETATM   30  O   UNL     1     -12.863  12.348  64.951  1.00  0.00    -0.711 OA 
ENDBRANCH  23  26
ENDBRANCH  13  18
ENDBRANCH   2   3
TORSDOF 4
ENDMDL
MODEL      115
REMARK 921   NORMALIZED FREE ENERGY PREDICTED BY IDOCK:   -3.77 KCAL/MOL
REMARK 922        TOTAL FREE ENERGY PREDICTED BY IDOCK:   -5.22 KCAL/MOL
REMARK 923 INTER-LIGAND FREE ENERGY PREDICTED BY IDOCK:   -4.92 KCAL/MOL
REMARK 924 INTRA-LIGAND FREE ENERGY PREDICTED BY IDOCK:   -0.30 KCAL/MOL
REMARK 927      BINDING AFFINITY PREDICTED BY RF-SCORE:    0.00 PKD
ROOT
HETATM    1  C   UNL     1      -6.821  17.800  65.473  1.00  0.00     0.088 C  
HETATM    2  O   UNL     1      -7.888  18.006  66.396  1.00  0.00    -0.248 OA 
ENDROOT
BRANCH   2   3
HETATM    3  C   UNL     1      -8.754  16.963  66.579  1.00  0.00    -0.269 A  
HETATM    4  C   UNL     1     -10.117  17.224  66.773  1.00  0.00    -0.302 A  
HETATM    5  C   UNL     1     -10.993  16.144  66.951  1.00  0.00    -0.094 A  
HETATM    6  C   UNL     1      -9.197  14.559  66.624  1.00  0.00    -0.266 A  
HETATM    7  C   UNL     1     -10.544  14.807  66.861  1.00  0.00    -0.294 A  
HETATM    8  C   UNL     1      -8.325  15.629  66.507  1.00  0.00    -0.276 A  
HETATM    9  C   UNL     1     -11.329  13.658  66.986  1.00  0.00    -0.324 A  
HETATM   10  N   UNL     1     -12.695  13.733  67.282  1.00  0.00    -0.148 NA 
HETATM   11  N   UNL     1     -10.837  12.415  66.863  1.00  0.00    -0.244 NA 
HETATM   12  H1  UNL     1     -13.267  12.894  67.373  1.00  0.00     0.000 HD 
HETATM   13  C   UNL     1      -9.530  12.279  66.597  1.00  0.00    -0.226 A  
HETATM   14  H2  UNL     1     -13.133  14.338  66.587  1.00  0.00     0.000 HD 
HETATM   15  N   UNL     1      -8.705  13.328  66.488  1.00  0.00     0.007 NA 
BRANCH   4  16
HETATM   16  O   UNL     1     -10.760  18.431  66.822  1.00  0.00    -0.357 OA 
HETATM   17  C   UNL     1     -10.556  19.356  65.764  1.00  0.00    -0.400 C  
ENDBRANCH   4  16
BRANCH  13  18
HETATM   18  N   UNL     1      -8.975  11.012  66.476  1.00  0.00    -0.167 NA 
HETATM   19  C   UNL     1      -8.471   9.039  65.068  1.00  0.00    -0.174 C  
HETATM   20  C   UNL     1      -9.381  10.265  65.272  1.00  0.00    -0.215 C  
HETATM   21  N   UNL     1      -8.327   8.236  66.290  1.00  0.00    -0.118 N  
HETATM   22  C   UNL     1      -7.939   9.031  67.467  1.00  0.00    -0.101 C  
HETATM   23  C   UNL     1      -8.167   6.853  66.152  1.00  0.00    -0.121 C  
HETATM   24  O   UNL     1      -8.172   6.341  65.031  1.00  0.00    -0.139 OA 
HETATM   25  C   UNL     1      -8.909  10.203  67.697  1.00  0.00    -0.125 C  
BRANCH  23  26
HETATM   26  C   UNL     1      -7.990   6.023  67.332  1.00  0.00    -0.102 A  
HETATM   27  C   UNL     1      -6.822   5.559  67.915  1.00  0.00    -0.064 A  
HETATM   28  C   UNL     1      -7.195   4.764  69.022  1.00  0.00    -0.053 A  
HETATM   29  C   UNL     1      -8.570   4.753  69.034  1.00  0.00    -0.080 A  
HETATM   30  O   UNL     1      -9.059   5.487  68.002  1.00  0.00    -0.108 OA 
ENDBRANCH  23  26
ENDBRANCH  13  18
ENDBRANCH   2   3
TORSDOF 4
ENDMDL
MODEL      116
REMARK 921   NORMALIZED FREE ENERGY PREDICTED BY IDOCK:   -3.71 KCAL/MOL
REMARK 922        TOTAL FREE ENERGY PREDICTED BY IDOCK:   -5.14 KCAL/MOL
REMARK 923 INTER-LIGAND FREE ENERGY PREDICTED BY IDOCK:   -4.57 KCAL/MOL
REMARK 924 INTRA-LIGAND FREE ENERGY PREDICTED BY IDOCK:   -0.57 KCAL/MOL
REMARK 927      BINDING AFFINITY PREDICTED BY RF-SCORE:    0.00 PKD
ROOT
HETATM    1  C   UNL     1      -8.778   2.980  67.208  1.00  0.00    -0.125 C  
HETATM    2  O   UNL     1      -9.549   3.554  66.156  1.00  0.00    -0.168 OA 
ENDROOT
BRANCH   2   3
HETATM    3  C   UNL     1      -9.061   4.700  65.588  1.00  0.00    -0.142 A  
HETATM    4  C   UNL     1      -8.337   4.622  64.392  1.00  0.00    -0.118 A  
HETATM    5  C   UNL     1      -7.850   5.805  63.819  1.00  0.00    -0.110 A  
HETATM    6  C   UNL     1      -8.898   7.139  65.542  1.00  0.00     0.046 A  
HETATM    7  C   UNL     1      -8.142   7.070  64.378  1.00  0.00    -0.052 A  
HETATM    8  C   UNL     1      -9.327   5.964  66.136  1.00  0.00    -0.150 A  
HETATM    9  C   UNL     1      -7.742   8.311  63.876  1.00  0.00    -0.141 A  
HETATM   10  N   UNL     1      -6.927   8.415  62.742  1.00  0.00    -0.090 NA 
HETATM   11  N   UNL     1      -8.078   9.478  64.448  1.00  0.00    -0.131 NA 
HETATM   12  H1  UNL     1      -6.635   9.320  62.376  1.00  0.00     0.000 HD 
HETATM   13  C   UNL     1      -8.843   9.442  65.548  1.00  0.00    -0.184 A  
HETATM   14  H2  UNL     1      -7.377   7.900  61.985  1.00  0.00     0.000 HD 
HETATM   15  N   UNL     1      -9.246   8.294  66.107  1.00  0.00    -0.197 NA 
BRANCH   4  16
HETATM   16  O   UNL     1      -8.010   3.514  63.658  1.00  0.00    -0.081 OA 
HETATM   17  C   UNL     1      -8.990   2.950  62.799  1.00  0.00    -0.088 C  
ENDBRANCH   4  16
BRANCH  13  18
HETATM   18  N   UNL     1      -9.203  10.624  66.182  1.00  0.00    -0.167 NA 
HETATM   19  C   UNL     1     -10.911  12.359  66.630  1.00  0.00    -0.246 C  
HETATM   20  C   UNL     1     -10.425  11.263  65.663  1.00  0.00    -0.261 C  
HETATM   21  N   UNL     1      -9.835  13.280  67.021  1.00  0.00    -0.236 N  
HETATM   22  C   UNL     1      -8.630  12.593  67.515  1.00  0.00    -0.185 C  
HETATM   23  C   UNL     1     -10.172  14.614  67.273  1.00  0.00    -0.241 C  
HETATM   24  O   UNL     1     -11.337  14.991  67.142  1.00  0.00    -0.338 OA 
HETATM   25  C   UNL     1      -8.117  11.559  66.497  1.00  0.00    -0.112 C  
BRANCH  23  26
HETATM   26  C   UNL     1      -9.144  15.554  67.694  1.00  0.00    -0.182 A  
HETATM   27  C   UNL     1      -8.925  16.118  68.940  1.00  0.00    -0.247 A  
HETATM   28  C   UNL     1      -7.821  16.993  68.813  1.00  0.00    -0.253 A  
HETATM   29  C   UNL     1      -7.451  16.945  67.490  1.00  0.00    -0.158 A  
HETATM   30  O   UNL     1      -8.261  16.101  66.800  1.00  0.00    -0.213 OA 
ENDBRANCH  23  26
ENDBRANCH  13  18
ENDBRANCH   2   3
TORSDOF 4
ENDMDL
MODEL      117
REMARK 921   NORMALIZED FREE ENERGY PREDICTED BY IDOCK:   -3.69 KCAL/MOL
REMARK 922        TOTAL FREE ENERGY PREDICTED BY IDOCK:   -5.12 KCAL/MOL
REMARK 923 INTER-LIGAND FREE ENERGY PREDICTED BY IDOCK:   -4.97 KCAL/MOL
REMARK 924 INTRA-LIGAND FREE ENERGY PREDICTED BY IDOCK:   -0.15 KCAL/MOL
REMARK 927      BINDING AFFINITY PREDICTED BY RF-SCORE:    0.00 PKD
ROOT
HETATM    1  C   UNL     1      -9.829   6.471  73.940  1.00  0.00    -0.252 C  
HETATM    2  O   UNL     1     -10.683   6.776  72.841  1.00  0.00    -0.230 OA 
ENDROOT
BRANCH   2   3
HETATM    3  C   UNL     1     -10.084   6.940  71.621  1.00  0.00    -0.190 A  
HETATM    4  C   UNL     1      -9.846   5.821  70.814  1.00  0.00    -0.183 A  
HETATM    5  C   UNL     1      -9.238   6.006  69.564  1.00  0.00    -0.145 A  
HETATM    6  C   UNL     1      -9.218   8.405  69.866  1.00  0.00    -0.151 A  
HETATM    7  C   UNL     1      -8.937   7.297  69.075  1.00  0.00    -0.134 A  
HETATM    8  C   UNL     1      -9.764   8.213  71.124  1.00  0.00    -0.200 A  
HETATM    9  C   UNL     1      -8.367   7.603  67.836  1.00  0.00    -0.123 A  
HETATM   10  N   UNL     1      -7.972   6.600  66.944  1.00  0.00    -0.107 NA 
HETATM   11  N   UNL     1      -8.131   8.859  67.426  1.00  0.00    -0.108 NA 
HETATM   12  H1  UNL     1      -7.556   6.823  66.040  1.00  0.00     0.000 HD 
HETATM   13  C   UNL     1      -8.472   9.864  68.246  1.00  0.00    -0.111 A  
HETATM   14  H2  UNL     1      -8.776   5.994  66.778  1.00  0.00     0.000 HD 
HETATM   15  N   UNL     1      -8.998   9.654  69.459  1.00  0.00    -0.179 NA 
BRANCH   4  16
HETATM   16  O   UNL     1     -10.124   4.505  71.068  1.00  0.00    -0.198 OA 
HETATM   17  C   UNL     1      -9.745   3.529  70.109  1.00  0.00    -0.085 C  
ENDBRANCH   4  16
BRANCH  13  18
HETATM   18  N   UNL     1      -8.232  11.179  67.869  1.00  0.00    -0.117 NA 
HETATM   19  C   UNL     1      -6.637  13.050  67.584  1.00  0.00    -0.159 C  
HETATM   20  C   UNL     1      -6.944  11.733  68.321  1.00  0.00    -0.075 C  
HETATM   21  N   UNL     1      -7.770  13.985  67.611  1.00  0.00    -0.163 N  
HETATM   22  C   UNL     1      -9.037  13.380  67.169  1.00  0.00    -0.235 C  
HETATM   23  C   UNL     1      -7.489  15.356  67.640  1.00  0.00    -0.173 C  
HETATM   24  O   UNL     1      -6.320  15.745  67.666  1.00  0.00    -0.137 OA 
HETATM   25  C   UNL     1      -9.362  12.109  67.974  1.00  0.00    -0.197 C  
BRANCH  23  26
HETATM   26  C   UNL     1      -8.579  16.319  67.636  1.00  0.00    -0.173 A  
HETATM   27  C   UNL     1      -8.567  17.659  67.285  1.00  0.00    -0.238 A  
HETATM   28  C   UNL     1      -9.875  18.155  67.489  1.00  0.00    -0.317 A  
HETATM   29  C   UNL     1     -10.605  17.102  67.988  1.00  0.00    -0.374 A  
HETATM   30  O   UNL     1      -9.825  15.997  68.107  1.00  0.00    -0.219 OA 
ENDBRANCH  23  26
ENDBRANCH  13  18
ENDBRANCH   2   3
TORSDOF 4
ENDMDL
MODEL      118
REMARK 921   NORMALIZED FREE ENERGY PREDICTED BY IDOCK:   -3.69 KCAL/MOL
REMARK 922        TOTAL FREE ENERGY PREDICTED BY IDOCK:   -5.11 KCAL/MOL
REMARK 923 INTER-LIGAND FREE ENERGY PREDICTED BY IDOCK:   -4.55 KCAL/MOL
REMARK 924 INTRA-LIGAND FREE ENERGY PREDICTED BY IDOCK:   -0.56 KCAL/MOL
REMARK 927      BINDING AFFINITY PREDICTED BY RF-SCORE:    0.00 PKD
ROOT
HETATM    1  C   UNL     1     -10.832   3.836  62.964  1.00  0.00    -0.110 C  
HETATM    2  O   UNL     1     -10.959   3.614  64.366  1.00  0.00    -0.207 OA 
ENDROOT
BRANCH   2   3
HETATM    3  C   UNL     1     -10.086   4.285  65.179  1.00  0.00    -0.207 A  
HETATM    4  C   UNL     1      -8.813   3.752  65.413  1.00  0.00    -0.121 A  
HETATM    5  C   UNL     1      -7.927   4.455  66.241  1.00  0.00    -0.099 A  
HETATM    6  C   UNL     1      -9.515   6.261  66.501  1.00  0.00    -0.152 A  
HETATM    7  C   UNL     1      -8.264   5.720  66.775  1.00  0.00    -0.105 A  
HETATM    8  C   UNL     1     -10.408   5.535  65.730  1.00  0.00     0.164 A  
HETATM    9  C   UNL     1      -7.452   6.524  67.580  1.00  0.00    -0.096 A  
HETATM   10  N   UNL     1      -6.185   6.100  67.996  1.00  0.00    -0.027 NA 
HETATM   11  N   UNL     1      -7.830   7.730  68.032  1.00  0.00    -0.122 NA 
HETATM   12  H1  UNL     1      -5.593   6.687  68.583  1.00  0.00     0.000 HD 
HETATM   13  C   UNL     1      -9.042   8.182  67.681  1.00  0.00    -0.134 A  
HETATM   14  H2  UNL     1      -5.650   5.848  67.164  1.00  0.00     0.000 HD 
HETATM   15  N   UNL     1      -9.890   7.462  66.936  1.00  0.00    -0.199 NA 
BRANCH   4  16
HETATM   16  O   UNL     1      -8.270   2.588  64.938  1.00  0.00    -0.085 OA 
HETATM   17  C   UNL     1      -7.378   2.652  63.835  1.00  0.00    -0.064 C  
ENDBRANCH   4  16
BRANCH  13  18
HETATM   18  N   UNL     1      -9.481   9.418  68.138  1.00  0.00    -0.133 NA 
HETATM   19  C   UNL     1     -11.005  10.731  69.581  1.00  0.00    -0.264 C  
HETATM   20  C   UNL     1     -10.777   9.400  68.839  1.00  0.00    -0.178 C  
HETATM   21  N   UNL     1     -10.768  11.900  68.723  1.00  0.00    -0.225 N  
HETATM   22  C   UNL     1      -9.469  11.861  68.031  1.00  0.00    -0.197 C  
HETATM   23  C   UNL     1     -11.537  13.047  68.949  1.00  0.00    -0.311 C  
HETATM   24  O   UNL     1     -12.397  13.048  69.831  1.00  0.00    -0.224 OA 
HETATM   25  C   UNL     1      -9.298  10.557  67.232  1.00  0.00    -0.146 C  
BRANCH  23  26
HETATM   26  C   UNL     1     -11.315  14.238  68.145  1.00  0.00    -0.288 A  
HETATM   27  C   UNL     1     -11.591  14.460  66.806  1.00  0.00    -0.399 A  
HETATM   28  C   UNL     1     -11.154  15.770  66.502  1.00  0.00    -0.079 A  
HETATM   29  C   UNL     1     -10.600  16.262  67.659  1.00  0.00    -0.311 A  
HETATM   30  O   UNL     1     -10.667  15.336  68.650  1.00  0.00    -0.232 OA 
ENDBRANCH  23  26
ENDBRANCH  13  18
ENDBRANCH   2   3
TORSDOF 4
ENDMDL
MODEL      119
REMARK 921   NORMALIZED FREE ENERGY PREDICTED BY IDOCK:   -3.69 KCAL/MOL
REMARK 922        TOTAL FREE ENERGY PREDICTED BY IDOCK:   -5.11 KCAL/MOL
REMARK 923 INTER-LIGAND FREE ENERGY PREDICTED BY IDOCK:   -5.03 KCAL/MOL
REMARK 924 INTRA-LIGAND FREE ENERGY PREDICTED BY IDOCK:   -0.09 KCAL/MOL
REMARK 927      BINDING AFFINITY PREDICTED BY RF-SCORE:    0.00 PKD
ROOT
HETATM    1  C   UNL     1      -9.808   4.480  71.517  1.00  0.00    -0.190 C  
HETATM    2  O   UNL     1      -9.381   3.861  70.306  1.00  0.00    -0.133 OA 
ENDROOT
BRANCH   2   3
HETATM    3  C   UNL     1      -9.188   4.682  69.229  1.00  0.00    -0.127 A  
HETATM    4  C   UNL     1      -8.900   4.123  67.978  1.00  0.00    -0.112 A  
HETATM    5  C   UNL     1      -8.712   4.977  66.882  1.00  0.00    -0.107 A  
HETATM    6  C   UNL     1      -9.215   6.917  68.236  1.00  0.00    -0.123 A  
HETATM    7  C   UNL     1      -8.886   6.374  66.999  1.00  0.00    -0.115 A  
HETATM    8  C   UNL     1      -9.342   6.074  69.328  1.00  0.00    -0.146 A  
HETATM    9  C   UNL     1      -8.760   7.315  65.972  1.00  0.00    -0.151 A  
HETATM   10  N   UNL     1      -8.378   6.940  64.679  1.00  0.00    -0.329 NA 
HETATM   11  N   UNL     1      -8.965   8.629  66.151  1.00  0.00    -0.168 NA 
HETATM   12  H1  UNL     1      -8.286   7.626  63.930  1.00  0.00     0.000 HD 
HETATM   13  C   UNL     1      -9.316   9.051  67.374  1.00  0.00    -0.139 A  
HETATM   14  H2  UNL     1      -9.018   6.213  64.361  1.00  0.00     0.000 HD 
HETATM   15  N   UNL     1      -9.432   8.218  68.416  1.00  0.00    -0.139 NA 
BRANCH   4  16
HETATM   16  O   UNL     1      -8.761   2.803  67.640  1.00  0.00    -0.093 OA 
HETATM   17  C   UNL     1      -8.083   1.937  68.538  1.00  0.00    -0.056 C  
ENDBRANCH   4  16
BRANCH  13  18
HETATM   18  N   UNL     1      -9.524  10.404  67.609  1.00  0.00    -0.148 NA 
HETATM   19  C   UNL     1     -10.608  12.187  68.940  1.00  0.00    -0.146 C  
HETATM   20  C   UNL     1     -10.667  10.717  68.483  1.00  0.00    -0.210 C  
HETATM   21  N   UNL     1     -10.397  13.115  67.820  1.00  0.00    -0.226 N  
HETATM   22  C   UNL     1      -9.254  12.748  66.966  1.00  0.00    -0.221 C  
HETATM   23  C   UNL     1     -10.978  14.385  67.902  1.00  0.00    -0.262 C  
HETATM   24  O   UNL     1     -11.662  14.689  68.881  1.00  0.00    -0.283 OA 
HETATM   25  C   UNL     1      -9.377  11.301  66.458  1.00  0.00    -0.185 C  
BRANCH  23  26
HETATM   26  C   UNL     1     -10.769  15.348  66.832  1.00  0.00    -0.314 A  
HETATM   27  C   UNL     1     -11.115  15.264  65.493  1.00  0.00    -0.330 A  
HETATM   28  C   UNL     1     -10.659  16.448  64.870  1.00  0.00    -0.116 A  
HETATM   29  C   UNL     1     -10.027  17.173  65.852  1.00  0.00    -0.194 A  
HETATM   30  O   UNL     1     -10.064  16.505  67.033  1.00  0.00    -0.265 OA 
ENDBRANCH  23  26
ENDBRANCH  13  18
ENDBRANCH   2   3
TORSDOF 4
ENDMDL
MODEL      120
REMARK 921   NORMALIZED FREE ENERGY PREDICTED BY IDOCK:   -3.67 KCAL/MOL
REMARK 922        TOTAL FREE ENERGY PREDICTED BY IDOCK:   -5.09 KCAL/MOL
REMARK 923 INTER-LIGAND FREE ENERGY PREDICTED BY IDOCK:   -4.77 KCAL/MOL
REMARK 924 INTRA-LIGAND FREE ENERGY PREDICTED BY IDOCK:   -0.32 KCAL/MOL
REMARK 927      BINDING AFFINITY PREDICTED BY RF-SCORE:    0.00 PKD
ROOT
HETATM    1  C   UNL     1      -5.835  17.740  69.539  1.00  0.00    -0.238 C  
HETATM    2  O   UNL     1      -5.531  16.417  69.105  1.00  0.00    -0.117 OA 
ENDROOT
BRANCH   2   3
HETATM    3  C   UNL     1      -6.499  15.764  68.391  1.00  0.00    -0.113 A  
HETATM    4  C   UNL     1      -6.984  16.333  67.207  1.00  0.00    -0.192 A  
HETATM    5  C   UNL     1      -7.970  15.649  66.482  1.00  0.00    -0.097 A  
HETATM    6  C   UNL     1      -7.902  13.794  68.033  1.00  0.00    -0.152 A  
HETATM    7  C   UNL     1      -8.422  14.370  66.879  1.00  0.00    -0.156 A  
HETATM    8  C   UNL     1      -6.971  14.500  68.777  1.00  0.00    -0.104 A  
HETATM    9  C   UNL     1      -9.370  13.583  66.219  1.00  0.00    -0.125 A  
HETATM   10  N   UNL     1     -10.032  14.040  65.074  1.00  0.00    -0.599 NA 
HETATM   11  N   UNL     1      -9.734  12.362  66.642  1.00  0.00    -0.220 NA 
HETATM   12  H1  UNL     1     -10.723  13.466  64.593  1.00  0.00     0.000 HD 
HETATM   13  C   UNL     1      -9.147  11.877  67.746  1.00  0.00    -0.180 A  
HETATM   14  H2  UNL     1      -9.324  14.316  64.393  1.00  0.00     0.000 HD 
HETATM   15  N   UNL     1      -8.250  12.578  68.450  1.00  0.00    -0.158 NA 
BRANCH   4  16
HETATM   16  O   UNL     1      -6.631  17.517  66.616  1.00  0.00    -0.173 OA 
HETATM   17  C   UNL     1      -7.634  18.500  66.404  1.00  0.00    -0.260 C  
ENDBRANCH   4  16
BRANCH  13  18
HETATM   18  N   UNL     1      -9.504  10.625  68.228  1.00  0.00    -0.154 NA 
HETATM   19  C   UNL     1     -11.277   8.994  68.799  1.00  0.00     0.323 C  
HETATM   20  C   UNL     1     -10.922  10.480  68.599  1.00  0.00    -0.248 C  
HETATM   21  N   UNL     1     -10.321   8.301  69.674  1.00  0.00    -0.214 N  
HETATM   22  C   UNL     1      -8.917   8.492  69.272  1.00  0.00    -0.146 C  
HETATM   23  C   UNL     1     -10.803   7.266  70.483  1.00  0.00    -0.243 C  
HETATM   24  O   UNL     1     -12.000   6.975  70.465  1.00  0.00    -0.325 OA 
HETATM   25  C   UNL     1      -8.565   9.986  69.157  1.00  0.00    -0.158 C  
BRANCH  23  26
HETATM   26  C   UNL     1      -9.887   6.532  71.342  1.00  0.00    -0.176 A  
HETATM   27  C   UNL     1      -9.376   6.878  72.582  1.00  0.00    -0.155 A  
HETATM   28  C   UNL     1      -8.504   5.837  72.978  1.00  0.00    -0.118 A  
HETATM   29  C   UNL     1      -8.501   4.932  71.944  1.00  0.00    -0.123 A  
HETATM   30  O   UNL     1      -9.311   5.355  70.940  1.00  0.00    -0.150 OA 
ENDBRANCH  23  26
ENDBRANCH  13  18
ENDBRANCH   2   3
TORSDOF 4
ENDMDL
MODEL      121
REMARK 921   NORMALIZED FREE ENERGY PREDICTED BY IDOCK:   -3.65 KCAL/MOL
REMARK 922        TOTAL FREE ENERGY PREDICTED BY IDOCK:   -5.06 KCAL/MOL
REMARK 923 INTER-LIGAND FREE ENERGY PREDICTED BY IDOCK:   -4.50 KCAL/MOL
REMARK 924 INTRA-LIGAND FREE ENERGY PREDICTED BY IDOCK:   -0.56 KCAL/MOL
REMARK 927      BINDING AFFINITY PREDICTED BY RF-SCORE:    0.00 PKD
ROOT
HETATM    1  C   UNL     1      -6.278  18.598  69.635  1.00  0.00    -0.240 C  
HETATM    2  O   UNL     1      -5.684  17.568  68.849  1.00  0.00    -0.164 OA 
ENDROOT
BRANCH   2   3
HETATM    3  C   UNL     1      -6.535  16.667  68.269  1.00  0.00    -0.133 A  
HETATM    4  C   UNL     1      -7.270  17.041  67.137  1.00  0.00    -0.172 A  
HETATM    5  C   UNL     1      -8.131  16.103  66.550  1.00  0.00    -0.331 A  
HETATM    6  C   UNL     1      -7.444  14.401  68.125  1.00  0.00    -0.128 A  
HETATM    7  C   UNL     1      -8.210  14.775  67.027  1.00  0.00    -0.211 A  
HETATM    8  C   UNL     1      -6.639  15.348  68.737  1.00  0.00    -0.106 A  
HETATM    9  C   UNL     1      -9.003  13.751  66.502  1.00  0.00    -0.057 A  
HETATM   10  N   UNL     1      -9.876  13.976  65.431  1.00  0.00    -0.551 NA 
HETATM   11  N   UNL     1      -9.009  12.502  66.993  1.00  0.00    -0.206 NA 
HETATM   12  H1  UNL     1     -10.454  13.229  65.048  1.00  0.00     0.000 HD 
HETATM   13  C   UNL     1      -8.206  12.229  68.031  1.00  0.00    -0.163 A  
HETATM   14  H2  UNL     1      -9.335  14.379  64.665  1.00  0.00     0.000 HD 
HETATM   15  N   UNL     1      -7.437  13.160  68.608  1.00  0.00    -0.111 NA 
BRANCH   4  16
HETATM   16  O   UNL     1      -7.282  18.243  66.482  1.00  0.00    -0.207 OA 
HETATM   17  C   UNL     1      -8.442  19.057  66.572  1.00  0.00    -0.314 C  
ENDBRANCH   4  16
BRANCH  13  18
HETATM   18  N   UNL     1      -8.191  10.954  68.581  1.00  0.00    -0.138 NA 
HETATM   19  C   UNL     1      -7.031   9.241  69.939  1.00  0.00    -0.061 C  
HETATM   20  C   UNL     1      -6.876  10.499  69.065  1.00  0.00    -0.068 C  
HETATM   21  N   UNL     1      -7.858   8.209  69.297  1.00  0.00    -0.107 N  
HETATM   22  C   UNL     1      -9.153   8.718  68.814  1.00  0.00    -0.138 C  
HETATM   23  C   UNL     1      -7.556   6.869  69.559  1.00  0.00    -0.099 C  
HETATM   24  O   UNL     1      -6.606   6.582  70.290  1.00  0.00    -0.045 OA 
HETATM   25  C   UNL     1      -8.967   9.926  67.879  1.00  0.00    -0.128 C  
BRANCH  23  26
HETATM   26  C   UNL     1      -8.367   5.815  68.970  1.00  0.00    -0.101 A  
HETATM   27  C   UNL     1      -9.153   4.858  69.592  1.00  0.00    -0.153 A  
HETATM   28  C   UNL     1      -9.706   4.048  68.574  1.00  0.00    -0.134 A  
HETATM   29  C   UNL     1      -9.200   4.529  67.390  1.00  0.00    -0.137 A  
HETATM   30  O   UNL     1      -8.368   5.578  67.620  1.00  0.00    -0.101 OA 
ENDBRANCH  23  26
ENDBRANCH  13  18
ENDBRANCH   2   3
TORSDOF 4
ENDMDL
MODEL      122
REMARK 921   NORMALIZED FREE ENERGY PREDICTED BY IDOCK:   -3.51 KCAL/MOL
REMARK 922        TOTAL FREE ENERGY PREDICTED BY IDOCK:   -4.89 KCAL/MOL
REMARK 923 INTER-LIGAND FREE ENERGY PREDICTED BY IDOCK:   -4.51 KCAL/MOL
REMARK 924 INTRA-LIGAND FREE ENERGY PREDICTED BY IDOCK:   -0.39 KCAL/MOL
REMARK 927      BINDING AFFINITY PREDICTED BY RF-SCORE:    0.00 PKD
ROOT
HETATM    1  C   UNL     1     -10.776  19.387  66.567  1.00  0.00    -0.418 C  
HETATM    2  O   UNL     1      -9.714  18.687  65.925  1.00  0.00    -0.498 OA 
ENDROOT
BRANCH   2   3
HETATM    3  C   UNL     1      -8.859  17.988  66.733  1.00  0.00    -0.263 A  
HETATM    4  C   UNL     1      -8.033  18.680  67.627  1.00  0.00    -0.246 A  
HETATM    5  C   UNL     1      -7.169  17.949  68.454  1.00  0.00    -0.256 A  
HETATM    6  C   UNL     1      -8.027  15.857  67.596  1.00  0.00    -0.146 A  
HETATM    7  C   UNL     1      -7.172  16.535  68.457  1.00  0.00    -0.175 A  
HETATM    8  C   UNL     1      -8.837  16.585  66.740  1.00  0.00    -0.255 A  
HETATM    9  C   UNL     1      -6.384  15.705  69.259  1.00  0.00    -0.136 A  
HETATM   10  N   UNL     1      -5.430  16.229  70.139  1.00  0.00    -0.173 NA 
HETATM   11  N   UNL     1      -6.458  14.366  69.226  1.00  0.00    -0.109 NA 
HETATM   12  H1  UNL     1      -4.855  15.624  70.724  1.00  0.00     0.000 HD 
HETATM   13  C   UNL     1      -7.342  13.805  68.388  1.00  0.00    -0.117 A  
HETATM   14  H2  UNL     1      -5.901  16.899  70.748  1.00  0.00     0.000 HD 
HETATM   15  N   UNL     1      -8.114  14.528  67.568  1.00  0.00    -0.175 NA 
BRANCH   4  16
HETATM   16  O   UNL     1      -7.930  20.030  67.830  1.00  0.00    -0.292 OA 
HETATM   17  C   UNL     1      -7.338  20.829  66.815  1.00  0.00    -0.201 C  
ENDBRANCH   4  16
BRANCH  13  18
HETATM   18  N   UNL     1      -7.443  12.422  68.310  1.00  0.00    -0.115 NA 
HETATM   19  C   UNL     1      -7.169  10.208  69.383  1.00  0.00    -0.096 C  
HETATM   20  C   UNL     1      -6.727  11.684  69.365  1.00  0.00    -0.110 C  
HETATM   21  N   UNL     1      -7.133   9.595  68.049  1.00  0.00    -0.079 N  
HETATM   22  C   UNL     1      -7.846  10.379  67.027  1.00  0.00    -0.112 C  
HETATM   23  C   UNL     1      -6.823   8.233  67.960  1.00  0.00    -0.066 C  
HETATM   24  O   UNL     1      -6.567   7.591  68.981  1.00  0.00    -0.042 OA 
HETATM   25  C   UNL     1      -7.332  11.828  66.973  1.00  0.00    -0.133 C  
BRANCH  23  26
HETATM   26  C   UNL     1      -6.807   7.576  66.663  1.00  0.00    -0.066 A  
HETATM   27  C   UNL     1      -7.611   6.556  66.183  1.00  0.00    -0.090 A  
HETATM   28  C   UNL     1      -7.166   6.253  64.876  1.00  0.00    -0.067 A  
HETATM   29  C   UNL     1      -6.091   7.078  64.642  1.00  0.00    -0.037 A  
HETATM   30  O   UNL     1      -5.849   7.861  65.725  1.00  0.00    -0.037 OA 
ENDBRANCH  23  26
ENDBRANCH  13  18
ENDBRANCH   2   3
TORSDOF 4
ENDMDL
MODEL      123
REMARK 921   NORMALIZED FREE ENERGY PREDICTED BY IDOCK:   -3.49 KCAL/MOL
REMARK 922        TOTAL FREE ENERGY PREDICTED BY IDOCK:   -4.87 KCAL/MOL
REMARK 923 INTER-LIGAND FREE ENERGY PREDICTED BY IDOCK:   -4.45 KCAL/MOL
REMARK 924 INTRA-LIGAND FREE ENERGY PREDICTED BY IDOCK:   -0.42 KCAL/MOL
REMARK 927      BINDING AFFINITY PREDICTED BY RF-SCORE:    0.00 PKD
ROOT
HETATM    1  C   UNL     1      -7.324  19.894  67.556  1.00  0.00    -0.270 C  
HETATM    2  O   UNL     1      -6.444  18.864  67.112  1.00  0.00    -0.190 OA 
ENDROOT
BRANCH   2   3
HETATM    3  C   UNL     1      -6.242  17.815  67.967  1.00  0.00    -0.167 A  
HETATM    4  C   UNL     1      -5.659  18.048  69.219  1.00  0.00    -0.203 A  
HETATM    5  C   UNL     1      -5.465  16.964  70.087  1.00  0.00    -0.219 A  
HETATM    6  C   UNL     1      -6.533  15.453  68.529  1.00  0.00    -0.099 A  
HETATM    7  C   UNL     1      -5.916  15.666  69.757  1.00  0.00    -0.151 A  
HETATM    8  C   UNL     1      -6.669  16.516  67.651  1.00  0.00    -0.161 A  
HETATM    9  C   UNL     1      -5.810  14.523  70.554  1.00  0.00    -0.173 A  
HETATM   10  N   UNL     1      -5.164  14.553  71.795  1.00  0.00    -0.161 NA 
HETATM   11  N   UNL     1      -6.285  13.323  70.185  1.00  0.00    -0.098 NA 
HETATM   12  H1  UNL     1      -5.087  13.719  72.377  1.00  0.00     0.000 HD 
HETATM   13  C   UNL     1      -6.899  13.227  68.997  1.00  0.00    -0.096 A  
HETATM   14  H2  UNL     1      -5.597  15.288  72.356  1.00  0.00     0.000 HD 
HETATM   15  N   UNL     1      -7.018  14.268  68.163  1.00  0.00    -0.113 NA 
BRANCH   4  16
HETATM   16  O   UNL     1      -5.222  19.229  69.755  1.00  0.00    -0.189 OA 
HETATM   17  C   UNL     1      -5.678  19.602  71.047  1.00  0.00    -0.235 C  
ENDBRANCH   4  16
BRANCH  13  18
HETATM   18  N   UNL     1      -7.393  12.002  68.568  1.00  0.00    -0.106 NA 
HETATM   19  C   UNL     1      -8.959  10.727  67.137  1.00  0.00    -0.141 C  
HETATM   20  C   UNL     1      -8.675  12.065  67.845  1.00  0.00    -0.170 C  
HETATM   21  N   UNL     1      -8.796   9.573  68.031  1.00  0.00    -0.124 N  
HETATM   22  C   UNL     1      -7.507   9.566  68.743  1.00  0.00    -0.075 C  
HETATM   23  C   UNL     1      -9.618   8.460  67.824  1.00  0.00    -0.156 C  
HETATM   24  O   UNL     1     -10.464   8.477  66.928  1.00  0.00    -0.308 OA 
HETATM   25  C   UNL     1      -7.282  10.882  69.508  1.00  0.00    -0.113 C  
BRANCH  23  26
HETATM   26  C   UNL     1      -9.470   7.283  68.664  1.00  0.00    -0.137 A  
HETATM   27  C   UNL     1      -9.050   6.007  68.325  1.00  0.00    -0.111 A  
HETATM   28  C   UNL     1      -9.115   5.221  69.499  1.00  0.00    -0.144 A  
HETATM   29  C   UNL     1      -9.607   6.048  70.481  1.00  0.00    -0.169 A  
HETATM   30  O   UNL     1      -9.850   7.287  69.981  1.00  0.00    -0.175 OA 
ENDBRANCH  23  26
ENDBRANCH  13  18
ENDBRANCH   2   3
TORSDOF 4
ENDMDL
MODEL      124
REMARK 921   NORMALIZED FREE ENERGY PREDICTED BY IDOCK:   -3.47 KCAL/MOL
REMARK 922        TOTAL FREE ENERGY PREDICTED BY IDOCK:   -4.85 KCAL/MOL
REMARK 923 INTER-LIGAND FREE ENERGY PREDICTED BY IDOCK:   -5.00 KCAL/MOL
REMARK 924 INTRA-LIGAND FREE ENERGY PREDICTED BY IDOCK:    0.15 KCAL/MOL
REMARK 927      BINDING AFFINITY PREDICTED BY RF-SCORE:    0.00 PKD
ROOT
HETATM    1  C   UNL     1      -8.084  18.090  66.662  1.00  0.00    -0.260 C  
HETATM    2  O   UNL     1      -7.671  16.823  66.157  1.00  0.00    -0.302 OA 
ENDROOT
BRANCH   2   3
HETATM    3  C   UNL     1      -8.501  15.762  66.399  1.00  0.00    -0.278 A  
HETATM    4  C   UNL     1      -9.774  15.736  65.817  1.00  0.00    -0.337 A  
HETATM    5  C   UNL     1     -10.610  14.639  66.068  1.00  0.00    -0.314 A  
HETATM    6  C   UNL     1      -8.883  13.548  67.363  1.00  0.00    -0.221 A  
HETATM    7  C   UNL     1     -10.165  13.532  66.826  1.00  0.00    -0.264 A  
HETATM    8  C   UNL     1      -8.083  14.660  67.160  1.00  0.00    -0.213 A  
HETATM    9  C   UNL     1     -10.894  12.374  67.110  1.00  0.00    -0.245 A  
HETATM   10  N   UNL     1     -12.222  12.223  66.691  1.00  0.00    -0.490 NA 
HETATM   11  N   UNL     1     -10.397  11.348  67.818  1.00  0.00    -0.178 NA 
HETATM   12  H1  UNL     1     -12.753  11.378  66.899  1.00  0.00     0.000 HD 
HETATM   13  C   UNL     1      -9.136  11.442  68.262  1.00  0.00    -0.179 A  
HETATM   14  H2  UNL     1     -12.251  12.373  65.683  1.00  0.00     0.000 HD 
HETATM   15  N   UNL     1      -8.380  12.527  68.055  1.00  0.00    -0.162 NA 
BRANCH   4  16
HETATM   16  O   UNL     1     -10.364  16.664  65.002  1.00  0.00    -0.623 OA 
HETATM   17  C   UNL     1     -11.644  16.380  64.458  1.00  0.00     0.021 C  
ENDBRANCH   4  16
BRANCH  13  18
HETATM   18  N   UNL     1      -8.585  10.410  69.011  1.00  0.00    -0.148 NA 
HETATM   19  C   UNL     1      -6.883   9.639  70.634  1.00  0.00    -0.116 C  
HETATM   20  C   UNL     1      -7.250  10.689  69.569  1.00  0.00    -0.140 C  
HETATM   21  N   UNL     1      -7.096   8.263  70.164  1.00  0.00    -0.040 N  
HETATM   22  C   UNL     1      -8.437   8.041  69.599  1.00  0.00    -0.131 C  
HETATM   23  C   UNL     1      -6.237   7.266  70.641  1.00  0.00    -0.035 C  
HETATM   24  O   UNL     1      -5.322   7.557  71.413  1.00  0.00    -0.030 OA 
HETATM   25  C   UNL     1      -8.749   9.052  68.482  1.00  0.00    -0.133 C  
BRANCH  23  26
HETATM   26  C   UNL     1      -6.430   5.885  70.227  1.00  0.00    -0.039 A  
HETATM   27  C   UNL     1      -7.162   5.379  69.166  1.00  0.00    -0.058 A  
HETATM   28  C   UNL     1      -7.056   3.970  69.221  1.00  0.00    -0.047 A  
HETATM   29  C   UNL     1      -6.298   3.691  70.333  1.00  0.00    -0.027 A  
HETATM   30  O   UNL     1      -5.939   4.839  70.963  1.00  0.00    -0.016 OA 
ENDBRANCH  23  26
ENDBRANCH  13  18
ENDBRANCH   2   3
TORSDOF 4
ENDMDL
MODEL      125
REMARK 921   NORMALIZED FREE ENERGY PREDICTED BY IDOCK:   -3.42 KCAL/MOL
REMARK 922        TOTAL FREE ENERGY PREDICTED BY IDOCK:   -4.79 KCAL/MOL
REMARK 923 INTER-LIGAND FREE ENERGY PREDICTED BY IDOCK:   -5.21 KCAL/MOL
REMARK 924 INTRA-LIGAND FREE ENERGY PREDICTED BY IDOCK:    0.43 KCAL/MOL
REMARK 927      BINDING AFFINITY PREDICTED BY RF-SCORE:    0.00 PKD
ROOT
HETATM    1  C   UNL     1      -5.453  17.971  68.520  1.00  0.00    -0.165 C  
HETATM    2  O   UNL     1      -5.737  16.822  67.727  1.00  0.00    -0.118 OA 
ENDROOT
BRANCH   2   3
HETATM    3  C   UNL     1      -6.894  16.148  68.009  1.00  0.00    -0.126 A  
HETATM    4  C   UNL     1      -8.045  16.867  68.352  1.00  0.00    -0.237 A  
HETATM    5  C   UNL     1      -9.224  16.163  68.631  1.00  0.00    -0.220 A  
HETATM    6  C   UNL     1      -8.156  14.056  68.113  1.00  0.00    -0.151 A  
HETATM    7  C   UNL     1      -9.293  14.758  68.496  1.00  0.00    -0.199 A  
HETATM    8  C   UNL     1      -6.978  14.752  67.895  1.00  0.00    -0.173 A  
HETATM    9  C   UNL     1     -10.419  13.957  68.712  1.00  0.00    -0.221 A  
HETATM   10  N   UNL     1     -11.629  14.501  69.158  1.00  0.00    -0.280 NA 
HETATM   11  N   UNL     1     -10.417  12.626  68.540  1.00  0.00    -0.239 NA 
HETATM   12  H1  UNL     1     -12.450  13.917  69.315  1.00  0.00     0.000 HD 
HETATM   13  C   UNL     1      -9.280  12.045  68.131  1.00  0.00    -0.195 A  
HETATM   14  H2  UNL     1     -11.893  15.247  68.514  1.00  0.00     0.000 HD 
HETATM   15  N   UNL     1      -8.152  12.737  67.928  1.00  0.00    -0.146 NA 
BRANCH   4  16
HETATM   16  O   UNL     1      -8.207  18.222  68.468  1.00  0.00    -0.306 OA 
HETATM   17  C   UNL     1      -8.190  19.014  67.289  1.00  0.00    -0.274 C  
ENDBRANCH   4  16
BRANCH  13  18
HETATM   18  N   UNL     1      -9.229  10.669  67.954  1.00  0.00    -0.147 NA 
HETATM   19  C   UNL     1     -10.034   8.648  66.774  1.00  0.00    -0.273 C  
HETATM   20  C   UNL     1     -10.351  10.096  67.192  1.00  0.00    -0.238 C  
HETATM   21  N   UNL     1      -9.552   7.832  67.896  1.00  0.00    -0.144 N  
HETATM   22  C   UNL     1      -8.443   8.456  68.637  1.00  0.00    -0.128 C  
HETATM   23  C   UNL     1      -9.869   6.469  67.902  1.00  0.00    -0.123 C  
HETATM   24  O   UNL     1     -10.554   5.992  66.995  1.00  0.00    -0.244 OA 
HETATM   25  C   UNL     1      -8.813   9.871  69.113  1.00  0.00    -0.164 C  
BRANCH  23  26
HETATM   26  C   UNL     1      -9.387   5.617  68.977  1.00  0.00    -0.124 A  
HETATM   27  C   UNL     1      -9.873   5.465  70.265  1.00  0.00    -0.272 A  
HETATM   28  C   UNL     1      -9.028   4.542  70.923  1.00  0.00    -0.165 A  
HETATM   29  C   UNL     1      -8.051   4.210  70.016  1.00  0.00    -0.058 A  
HETATM   30  O   UNL     1      -8.243   4.874  68.847  1.00  0.00    -0.083 OA 
ENDBRANCH  23  26
ENDBRANCH  13  18
ENDBRANCH   2   3
TORSDOF 4
ENDMDL
MODEL      126
REMARK 921   NORMALIZED FREE ENERGY PREDICTED BY IDOCK:   -3.35 KCAL/MOL
REMARK 922        TOTAL FREE ENERGY PREDICTED BY IDOCK:   -4.69 KCAL/MOL
REMARK 923 INTER-LIGAND FREE ENERGY PREDICTED BY IDOCK:   -5.15 KCAL/MOL
REMARK 924 INTRA-LIGAND FREE ENERGY PREDICTED BY IDOCK:    0.46 KCAL/MOL
REMARK 927      BINDING AFFINITY PREDICTED BY RF-SCORE:    0.00 PKD
ROOT
HETATM    1  C   UNL     1      -5.263   6.097  67.987  1.00  0.00    -0.004 C  
HETATM    2  O   UNL     1      -6.111   5.405  68.900  1.00  0.00    -0.023 OA 
ENDROOT
BRANCH   2   3
HETATM    3  C   UNL     1      -7.132   6.125  69.459  1.00  0.00    -0.069 A  
HETATM    4  C   UNL     1      -7.605   5.777  70.731  1.00  0.00    -0.092 A  
HETATM    5  C   UNL     1      -8.646   6.528  71.294  1.00  0.00    -0.127 A  
HETATM    6  C   UNL     1      -8.662   8.031  69.399  1.00  0.00    -0.137 A  
HETATM    7  C   UNL     1      -9.168   7.669  70.642  1.00  0.00    -0.162 A  
HETATM    8  C   UNL     1      -7.673   7.251  68.821  1.00  0.00    -0.119 A  
HETATM    9  C   UNL     1     -10.176   8.510  71.121  1.00  0.00    -0.214 A  
HETATM   10  N   UNL     1     -10.831   8.252  72.331  1.00  0.00    -0.330 NA 
HETATM   11  N   UNL     1     -10.606   9.593  70.456  1.00  0.00    -0.284 NA 
HETATM   12  H1  UNL     1     -11.566   8.866  72.680  1.00  0.00     0.000 HD 
HETATM   13  C   UNL     1     -10.029   9.882  69.282  1.00  0.00    -0.207 A  
HETATM   14  H2  UNL     1     -10.122   8.166  73.059  1.00  0.00     0.000 HD 
HETATM   15  N   UNL     1      -9.076   9.113  68.741  1.00  0.00    -0.136 NA 
BRANCH   4  16
HETATM   16  O   UNL     1      -7.191   4.763  71.552  1.00  0.00    -0.063 OA 
HETATM   17  C   UNL     1      -5.848   4.311  71.454  1.00  0.00    -0.016 C  
ENDBRANCH   4  16
BRANCH  13  18
HETATM   18  N   UNL     1     -10.452  10.985  68.552  1.00  0.00    -0.180 NA 
HETATM   19  C   UNL     1     -11.541  11.902  66.527  1.00  0.00    -0.255 C  
HETATM   20  C   UNL     1     -10.780  10.713  67.142  1.00  0.00    -0.272 C  
HETATM   21  N   UNL     1     -10.875  13.187  66.783  1.00  0.00    -0.274 N  
HETATM   22  C   UNL     1     -10.552  13.404  68.203  1.00  0.00    -0.245 C  
HETATM   23  C   UNL     1     -10.982  14.187  65.810  1.00  0.00    -0.301 C  
HETATM   24  O   UNL     1     -11.601  13.969  64.767  1.00  0.00    -0.349 OA 
HETATM   25  C   UNL     1      -9.723  12.239  68.773  1.00  0.00     0.030 C  
BRANCH  23  26
HETATM   26  C   UNL     1     -10.366  15.485  66.034  1.00  0.00    -0.326 A  
HETATM   27  C   UNL     1      -9.285  15.820  66.833  1.00  0.00    -0.250 A  
HETATM   28  C   UNL     1      -9.107  17.219  66.729  1.00  0.00    -0.269 A  
HETATM   29  C   UNL     1     -10.111  17.667  65.905  1.00  0.00    -0.181 A  
HETATM   30  O   UNL     1     -10.893  16.633  65.502  1.00  0.00    -0.293 OA 
ENDBRANCH  23  26
ENDBRANCH  13  18
ENDBRANCH   2   3
TORSDOF 4
ENDMDL
MODEL      127
REMARK 921   NORMALIZED FREE ENERGY PREDICTED BY IDOCK:   -3.33 KCAL/MOL
REMARK 922        TOTAL FREE ENERGY PREDICTED BY IDOCK:   -4.67 KCAL/MOL
REMARK 923 INTER-LIGAND FREE ENERGY PREDICTED BY IDOCK:   -4.52 KCAL/MOL
REMARK 924 INTRA-LIGAND FREE ENERGY PREDICTED BY IDOCK:   -0.14 KCAL/MOL
REMARK 927      BINDING AFFINITY PREDICTED BY RF-SCORE:    0.00 PKD
ROOT
HETATM    1  C   UNL     1      -8.333  16.598  68.719  1.00  0.00    -0.252 C  
HETATM    2  O   UNL     1      -9.558  15.912  68.964  1.00  0.00    -0.217 OA 
ENDROOT
BRANCH   2   3
HETATM    3  C   UNL     1      -9.882  14.901  68.100  1.00  0.00    -0.218 A  
HETATM    4  C   UNL     1     -10.392  15.212  66.834  1.00  0.00    -0.272 A  
HETATM    5  C   UNL     1     -10.711  14.166  65.957  1.00  0.00    -0.299 A  
HETATM    6  C   UNL     1      -9.908  12.521  67.538  1.00  0.00    -0.198 A  
HETATM    7  C   UNL     1     -10.456  12.818  66.295  1.00  0.00    -0.273 A  
HETATM    8  C   UNL     1      -9.649  13.555  68.423  1.00  0.00    -0.196 A  
HETATM    9  C   UNL     1     -10.699  11.700  65.491  1.00  0.00    -0.281 A  
HETATM   10  N   UNL     1     -11.300  11.821  64.233  1.00  0.00    -0.340 NA 
HETATM   11  N   UNL     1     -10.407  10.446  65.869  1.00  0.00    -0.225 NA 
HETATM   12  H1  UNL     1     -11.478  11.005  63.647  1.00  0.00     0.000 HD 
HETATM   13  C   UNL     1      -9.845  10.266  67.073  1.00  0.00    -0.193 A  
HETATM   14  H2  UNL     1     -10.754  12.487  63.687  1.00  0.00     0.000 HD 
HETATM   15  N   UNL     1      -9.604  11.280  67.913  1.00  0.00    -0.173 NA 
BRANCH   4  16
HETATM   16  O   UNL     1     -10.645  16.443  66.290  1.00  0.00    -0.303 OA 
HETATM   17  C   UNL     1      -9.641  17.057  65.495  1.00  0.00     0.340 C  
ENDBRANCH   4  16
BRANCH  13  18
HETATM   18  N   UNL     1      -9.539   8.984  67.512  1.00  0.00    -0.140 NA 
HETATM   19  C   UNL     1     -10.234   6.632  67.849  1.00  0.00    -0.171 C  
HETATM   20  C   UNL     1     -10.699   8.092  67.688  1.00  0.00    -0.133 C  
HETATM   21  N   UNL     1      -9.169   6.489  68.851  1.00  0.00    -0.130 N  
HETATM   22  C   UNL     1      -8.043   7.414  68.642  1.00  0.00    -0.125 C  
HETATM   23  C   UNL     1      -9.123   5.304  69.594  1.00  0.00    -0.116 C  
HETATM   24  O   UNL     1      -9.973   4.430  69.415  1.00  0.00    -0.197 OA 
HETATM   25  C   UNL     1      -8.524   8.874  68.564  1.00  0.00    -0.129 C  
BRANCH  23  26
HETATM   26  C   UNL     1      -8.068   5.105  70.575  1.00  0.00    -0.095 A  
HETATM   27  C   UNL     1      -7.462   6.025  71.415  1.00  0.00    -0.093 A  
HETATM   28  C   UNL     1      -6.473   5.331  72.149  1.00  0.00    -0.043 A  
HETATM   29  C   UNL     1      -6.501   4.036  71.690  1.00  0.00    -0.015 A  
HETATM   30  O   UNL     1      -7.441   3.895  70.721  1.00  0.00    -0.040 OA 
ENDBRANCH  23  26
ENDBRANCH  13  18
ENDBRANCH   2   3
TORSDOF 4
ENDMDL
MODEL      128
REMARK 921   NORMALIZED FREE ENERGY PREDICTED BY IDOCK:   -3.24 KCAL/MOL
REMARK 922        TOTAL FREE ENERGY PREDICTED BY IDOCK:   -4.56 KCAL/MOL
REMARK 923 INTER-LIGAND FREE ENERGY PREDICTED BY IDOCK:   -4.57 KCAL/MOL
REMARK 924 INTRA-LIGAND FREE ENERGY PREDICTED BY IDOCK:    0.01 KCAL/MOL
REMARK 927      BINDING AFFINITY PREDICTED BY RF-SCORE:    0.00 PKD
ROOT
HETATM    1  C   UNL     1      -9.586   3.953  71.515  1.00  0.00    -0.166 C  
HETATM    2  O   UNL     1      -9.664   5.194  72.212  1.00  0.00    -0.156 OA 
ENDROOT
BRANCH   2   3
HETATM    3  C   UNL     1      -8.868   6.209  71.755  1.00  0.00    -0.138 A  
HETATM    4  C   UNL     1      -7.510   6.229  72.098  1.00  0.00    -0.094 A  
HETATM    5  C   UNL     1      -6.707   7.271  71.615  1.00  0.00    -0.051 A  
HETATM    6  C   UNL     1      -8.557   8.194  70.361  1.00  0.00    -0.131 A  
HETATM    7  C   UNL     1      -7.219   8.248  70.731  1.00  0.00    -0.055 A  
HETATM    8  C   UNL     1      -9.361   7.196  70.888  1.00  0.00    -0.160 A  
HETATM    9  C   UNL     1      -6.506   9.307  70.161  1.00  0.00    -0.049 A  
HETATM   10  N   UNL     1      -5.161   9.537  70.475  1.00  0.00    -0.030 NA 
HETATM   11  N   UNL     1      -7.053  10.185  69.307  1.00  0.00    -0.067 NA 
HETATM   12  H1  UNL     1      -4.642  10.309  70.059  1.00  0.00     0.000 HD 
HETATM   13  C   UNL     1      -8.344  10.026  68.981  1.00  0.00    -0.134 A  
HETATM   14  H2  UNL     1      -4.645   8.676  70.292  1.00  0.00     0.000 HD 
HETATM   15  N   UNL     1      -9.102   9.055  69.504  1.00  0.00    -0.147 NA 
BRANCH   4  16
HETATM   16  O   UNL     1      -6.809   5.348  72.876  1.00  0.00    -0.073 OA 
HETATM   17  C   UNL     1      -5.495   5.696  73.287  1.00  0.00    -0.024 C  
ENDBRANCH   4  16
BRANCH  13  18
HETATM   18  N   UNL     1      -8.956  10.920  68.112  1.00  0.00    -0.138 NA 
HETATM   19  C   UNL     1      -9.688  11.487  65.817  1.00  0.00    -0.235 C  
HETATM   20  C   UNL     1      -8.716  10.662  66.682  1.00  0.00    -0.140 C  
HETATM   21  N   UNL     1      -9.722  12.904  66.205  1.00  0.00    -0.272 N  
HETATM   22  C   UNL     1      -9.945  13.108  67.647  1.00  0.00    -0.219 C  
HETATM   23  C   UNL     1      -9.947  13.854  65.204  1.00  0.00    -0.218 C  
HETATM   24  O   UNL     1     -10.088  13.495  64.033  1.00  0.00    -0.204 OA 
HETATM   25  C   UNL     1      -8.912  12.337  68.488  1.00  0.00    -0.070 C  
BRANCH  23  26
HETATM   26  C   UNL     1     -10.020  15.266  65.547  1.00  0.00    -0.348 A  
HETATM   27  C   UNL     1      -9.522  15.928  66.657  1.00  0.00    -0.263 A  
HETATM   28  C   UNL     1      -9.890  17.287  66.531  1.00  0.00    -0.306 A  
HETATM   29  C   UNL     1     -10.624  17.375  65.372  1.00  0.00    -0.034 A  
HETATM   30  O   UNL     1     -10.732  16.155  64.785  1.00  0.00    -0.648 OA 
ENDBRANCH  23  26
ENDBRANCH  13  18
ENDBRANCH   2   3
TORSDOF 4
ENDMDL
MODEL      129
REMARK 921   NORMALIZED FREE ENERGY PREDICTED BY IDOCK:   -3.13 KCAL/MOL
REMARK 922        TOTAL FREE ENERGY PREDICTED BY IDOCK:   -4.42 KCAL/MOL
REMARK 923 INTER-LIGAND FREE ENERGY PREDICTED BY IDOCK:   -5.06 KCAL/MOL
REMARK 924 INTRA-LIGAND FREE ENERGY PREDICTED BY IDOCK:    0.64 KCAL/MOL
REMARK 927      BINDING AFFINITY PREDICTED BY RF-SCORE:    0.00 PKD
ROOT
HETATM    1  C   UNL     1      -9.249  18.690  68.297  1.00  0.00    -0.322 C  
HETATM    2  O   UNL     1     -10.356  18.702  67.399  1.00  0.00    -0.363 OA 
ENDROOT
BRANCH   2   3
HETATM    3  C   UNL     1     -10.652  17.523  66.769  1.00  0.00    -0.201 A  
HETATM    4  C   UNL     1     -10.766  17.496  65.374  1.00  0.00    -0.004 A  
HETATM    5  C   UNL     1     -11.061  16.280  64.743  1.00  0.00    -0.293 A  
HETATM    6  C   UNL     1     -11.010  15.106  66.857  1.00  0.00    -0.323 A  
HETATM    7  C   UNL     1     -11.167  15.076  65.476  1.00  0.00    -0.344 A  
HETATM    8  C   UNL     1     -10.775  16.320  67.481  1.00  0.00    -0.300 A  
HETATM    9  C   UNL     1     -11.423  13.805  64.953  1.00  0.00    -0.343 A  
HETATM   10  N   UNL     1     -11.663  13.610  63.588  1.00  0.00    -0.679 NA 
HETATM   11  N   UNL     1     -11.485  12.699  65.709  1.00  0.00    -0.339 NA 
HETATM   12  H1  UNL     1     -11.849  12.684  63.206  1.00  0.00     0.000 HD 
HETATM   13  C   UNL     1     -11.281  12.825  67.028  1.00  0.00    -0.292 A  
HETATM   14  H2  UNL     1     -10.879  14.011  63.072  1.00  0.00     0.000 HD 
HETATM   15  N   UNL     1     -11.058  14.009  67.611  1.00  0.00    -0.275 NA 
BRANCH   4  16
HETATM   16  O   UNL     1     -10.630  18.526  64.482  1.00  0.00     1.027 OA 
HETATM   17  C   UNL     1     -10.694  19.860  64.966  1.00  0.00     0.662 C  
ENDBRANCH   4  16
BRANCH  13  18
HETATM   18  N   UNL     1     -11.351  11.708  67.852  1.00  0.00    -0.276 NA 
HETATM   19  C   UNL     1     -11.852  10.734  70.071  1.00  0.00    -0.344 C  
HETATM   20  C   UNL     1     -11.451  12.001  69.292  1.00  0.00    -0.301 C  
HETATM   21  N   UNL     1     -11.024   9.573  69.720  1.00  0.00    -0.233 N  
HETATM   22  C   UNL     1     -10.940   9.334  68.269  1.00  0.00     0.008 C  
HETATM   23  C   UNL     1     -10.762   8.627  70.717  1.00  0.00    -0.216 C  
HETATM   24  O   UNL     1     -11.202   8.794  71.856  1.00  0.00    -0.322 OA 
HETATM   25  C   UNL     1     -10.461  10.590  67.521  1.00  0.00    -0.239 C  
BRANCH  23  26
HETATM   26  C   UNL     1      -9.973   7.446  70.406  1.00  0.00    -0.188 A  
HETATM   27  C   UNL     1      -9.060   6.765  71.195  1.00  0.00    -0.151 A  
HETATM   28  C   UNL     1      -8.542   5.706  70.414  1.00  0.00    -0.132 A  
HETATM   29  C   UNL     1      -9.138   5.820  69.180  1.00  0.00    -0.117 A  
HETATM   30  O   UNL     1      -9.982   6.883  69.157  1.00  0.00    -0.157 OA 
ENDBRANCH  23  26
ENDBRANCH  13  18
ENDBRANCH   2   3
TORSDOF 4
ENDMDL
MODEL      130
REMARK 921   NORMALIZED FREE ENERGY PREDICTED BY IDOCK:   -2.88 KCAL/MOL
REMARK 922        TOTAL FREE ENERGY PREDICTED BY IDOCK:   -4.11 KCAL/MOL
REMARK 923 INTER-LIGAND FREE ENERGY PREDICTED BY IDOCK:   -3.61 KCAL/MOL
REMARK 924 INTRA-LIGAND FREE ENERGY PREDICTED BY IDOCK:   -0.50 KCAL/MOL
REMARK 927      BINDING AFFINITY PREDICTED BY RF-SCORE:    0.00 PKD
ROOT
HETATM    1  C   UNL     1      -6.515   7.909  69.902  1.00  0.00    -0.037 C  
HETATM    2  O   UNL     1      -7.664   7.798  69.065  1.00  0.00    -0.104 OA 
ENDROOT
BRANCH   2   3
HETATM    3  C   UNL     1      -8.708   8.639  69.338  1.00  0.00    -0.139 A  
HETATM    4  C   UNL     1      -9.862   8.130  69.948  1.00  0.00    -0.186 A  
HETATM    5  C   UNL     1     -10.920   9.005  70.228  1.00  0.00    -0.274 A  
HETATM    6  C   UNL     1      -9.648  10.895  69.416  1.00  0.00     0.036 A  
HETATM    7  C   UNL     1     -10.815  10.393  69.981  1.00  0.00    -0.348 A  
HETATM    8  C   UNL     1      -8.628  10.017  69.087  1.00  0.00    -0.158 A  
HETATM    9  C   UNL     1     -11.787  11.360  70.252  1.00  0.00    -0.350 A  
HETATM   10  N   UNL     1     -13.040  11.014  70.769  1.00  0.00    -0.159 NA 
HETATM   11  N   UNL     1     -11.607  12.669  70.013  1.00  0.00    -0.191 NA 
HETATM   12  H1  UNL     1     -13.749  11.720  70.966  1.00  0.00     0.000 HD 
HETATM   13  C   UNL     1     -10.432  13.060  69.500  1.00  0.00     0.541 A  
HETATM   14  H2  UNL     1     -12.889  10.475  71.622  1.00  0.00     0.000 HD 
HETATM   15  N   UNL     1      -9.460  12.193  69.188  1.00  0.00     0.361 NA 
BRANCH   4  16
HETATM   16  O   UNL     1     -10.134   6.844  70.331  1.00  0.00    -0.186 OA 
HETATM   17  C   UNL     1     -11.238   6.607  71.192  1.00  0.00    -0.292 C  
ENDBRANCH   4  16
BRANCH  13  18
HETATM   18  N   UNL     1     -10.207  14.402  69.223  1.00  0.00    -0.129 NA 
HETATM   19  C   UNL     1     -10.556  16.351  67.738  1.00  0.00    -0.321 C  
HETATM   20  C   UNL     1     -10.521  14.815  67.844  1.00  0.00    -0.246 C  
HETATM   21  N   UNL     1      -9.369  16.982  68.331  1.00  0.00    -0.257 N  
HETATM   22  C   UNL     1      -9.087  16.523  69.701  1.00  0.00     0.377 C  
HETATM   23  C   UNL     1      -8.902  18.170  67.758  1.00  0.00    -0.256 C  
HETATM   24  O   UNL     1      -9.469  18.645  66.773  1.00  0.00    -0.294 OA 
HETATM   25  C   UNL     1      -8.978  14.989  69.767  1.00  0.00     0.127 C  
BRANCH  23  26
HETATM   26  C   UNL     1      -7.749  18.847  68.332  1.00  0.00    -0.319 A  
HETATM   27  C   UNL     1      -7.609  20.169  68.723  1.00  0.00    -0.033 A  
HETATM   28  C   UNL     1      -6.282  20.328  69.184  1.00  0.00    -0.363 A  
HETATM   29  C   UNL     1      -5.673  19.108  69.014  1.00  0.00    -0.209 A  
HETATM   30  O   UNL     1      -6.542  18.214  68.475  1.00  0.00    -0.204 OA 
ENDBRANCH  23  26
ENDBRANCH  13  18
ENDBRANCH   2   3
TORSDOF 4
ENDMDL
MODEL      131
REMARK 921   NORMALIZED FREE ENERGY PREDICTED BY IDOCK:   -2.63 KCAL/MOL
REMARK 922        TOTAL FREE ENERGY PREDICTED BY IDOCK:   -3.81 KCAL/MOL
REMARK 923 INTER-LIGAND FREE ENERGY PREDICTED BY IDOCK:   -3.24 KCAL/MOL
REMARK 924 INTRA-LIGAND FREE ENERGY PREDICTED BY IDOCK:   -0.57 KCAL/MOL
REMARK 927      BINDING AFFINITY PREDICTED BY RF-SCORE:    0.00 PKD
ROOT
HETATM    1  C   UNL     1      -8.693   1.916  68.417  1.00  0.00    -0.085 C  
HETATM    2  O   UNL     1      -9.594   2.331  67.393  1.00  0.00    -0.062 OA 
ENDROOT
BRANCH   2   3
HETATM    3  C   UNL     1      -9.206   3.395  66.624  1.00  0.00    -0.169 A  
HETATM    4  C   UNL     1      -9.438   3.369  65.243  1.00  0.00    -0.145 A  
HETATM    5  C   UNL     1      -9.042   4.470  64.471  1.00  0.00    -0.148 A  
HETATM    6  C   UNL     1      -8.305   5.660  66.442  1.00  0.00    -0.112 A  
HETATM    7  C   UNL     1      -8.491   5.627  65.065  1.00  0.00    -0.135 A  
HETATM    8  C   UNL     1      -8.644   4.547  67.194  1.00  0.00    -0.104 A  
HETATM    9  C   UNL     1      -8.095   6.792  64.402  1.00  0.00    -0.058 A  
HETATM   10  N   UNL     1      -8.163   6.900  63.008  1.00  0.00    -0.321 NA 
HETATM   11  N   UNL     1      -7.601   7.866  65.036  1.00  0.00    -0.091 NA 
HETATM   12  H1  UNL     1      -7.874   7.750  62.524  1.00  0.00     0.000 HD 
HETATM   13  C   UNL     1      -7.494   7.816  66.371  1.00  0.00    -0.084 A  
HETATM   14  H2  UNL     1      -9.119   6.687  62.723  1.00  0.00     0.000 HD 
HETATM   15  N   UNL     1      -7.827   6.728  67.078  1.00  0.00    -0.103 NA 
BRANCH   4  16
HETATM   16  O   UNL     1     -10.018   2.384  64.489  1.00  0.00    -0.053 OA 
HETATM   17  C   UNL     1     -10.910   2.757  63.449  1.00  0.00    -0.218 C  
ENDBRANCH   4  16
BRANCH  13  18
HETATM   18  N   UNL     1      -6.974   8.899  67.068  1.00  0.00    -0.074 NA 
HETATM   19  C   UNL     1      -6.031   9.822  69.162  1.00  0.00    -0.034 C  
HETATM   20  C   UNL     1      -6.912   8.728  68.530  1.00  0.00    -0.065 C  
HETATM   21  N   UNL     1      -6.392  11.170  68.699  1.00  0.00    -0.044 N  
HETATM   22  C   UNL     1      -6.459  11.284  67.233  1.00  0.00    -0.085 C  
HETATM   23  C   UNL     1      -6.233  12.235  69.593  1.00  0.00    -0.131 C  
HETATM   24  O   UNL     1      -5.825  12.025  70.736  1.00  0.00    -0.302 OA 
HETATM   25  C   UNL     1      -7.406  10.231  66.632  1.00  0.00    -0.109 C  
BRANCH  23  26
HETATM   26  C   UNL     1      -6.547  13.590  69.168  1.00  0.00    -0.109 A  
HETATM   27  C   UNL     1      -7.782  14.181  68.953  1.00  0.00    -0.091 A  
HETATM   28  C   UNL     1      -7.540  15.504  68.516  1.00  0.00    -0.127 A  
HETATM   29  C   UNL     1      -6.174  15.637  68.450  1.00  0.00    -0.102 A  
HETATM   30  O   UNL     1      -5.565  14.479  68.815  1.00  0.00    -0.082 OA 
ENDBRANCH  23  26
ENDBRANCH  13  18
ENDBRANCH   2   3
TORSDOF 4
ENDMDL
MODEL      132
REMARK 921   NORMALIZED FREE ENERGY PREDICTED BY IDOCK:   -2.57 KCAL/MOL
REMARK 922        TOTAL FREE ENERGY PREDICTED BY IDOCK:   -3.73 KCAL/MOL
REMARK 923 INTER-LIGAND FREE ENERGY PREDICTED BY IDOCK:   -3.54 KCAL/MOL
REMARK 924 INTRA-LIGAND FREE ENERGY PREDICTED BY IDOCK:   -0.19 KCAL/MOL
REMARK 927      BINDING AFFINITY PREDICTED BY RF-SCORE:    0.00 PKD
ROOT
HETATM    1  C   UNL     1     -10.467   5.309  69.987  1.00  0.00    -0.281 C  
HETATM    2  O   UNL     1     -10.512   5.468  68.571  1.00  0.00    -0.193 OA 
ENDROOT
BRANCH   2   3
HETATM    3  C   UNL     1      -9.445   6.095  67.988  1.00  0.00    -0.113 A  
HETATM    4  C   UNL     1      -8.774   5.473  66.927  1.00  0.00    -0.112 A  
HETATM    5  C   UNL     1      -7.688   6.132  66.335  1.00  0.00    -0.102 A  
HETATM    6  C   UNL     1      -8.010   8.062  67.755  1.00  0.00    -0.127 A  
HETATM    7  C   UNL     1      -7.311   7.435  66.731  1.00  0.00    -0.092 A  
HETATM    8  C   UNL     1      -9.046   7.383  68.377  1.00  0.00    -0.132 A  
HETATM    9  C   UNL     1      -6.273   8.199  66.190  1.00  0.00    -0.045 A  
HETATM   10  N   UNL     1      -5.435   7.692  65.190  1.00  0.00    -0.033 NA 
HETATM   11  N   UNL     1      -5.986   9.444  66.601  1.00  0.00    -0.059 NA 
HETATM   12  H1  UNL     1      -4.678   8.249  64.796  1.00  0.00     0.000 HD 
HETATM   13  C   UNL     1      -6.743   9.977  67.570  1.00  0.00    -0.072 A  
HETATM   14  H2  UNL     1      -6.023   7.372  64.420  1.00  0.00     0.000 HD 
HETATM   15  N   UNL     1      -7.739   9.302  68.158  1.00  0.00    -0.087 NA 
BRANCH   4  16
HETATM   16  O   UNL     1      -9.024   4.256  66.351  1.00  0.00    -0.113 OA 
HETATM   17  C   UNL     1      -8.598   3.081  67.026  1.00  0.00    -0.112 C  
ENDBRANCH   4  16
BRANCH  13  18
HETATM   18  N   UNL     1      -6.474  11.257  68.036  1.00  0.00    -0.056 NA 
HETATM   19  C   UNL     1      -5.730  12.734  69.878  1.00  0.00    -0.125 C  
HETATM   20  C   UNL     1      -6.347  11.374  69.499  1.00  0.00    -0.113 C  
HETATM   21  N   UNL     1      -6.399  13.859  69.211  1.00  0.00    -0.106 N  
HETATM   22  C   UNL     1      -6.518  13.686  67.754  1.00  0.00    -0.171 C  
HETATM   23  C   UNL     1      -6.474  15.077  69.896  1.00  0.00    -0.169 C  
HETATM   24  O   UNL     1      -6.007  15.176  71.032  1.00  0.00     0.005 OA 
HETATM   25  C   UNL     1      -7.209  12.357  67.402  1.00  0.00    -0.148 C  
BRANCH  23  26
HETATM   26  C   UNL     1      -7.099  16.228  69.262  1.00  0.00    -0.222 A  
HETATM   27  C   UNL     1      -6.905  17.578  69.501  1.00  0.00    -0.064 A  
HETATM   28  C   UNL     1      -7.780  18.283  68.643  1.00  0.00    -0.318 A  
HETATM   29  C   UNL     1      -8.487  17.327  67.955  1.00  0.00    -0.229 A  
HETATM   30  O   UNL     1      -8.104  16.083  68.341  1.00  0.00    -0.149 OA 
ENDBRANCH  23  26
ENDBRANCH  13  18
ENDBRANCH   2   3
TORSDOF 4
ENDMDL
MODEL      133
REMARK 921   NORMALIZED FREE ENERGY PREDICTED BY IDOCK:   -2.37 KCAL/MOL
REMARK 922        TOTAL FREE ENERGY PREDICTED BY IDOCK:   -3.49 KCAL/MOL
REMARK 923 INTER-LIGAND FREE ENERGY PREDICTED BY IDOCK:   -3.15 KCAL/MOL
REMARK 924 INTRA-LIGAND FREE ENERGY PREDICTED BY IDOCK:   -0.34 KCAL/MOL
REMARK 927      BINDING AFFINITY PREDICTED BY RF-SCORE:    0.00 PKD
ROOT
HETATM    1  C   UNL     1     -11.811   6.412  69.390  1.00  0.00     0.288 C  
HETATM    2  O   UNL     1     -10.498   6.302  69.935  1.00  0.00    -0.193 OA 
ENDROOT
BRANCH   2   3
HETATM    3  C   UNL     1      -9.558   7.177  69.462  1.00  0.00    -0.154 A  
HETATM    4  C   UNL     1      -8.432   6.684  68.792  1.00  0.00    -0.123 A  
HETATM    5  C   UNL     1      -7.482   7.593  68.306  1.00  0.00    -0.104 A  
HETATM    6  C   UNL     1      -8.821   9.469  69.037  1.00  0.00    -0.143 A  
HETATM    7  C   UNL     1      -7.678   8.989  68.409  1.00  0.00    -0.098 A  
HETATM    8  C   UNL     1      -9.728   8.566  69.567  1.00  0.00    -0.176 A  
HETATM    9  C   UNL     1      -6.821   9.984  67.932  1.00  0.00    -0.075 A  
HETATM   10  N   UNL     1      -5.600   9.670  67.324  1.00  0.00    -0.040 NA 
HETATM   11  N   UNL     1      -7.084  11.296  68.043  1.00  0.00    -0.068 NA 
HETATM   12  H1  UNL     1      -4.974  10.396  66.977  1.00  0.00     0.000 HD 
HETATM   13  C   UNL     1      -8.232  11.660  68.632  1.00  0.00    -0.110 A  
HETATM   14  H2  UNL     1      -5.788   9.024  66.557  1.00  0.00     0.000 HD 
HETATM   15  N   UNL     1      -9.093  10.769  69.139  1.00  0.00    -0.140 NA 
BRANCH   4  16
HETATM   16  O   UNL     1      -8.094   5.384  68.526  1.00  0.00    -0.094 OA 
HETATM   17  C   UNL     1      -7.033   5.127  67.617  1.00  0.00    -0.065 C  
ENDBRANCH   4  16
BRANCH  13  18
HETATM   18  N   UNL     1      -8.539  13.006  68.783  1.00  0.00     0.068 NA 
HETATM   19  C   UNL     1     -10.122  14.752  69.539  1.00  0.00    -0.050 C  
HETATM   20  C   UNL     1      -9.955  13.294  69.068  1.00  0.00     0.195 C  
HETATM   21  N   UNL     1      -9.450  15.709  68.650  1.00  0.00    -0.196 N  
HETATM   22  C   UNL     1      -8.043  15.367  68.380  1.00  0.00    -0.140 C  
HETATM   23  C   UNL     1     -10.023  16.976  68.496  1.00  0.00    -0.293 C  
HETATM   24  O   UNL     1     -11.073  17.253  69.078  1.00  0.00    -0.045 OA 
HETATM   25  C   UNL     1      -7.910  13.934  67.836  1.00  0.00    -0.161 C  
BRANCH  23  26
HETATM   26  C   UNL     1      -9.375  17.967  67.651  1.00  0.00    -0.259 A  
HETATM   27  C   UNL     1      -9.322  19.344  67.792  1.00  0.00    -0.389 A  
HETATM   28  C   UNL     1      -8.600  19.849  66.686  1.00  0.00    -0.390 A  
HETATM   29  C   UNL     1      -8.284  18.758  65.911  1.00  0.00     0.057 A  
HETATM   30  O   UNL     1      -8.772  17.621  66.470  1.00  0.00    -0.254 OA 
ENDBRANCH  23  26
ENDBRANCH  13  18
ENDBRANCH   2   3
TORSDOF 4
ENDMDL
MODEL      134
REMARK 921   NORMALIZED FREE ENERGY PREDICTED BY IDOCK:   -2.16 KCAL/MOL
REMARK 922        TOTAL FREE ENERGY PREDICTED BY IDOCK:   -3.23 KCAL/MOL
REMARK 923 INTER-LIGAND FREE ENERGY PREDICTED BY IDOCK:   -4.38 KCAL/MOL
REMARK 924 INTRA-LIGAND FREE ENERGY PREDICTED BY IDOCK:    1.16 KCAL/MOL
REMARK 927      BINDING AFFINITY PREDICTED BY RF-SCORE:    0.00 PKD
ROOT
HETATM    1  C   UNL     1      -8.705   5.525  72.064  1.00  0.00    -0.131 C  
HETATM    2  O   UNL     1      -7.840   6.389  71.332  1.00  0.00    -0.101 OA 
ENDROOT
BRANCH   2   3
HETATM    3  C   UNL     1      -8.436   7.348  70.559  1.00  0.00    -0.137 A  
HETATM    4  C   UNL     1      -9.737   7.140  70.083  1.00  0.00    -0.171 A  
HETATM    5  C   UNL     1     -10.337   8.135  69.299  1.00  0.00    -0.222 A  
HETATM    6  C   UNL     1      -8.416   9.580  69.561  1.00  0.00    -0.155 A  
HETATM    7  C   UNL     1      -9.691   9.366  69.048  1.00  0.00    -0.166 A  
HETATM    8  C   UNL     1      -7.804   8.571  70.287  1.00  0.00    -0.090 A  
HETATM    9  C   UNL     1     -10.204  10.439  68.314  1.00  0.00    -0.160 A  
HETATM   10  N   UNL     1     -11.451  10.364  67.682  1.00  0.00    -0.592 NA 
HETATM   11  N   UNL     1      -9.540  11.592  68.137  1.00  0.00    -0.184 NA 
HETATM   12  H1  UNL     1     -11.825  11.146  67.147  1.00  0.00     0.000 HD 
HETATM   13  C   UNL     1      -8.332  11.717  68.704  1.00  0.00    -0.100 A  
HETATM   14  H2  UNL     1     -12.143  10.105  68.385  1.00  0.00     0.000 HD 
HETATM   15  N   UNL     1      -7.759  10.727  69.400  1.00  0.00    -0.132 NA 
BRANCH   4  16
HETATM   16  O   UNL     1     -10.556   6.059  70.271  1.00  0.00    -0.229 OA 
HETATM   17  C   UNL     1     -10.401   4.930  69.424  1.00  0.00    -0.068 C  
ENDBRANCH   4  16
BRANCH  13  18
HETATM   18  N   UNL     1      -7.604  12.887  68.534  1.00  0.00    -0.129 NA 
HETATM   19  C   UNL     1      -5.986  14.531  69.434  1.00  0.00    -0.101 C  
HETATM   20  C   UNL     1      -7.029  13.448  69.770  1.00  0.00     0.307 C  
HETATM   21  N   UNL     1      -6.491  15.517  68.468  1.00  0.00    -0.100 N  
HETATM   22  C   UNL     1      -7.071  14.906  67.260  1.00  0.00    -0.068 C  
HETATM   23  C   UNL     1      -6.031  16.834  68.574  1.00  0.00    -0.131 C  
HETATM   24  O   UNL     1      -5.246  17.143  69.471  1.00  0.00    -0.150 OA 
HETATM   25  C   UNL     1      -8.166  13.886  67.619  1.00  0.00    -0.177 C  
BRANCH  23  26
HETATM   26  C   UNL     1      -6.479  17.836  67.620  1.00  0.00    -0.178 A  
HETATM   27  C   UNL     1      -6.861  17.684  66.297  1.00  0.00    -0.322 A  
HETATM   28  C   UNL     1      -7.175  18.971  65.803  1.00  0.00    -0.263 A  
HETATM   29  C   UNL     1      -6.932  19.843  66.837  1.00  0.00    -0.213 A  
HETATM   30  O   UNL     1      -6.486  19.171  67.930  1.00  0.00    -0.221 OA 
ENDBRANCH  23  26
ENDBRANCH  13  18
ENDBRANCH   2   3
TORSDOF 4
ENDMDL
MODEL      135
REMARK 921   NORMALIZED FREE ENERGY PREDICTED BY IDOCK:   -1.81 KCAL/MOL
REMARK 922        TOTAL FREE ENERGY PREDICTED BY IDOCK:   -2.79 KCAL/MOL
REMARK 923 INTER-LIGAND FREE ENERGY PREDICTED BY IDOCK:   -3.33 KCAL/MOL
REMARK 924 INTRA-LIGAND FREE ENERGY PREDICTED BY IDOCK:    0.54 KCAL/MOL
REMARK 927      BINDING AFFINITY PREDICTED BY RF-SCORE:    0.00 PKD
ROOT
HETATM    1  C   UNL     1      -6.876  18.232  67.836  1.00  0.00    -0.213 C  
HETATM    2  O   UNL     1      -6.901  17.034  67.064  1.00  0.00    -0.158 OA 
ENDROOT
BRANCH   2   3
HETATM    3  C   UNL     1      -6.717  15.859  67.741  1.00  0.00    -0.157 A  
HETATM    4  C   UNL     1      -6.525  15.885  69.128  1.00  0.00    -0.152 A  
HETATM    5  C   UNL     1      -6.347  14.673  69.808  1.00  0.00    -0.152 A  
HETATM    6  C   UNL     1      -6.670  13.415  67.768  1.00  0.00    -0.160 A  
HETATM    7  C   UNL     1      -6.435  13.431  69.138  1.00  0.00    -0.105 A  
HETATM    8  C   UNL     1      -6.788  14.617  67.091  1.00  0.00     0.310 A  
HETATM    9  C   UNL     1      -6.310  12.165  69.717  1.00  0.00    -0.102 A  
HETATM   10  N   UNL     1      -6.016  12.007  71.076  1.00  0.00    -0.512 NA 
HETATM   11  N   UNL     1      -6.431  11.024  69.020  1.00  0.00    -0.050 NA 
HETATM   12  H1  UNL     1      -5.924  11.084  71.498  1.00  0.00     0.000 HD 
HETATM   13  C   UNL     1      -6.695  11.112  67.709  1.00  0.00    -0.065 A  
HETATM   14  H2  UNL     1      -6.711  12.528  71.610  1.00  0.00     0.000 HD 
HETATM   15  N   UNL     1      -6.804  12.286  67.075  1.00  0.00    -0.089 NA 
BRANCH   4  16
HETATM   16  O   UNL     1      -6.479  16.966  69.967  1.00  0.00    -0.107 OA 
HETATM   17  C   UNL     1      -5.302  17.185  70.731  1.00  0.00    -0.187 C  
ENDBRANCH   4  16
BRANCH  13  18
HETATM   18  N   UNL     1      -6.814   9.957  66.946  1.00  0.00    -0.086 NA 
HETATM   19  C   UNL     1      -7.140   8.898  64.733  1.00  0.00    -0.088 C  
HETATM   20  C   UNL     1      -7.359  10.158  65.592  1.00  0.00    -0.144 C  
HETATM   21  N   UNL     1      -7.577   7.672  65.413  1.00  0.00    -0.088 N  
HETATM   22  C   UNL     1      -7.021   7.527  66.769  1.00  0.00    -0.078 C  
HETATM   23  C   UNL     1      -8.091   6.633  64.628  1.00  0.00    -0.088 C  
HETATM   24  O   UNL     1      -8.187   6.772  63.408  1.00  0.00    -0.048 OA 
HETATM   25  C   UNL     1      -7.321   8.764  67.633  1.00  0.00    -0.085 C  
BRANCH  23  26
HETATM   26  C   UNL     1      -8.506   5.388  65.256  1.00  0.00    -0.149 A  
HETATM   27  C   UNL     1      -8.069   4.095  65.019  1.00  0.00    -0.097 A  
HETATM   28  C   UNL     1      -8.813   3.243  65.867  1.00  0.00    -0.137 A  
HETATM   29  C   UNL     1      -9.689   4.055  66.547  1.00  0.00    -0.191 A  
HETATM   30  O   UNL     1      -9.531   5.348  66.165  1.00  0.00    -0.154 OA 
ENDBRANCH  23  26
ENDBRANCH  13  18
ENDBRANCH   2   3
TORSDOF 4
ENDMDL
MODEL      136
REMARK 921   NORMALIZED FREE ENERGY PREDICTED BY IDOCK:   -1.10 KCAL/MOL
REMARK 922        TOTAL FREE ENERGY PREDICTED BY IDOCK:   -1.92 KCAL/MOL
REMARK 923 INTER-LIGAND FREE ENERGY PREDICTED BY IDOCK:   -2.64 KCAL/MOL
REMARK 924 INTRA-LIGAND FREE ENERGY PREDICTED BY IDOCK:    0.72 KCAL/MOL
REMARK 927      BINDING AFFINITY PREDICTED BY RF-SCORE:    0.00 PKD
ROOT
HETATM    1  C   UNL     1     -14.360  16.139  72.148  1.00  0.00     0.613 C  
HETATM    2  O   UNL     1     -13.105  15.980  71.491  1.00  0.00    -0.382 OA 
ENDROOT
BRANCH   2   3
HETATM    3  C   UNL     1     -12.692  14.697  71.251  1.00  0.00    -0.332 A  
HETATM    4  C   UNL     1     -12.963  13.698  72.194  1.00  0.00    -0.324 A  
HETATM    5  C   UNL     1     -12.540  12.388  71.930  1.00  0.00    -0.043 A  
HETATM    6  C   UNL     1     -11.698  13.036  69.758  1.00  0.00    -0.276 A  
HETATM    7  C   UNL     1     -11.923  12.044  70.706  1.00  0.00    -0.151 A  
HETATM    8  C   UNL     1     -12.065  14.340  70.048  1.00  0.00    -0.400 A  
HETATM    9  C   UNL     1     -11.495  10.771  70.321  1.00  0.00    -0.319 A  
HETATM   10  N   UNL     1     -11.596   9.673  71.183  1.00  0.00    -0.349 NA 
HETATM   11  N   UNL     1     -10.937  10.513  69.128  1.00  0.00    -0.223 NA 
HETATM   12  H1  UNL     1     -11.283   8.744  70.902  1.00  0.00     0.000 HD 
HETATM   13  C   UNL     1     -10.797  11.530  68.266  1.00  0.00    -0.216 A  
HETATM   14  H2  UNL     1     -12.568   9.599  71.484  1.00  0.00     0.000 HD 
HETATM   15  N   UNL     1     -11.157  12.783  68.568  1.00  0.00    -0.251 NA 
BRANCH   4  16
HETATM   16  O   UNL     1     -13.605  13.806  73.398  1.00  0.00    -0.083 OA 
HETATM   17  C   UNL     1     -13.020  14.608  74.414  1.00  0.00     1.882 C  
ENDBRANCH   4  16
BRANCH  13  18
HETATM   18  N   UNL     1     -10.211  11.313  67.025  1.00  0.00    -0.209 NA 
HETATM   19  C   UNL     1     -10.466  10.973  64.586  1.00  0.00    -0.329 C  
HETATM   20  C   UNL     1     -11.135  10.864  65.969  1.00  0.00     0.090 C  
HETATM   21  N   UNL     1      -9.131  10.360  64.559  1.00  0.00    -0.210 N  
HETATM   22  C   UNL     1      -8.252  10.827  65.644  1.00  0.00    -0.127 C  
HETATM   23  C   UNL     1      -8.706   9.766  63.366  1.00  0.00    -0.226 C  
HETATM   24  O   UNL     1      -9.452   9.747  62.386  1.00  0.00    -0.259 OA 
HETATM   25  C   UNL     1      -8.911  10.634  67.021  1.00  0.00    -0.137 C  
BRANCH  23  26
HETATM   26  C   UNL     1      -7.379   9.175  63.283  1.00  0.00    -0.096 A  
HETATM   27  C   UNL     1      -6.362   9.419  62.374  1.00  0.00    -0.096 A  
HETATM   28  C   UNL     1      -5.290   8.560  62.709  1.00  0.00    -0.070 A  
HETATM   29  C   UNL     1      -5.724   7.812  63.777  1.00  0.00    -0.049 A  
HETATM   30  O   UNL     1      -6.993   8.156  64.114  1.00  0.00    -0.068 OA 
ENDBRANCH  23  26
ENDBRANCH  13  18
ENDBRANCH   2   3
TORSDOF 4
ENDMDL
MODEL      137
REMARK 921   NORMALIZED FREE ENERGY PREDICTED BY IDOCK:   -1.05 KCAL/MOL
REMARK 922        TOTAL FREE ENERGY PREDICTED BY IDOCK:   -1.85 KCAL/MOL
REMARK 923 INTER-LIGAND FREE ENERGY PREDICTED BY IDOCK:   -1.43 KCAL/MOL
REMARK 924 INTRA-LIGAND FREE ENERGY PREDICTED BY IDOCK:   -0.42 KCAL/MOL
REMARK 927      BINDING AFFINITY PREDICTED BY RF-SCORE:    0.00 PKD
ROOT
HETATM    1  C   UNL     1      -7.659  17.206  67.326  1.00  0.00    -0.167 C  
HETATM    2  O   UNL     1      -8.437  17.141  66.134  1.00  0.00    -0.406 OA 
ENDROOT
BRANCH   2   3
HETATM    3  C   UNL     1      -9.074  15.958  65.877  1.00  0.00    -0.269 A  
HETATM    4  C   UNL     1     -10.180  15.942  65.018  1.00  0.00    -0.042 A  
HETATM    5  C   UNL     1     -10.816  14.720  64.758  1.00  0.00    -0.395 A  
HETATM    6  C   UNL     1      -9.194  13.526  66.096  1.00  0.00     0.029 A  
HETATM    7  C   UNL     1     -10.319  13.504  65.279  1.00  0.00    -0.344 A  
HETATM    8  C   UNL     1      -8.604  14.742  66.396  1.00  0.00     0.042 A  
HETATM    9  C   UNL     1     -10.848  12.229  65.059  1.00  0.00    -0.298 A  
HETATM   10  N   UNL     1     -12.013  12.040  64.306  1.00  0.00    -0.355 NA 
HETATM   11  N   UNL     1     -10.306  11.112  65.568  1.00  0.00    -0.261 NA 
HETATM   12  H1  UNL     1     -12.398  11.109  64.146  1.00  0.00     0.000 HD 
HETATM   13  C   UNL     1      -9.198  11.232  66.314  1.00  0.00    -0.200 A  
HETATM   14  H2  UNL     1     -11.874  12.482  63.398  1.00  0.00     0.000 HD 
HETATM   15  N   UNL     1      -8.645  12.419  66.593  1.00  0.00    -0.130 NA 
BRANCH   4  16
HETATM   16  O   UNL     1     -10.770  16.988  64.360  1.00  0.00    -0.436 OA 
HETATM   17  C   UNL     1     -11.885  17.630  64.961  1.00  0.00     3.188 C  
ENDBRANCH   4  16
BRANCH  13  18
HETATM   18  N   UNL     1      -8.612  10.104  66.873  1.00  0.00    -0.126 NA 
HETATM   19  C   UNL     1      -6.745   8.479  66.912  1.00  0.00    -0.062 C  
HETATM   20  C   UNL     1      -7.536   9.497  66.070  1.00  0.00    -0.100 C  
HETATM   21  N   UNL     1      -7.621   7.530  67.613  1.00  0.00    -0.110 N  
HETATM   22  C   UNL     1      -8.690   8.184  68.386  1.00  0.00    -0.134 C  
HETATM   23  C   UNL     1      -7.149   6.228  67.817  1.00  0.00    -0.081 C  
HETATM   24  O   UNL     1      -6.040   5.901  67.392  1.00  0.00    -0.017 OA 
HETATM   25  C   UNL     1      -9.516   9.137  67.504  1.00  0.00    -0.139 C  
BRANCH  23  26
HETATM   26  C   UNL     1      -7.969   5.264  68.534  1.00  0.00    -0.087 A  
HETATM   27  C   UNL     1      -8.201   5.146  69.894  1.00  0.00    -0.086 A  
HETATM   28  C   UNL     1      -9.042   4.024  70.077  1.00  0.00    -0.187 A  
HETATM   29  C   UNL     1      -9.246   3.496  68.825  1.00  0.00    -0.163 A  
HETATM   30  O   UNL     1      -8.581   4.221  67.889  1.00  0.00    -0.097 OA 
ENDBRANCH  23  26
ENDBRANCH  13  18
ENDBRANCH   2   3
TORSDOF 4
ENDMDL
MODEL      138
REMARK 921   NORMALIZED FREE ENERGY PREDICTED BY IDOCK:   -0.55 KCAL/MOL
REMARK 922        TOTAL FREE ENERGY PREDICTED BY IDOCK:   -1.24 KCAL/MOL
REMARK 923 INTER-LIGAND FREE ENERGY PREDICTED BY IDOCK:   -3.08 KCAL/MOL
REMARK 924 INTRA-LIGAND FREE ENERGY PREDICTED BY IDOCK:    1.83 KCAL/MOL
REMARK 927      BINDING AFFINITY PREDICTED BY RF-SCORE:    0.00 PKD
ROOT
HETATM    1  C   UNL     1     -10.136  16.069  67.861  1.00  0.00    -0.241 C  
HETATM    2  O   UNL     1     -10.488  14.768  67.396  1.00  0.00    -0.252 OA 
ENDROOT
BRANCH   2   3
HETATM    3  C   UNL     1      -9.605  13.757  67.663  1.00  0.00    -0.219 A  
HETATM    4  C   UNL     1      -8.500  14.007  68.487  1.00  0.00    -0.143 A  
HETATM    5  C   UNL     1      -7.609  12.959  68.758  1.00  0.00    -0.025 A  
HETATM    6  C   UNL     1      -8.969  11.402  67.504  1.00  0.00    -0.150 A  
HETATM    7  C   UNL     1      -7.846  11.649  68.285  1.00  0.00    -0.136 A  
HETATM    8  C   UNL     1      -9.816  12.453  67.191  1.00  0.00    -0.206 A  
HETATM    9  C   UNL     1      -7.050  10.524  68.520  1.00  0.00    -0.075 A  
HETATM   10  N   UNL     1      -5.853  10.613  69.240  1.00  0.00    -0.041 NA 
HETATM   11  N   UNL     1      -7.351   9.301  68.058  1.00  0.00    -0.079 NA 
HETATM   12  H1  UNL     1      -5.272   9.793  69.412  1.00  0.00     0.000 HD 
HETATM   13  C   UNL     1      -8.477   9.157  67.346  1.00  0.00    -0.115 A  
HETATM   14  H2  UNL     1      -6.060  11.045  70.141  1.00  0.00     0.000 HD 
HETATM   15  N   UNL     1      -9.280  10.188  67.054  1.00  0.00    -0.145 NA 
BRANCH   4  16
HETATM   16  O   UNL     1      -8.132  15.175  69.098  1.00  0.00    -0.185 OA 
HETATM   17  C   UNL     1      -7.469  16.168  68.329  1.00  0.00    -0.145 C  
ENDBRANCH   4  16
BRANCH  13  18
HETATM   18  N   UNL     1      -8.821   7.912  66.835  1.00  0.00    -0.129 NA 
HETATM   19  C   UNL     1      -9.776   5.657  67.198  1.00  0.00    -0.139 C  
HETATM   20  C   UNL     1      -9.094   6.877  67.847  1.00  0.00    -0.122 C  
HETATM   21  N   UNL     1      -9.071   5.193  65.996  1.00  0.00    -0.145 N  
HETATM   22  C   UNL     1      -8.805   6.268  65.024  1.00  0.00     0.197 C  
HETATM   23  C   UNL     1      -9.092   3.824  65.709  1.00  0.00    -0.149 C  
HETATM   24  O   UNL     1      -9.671   3.044  66.468  1.00  0.00     0.012 OA 
HETATM   25  C   UNL     1      -8.053   7.440  65.678  1.00  0.00    -0.129 C  
BRANCH  23  26
HETATM   26  C   UNL     1      -8.434   3.323  64.513  1.00  0.00    -0.093 A  
HETATM   27  C   UNL     1      -8.672   2.160  63.799  1.00  0.00    -0.086 A  
HETATM   28  C   UNL     1      -7.738   2.124  62.738  1.00  0.00    -0.054 A  
HETATM   29  C   UNL     1      -6.958   3.246  62.883  1.00  0.00    -0.032 A  
HETATM   30  O   UNL     1      -7.352   3.962  63.967  1.00  0.00    -0.053 OA 
ENDBRANCH  23  26
ENDBRANCH  13  18
ENDBRANCH   2   3
TORSDOF 4
ENDMDL
MODEL      139
REMARK 921   NORMALIZED FREE ENERGY PREDICTED BY IDOCK:   -0.31 KCAL/MOL
REMARK 922        TOTAL FREE ENERGY PREDICTED BY IDOCK:   -0.95 KCAL/MOL
REMARK 923 INTER-LIGAND FREE ENERGY PREDICTED BY IDOCK:   -1.38 KCAL/MOL
REMARK 924 INTRA-LIGAND FREE ENERGY PREDICTED BY IDOCK:    0.43 KCAL/MOL
REMARK 927      BINDING AFFINITY PREDICTED BY RF-SCORE:    0.00 PKD
ROOT
HETATM    1  C   UNL     1      -7.930  15.278  68.901  1.00  0.00    -0.176 C  
HETATM    2  O   UNL     1      -8.282  14.071  68.228  1.00  0.00    -0.139 OA 
ENDROOT
BRANCH   2   3
HETATM    3  C   UNL     1      -7.658  12.927  68.645  1.00  0.00    -0.085 A  
HETATM    4  C   UNL     1      -7.023  12.904  69.893  1.00  0.00     0.529 A  
HETATM    5  C   UNL     1      -6.395  11.722  70.311  1.00  0.00     0.052 A  
HETATM    6  C   UNL     1      -7.129  10.562  68.320  1.00  0.00    -0.081 A  
HETATM    7  C   UNL     1      -6.459  10.541  69.537  1.00  0.00    -0.072 A  
HETATM    8  C   UNL     1      -7.698  11.749  67.885  1.00  0.00    -0.125 A  
HETATM    9  C   UNL     1      -5.904   9.302  69.868  1.00  0.00    -0.035 A  
HETATM   10  N   UNL     1      -5.148   9.125  71.033  1.00  0.00    -0.028 NA 
HETATM   11  N   UNL     1      -6.026   8.212  69.094  1.00  0.00    -0.037 NA 
HETATM   12  H1  UNL     1      -4.743   8.221  71.274  1.00  0.00     0.000 HD 
HETATM   13  C   UNL     1      -6.724   8.324  67.955  1.00  0.00    -0.065 A  
HETATM   14  H2  UNL     1      -5.713   9.437  71.823  1.00  0.00     0.000 HD 
HETATM   15  N   UNL     1      -7.264   9.481  67.554  1.00  0.00    -0.089 NA 
BRANCH   4  16
HETATM   16  O   UNL     1      -6.910  13.908  70.817  1.00  0.00     0.374 OA 
HETATM   17  C   UNL     1      -5.652  14.125  71.440  1.00  0.00    -0.225 C  
ENDBRANCH   4  16
BRANCH  13  18
HETATM   18  N   UNL     1      -6.863   7.226  67.115  1.00  0.00    -0.074 NA 
HETATM   19  C   UNL     1      -5.883   5.708  65.424  1.00  0.00    -0.021 C  
HETATM   20  C   UNL     1      -5.832   7.105  66.071  1.00  0.00    -0.036 C  
HETATM   21  N   UNL     1      -7.243   5.329  65.015  1.00  0.00    -0.065 N  
HETATM   22  C   UNL     1      -8.239   5.485  66.088  1.00  0.00    -0.112 C  
HETATM   23  C   UNL     1      -7.386   4.520  63.882  1.00  0.00    -0.055 C  
HETATM   24  O   UNL     1      -6.391   4.167  63.246  1.00  0.00    -0.021 OA 
HETATM   25  C   UNL     1      -8.223   6.912  66.664  1.00  0.00    -0.115 C  
BRANCH  23  26
HETATM   26  C   UNL     1      -8.711   4.094  63.459  1.00  0.00    -0.113 A  
HETATM   27  C   UNL     1      -9.525   4.609  62.464  1.00  0.00    -0.052 A  
HETATM   28  C   UNL     1     -10.724   3.860  62.477  1.00  0.00    -0.171 A  
HETATM   29  C   UNL     1     -10.593   2.955  63.503  1.00  0.00    -0.224 A  
HETATM   30  O   UNL     1      -9.393   3.105  64.119  1.00  0.00    -0.121 OA 
ENDBRANCH  23  26
ENDBRANCH  13  18
ENDBRANCH   2   3
TORSDOF 4
ENDMDL
MODEL      140
REMARK 921   NORMALIZED FREE ENERGY PREDICTED BY IDOCK:    0.18 KCAL/MOL
REMARK 922        TOTAL FREE ENERGY PREDICTED BY IDOCK:   -0.34 KCAL/MOL
REMARK 923 INTER-LIGAND FREE ENERGY PREDICTED BY IDOCK:   -0.57 KCAL/MOL
REMARK 924 INTRA-LIGAND FREE ENERGY PREDICTED BY IDOCK:    0.23 KCAL/MOL
REMARK 927      BINDING AFFINITY PREDICTED BY RF-SCORE:    0.00 PKD
ROOT
HETATM    1  C   UNL     1      -6.720  18.674  64.012  1.00  0.00     2.805 C  
HETATM    2  O   UNL     1      -7.304  19.176  65.211  1.00  0.00    -0.422 OA 
ENDROOT
BRANCH   2   3
HETATM    3  C   UNL     1      -8.088  18.311  65.925  1.00  0.00     0.044 A  
HETATM    4  C   UNL     1      -9.417  18.653  66.204  1.00  0.00    -0.174 A  
HETATM    5  C   UNL     1     -10.208  17.752  66.930  1.00  0.00    -0.346 A  
HETATM    6  C   UNL     1      -8.411  16.135  66.992  1.00  0.00    -0.208 A  
HETATM    7  C   UNL     1      -9.719  16.482  67.312  1.00  0.00    -0.247 A  
HETATM    8  C   UNL     1      -7.615  17.052  66.326  1.00  0.00    -0.340 A  
HETATM    9  C   UNL     1     -10.425  15.494  68.003  1.00  0.00    -0.259 A  
HETATM   10  N   UNL     1     -11.735  15.707  68.449  1.00  0.00    -0.421 NA 
HETATM   11  N   UNL     1      -9.902  14.297  68.312  1.00  0.00    -0.229 NA 
HETATM   12  H1  UNL     1     -12.250  14.986  68.953  1.00  0.00     0.000 HD 
HETATM   13  C   UNL     1      -8.644  14.042  67.926  1.00  0.00    -0.181 A  
HETATM   14  H2  UNL     1     -12.297  15.991  67.647  1.00  0.00     0.000 HD 
HETATM   15  N   UNL     1      -7.891  14.944  67.284  1.00  0.00    -0.202 NA 
BRANCH   4  16
HETATM   16  O   UNL     1     -10.098  19.790  65.865  1.00  0.00    -0.442 OA 
HETATM   17  C   UNL     1      -9.423  20.796  65.124  1.00  0.00     1.414 C  
ENDBRANCH   4  16
BRANCH  13  18
HETATM   18  N   UNL     1      -8.057  12.822  68.237  1.00  0.00    -0.151 NA 
HETATM   19  C   UNL     1      -6.057  11.363  68.225  1.00  0.00    -0.045 C  
HETATM   20  C   UNL     1      -6.769  12.561  67.570  1.00  0.00    -0.151 C  
HETATM   21  N   UNL     1      -6.939  10.197  68.371  1.00  0.00    -0.066 N  
HETATM   22  C   UNL     1      -8.220  10.513  69.026  1.00  0.00    -0.145 C  
HETATM   23  C   UNL     1      -6.367   8.924  68.273  1.00  0.00    -0.055 C  
HETATM   24  O   UNL     1      -5.161   8.806  68.048  1.00  0.00    -0.034 OA 
HETATM   25  C   UNL     1      -8.950  11.660  68.306  1.00  0.00    -0.185 C  
BRANCH  23  26
HETATM   26  C   UNL     1      -7.196   7.741  68.443  1.00  0.00    -0.093 A  
HETATM   27  C   UNL     1      -7.575   7.092  69.606  1.00  0.00    -0.104 A  
HETATM   28  C   UNL     1      -8.354   5.975  69.225  1.00  0.00    -0.115 A  
HETATM   29  C   UNL     1      -8.376   5.981  67.851  1.00  0.00    -0.116 A  
HETATM   30  O   UNL     1      -7.658   7.027  67.368  1.00  0.00    -0.104 OA 
ENDBRANCH  23  26
ENDBRANCH  13  18
ENDBRANCH   2   3
TORSDOF 4
ENDMDL
MODEL      141
REMARK 921   NORMALIZED FREE ENERGY PREDICTED BY IDOCK:    1.04 KCAL/MOL
REMARK 922        TOTAL FREE ENERGY PREDICTED BY IDOCK:    0.72 KCAL/MOL
REMARK 923 INTER-LIGAND FREE ENERGY PREDICTED BY IDOCK:    0.70 KCAL/MOL
REMARK 924 INTRA-LIGAND FREE ENERGY PREDICTED BY IDOCK:    0.02 KCAL/MOL
REMARK 927      BINDING AFFINITY PREDICTED BY RF-SCORE:    0.00 PKD
ROOT
HETATM    1  C   UNL     1     -12.253   8.500  69.379  1.00  0.00     2.104 C  
HETATM    2  O   UNL     1     -11.165   7.961  70.126  1.00  0.00    -0.242 OA 
ENDROOT
BRANCH   2   3
HETATM    3  C   UNL     1     -10.005   8.686  70.135  1.00  0.00    -0.182 A  
HETATM    4  C   UNL     1      -8.810   8.072  70.530  1.00  0.00    -0.137 A  
HETATM    5  C   UNL     1      -7.628   8.826  70.527  1.00  0.00    -0.085 A  
HETATM    6  C   UNL     1      -8.790  10.747  69.628  1.00  0.00     0.291 A  
HETATM    7  C   UNL     1      -7.606  10.160  70.060  1.00  0.00    -0.164 A  
HETATM    8  C   UNL     1      -9.965  10.016  69.689  1.00  0.00    -0.263 A  
HETATM    9  C   UNL     1      -6.486  10.992  69.978  1.00  0.00    -0.144 A  
HETATM   10  N   UNL     1      -5.228  10.573  70.426  1.00  0.00    -0.051 NA 
HETATM   11  N   UNL     1      -6.536  12.245  69.499  1.00  0.00    -0.114 NA 
HETATM   12  H1  UNL     1      -4.412  11.180  70.366  1.00  0.00     0.000 HD 
HETATM   13  C   UNL     1      -7.718  12.709  69.071  1.00  0.00     0.197 A  
HETATM   14  H2  UNL     1      -5.004   9.697  69.954  1.00  0.00     0.000 HD 
HETATM   15  N   UNL     1      -8.842  11.985  69.140  1.00  0.00     0.393 NA 
BRANCH   4  16
HETATM   16  O   UNL     1      -8.605   6.783  70.945  1.00  0.00    -0.135 OA 
HETATM   17  C   UNL     1      -9.660   6.105  71.611  1.00  0.00    -0.151 C  
ENDBRANCH   4  16
BRANCH  13  18
HETATM   18  N   UNL     1      -7.819  14.005  68.582  1.00  0.00    -0.138 NA 
HETATM   19  C   UNL     1      -7.679  15.569  66.668  1.00  0.00     0.046 C  
HETATM   20  C   UNL     1      -7.228  14.215  67.249  1.00  0.00     0.038 C  
HETATM   21  N   UNL     1      -7.502  16.675  67.619  1.00  0.00    -0.145 N  
HETATM   22  C   UNL     1      -8.093  16.408  68.941  1.00  0.00    -0.236 C  
HETATM   23  C   UNL     1      -7.192  17.939  67.106  1.00  0.00    -0.185 C  
HETATM   24  O   UNL     1      -7.054  18.094  65.891  1.00  0.00    -0.328 OA 
HETATM   25  C   UNL     1      -7.566  15.090  69.535  1.00  0.00    -0.181 C  
BRANCH  23  26
HETATM   26  C   UNL     1      -7.038  19.070  68.007  1.00  0.00    -0.238 A  
HETATM   27  C   UNL     1      -7.990  19.968  68.463  1.00  0.00    -0.139 A  
HETATM   28  C   UNL     1      -7.321  20.898  69.291  1.00  0.00     1.444 A  
HETATM   29  C   UNL     1      -5.994  20.543  69.266  1.00  0.00    -0.348 A  
HETATM   30  O   UNL     1      -5.808  19.457  68.472  1.00  0.00    -0.207 OA 
ENDBRANCH  23  26
ENDBRANCH  13  18
ENDBRANCH   2   3
TORSDOF 4
ENDMDL
MODEL      142
REMARK 921   NORMALIZED FREE ENERGY PREDICTED BY IDOCK:    1.53 KCAL/MOL
REMARK 922        TOTAL FREE ENERGY PREDICTED BY IDOCK:    1.32 KCAL/MOL
REMARK 923 INTER-LIGAND FREE ENERGY PREDICTED BY IDOCK:    0.52 KCAL/MOL
REMARK 924 INTRA-LIGAND FREE ENERGY PREDICTED BY IDOCK:    0.81 KCAL/MOL
REMARK 927      BINDING AFFINITY PREDICTED BY RF-SCORE:    0.00 PKD
ROOT
HETATM    1  C   UNL     1     -13.601  11.148  63.289  1.00  0.00     2.735 C  
HETATM    2  O   UNL     1     -12.468  12.013  63.253  1.00  0.00    -0.566 OA 
ENDROOT
BRANCH   2   3
HETATM    3  C   UNL     1     -11.925  12.370  64.457  1.00  0.00    -0.402 A  
HETATM    4  C   UNL     1     -11.928  13.717  64.843  1.00  0.00    -0.383 A  
HETATM    5  C   UNL     1     -11.376  14.066  66.083  1.00  0.00    -0.322 A  
HETATM    6  C   UNL     1     -10.935  11.746  66.604  1.00  0.00    -0.294 A  
HETATM    7  C   UNL     1     -10.893  13.084  66.977  1.00  0.00    -0.278 A  
HETATM    8  C   UNL     1     -11.428  11.412  65.353  1.00  0.00     0.028 A  
HETATM    9  C   UNL     1     -10.357  13.311  68.248  1.00  0.00    -0.249 A  
HETATM   10  N   UNL     1     -10.191  14.607  68.752  1.00  0.00    -0.238 NA 
HETATM   11  N   UNL     1      -9.939  12.324  69.056  1.00  0.00     0.084 NA 
HETATM   12  H1  UNL     1      -9.800  14.772  69.679  1.00  0.00     0.000 HD 
HETATM   13  C   UNL     1     -10.055  11.062  68.620  1.00  0.00    -0.197 A  
HETATM   14  H2  UNL     1     -11.094  15.079  68.704  1.00  0.00     0.000 HD 
HETATM   15  N   UNL     1     -10.534  10.762  67.406  1.00  0.00    -0.211 NA 
BRANCH   4  16
HETATM   16  O   UNL     1     -12.408  14.803  64.161  1.00  0.00    -0.669 OA 
HETATM   17  C   UNL     1     -13.023  14.598  62.897  1.00  0.00     3.241 C  
ENDBRANCH   4  16
BRANCH  13  18
HETATM   18  N   UNL     1      -9.622  10.010  69.417  1.00  0.00    -0.210 NA 
HETATM   19  C   UNL     1      -7.912   9.057  70.931  1.00  0.00    -0.164 C  
HETATM   20  C   UNL     1      -8.201  10.062  69.801  1.00  0.00    -0.178 C  
HETATM   21  N   UNL     1      -8.437   7.716  70.638  1.00  0.00    -0.126 N  
HETATM   22  C   UNL     1      -9.855   7.719  70.241  1.00  0.00    -0.184 C  
HETATM   23  C   UNL     1      -7.732   6.612  71.129  1.00  0.00    -0.097 C  
HETATM   24  O   UNL     1      -6.691   6.780  71.767  1.00  0.00    -0.056 OA 
HETATM   25  C   UNL     1     -10.104   8.672  69.058  1.00  0.00    -0.199 C  
BRANCH  23  26
HETATM   26  C   UNL     1      -8.231   5.267  70.890  1.00  0.00    -0.112 A  
HETATM   27  C   UNL     1      -7.530   4.085  70.723  1.00  0.00    -0.041 A  
HETATM   28  C   UNL     1      -8.481   3.066  70.484  1.00  0.00    -0.096 A  
HETATM   29  C   UNL     1      -9.707   3.687  70.481  1.00  0.00    -0.140 A  
HETATM   30  O   UNL     1      -9.565   5.020  70.698  1.00  0.00    -0.161 OA 
ENDBRANCH  23  26
ENDBRANCH  13  18
ENDBRANCH   2   3
TORSDOF 4
ENDMDL
MODEL      143
REMARK 921   NORMALIZED FREE ENERGY PREDICTED BY IDOCK:    1.57 KCAL/MOL
REMARK 922        TOTAL FREE ENERGY PREDICTED BY IDOCK:    1.38 KCAL/MOL
REMARK 923 INTER-LIGAND FREE ENERGY PREDICTED BY IDOCK:    1.81 KCAL/MOL
REMARK 924 INTRA-LIGAND FREE ENERGY PREDICTED BY IDOCK:   -0.43 KCAL/MOL
REMARK 927      BINDING AFFINITY PREDICTED BY RF-SCORE:    0.00 PKD
ROOT
HETATM    1  C   UNL     1      -5.395  10.550  64.371  1.00  0.00    -0.145 C  
HETATM    2  O   UNL     1      -5.308   9.492  65.323  1.00  0.00    -0.043 OA 
ENDROOT
BRANCH   2   3
HETATM    3  C   UNL     1      -6.490   8.981  65.787  1.00  0.00    -0.064 A  
HETATM    4  C   UNL     1      -6.775   7.623  65.598  1.00  0.00    -0.045 A  
HETATM    5  C   UNL     1      -7.986   7.113  66.086  1.00  0.00    -0.112 A  
HETATM    6  C   UNL     1      -8.567   9.254  67.047  1.00  0.00    -0.124 A  
HETATM    7  C   UNL     1      -8.880   7.918  66.827  1.00  0.00    -0.154 A  
HETATM    8  C   UNL     1      -7.397   9.768  66.513  1.00  0.00    -0.095 A  
HETATM    9  C   UNL     1     -10.093   7.510  67.390  1.00  0.00    -0.216 A  
HETATM   10  N   UNL     1     -10.582   6.211  67.212  1.00  0.00    -0.251 NA 
HETATM   11  N   UNL     1     -10.882   8.326  68.106  1.00  0.00    -0.009 NA 
HETATM   12  H1  UNL     1     -11.467   5.914  67.622  1.00  0.00     0.000 HD 
HETATM   13  C   UNL     1     -10.475   9.590  68.295  1.00  0.00    -0.223 A  
HETATM   14  H2  UNL     1      -9.859   5.559  67.519  1.00  0.00     0.000 HD 
HETATM   15  N   UNL     1      -9.340  10.065  67.768  1.00  0.00    -0.140 NA 
BRANCH   4  16
HETATM   16  O   UNL     1      -6.019   6.666  64.976  1.00  0.00    -0.033 OA 
HETATM   17  C   UNL     1      -5.894   6.709  63.562  1.00  0.00    -0.031 C  
ENDBRANCH   4  16
BRANCH  13  18
HETATM   18  N   UNL     1     -11.266  10.473  69.017  1.00  0.00    -0.248 NA 
HETATM   19  C   UNL     1     -13.148  12.080  69.072  1.00  0.00     2.520 C  
HETATM   20  C   UNL     1     -12.083  11.388  68.201  1.00  0.00     0.041 C  
HETATM   21  N   UNL     1     -12.581  12.662  70.296  1.00  0.00    -0.053 N  
HETATM   22  C   UNL     1     -11.758  11.714  71.066  1.00  0.00     0.555 C  
HETATM   23  C   UNL     1     -13.166  13.829  70.800  1.00  0.00    -0.012 C  
HETATM   24  O   UNL     1     -14.113  14.350  70.208  1.00  0.00     0.904 OA 
HETATM   25  C   UNL     1     -10.651  11.096  70.194  1.00  0.00     0.527 C  
BRANCH  23  26
HETATM   26  C   UNL     1     -12.658  14.423  72.027  1.00  0.00    -0.314 A  
HETATM   27  C   UNL     1     -13.350  14.877  73.137  1.00  0.00    -0.493 A  
HETATM   28  C   UNL     1     -12.394  15.396  74.041  1.00  0.00    -0.792 A  
HETATM   29  C   UNL     1     -11.176  15.266  73.419  1.00  0.00     0.827 A  
HETATM   30  O   UNL     1     -11.327  14.705  72.191  1.00  0.00     0.033 OA 
ENDBRANCH  23  26
ENDBRANCH  13  18
ENDBRANCH   2   3
TORSDOF 4
ENDMDL
MODEL      144
REMARK 921   NORMALIZED FREE ENERGY PREDICTED BY IDOCK:    1.62 KCAL/MOL
REMARK 922        TOTAL FREE ENERGY PREDICTED BY IDOCK:    1.43 KCAL/MOL
REMARK 923 INTER-LIGAND FREE ENERGY PREDICTED BY IDOCK:    1.93 KCAL/MOL
REMARK 924 INTRA-LIGAND FREE ENERGY PREDICTED BY IDOCK:   -0.49 KCAL/MOL
REMARK 927      BINDING AFFINITY PREDICTED BY RF-SCORE:    0.00 PKD
ROOT
HETATM    1  C   UNL     1      -8.508   5.792  66.330  1.00  0.00    -0.126 C  
HETATM    2  O   UNL     1      -7.564   5.629  67.386  1.00  0.00    -0.087 OA 
ENDROOT
BRANCH   2   3
HETATM    3  C   UNL     1      -7.590   6.564  68.385  1.00  0.00    -0.104 A  
HETATM    4  C   UNL     1      -7.026   6.258  69.630  1.00  0.00    -0.071 A  
HETATM    5  C   UNL     1      -7.053   7.229  70.641  1.00  0.00    -0.065 A  
HETATM    6  C   UNL     1      -8.080   8.833  69.152  1.00  0.00    -0.118 A  
HETATM    7  C   UNL     1      -7.562   8.526  70.405  1.00  0.00    -0.074 A  
HETATM    8  C   UNL     1      -8.105   7.852  68.174  1.00  0.00    -0.123 A  
HETATM    9  C   UNL     1      -7.608   9.579  71.322  1.00  0.00     0.328 A  
HETATM   10  N   UNL     1      -7.178   9.418  72.644  1.00  0.00     0.295 NA 
HETATM   11  N   UNL     1      -8.085  10.797  71.019  1.00  0.00     2.591 NA 
HETATM   12  H1  UNL     1      -7.212  10.187  73.313  1.00  0.00     0.000 HD 
HETATM   13  C   UNL     1      -8.528  11.007  69.771  1.00  0.00     0.718 A  
HETATM   14  H2  UNL     1      -6.223   9.062  72.622  1.00  0.00     0.000 HD 
HETATM   15  N   UNL     1      -8.543  10.043  68.842  1.00  0.00    -0.129 NA 
BRANCH   4  16
HETATM   16  O   UNL     1      -6.425   5.098  70.037  1.00  0.00    -0.032 OA 
HETATM   17  C   UNL     1      -7.243   3.990  70.385  1.00  0.00    -0.041 C  
ENDBRANCH   4  16
BRANCH  13  18
HETATM   18  N   UNL     1      -9.044  12.247  69.417  1.00  0.00     0.945 NA 
HETATM   19  C   UNL     1     -10.938  13.595  68.568  1.00  0.00    -0.267 C  
HETATM   20  C   UNL     1     -10.281  12.203  68.620  1.00  0.00    -0.174 C  
HETATM   21  N   UNL     1      -9.986  14.651  68.197  1.00  0.00    -0.219 N  
HETATM   22  C   UNL     1      -8.758  14.641  69.010  1.00  0.00    -0.097 C  
HETATM   23  C   UNL     1     -10.466  15.740  67.461  1.00  0.00    -0.288 C  
HETATM   24  O   UNL     1     -11.651  15.782  67.124  1.00  0.00    -0.024 OA 
HETATM   25  C   UNL     1      -8.078  13.261  68.982  1.00  0.00     0.302 C  
BRANCH  23  26
HETATM   26  C   UNL     1      -9.567  16.824  67.099  1.00  0.00    -0.236 A  
HETATM   27  C   UNL     1      -9.240  17.969  67.806  1.00  0.00    -0.262 A  
HETATM   28  C   UNL     1      -8.349  18.716  67.001  1.00  0.00    -0.274 A  
HETATM   29  C   UNL     1      -8.210  18.006  65.832  1.00  0.00     0.069 A  
HETATM   30  O   UNL     1      -8.963  16.876  65.870  1.00  0.00    -0.509 OA 
ENDBRANCH  23  26
ENDBRANCH  13  18
ENDBRANCH   2   3
TORSDOF 4
ENDMDL
MODEL      145
REMARK 921   NORMALIZED FREE ENERGY PREDICTED BY IDOCK:    2.43 KCAL/MOL
REMARK 922        TOTAL FREE ENERGY PREDICTED BY IDOCK:    2.44 KCAL/MOL
REMARK 923 INTER-LIGAND FREE ENERGY PREDICTED BY IDOCK:    2.54 KCAL/MOL
REMARK 924 INTRA-LIGAND FREE ENERGY PREDICTED BY IDOCK:   -0.10 KCAL/MOL
REMARK 927      BINDING AFFINITY PREDICTED BY RF-SCORE:    0.00 PKD
ROOT
HETATM    1  C   UNL     1     -10.295  17.425  67.837  1.00  0.00    -0.369 C  
HETATM    2  O   UNL     1     -10.220  17.527  69.256  1.00  0.00    -0.303 OA 
ENDROOT
BRANCH   2   3
HETATM    3  C   UNL     1     -10.749  16.492  69.979  1.00  0.00    -0.221 A  
HETATM    4  C   UNL     1     -11.456  16.764  71.157  1.00  0.00     0.379 A  
HETATM    5  C   UNL     1     -11.998  15.694  71.881  1.00  0.00    -0.530 A  
HETATM    6  C   UNL     1     -11.248  14.110  70.214  1.00  0.00     0.061 A  
HETATM    7  C   UNL     1     -11.914  14.365  71.407  1.00  0.00    -0.337 A  
HETATM    8  C   UNL     1     -10.663  15.165  69.532  1.00  0.00    -0.273 A  
HETATM    9  C   UNL     1     -12.446  13.229  72.024  1.00  0.00     0.171 A  
HETATM   10  N   UNL     1     -13.097  13.304  73.261  1.00  0.00     0.110 NA 
HETATM   11  N   UNL     1     -12.349  11.996  71.502  1.00  0.00    -0.027 NA 
HETATM   12  H1  UNL     1     -13.485  12.475  73.710  1.00  0.00     0.000 HD 
HETATM   13  C   UNL     1     -11.720  11.858  70.326  1.00  0.00    -0.205 A  
HETATM   14  H2  UNL     1     -13.843  13.995  73.180  1.00  0.00     0.000 HD 
HETATM   15  N   UNL     1     -11.160  12.892  69.685  1.00  0.00    -0.000 NA 
BRANCH   4  16
HETATM   16  O   UNL     1     -11.710  17.974  71.745  1.00  0.00     2.987 OA 
HETATM   17  C   UNL     1     -11.102  18.266  72.994  1.00  0.00     2.573 C  
ENDBRANCH   4  16
BRANCH  13  18
HETATM   18  N   UNL     1     -11.583  10.599  69.755  1.00  0.00    -0.284 NA 
HETATM   19  C   UNL     1     -11.850   8.145  69.936  1.00  0.00     0.564 C  
HETATM   20  C   UNL     1     -11.682   9.473  70.699  1.00  0.00    -0.262 C  
HETATM   21  N   UNL     1     -10.857   7.985  68.864  1.00  0.00    -0.052 N  
HETATM   22  C   UNL     1     -10.783   9.144  67.960  1.00  0.00    -0.147 C  
HETATM   23  C   UNL     1     -10.415   6.691  68.568  1.00  0.00    -0.213 C  
HETATM   24  O   UNL     1     -10.839   5.731  69.213  1.00  0.00    -0.311 OA 
HETATM   25  C   UNL     1     -10.536  10.448  68.739  1.00  0.00    -0.199 C  
BRANCH  23  26
HETATM   26  C   UNL     1      -9.456   6.481  67.494  1.00  0.00    -0.125 A  
HETATM   27  C   UNL     1      -9.075   5.303  66.873  1.00  0.00    -0.113 A  
HETATM   28  C   UNL     1      -8.088   5.637  65.917  1.00  0.00    -0.111 A  
HETATM   29  C   UNL     1      -7.893   6.992  66.032  1.00  0.00    -0.104 A  
HETATM   30  O   UNL     1      -8.694   7.507  67.000  1.00  0.00    -0.122 OA 
ENDBRANCH  23  26
ENDBRANCH  13  18
ENDBRANCH   2   3
TORSDOF 4
ENDMDL
MODEL      146
REMARK 921   NORMALIZED FREE ENERGY PREDICTED BY IDOCK:    3.87 KCAL/MOL
REMARK 922        TOTAL FREE ENERGY PREDICTED BY IDOCK:    4.21 KCAL/MOL
REMARK 923 INTER-LIGAND FREE ENERGY PREDICTED BY IDOCK:    3.31 KCAL/MOL
REMARK 924 INTRA-LIGAND FREE ENERGY PREDICTED BY IDOCK:    0.90 KCAL/MOL
REMARK 927      BINDING AFFINITY PREDICTED BY RF-SCORE:    0.00 PKD
ROOT
HETATM    1  C   UNL     1      -8.163  17.114  68.748  1.00  0.00    -0.238 C  
HETATM    2  O   UNL     1      -8.509  16.220  69.804  1.00  0.00     0.165 OA 
ENDROOT
BRANCH   2   3
HETATM    3  C   UNL     1      -9.467  15.282  69.528  1.00  0.00    -0.201 A  
HETATM    4  C   UNL     1     -10.733  15.695  69.094  1.00  0.00    -0.243 A  
HETATM    5  C   UNL     1     -11.700  14.722  68.809  1.00  0.00    -0.354 A  
HETATM    6  C   UNL     1     -10.126  12.943  69.263  1.00  0.00     0.508 A  
HETATM    7  C   UNL     1     -11.399  13.342  68.873  1.00  0.00    -0.331 A  
HETATM    8  C   UNL     1      -9.192  13.908  69.601  1.00  0.00     1.130 A  
HETATM    9  C   UNL     1     -12.269  12.288  68.578  1.00  0.00     0.148 A  
HETATM   10  N   UNL     1     -13.604  12.518  68.225  1.00  0.00     5.081 NA 
HETATM   11  N   UNL     1     -11.905  10.998  68.638  1.00  0.00    -0.484 NA 
HETATM   12  H1  UNL     1     -14.238  11.749  68.010  1.00  0.00     0.000 HD 
HETATM   13  C   UNL     1     -10.643  10.714  68.988  1.00  0.00    -0.219 A  
HETATM   14  H2  UNL     1     -13.612  13.162  67.435  1.00  0.00     0.000 HD 
HETATM   15  N   UNL     1      -9.757  11.664  69.311  1.00  0.00     0.221 NA 
BRANCH   4  16
HETATM   16  O   UNL     1     -11.199  16.967  68.899  1.00  0.00    -0.203 OA 
HETATM   17  C   UNL     1     -10.911  17.618  67.670  1.00  0.00    -0.221 C  
ENDBRANCH   4  16
BRANCH  13  18
HETATM   18  N   UNL     1     -10.227   9.392  69.077  1.00  0.00    -0.198 NA 
HETATM   19  C   UNL     1     -10.497   7.144  70.076  1.00  0.00    -0.221 C  
HETATM   20  C   UNL     1     -10.737   8.656  70.247  1.00  0.00    -0.227 C  
HETATM   21  N   UNL     1      -9.113   6.835  69.690  1.00  0.00    -0.143 N  
HETATM   22  C   UNL     1      -8.646   7.610  68.528  1.00  0.00    -0.129 C  
HETATM   23  C   UNL     1      -8.556   5.635  70.146  1.00  0.00    -0.127 C  
HETATM   24  O   UNL     1      -9.215   4.885  70.869  1.00  0.00    -0.136 OA 
HETATM   25  C   UNL     1      -8.822   9.121  68.755  1.00  0.00    -0.132 C  
BRANCH  23  26
HETATM   26  C   UNL     1      -7.201   5.273  69.762  1.00  0.00    -0.063 A  
HETATM   27  C   UNL     1      -6.395   4.251  70.237  1.00  0.00    -0.027 A  
HETATM   28  C   UNL     1      -5.157   4.349  69.562  1.00  0.00     0.000 A  
HETATM   29  C   UNL     1      -5.259   5.447  68.741  1.00  0.00     0.000 A  
HETATM   30  O   UNL     1      -6.479   6.028  68.874  1.00  0.00    -0.045 OA 
ENDBRANCH  23  26
ENDBRANCH  13  18
ENDBRANCH   2   3
TORSDOF 4
ENDMDL
MODEL      147
REMARK 921   NORMALIZED FREE ENERGY PREDICTED BY IDOCK:    5.70 KCAL/MOL
REMARK 922        TOTAL FREE ENERGY PREDICTED BY IDOCK:    6.47 KCAL/MOL
REMARK 923 INTER-LIGAND FREE ENERGY PREDICTED BY IDOCK:    5.27 KCAL/MOL
REMARK 924 INTRA-LIGAND FREE ENERGY PREDICTED BY IDOCK:    1.20 KCAL/MOL
REMARK 927      BINDING AFFINITY PREDICTED BY RF-SCORE:    0.00 PKD
ROOT
HETATM    1  C   UNL     1     -11.425  17.829  71.123  1.00  0.00     3.258 C  
HETATM    2  O   UNL     1     -11.359  16.406  71.177  1.00  0.00    -0.352 OA 
ENDROOT
BRANCH   2   3
HETATM    3  C   UNL     1     -10.411  15.802  70.396  1.00  0.00    -0.152 A  
HETATM    4  C   UNL     1      -9.535  16.591  69.641  1.00  0.00     0.206 A  
HETATM    5  C   UNL     1      -8.564  15.958  68.852  1.00  0.00    -0.221 A  
HETATM    6  C   UNL     1      -9.251  13.782  69.654  1.00  0.00     1.306 A  
HETATM    7  C   UNL     1      -8.404  14.553  68.866  1.00  0.00    -0.112 A  
HETATM    8  C   UNL     1     -10.246  14.408  70.386  1.00  0.00     0.993 A  
HETATM    9  C   UNL     1      -7.453  13.819  68.152  1.00  0.00    -0.124 A  
HETATM   10  N   UNL     1      -6.562  14.439  67.269  1.00  0.00    -0.379 NA 
HETATM   11  N   UNL     1      -7.343  12.484  68.234  1.00  0.00    -0.106 NA 
HETATM   12  H1  UNL     1      -5.868  13.904  66.748  1.00  0.00     0.000 HD 
HETATM   13  C   UNL     1      -8.182  11.832  69.051  1.00  0.00     0.157 A  
HETATM   14  H2  UNL     1      -6.071  15.172  67.782  1.00  0.00     0.000 HD 
HETATM   15  N   UNL     1      -9.138  12.458  69.749  1.00  0.00     2.076 NA 
BRANCH   4  16
HETATM   16  O   UNL     1      -9.476  17.955  69.544  1.00  0.00     0.207 OA 
HETATM   17  C   UNL     1      -9.561  18.552  68.258  1.00  0.00    -0.343 C  
ENDBRANCH   4  16
BRANCH  13  18
HETATM   18  N   UNL     1      -8.114  10.449  69.156  1.00  0.00    -0.140 NA 
HETATM   19  C   UNL     1      -7.423   8.448  70.438  1.00  0.00    -0.067 C  
HETATM   20  C   UNL     1      -7.180   9.946  70.178  1.00  0.00    -0.155 C  
HETATM   21  N   UNL     1      -7.480   7.664  69.196  1.00  0.00    -0.092 N  
HETATM   22  C   UNL     1      -8.413   8.217  68.200  1.00  0.00    -0.132 C  
HETATM   23  C   UNL     1      -7.011   6.346  69.229  1.00  0.00    -0.067 C  
HETATM   24  O   UNL     1      -6.547   5.883  70.272  1.00  0.00    -0.041 OA 
HETATM   25  C   UNL     1      -8.100   9.693  67.898  1.00  0.00    -0.106 C  
BRANCH  23  26
HETATM   26  C   UNL     1      -7.078   5.523  68.032  1.00  0.00    -0.067 A  
HETATM   27  C   UNL     1      -7.536   5.848  66.766  1.00  0.00    -0.099 A  
HETATM   28  C   UNL     1      -7.419   4.685  65.969  1.00  0.00    -0.082 A  
HETATM   29  C   UNL     1      -6.931   3.705  66.801  1.00  0.00    -0.055 A  
HETATM   30  O   UNL     1      -6.748   4.193  68.054  1.00  0.00    -0.045 OA 
ENDBRANCH  23  26
ENDBRANCH  13  18
ENDBRANCH   2   3
TORSDOF 4
ENDMDL
MODEL      148
REMARK 921   NORMALIZED FREE ENERGY PREDICTED BY IDOCK:    6.45 KCAL/MOL
REMARK 922        TOTAL FREE ENERGY PREDICTED BY IDOCK:    7.40 KCAL/MOL
REMARK 923 INTER-LIGAND FREE ENERGY PREDICTED BY IDOCK:    6.45 KCAL/MOL
REMARK 924 INTRA-LIGAND FREE ENERGY PREDICTED BY IDOCK:    0.94 KCAL/MOL
REMARK 927      BINDING AFFINITY PREDICTED BY RF-SCORE:    0.00 PKD
ROOT
HETATM    1  C   UNL     1      -9.010  20.172  71.335  1.00  0.00     2.332 C  
HETATM    2  O   UNL     1      -9.315  18.780  71.347  1.00  0.00     4.724 OA 
ENDROOT
BRANCH   2   3
HETATM    3  C   UNL     1      -9.575  18.195  70.137  1.00  0.00     1.735 A  
HETATM    4  C   UNL     1      -9.881  19.001  69.034  1.00  0.00    -0.349 A  
HETATM    5  C   UNL     1     -10.137  18.388  67.799  1.00  0.00    -0.377 A  
HETATM    6  C   UNL     1      -9.669  16.203  68.724  1.00  0.00    -0.233 A  
HETATM    7  C   UNL     1     -10.016  16.990  67.632  1.00  0.00    -0.280 A  
HETATM    8  C   UNL     1      -9.474  16.808  69.954  1.00  0.00     0.815 A  
HETATM    9  C   UNL     1     -10.212  16.276  66.446  1.00  0.00    -0.313 A  
HETATM   10  N   UNL     1     -10.620  16.912  65.268  1.00  0.00    -0.650 NA 
HETATM   11  N   UNL     1     -10.054  14.947  66.354  1.00  0.00    -0.273 NA 
HETATM   12  H1  UNL     1     -10.763  16.391  64.403  1.00  0.00     0.000 HD 
HETATM   13  C   UNL     1      -9.680  14.279  67.455  1.00  0.00    -0.223 A  
HETATM   14  H2  UNL     1      -9.962  17.667  65.074  1.00  0.00     0.000 HD 
HETATM   15  N   UNL     1      -9.499  14.885  68.635  1.00  0.00    -0.202 NA 
BRANCH   4  16
HETATM   16  O   UNL     1      -9.978  20.365  68.968  1.00  0.00    -0.065 OA 
HETATM   17  C   UNL     1     -11.033  20.939  68.210  1.00  0.00     1.518 C  
ENDBRANCH   4  16
BRANCH  13  18
HETATM   18  N   UNL     1      -9.520  12.901  67.411  1.00  0.00    -0.193 NA 
HETATM   19  C   UNL     1     -10.520  10.640  67.543  1.00  0.00    -0.230 C  
HETATM   20  C   UNL     1     -10.654  12.123  67.938  1.00  0.00    -0.207 C  
HETATM   21  N   UNL     1      -9.188  10.097  67.845  1.00  0.00    -0.137 N  
HETATM   22  C   UNL     1      -8.089  10.920  67.313  1.00  0.00    -0.123 C  
HETATM   23  C   UNL     1      -9.096   8.749  68.205  1.00  0.00    -0.141 C  
HETATM   24  O   UNL     1     -10.114   8.060  68.284  1.00  0.00    -0.184 OA 
HETATM   25  C   UNL     1      -8.201  12.379  67.787  1.00  0.00    -0.163 C  
BRANCH  23  26
HETATM   26  C   UNL     1      -7.795   8.160  68.483  1.00  0.00    -0.118 A  
HETATM   27  C   UNL     1      -7.463   7.121  69.336  1.00  0.00    -0.096 A  
HETATM   28  C   UNL     1      -6.060   6.957  69.268  1.00  0.00    -0.026 A  
HETATM   29  C   UNL     1      -5.608   7.929  68.408  1.00  0.00    -0.032 A  
HETATM   30  O   UNL     1      -6.643   8.678  67.949  1.00  0.00    -0.059 OA 
ENDBRANCH  23  26
ENDBRANCH  13  18
ENDBRANCH   2   3
TORSDOF 4
ENDMDL
MODEL      149
REMARK 921   NORMALIZED FREE ENERGY PREDICTED BY IDOCK:    6.50 KCAL/MOL
REMARK 922        TOTAL FREE ENERGY PREDICTED BY IDOCK:    7.45 KCAL/MOL
REMARK 923 INTER-LIGAND FREE ENERGY PREDICTED BY IDOCK:    8.03 KCAL/MOL
REMARK 924 INTRA-LIGAND FREE ENERGY PREDICTED BY IDOCK:   -0.57 KCAL/MOL
REMARK 927      BINDING AFFINITY PREDICTED BY RF-SCORE:    0.00 PKD
ROOT
HETATM    1  C   UNL     1      -7.672   5.170  70.190  1.00  0.00    -0.071 C  
HETATM    2  O   UNL     1      -8.643   4.487  70.980  1.00  0.00    -0.101 OA 
ENDROOT
BRANCH   2   3
HETATM    3  C   UNL     1      -9.763   5.193  71.327  1.00  0.00    -0.169 A  
HETATM    4  C   UNL     1     -10.750   4.580  72.109  1.00  0.00     0.003 A  
HETATM    5  C   UNL     1     -11.887   5.319  72.463  1.00  0.00    -0.047 A  
HETATM    6  C   UNL     1     -11.013   7.294  71.375  1.00  0.00    -0.232 A  
HETATM    7  C   UNL     1     -12.018   6.682  72.115  1.00  0.00    -0.320 A  
HETATM    8  C   UNL     1      -9.918   6.544  70.978  1.00  0.00    -0.203 A  
HETATM    9  C   UNL     1     -13.086   7.523  72.442  1.00  0.00     0.214 A  
HETATM   10  N   UNL     1     -14.206   7.049  73.134  1.00  0.00     0.917 NA 
HETATM   11  N   UNL     1     -13.131   8.820  72.098  1.00  0.00    -0.379 NA 
HETATM   12  H1  UNL     1     -14.984   7.663  73.372  1.00  0.00     0.000 HD 
HETATM   13  C   UNL     1     -12.094   9.328  71.417  1.00  0.00    -0.348 A  
HETATM   14  H2  UNL     1     -13.879   6.608  73.994  1.00  0.00     0.000 HD 
HETATM   15  N   UNL     1     -11.047   8.583  71.042  1.00  0.00    -0.251 NA 
BRANCH   4  16
HETATM   16  O   UNL     1     -10.781   3.305  72.605  1.00  0.00    -0.095 OA 
HETATM   17  C   UNL     1     -11.809   2.428  72.169  1.00  0.00     2.554 C  
ENDBRANCH   4  16
BRANCH  13  18
HETATM   18  N   UNL     1     -12.106  10.660  71.027  1.00  0.00    -0.362 NA 
HETATM   19  C   UNL     1     -13.147  12.480  69.711  1.00  0.00     1.371 C  
HETATM   20  C   UNL     1     -12.942  10.960  69.852  1.00  0.00     0.223 C  
HETATM   21  N   UNL     1     -11.884  13.227  69.793  1.00  0.00    -0.324 N  
HETATM   22  C   UNL     1     -11.076  12.878  70.973  1.00  0.00     2.890 C  
HETATM   23  C   UNL     1     -11.767  14.403  69.044  1.00  0.00    -0.310 C  
HETATM   24  O   UNL     1     -12.698  14.772  68.326  1.00  0.00     0.364 OA 
HETATM   25  C   UNL     1     -10.818  11.363  71.049  1.00  0.00     2.628 C  
BRANCH  23  26
HETATM   26  C   UNL     1     -10.547  15.191  69.118  1.00  0.00    -0.256 A  
HETATM   27  C   UNL     1      -9.337  15.002  68.471  1.00  0.00    -0.196 A  
HETATM   28  C   UNL     1      -8.465  16.025  68.912  1.00  0.00    -0.232 A  
HETATM   29  C   UNL     1      -9.176  16.758  69.831  1.00  0.00     1.014 A  
HETATM   30  O   UNL     1     -10.425  16.246  69.984  1.00  0.00    -0.255 OA 
ENDBRANCH  23  26
ENDBRANCH  13  18
ENDBRANCH   2   3
TORSDOF 4
ENDMDL
MODEL      150
REMARK 921   NORMALIZED FREE ENERGY PREDICTED BY IDOCK:    7.18 KCAL/MOL
REMARK 922        TOTAL FREE ENERGY PREDICTED BY IDOCK:    8.30 KCAL/MOL
REMARK 923 INTER-LIGAND FREE ENERGY PREDICTED BY IDOCK:    7.34 KCAL/MOL
REMARK 924 INTRA-LIGAND FREE ENERGY PREDICTED BY IDOCK:    0.96 KCAL/MOL
REMARK 927      BINDING AFFINITY PREDICTED BY RF-SCORE:    0.00 PKD
ROOT
HETATM    1  C   UNL     1      -9.467  20.307  68.679  1.00  0.00     0.138 C  
HETATM    2  O   UNL     1     -10.075  19.030  68.854  1.00  0.00    -0.403 OA 
ENDROOT
BRANCH   2   3
HETATM    3  C   UNL     1      -9.310  17.936  68.548  1.00  0.00    -0.296 A  
HETATM    4  C   UNL     1      -8.082  18.113  67.899  1.00  0.00    -0.247 A  
HETATM    5  C   UNL     1      -7.307  16.984  67.600  1.00  0.00    -0.176 A  
HETATM    6  C   UNL     1      -8.902  15.530  68.691  1.00  0.00    -0.193 A  
HETATM    7  C   UNL     1      -7.702  15.690  68.008  1.00  0.00    -0.133 A  
HETATM    8  C   UNL     1      -9.692  16.642  68.932  1.00  0.00    -0.255 A  
HETATM    9  C   UNL     1      -6.996  14.502  67.797  1.00  0.00    -0.179 A  
HETATM   10  N   UNL     1      -5.796  14.481  67.077  1.00  0.00     0.171 NA 
HETATM   11  N   UNL     1      -7.421  13.307  68.237  1.00  0.00    -0.115 NA 
HETATM   12  H1  UNL     1      -5.282  13.614  66.923  1.00  0.00     0.000 HD 
HETATM   13  C   UNL     1      -8.574  13.261  68.919  1.00  0.00     0.266 A  
HETATM   14  H2  UNL     1      -5.160  15.152  67.508  1.00  0.00     0.000 HD 
HETATM   15  N   UNL     1      -9.323  14.349  69.140  1.00  0.00    -0.018 NA 
BRANCH   4  16
HETATM   16  O   UNL     1      -7.490  19.276  67.486  1.00  0.00    -0.232 OA 
HETATM   17  C   UNL     1      -6.360  19.200  66.630  1.00  0.00    -0.186 C  
ENDBRANCH   4  16
BRANCH  13  18
HETATM   18  N   UNL     1      -9.060  12.044  69.380  1.00  0.00     0.806 NA 
HETATM   19  C   UNL     1      -8.737   9.611  69.696  1.00  0.00    -0.197 C  
HETATM   20  C   UNL     1      -8.343  10.858  68.882  1.00  0.00    -0.139 C  
HETATM   21  N   UNL     1     -10.193   9.460  69.825  1.00  0.00    -0.206 N  
HETATM   22  C   UNL     1     -10.864  10.678  70.308  1.00  0.00    -0.087 C  
HETATM   23  C   UNL     1     -10.716   8.164  69.883  1.00  0.00    -0.241 C  
HETATM   24  O   UNL     1      -9.964   7.191  69.804  1.00  0.00    -0.175 OA 
HETATM   25  C   UNL     1     -10.518  11.894  69.431  1.00  0.00     0.203 C  
BRANCH  23  26
HETATM   26  C   UNL     1     -12.149   7.968  70.042  1.00  0.00     0.703 A  
HETATM   27  C   UNL     1     -12.956   6.951  69.558  1.00  0.00     3.553 A  
HETATM   28  C   UNL     1     -14.279   7.243  69.962  1.00  0.00     4.081 A  
HETATM   29  C   UNL     1     -14.214   8.439  70.636  1.00  0.00     0.727 A  
HETATM   30  O   UNL     1     -12.937   8.898  70.666  1.00  0.00     0.172 OA 
ENDBRANCH  23  26
ENDBRANCH  13  18
ENDBRANCH   2   3
TORSDOF 4
ENDMDL
MODEL      151
REMARK 921   NORMALIZED FREE ENERGY PREDICTED BY IDOCK:   10.51 KCAL/MOL
REMARK 922        TOTAL FREE ENERGY PREDICTED BY IDOCK:   12.41 KCAL/MOL
REMARK 923 INTER-LIGAND FREE ENERGY PREDICTED BY IDOCK:   12.99 KCAL/MOL
REMARK 924 INTRA-LIGAND FREE ENERGY PREDICTED BY IDOCK:   -0.58 KCAL/MOL
REMARK 927      BINDING AFFINITY PREDICTED BY RF-SCORE:    0.00 PKD
ROOT
HETATM    1  C   UNL     1      -6.840  11.216  64.960  1.00  0.00     0.758 C  
HETATM    2  O   UNL     1      -6.598  10.447  66.135  1.00  0.00    -0.096 OA 
ENDROOT
BRANCH   2   3
HETATM    3  C   UNL     1      -7.692  10.086  66.873  1.00  0.00    -0.096 A  
HETATM    4  C   UNL     1      -8.090   8.744  66.905  1.00  0.00    -0.101 A  
HETATM    5  C   UNL     1      -9.209   8.389  67.671  1.00  0.00    -0.147 A  
HETATM    6  C   UNL     1      -9.458  10.660  68.464  1.00  0.00    -0.176 A  
HETATM    7  C   UNL     1      -9.888   9.338  68.468  1.00  0.00    -0.173 A  
HETATM    8  C   UNL     1      -8.388  11.017  67.659  1.00  0.00    -0.117 A  
HETATM    9  C   UNL     1     -10.987   9.092  69.296  1.00  0.00    -0.061 A  
HETATM   10  N   UNL     1     -11.579   7.826  69.371  1.00  0.00    -0.123 NA 
HETATM   11  N   UNL     1     -11.568  10.041  70.046  1.00  0.00    -0.239 NA 
HETATM   12  H1  UNL     1     -12.381   7.647  69.974  1.00  0.00     0.000 HD 
HETATM   13  C   UNL     1     -11.056  11.279  70.003  1.00  0.00    -0.037 A  
HETATM   14  H2  UNL     1     -10.850   7.153  69.609  1.00  0.00     0.000 HD 
HETATM   15  N   UNL     1     -10.022  11.602  69.216  1.00  0.00     0.135 NA 
BRANCH   4  16
HETATM   16  O   UNL     1      -7.532   7.668  66.268  1.00  0.00    -0.080 OA 
HETATM   17  C   UNL     1      -6.725   6.774  67.020  1.00  0.00    -0.059 C  
ENDBRANCH   4  16
BRANCH  13  18
HETATM   18  N   UNL     1     -11.634  12.296  70.752  1.00  0.00     0.450 NA 
HETATM   19  C   UNL     1     -13.588  13.742  71.220  1.00  0.00    -0.103 C  
HETATM   20  C   UNL     1     -12.859  12.877  70.174  1.00  0.00     0.375 C  
HETATM   21  N   UNL     1     -12.691  14.695  71.886  1.00  0.00    -0.320 N  
HETATM   22  C   UNL     1     -11.473  14.069  72.429  1.00  0.00     1.947 C  
HETATM   23  C   UNL     1     -13.221  15.927  72.286  1.00  0.00    -0.365 C  
HETATM   24  O   UNL     1     -14.402  16.193  72.057  1.00  0.00    -0.046 OA 
HETATM   25  C   UNL     1     -10.720  13.277  71.346  1.00  0.00     5.256 C  
BRANCH  23  26
HETATM   26  C   UNL     1     -12.377  16.889  72.976  1.00  0.00     0.383 A  
HETATM   27  C   UNL     1     -12.481  17.385  74.266  1.00  0.00     0.694 A  
HETATM   28  C   UNL     1     -11.435  18.320  74.438  1.00  0.00     1.505 A  
HETATM   29  C   UNL     1     -10.772  18.373  73.235  1.00  0.00     3.095 A  
HETATM   30  O   UNL     1     -11.350  17.534  72.337  1.00  0.00     0.736 OA 
ENDBRANCH  23  26
ENDBRANCH  13  18
ENDBRANCH   2   3
TORSDOF 4
ENDMDL
MODEL      152
REMARK 921   NORMALIZED FREE ENERGY PREDICTED BY IDOCK:   12.55 KCAL/MOL
REMARK 922        TOTAL FREE ENERGY PREDICTED BY IDOCK:   14.92 KCAL/MOL
REMARK 923 INTER-LIGAND FREE ENERGY PREDICTED BY IDOCK:   14.90 KCAL/MOL
REMARK 924 INTRA-LIGAND FREE ENERGY PREDICTED BY IDOCK:    0.03 KCAL/MOL
REMARK 927      BINDING AFFINITY PREDICTED BY RF-SCORE:    0.00 PKD
ROOT
HETATM    1  C   UNL     1     -10.740  19.385  70.355  1.00  0.00     2.172 C  
HETATM    2  O   UNL     1     -10.437  18.012  70.594  1.00  0.00     1.227 OA 
ENDROOT
BRANCH   2   3
HETATM    3  C   UNL     1      -9.604  17.400  69.697  1.00  0.00     0.515 A  
HETATM    4  C   UNL     1      -8.495  18.096  69.199  1.00  0.00     0.121 A  
HETATM    5  C   UNL     1      -7.647  17.452  68.288  1.00  0.00    -0.234 A  
HETATM    6  C   UNL     1      -8.922  15.405  68.460  1.00  0.00    -0.192 A  
HETATM    7  C   UNL     1      -7.843  16.100  67.926  1.00  0.00    -0.151 A  
HETATM    8  C   UNL     1      -9.791  16.063  69.315  1.00  0.00    -0.255 A  
HETATM    9  C   UNL     1      -7.045  15.349  67.058  1.00  0.00     0.035 A  
HETATM   10  N   UNL     1      -5.953  15.916  66.393  1.00  0.00     0.694 NA 
HETATM   11  N   UNL     1      -7.279  14.057  66.780  1.00  0.00     0.537 NA 
HETATM   12  H1  UNL     1      -5.371  15.368  65.760  1.00  0.00     0.000 HD 
HETATM   13  C   UNL     1      -8.323  13.463  67.374  1.00  0.00    -0.190 A  
HETATM   14  H2  UNL     1      -5.343  16.337  67.094  1.00  0.00     0.000 HD 
HETATM   15  N   UNL     1      -9.151  14.119  68.196  1.00  0.00    -0.186 NA 
BRANCH   4  16
HETATM   16  O   UNL     1      -8.090  19.374  69.475  1.00  0.00    -0.080 OA 
HETATM   17  C   UNL     1      -6.799  19.576  70.030  1.00  0.00    -0.040 C  
ENDBRANCH   4  16
BRANCH  13  18
HETATM   18  N   UNL     1      -8.611  12.132  67.103  1.00  0.00    -0.179 NA 
HETATM   19  C   UNL     1      -8.991  10.336  65.442  1.00  0.00    -0.178 C  
HETATM   20  C   UNL     1      -9.020  11.852  65.716  1.00  0.00     0.046 C  
HETATM   21  N   UNL     1      -9.696   9.565  66.476  1.00  0.00    -0.204 N  
HETATM   22  C   UNL     1      -9.266   9.895  67.845  1.00  0.00    -0.130 C  
HETATM   23  C   UNL     1     -10.348   8.389  66.088  1.00  0.00     0.440 C  
HETATM   24  O   UNL     1     -10.338   8.040  64.906  1.00  0.00     3.252 OA 
HETATM   25  C   UNL     1      -9.379  11.405  68.120  1.00  0.00    -0.181 C  
BRANCH  23  26
HETATM   26  C   UNL     1     -11.032   7.578  67.082  1.00  0.00    -0.093 A  
HETATM   27  C   UNL     1     -10.915   6.223  67.344  1.00  0.00    -0.447 A  
HETATM   28  C   UNL     1     -11.822   5.920  68.385  1.00  0.00     2.091 A  
HETATM   29  C   UNL     1     -12.470   7.096  68.677  1.00  0.00     4.093 A  
HETATM   30  O   UNL     1     -12.020   8.097  67.877  1.00  0.00     2.415 OA 
ENDBRANCH  23  26
ENDBRANCH  13  18
ENDBRANCH   2   3
TORSDOF 4
ENDMDL
MODEL      153
REMARK 921   NORMALIZED FREE ENERGY PREDICTED BY IDOCK:   13.52 KCAL/MOL
REMARK 922        TOTAL FREE ENERGY PREDICTED BY IDOCK:   16.12 KCAL/MOL
REMARK 923 INTER-LIGAND FREE ENERGY PREDICTED BY IDOCK:   12.09 KCAL/MOL
REMARK 924 INTRA-LIGAND FREE ENERGY PREDICTED BY IDOCK:    4.03 KCAL/MOL
REMARK 927      BINDING AFFINITY PREDICTED BY RF-SCORE:    0.00 PKD
ROOT
HETATM    1  C   UNL     1      -9.918  20.880  68.294  1.00  0.00     0.418 C  
HETATM    2  O   UNL     1     -10.108  19.842  67.337  1.00  0.00    -0.368 OA 
ENDROOT
BRANCH   2   3
HETATM    3  C   UNL     1     -10.438  18.606  67.825  1.00  0.00    -0.411 A  
HETATM    4  C   UNL     1     -11.261  18.507  68.953  1.00  0.00     1.777 A  
HETATM    5  C   UNL     1     -11.596  17.235  69.436  1.00  0.00     1.481 A  
HETATM    6  C   UNL     1     -10.406  16.170  67.620  1.00  0.00    -0.288 A  
HETATM    7  C   UNL     1     -11.187  16.060  68.765  1.00  0.00    -0.360 A  
HETATM    8  C   UNL     1     -10.029  17.428  67.180  1.00  0.00    -0.291 A  
HETATM    9  C   UNL     1     -11.490  14.746  69.132  1.00  0.00    -0.299 A  
HETATM   10  N   UNL     1     -12.219  14.460  70.292  1.00  0.00    -0.315 NA 
HETATM   11  N   UNL     1     -11.087  13.676  68.430  1.00  0.00    -0.252 NA 
HETATM   12  H1  UNL     1     -12.440  13.501  70.560  1.00  0.00     0.000 HD 
HETATM   13  C   UNL     1     -10.368  13.886  67.318  1.00  0.00    -0.257 A  
HETATM   14  H2  UNL     1     -13.094  14.983  70.249  1.00  0.00     0.000 HD 
HETATM   15  N   UNL     1     -10.014  15.112  66.912  1.00  0.00    -0.236 NA 
BRANCH   4  16
HETATM   16  O   UNL     1     -11.817  19.511  69.700  1.00  0.00     5.071 OA 
HETATM   17  C   UNL     1     -11.387  20.846  69.476  1.00  0.00     2.379 C  
ENDBRANCH   4  16
BRANCH  13  18
HETATM   18  N   UNL     1      -9.917  12.808  66.568  1.00  0.00    -0.247 NA 
HETATM   19  C   UNL     1      -9.635  11.726  64.360  1.00  0.00    -0.061 C  
HETATM   20  C   UNL     1     -10.438  12.744  65.191  1.00  0.00    -0.300 C  
HETATM   21  N   UNL     1      -9.493  10.432  65.041  1.00  0.00    -0.228 N  
HETATM   22  C   UNL     1      -8.988  10.551  66.419  1.00  0.00    -0.159 C  
HETATM   23  C   UNL     1      -9.445   9.277  64.252  1.00  0.00     0.405 C  
HETATM   24  O   UNL     1      -9.544   9.362  63.027  1.00  0.00     0.304 OA 
HETATM   25  C   UNL     1      -9.853  11.512  67.252  1.00  0.00    -0.190 C  
BRANCH  23  26
HETATM   26  C   UNL     1      -9.274   7.977  64.882  1.00  0.00     0.785 A  
HETATM   27  C   UNL     1      -8.132   7.401  65.414  1.00  0.00    -0.133 A  
HETATM   28  C   UNL     1      -8.490   6.112  65.872  1.00  0.00    -0.145 A  
HETATM   29  C   UNL     1      -9.820   5.956  65.561  1.00  0.00     0.503 A  
HETATM   30  O   UNL     1     -10.295   7.065  64.938  1.00  0.00     3.507 OA 
ENDBRANCH  23  26
ENDBRANCH  13  18
ENDBRANCH   2   3
TORSDOF 4
ENDMDL
MODEL      154
REMARK 921   NORMALIZED FREE ENERGY PREDICTED BY IDOCK:   16.35 KCAL/MOL
REMARK 922        TOTAL FREE ENERGY PREDICTED BY IDOCK:   19.61 KCAL/MOL
REMARK 923 INTER-LIGAND FREE ENERGY PREDICTED BY IDOCK:   18.81 KCAL/MOL
REMARK 924 INTRA-LIGAND FREE ENERGY PREDICTED BY IDOCK:    0.79 KCAL/MOL
REMARK 927      BINDING AFFINITY PREDICTED BY RF-SCORE:    0.00 PKD
ROOT
HETATM    1  C   UNL     1      -5.967   5.276  68.676  1.00  0.00    -0.021 C  
HETATM    2  O   UNL     1      -5.983   6.645  68.276  1.00  0.00    -0.019 OA 
ENDROOT
BRANCH   2   3
HETATM    3  C   UNL     1      -6.331   7.562  69.229  1.00  0.00    -0.035 A  
HETATM    4  C   UNL     1      -6.299   7.198  70.581  1.00  0.00    -0.039 A  
HETATM    5  C   UNL     1      -6.650   8.152  71.546  1.00  0.00    -0.049 A  
HETATM    6  C   UNL     1      -6.943   9.847  69.847  1.00  0.00    -0.105 A  
HETATM    7  C   UNL     1      -6.957   9.484  71.189  1.00  0.00     0.027 A  
HETATM    8  C   UNL     1      -6.652   8.886  68.893  1.00  0.00    -0.052 A  
HETATM    9  C   UNL     1      -7.285  10.524  72.064  1.00  0.00     4.089 A  
HETATM   10  N   UNL     1      -7.398  10.311  73.443  1.00  0.00     3.782 NA 
HETATM   11  N   UNL     1      -7.541  11.776  71.654  1.00  0.00     7.627 NA 
HETATM   12  H1  UNL     1      -7.638  11.070  74.081  1.00  0.00     0.000 HD 
HETATM   13  C   UNL     1      -7.465  12.036  70.341  1.00  0.00     2.761 A  
HETATM   14  H2  UNL     1      -6.528   9.891  73.768  1.00  0.00     0.000 HD 
HETATM   15  N   UNL     1      -7.183  11.091  69.436  1.00  0.00    -0.127 NA 
BRANCH   4  16
HETATM   16  O   UNL     1      -5.964   5.992  71.137  1.00  0.00    -0.028 OA 
HETATM   17  C   UNL     1      -6.520   5.644  72.396  1.00  0.00    -0.057 C  
ENDBRANCH   4  16
BRANCH  13  18
HETATM   18  N   UNL     1      -7.736  13.314  69.870  1.00  0.00     1.229 NA 
HETATM   19  C   UNL     1      -9.397  15.041  69.248  1.00  0.00    -0.162 C  
HETATM   20  C   UNL     1      -9.125  13.536  69.432  1.00  0.00     0.986 C  
HETATM   21  N   UNL     1      -8.366  15.703  68.438  1.00  0.00    -0.157 N  
HETATM   22  C   UNL     1      -6.996  15.436  68.906  1.00  0.00    -0.127 C  
HETATM   23  C   UNL     1      -8.756  16.777  67.630  1.00  0.00    -0.204 C  
HETATM   24  O   UNL     1      -9.937  17.126  67.595  1.00  0.00    -0.266 OA 
HETATM   25  C   UNL     1      -6.722  13.925  69.004  1.00  0.00    -0.110 C  
BRANCH  23  26
HETATM   26  C   UNL     1      -7.764  17.483  66.835  1.00  0.00    -0.217 A  
HETATM   27  C   UNL     1      -7.818  17.877  65.508  1.00  0.00     0.585 A  
HETATM   28  C   UNL     1      -6.584  18.498  65.207  1.00  0.00    -0.180 A  
HETATM   29  C   UNL     1      -5.829  18.415  66.353  1.00  0.00    -0.159 A  
HETATM   30  O   UNL     1      -6.522  17.780  67.333  1.00  0.00    -0.157 OA 
ENDBRANCH  23  26
ENDBRANCH  13  18
ENDBRANCH   2   3
TORSDOF 4
ENDMDL
MODEL      155
REMARK 921   NORMALIZED FREE ENERGY PREDICTED BY IDOCK:   20.25 KCAL/MOL
REMARK 922        TOTAL FREE ENERGY PREDICTED BY IDOCK:   24.42 KCAL/MOL
REMARK 923 INTER-LIGAND FREE ENERGY PREDICTED BY IDOCK:   23.54 KCAL/MOL
REMARK 924 INTRA-LIGAND FREE ENERGY PREDICTED BY IDOCK:    0.89 KCAL/MOL
REMARK 927      BINDING AFFINITY PREDICTED BY RF-SCORE:    0.00 PKD
ROOT
HETATM    1  C   UNL     1      -8.887  20.119  71.630  1.00  0.00     2.453 C  
HETATM    2  O   UNL     1      -9.201  18.782  72.012  1.00  0.00     6.874 OA 
ENDROOT
BRANCH   2   3
HETATM    3  C   UNL     1      -9.390  17.880  71.001  1.00  0.00     5.857 A  
HETATM    4  C   UNL     1      -9.330  18.313  69.670  1.00  0.00     0.730 A  
HETATM    5  C   UNL     1      -9.517  17.375  68.645  1.00  0.00    -0.280 A  
HETATM    6  C   UNL     1      -9.699  15.574  70.249  1.00  0.00     0.285 A  
HETATM    7  C   UNL     1      -9.685  16.000  68.926  1.00  0.00    -0.232 A  
HETATM    8  C   UNL     1      -9.572  16.513  71.260  1.00  0.00     4.492 A  
HETATM    9  C   UNL     1      -9.844  14.975  67.989  1.00  0.00    -0.218 A  
HETATM   10  N   UNL     1      -9.909  15.242  66.616  1.00  0.00    -0.240 NA 
HETATM   11  N   UNL     1      -9.973  13.683  68.328  1.00  0.00    -0.233 NA 
HETATM   12  H1  UNL     1     -10.025  14.494  65.933  1.00  0.00     0.000 HD 
HETATM   13  C   UNL     1      -9.937  13.367  69.631  1.00  0.00     1.146 A  
HETATM   14  H2  UNL     1      -9.077  15.774  66.361  1.00  0.00     0.000 HD 
HETATM   15  N   UNL     1      -9.814  14.292  70.591  1.00  0.00     1.937 NA 
BRANCH   4  16
HETATM   16  O   UNL     1      -9.109  19.575  69.188  1.00  0.00    -0.312 OA 
HETATM   17  C   UNL     1      -9.898  20.038  68.102  1.00  0.00    -0.374 C  
ENDBRANCH   4  16
BRANCH  13  18
HETATM   18  N   UNL     1     -10.081  12.045  70.029  1.00  0.00     1.673 NA 
HETATM   19  C   UNL     1      -9.297   9.699  69.930  1.00  0.00    -0.228 C  
HETATM   20  C   UNL     1      -9.337  11.065  69.219  1.00  0.00     0.066 C  
HETATM   21  N   UNL     1     -10.624   9.264  70.385  1.00  0.00    -0.229 N  
HETATM   22  C   UNL     1     -11.335  10.284  71.174  1.00  0.00    -0.146 C  
HETATM   23  C   UNL     1     -10.898   7.891  70.394  1.00  0.00    -0.244 C  
HETATM   24  O   UNL     1     -10.045   7.090  70.007  1.00  0.00    -0.184 OA 
HETATM   25  C   UNL     1     -11.432  11.616  70.409  1.00  0.00     0.097 C  
BRANCH  23  26
HETATM   26  C   UNL     1     -12.187   7.412  70.866  1.00  0.00    -0.231 A  
HETATM   27  C   UNL     1     -12.559   6.141  71.272  1.00  0.00     0.545 A  
HETATM   28  C   UNL     1     -13.932   6.194  71.603  1.00  0.00     0.867 A  
HETATM   29  C   UNL     1     -14.334   7.483  71.345  1.00  0.00    -0.394 A  
HETATM   30  O   UNL     1     -13.295   8.219  70.874  1.00  0.00     0.058 OA 
ENDBRANCH  23  26
ENDBRANCH  13  18
ENDBRANCH   2   3
TORSDOF 4
ENDMDL
MODEL      156
REMARK 921   NORMALIZED FREE ENERGY PREDICTED BY IDOCK:   30.36 KCAL/MOL
REMARK 922        TOTAL FREE ENERGY PREDICTED BY IDOCK:   36.90 KCAL/MOL
REMARK 923 INTER-LIGAND FREE ENERGY PREDICTED BY IDOCK:   36.36 KCAL/MOL
REMARK 924 INTRA-LIGAND FREE ENERGY PREDICTED BY IDOCK:    0.54 KCAL/MOL
REMARK 927      BINDING AFFINITY PREDICTED BY RF-SCORE:    0.00 PKD
ROOT
HETATM    1  C   UNL     1     -11.430  17.881  71.292  1.00  0.00     3.624 C  
HETATM    2  O   UNL     1     -11.494  16.465  71.448  1.00  0.00    -0.399 OA 
ENDROOT
BRANCH   2   3
HETATM    3  C   UNL     1     -10.411  15.748  71.017  1.00  0.00     0.469 A  
HETATM    4  C   UNL     1      -9.125  16.133  71.415  1.00  0.00     5.411 A  
HETATM    5  C   UNL     1      -8.027  15.384  70.971  1.00  0.00     2.669 A  
HETATM    6  C   UNL     1      -9.481  13.811  69.848  1.00  0.00     1.829 A  
HETATM    7  C   UNL     1      -8.197  14.211  70.202  1.00  0.00     1.560 A  
HETATM    8  C   UNL     1     -10.559  14.588  70.240  1.00  0.00     0.282 A  
HETATM    9  C   UNL     1      -7.184  13.369  69.736  1.00  0.00     0.549 A  
HETATM   10  N   UNL     1      -5.832  13.659  69.956  1.00  0.00    -0.130 NA 
HETATM   11  N   UNL     1      -7.422  12.253  69.029  1.00  0.00    -0.008 NA 
HETATM   12  H1  UNL     1      -5.093  13.045  69.616  1.00  0.00     0.000 HD 
HETATM   13  C   UNL     1      -8.698  11.932  68.771  1.00  0.00     0.061 A  
HETATM   14  H2  UNL     1      -5.698  13.785  70.960  1.00  0.00     0.000 HD 
HETATM   15  N   UNL     1      -9.724  12.699  69.158  1.00  0.00     0.374 NA 
BRANCH   4  16
HETATM   16  O   UNL     1      -8.752  17.185  72.208  1.00  0.00    12.428 OA 
HETATM   17  C   UNL     1      -7.815  18.124  71.701  1.00  0.00     9.077 C  
ENDBRANCH   4  16
BRANCH  13  18
HETATM   18  N   UNL     1      -8.991  10.794  68.030  1.00  0.00    -0.136 NA 
HETATM   19  C   UNL     1      -9.667   8.414  67.972  1.00  0.00    -0.158 C  
HETATM   20  C   UNL     1      -9.019   9.539  68.800  1.00  0.00    -0.133 C  
HETATM   21  N   UNL     1      -9.099   8.313  66.620  1.00  0.00    -0.156 N  
HETATM   22  C   UNL     1      -9.076   9.597  65.899  1.00  0.00    -0.178 C  
HETATM   23  C   UNL     1      -9.031   7.046  66.030  1.00  0.00    -0.107 C  
HETATM   24  O   UNL     1      -9.419   6.055  66.650  1.00  0.00    -0.141 OA 
HETATM   25  C   UNL     1      -8.353  10.684  66.714  1.00  0.00    -0.132 C  
BRANCH  23  26
HETATM   26  C   UNL     1      -8.505   6.902  64.681  1.00  0.00     0.155 A  
HETATM   27  C   UNL     1      -8.026   7.872  63.816  1.00  0.00    -0.119 A  
HETATM   28  C   UNL     1      -7.666   7.218  62.615  1.00  0.00    -0.123 A  
HETATM   29  C   UNL     1      -7.980   5.892  62.798  1.00  0.00    -0.104 A  
HETATM   30  O   UNL     1      -8.512   5.696  64.032  1.00  0.00    -0.108 OA 
ENDBRANCH  23  26
ENDBRANCH  13  18
ENDBRANCH   2   3
TORSDOF 4
ENDMDL
MODEL      157
REMARK 921   NORMALIZED FREE ENERGY PREDICTED BY IDOCK:   35.14 KCAL/MOL
REMARK 922        TOTAL FREE ENERGY PREDICTED BY IDOCK:   42.80 KCAL/MOL
REMARK 923 INTER-LIGAND FREE ENERGY PREDICTED BY IDOCK:   37.19 KCAL/MOL
REMARK 924 INTRA-LIGAND FREE ENERGY PREDICTED BY IDOCK:    5.61 KCAL/MOL
REMARK 927      BINDING AFFINITY PREDICTED BY RF-SCORE:    0.00 PKD
ROOT
HETATM    1  C   UNL     1     -13.818  10.450  63.028  1.00  0.00     8.079 C  
HETATM    2  O   UNL     1     -12.930  11.565  63.024  1.00  0.00    -0.278 OA 
ENDROOT
BRANCH   2   3
HETATM    3  C   UNL     1     -12.650  12.135  64.236  1.00  0.00    -0.331 A  
HETATM    4  C   UNL     1     -13.256  11.629  65.393  1.00  0.00     4.201 A  
HETATM    5  C   UNL     1     -12.953  12.219  66.628  1.00  0.00     3.089 A  
HETATM    6  C   UNL     1     -11.368  13.719  65.587  1.00  0.00    -0.305 A  
HETATM    7  C   UNL     1     -11.996  13.253  66.736  1.00  0.00    -0.438 A  
HETATM    8  C   UNL     1     -11.714  13.172  64.362  1.00  0.00    -0.429 A  
HETATM    9  C   UNL     1     -11.590  13.888  67.913  1.00  0.00    -0.342 A  
HETATM   10  N   UNL     1     -12.166  13.576  69.150  1.00  0.00    -0.269 NA 
HETATM   11  N   UNL     1     -10.654  14.849  67.943  1.00  0.00    -0.250 NA 
HETATM   12  H1  UNL     1     -11.870  14.040  70.008  1.00  0.00     0.000 HD 
HETATM   13  C   UNL     1     -10.077  15.204  66.786  1.00  0.00    -0.258 A  
HETATM   14  H2  UNL     1     -12.080  12.569  69.291  1.00  0.00     0.000 HD 
HETATM   15  N   UNL     1     -10.429  14.663  65.613  1.00  0.00    -0.321 NA 
BRANCH   4  16
HETATM   16  O   UNL     1     -14.148  10.597  65.513  1.00  0.00    11.638 OA 
HETATM   17  C   UNL     1     -14.287   9.687  64.431  1.00  0.00    14.767 C  
ENDBRANCH   4  16
BRANCH  13  18
HETATM   18  N   UNL     1      -9.114  16.204  66.768  1.00  0.00    -0.213 NA 
HETATM   19  C   UNL     1      -8.163  18.255  67.776  1.00  0.00    -0.247 C  
HETATM   20  C   UNL     1      -9.417  17.377  67.608  1.00  0.00    -0.251 C  
HETATM   21  N   UNL     1      -7.507  18.549  66.495  1.00  0.00    -0.231 N  
HETATM   22  C   UNL     1      -7.243  17.347  65.686  1.00  0.00     0.339 C  
HETATM   23  C   UNL     1      -6.861  19.782  66.356  1.00  0.00    -0.213 C  
HETATM   24  O   UNL     1      -6.874  20.593  67.283  1.00  0.00    -0.273 OA 
HETATM   25  C   UNL     1      -8.526  16.528  65.464  1.00  0.00     1.072 C  
BRANCH  23  26
HETATM   26  C   UNL     1      -6.171  20.103  65.116  1.00  0.00    -0.260 A  
HETATM   27  C   UNL     1      -5.757  21.334  64.633  1.00  0.00    -0.170 A  
HETATM   28  C   UNL     1      -5.166  21.107  63.369  1.00  0.00    -0.250 A  
HETATM   29  C   UNL     1      -5.286  19.759  63.131  1.00  0.00    -0.255 A  
HETATM   30  O   UNL     1      -5.915  19.148  64.168  1.00  0.00    -0.411 OA 
ENDBRANCH  23  26
ENDBRANCH  13  18
ENDBRANCH   2   3
TORSDOF 4
ENDMDL
MODEL      158
REMARK 921   NORMALIZED FREE ENERGY PREDICTED BY IDOCK:   40.54 KCAL/MOL
REMARK 922        TOTAL FREE ENERGY PREDICTED BY IDOCK:   49.46 KCAL/MOL
REMARK 923 INTER-LIGAND FREE ENERGY PREDICTED BY IDOCK:   49.97 KCAL/MOL
REMARK 924 INTRA-LIGAND FREE ENERGY PREDICTED BY IDOCK:   -0.51 KCAL/MOL
REMARK 927      BINDING AFFINITY PREDICTED BY RF-SCORE:    0.00 PKD
ROOT
HETATM    1  C   UNL     1     -13.061   7.137  72.128  1.00  0.00    -0.007 C  
HETATM    2  O   UNL     1     -12.254   6.152  71.488  1.00  0.00    -0.150 OA 
ENDROOT
BRANCH   2   3
HETATM    3  C   UNL     1     -10.998   6.537  71.105  1.00  0.00    -0.266 A  
HETATM    4  C   UNL     1      -9.882   5.996  71.756  1.00  0.00    -0.165 A  
HETATM    5  C   UNL     1      -8.602   6.395  71.347  1.00  0.00    -0.130 A  
HETATM    6  C   UNL     1      -9.530   7.762  69.581  1.00  0.00    -0.156 A  
HETATM    7  C   UNL     1      -8.416   7.264  70.248  1.00  0.00    -0.137 A  
HETATM    8  C   UNL     1     -10.794   7.411  70.026  1.00  0.00    -0.266 A  
HETATM    9  C   UNL     1      -7.193   7.700  69.732  1.00  0.00    -0.079 A  
HETATM   10  N   UNL     1      -5.977   7.337  70.324  1.00  0.00    -0.024 NA 
HETATM   11  N   UNL     1      -7.092   8.509  68.666  1.00  0.00    -0.071 NA 
HETATM   12  H1  UNL     1      -5.085   7.655  69.947  1.00  0.00     0.000 HD 
HETATM   13  C   UNL     1      -8.223   8.906  68.067  1.00  0.00    -0.110 A  
HETATM   14  H2  UNL     1      -5.949   6.318  70.381  1.00  0.00     0.000 HD 
HETATM   15  N   UNL     1      -9.435   8.555  68.515  1.00  0.00    -0.142 NA 
BRANCH   4  16
HETATM   16  O   UNL     1      -9.843   5.094  72.785  1.00  0.00    -0.155 OA 
HETATM   17  C   UNL     1      -9.372   5.525  74.053  1.00  0.00    -0.134 C  
ENDBRANCH   4  16
BRANCH  13  18
HETATM   18  N   UNL     1      -8.167   9.755  66.970  1.00  0.00    -0.117 NA 
HETATM   19  C   UNL     1      -6.838  11.233  65.493  1.00  0.00     0.538 C  
HETATM   20  C   UNL     1      -6.955  10.589  66.888  1.00  0.00    -0.096 C  
HETATM   21  N   UNL     1      -8.084  11.888  65.072  1.00  0.00     1.380 N  
HETATM   22  C   UNL     1      -9.268  11.021  65.190  1.00  0.00    -0.205 C  
HETATM   23  C   UNL     1      -7.986  13.027  64.265  1.00  0.00     7.942 C  
HETATM   24  O   UNL     1      -6.879  13.465  63.948  1.00  0.00    14.832 OA 
HETATM   25  C   UNL     1      -9.407  10.453  66.613  1.00  0.00    -0.158 C  
BRANCH  23  26
HETATM   26  C   UNL     1      -9.193  13.690  63.797  1.00  0.00     4.834 A  
HETATM   27  C   UNL     1      -9.530  14.106  62.520  1.00  0.00    14.419 A  
HETATM   28  C   UNL     1     -10.798  14.726  62.605  1.00  0.00     8.199 A  
HETATM   29  C   UNL     1     -11.149  14.690  63.933  1.00  0.00     0.811 A  
HETATM   30  O   UNL     1     -10.175  14.091  64.665  1.00  0.00    -0.420 OA 
ENDBRANCH  23  26
ENDBRANCH  13  18
ENDBRANCH   2   3
TORSDOF 4
ENDMDL
MODEL      159
REMARK 921   NORMALIZED FREE ENERGY PREDICTED BY IDOCK:   44.83 KCAL/MOL
REMARK 922        TOTAL FREE ENERGY PREDICTED BY IDOCK:   54.75 KCAL/MOL
REMARK 923 INTER-LIGAND FREE ENERGY PREDICTED BY IDOCK:   55.32 KCAL/MOL
REMARK 924 INTRA-LIGAND FREE ENERGY PREDICTED BY IDOCK:   -0.57 KCAL/MOL
REMARK 927      BINDING AFFINITY PREDICTED BY RF-SCORE:    0.00 PKD
ROOT
HETATM    1  C   UNL     1      -6.638  12.221  64.172  1.00  0.00     7.103 C  
HETATM    2  O   UNL     1      -6.317  11.591  65.410  1.00  0.00     0.474 OA 
ENDROOT
BRANCH   2   3
HETATM    3  C   UNL     1      -7.319  11.511  66.338  1.00  0.00     0.059 A  
HETATM    4  C   UNL     1      -7.917  10.272  66.603  1.00  0.00    -0.116 A  
HETATM    5  C   UNL     1      -8.937  10.205  67.563  1.00  0.00    -0.136 A  
HETATM    6  C   UNL     1      -8.684  12.554  68.078  1.00  0.00    -0.186 A  
HETATM    7  C   UNL     1      -9.314  11.338  68.318  1.00  0.00    -0.180 A  
HETATM    8  C   UNL     1      -7.718  12.628  67.088  1.00  0.00    -0.094 A  
HETATM    9  C   UNL     1     -10.288  11.381  69.320  1.00  0.00    -0.024 A  
HETATM   10  N   UNL     1     -11.054  10.256  69.645  1.00  0.00    -0.257 NA 
HETATM   11  N   UNL     1     -10.577  12.492  70.015  1.00  0.00     1.072 NA 
HETATM   12  H1  UNL     1     -11.764  10.288  70.376  1.00  0.00     0.000 HD 
HETATM   13  C   UNL     1      -9.888  13.607  69.737  1.00  0.00     1.344 A  
HETATM   14  H2  UNL     1     -10.414   9.493  69.862  1.00  0.00     0.000 HD 
HETATM   15  N   UNL     1      -8.959  13.656  68.774  1.00  0.00    -0.008 NA 
BRANCH   4  16
HETATM   16  O   UNL     1      -7.651   9.054  66.039  1.00  0.00    -0.093 OA 
HETATM   17  C   UNL     1      -8.673   8.068  66.030  1.00  0.00    -0.157 C  
ENDBRANCH   4  16
BRANCH  13  18
HETATM   18  N   UNL     1     -10.164  14.784  70.421  1.00  0.00     0.288 NA 
HETATM   19  C   UNL     1     -11.731  16.634  70.918  1.00  0.00     0.381 C  
HETATM   20  C   UNL     1     -11.313  15.549  69.908  1.00  0.00    -0.314 C  
HETATM   21  N   UNL     1     -10.592  17.440  71.379  1.00  0.00     2.092 N  
HETATM   22  C   UNL     1      -9.463  16.629  71.865  1.00  0.00     8.120 C  
HETATM   23  C   UNL     1     -10.823  18.784  71.691  1.00  0.00     3.638 C  
HETATM   24  O   UNL     1     -11.949  19.265  71.552  1.00  0.00     8.886 OA 
HETATM   25  C   UNL     1      -9.012  15.606  70.808  1.00  0.00     2.223 C  
BRANCH  23  26
HETATM   26  C   UNL     1      -9.732  19.612  72.182  1.00  0.00     3.494 A  
HETATM   27  C   UNL     1      -9.589  20.243  73.406  1.00  0.00     4.969 A  
HETATM   28  C   UNL     1      -8.365  20.950  73.370  1.00  0.00     7.857 A  
HETATM   29  C   UNL     1      -7.846  20.744  72.114  1.00  0.00     2.964 A  
HETATM   30  O   UNL     1      -8.677  19.960  71.379  1.00  0.00     1.917 OA 
ENDBRANCH  23  26
ENDBRANCH  13  18
ENDBRANCH   2   3
TORSDOF 4
ENDMDL
MODEL      160
REMARK 921   NORMALIZED FREE ENERGY PREDICTED BY IDOCK:   56.14 KCAL/MOL
REMARK 922        TOTAL FREE ENERGY PREDICTED BY IDOCK:   68.70 KCAL/MOL
REMARK 923 INTER-LIGAND FREE ENERGY PREDICTED BY IDOCK:   65.04 KCAL/MOL
REMARK 924 INTRA-LIGAND FREE ENERGY PREDICTED BY IDOCK:    3.66 KCAL/MOL
REMARK 927      BINDING AFFINITY PREDICTED BY RF-SCORE:    0.00 PKD
ROOT
HETATM    1  C   UNL     1      -8.944  18.328  74.078  1.00  0.00    10.129 C  
HETATM    2  O   UNL     1      -8.415  17.062  73.693  1.00  0.00    15.647 OA 
ENDROOT
BRANCH   2   3
HETATM    3  C   UNL     1      -7.838  16.986  72.454  1.00  0.00    14.164 A  
HETATM    4  C   UNL     1      -7.133  18.088  71.953  1.00  0.00     6.501 A  
HETATM    5  C   UNL     1      -6.540  17.992  70.686  1.00  0.00     1.414 A  
HETATM    6  C   UNL     1      -7.239  15.687  70.471  1.00  0.00     0.954 A  
HETATM    7  C   UNL     1      -6.574  16.788  69.946  1.00  0.00     0.077 A  
HETATM    8  C   UNL     1      -7.873  15.805  71.698  1.00  0.00     5.653 A  
HETATM    9  C   UNL     1      -5.991  16.567  68.695  1.00  0.00    -0.132 A  
HETATM   10  N   UNL     1      -5.333  17.590  68.003  1.00  0.00    -0.133 NA 
HETATM   11  N   UNL     1      -6.042  15.386  68.060  1.00  0.00    -0.130 NA 
HETATM   12  H1  UNL     1      -4.908  17.428  67.090  1.00  0.00     0.000 HD 
HETATM   13  C   UNL     1      -6.675  14.371  68.666  1.00  0.00    -0.090 A  
HETATM   14  H2  UNL     1      -4.617  17.974  68.619  1.00  0.00     0.000 HD 
HETATM   15  N   UNL     1      -7.282  14.509  69.851  1.00  0.00    -0.027 NA 
BRANCH   4  16
HETATM   16  O   UNL     1      -6.923  19.309  72.535  1.00  0.00     1.944 OA 
HETATM   17  C   UNL     1      -7.383  19.520  73.862  1.00  0.00     8.160 C  
ENDBRANCH   4  16
BRANCH  13  18
HETATM   18  N   UNL     1      -6.766  13.136  68.039  1.00  0.00    -0.102 NA 
HETATM   19  C   UNL     1      -6.994  11.824  65.952  1.00  0.00     0.944 C  
HETATM   20  C   UNL     1      -7.245  13.176  66.646  1.00  0.00     1.165 C  
HETATM   21  N   UNL     1      -7.470  10.686  66.750  1.00  0.00    -0.114 N  
HETATM   22  C   UNL     1      -6.979  10.701  68.138  1.00  0.00    -0.073 C  
HETATM   23  C   UNL     1      -7.953   9.563  66.069  1.00  0.00    -0.107 C  
HETATM   24  O   UNL     1      -7.991   9.558  64.838  1.00  0.00    -0.111 OA 
HETATM   25  C   UNL     1      -7.312  12.032  68.836  1.00  0.00    -0.067 C  
BRANCH  23  26
HETATM   26  C   UNL     1      -8.405   8.401  66.818  1.00  0.00    -0.109 A  
HETATM   27  C   UNL     1      -7.974   7.086  66.746  1.00  0.00    -0.108 A  
HETATM   28  C   UNL     1      -8.758   6.341  67.657  1.00  0.00    -0.113 A  
HETATM   29  C   UNL     1      -9.649   7.232  68.206  1.00  0.00    -0.148 A  
HETATM   30  O   UNL     1      -9.463   8.472  67.686  1.00  0.00    -0.141 OA 
ENDBRANCH  23  26
ENDBRANCH  13  18
ENDBRANCH   2   3
TORSDOF 4
ENDMDL
MODEL      161
REMARK 921   NORMALIZED FREE ENERGY PREDICTED BY IDOCK:   60.02 KCAL/MOL
REMARK 922        TOTAL FREE ENERGY PREDICTED BY IDOCK:   73.49 KCAL/MOL
REMARK 923 INTER-LIGAND FREE ENERGY PREDICTED BY IDOCK:   69.88 KCAL/MOL
REMARK 924 INTRA-LIGAND FREE ENERGY PREDICTED BY IDOCK:    3.61 KCAL/MOL
REMARK 927      BINDING AFFINITY PREDICTED BY RF-SCORE:    0.00 PKD
ROOT
HETATM    1  C   UNL     1     -14.237   9.999  62.564  1.00  0.00    13.070 C  
HETATM    2  O   UNL     1     -13.249  10.976  62.883  1.00  0.00     0.904 OA 
ENDROOT
BRANCH   2   3
HETATM    3  C   UNL     1     -12.941  11.132  64.207  1.00  0.00     2.397 A  
HETATM    4  C   UNL     1     -13.478  10.246  65.149  1.00  0.00    13.247 A  
HETATM    5  C   UNL     1     -13.147  10.414  66.501  1.00  0.00    11.774 A  
HETATM    6  C   UNL     1     -11.665  12.250  65.968  1.00  0.00    -0.388 A  
HETATM    7  C   UNL     1     -12.227  11.403  66.917  1.00  0.00     1.345 A  
HETATM    8  C   UNL     1     -12.041  12.117  64.641  1.00  0.00    -0.389 A  
HETATM    9  C   UNL     1     -11.797  11.639  68.226  1.00  0.00    -0.265 A  
HETATM   10  N   UNL     1     -12.309  10.912  69.307  1.00  0.00    -0.641 NA 
HETATM   11  N   UNL     1     -10.898  12.583  68.545  1.00  0.00    -0.235 NA 
HETATM   12  H1  UNL     1     -11.995  11.084  70.261  1.00  0.00     0.000 HD 
HETATM   13  C   UNL     1     -10.384  13.325  67.553  1.00  0.00    -0.229 A  
HETATM   14  H2  UNL     1     -12.178   9.920  69.107  1.00  0.00     0.000 HD 
HETATM   15  N   UNL     1     -10.763  13.180  66.277  1.00  0.00    -0.282 NA 
BRANCH   4  16
HETATM   16  O   UNL     1     -14.323   9.188  64.948  1.00  0.00    14.856 OA 
HETATM   17  C   UNL     1     -14.137   8.375  63.798  1.00  0.00    17.088 C  
ENDBRANCH   4  16
BRANCH  13  18
HETATM   18  N   UNL     1      -9.462  14.323  67.838  1.00  0.00    -0.207 NA 
HETATM   19  C   UNL     1      -8.548  15.975  69.439  1.00  0.00    -0.150 C  
HETATM   20  C   UNL     1      -9.773  15.138  69.025  1.00  0.00    -0.234 C  
HETATM   21  N   UNL     1      -7.960  16.706  68.308  1.00  0.00    -0.184 N  
HETATM   22  C   UNL     1      -7.685  15.851  67.141  1.00  0.00    -0.212 C  
HETATM   23  C   UNL     1      -7.369  17.948  68.565  1.00  0.00    -0.268 C  
HETATM   24  O   UNL     1      -7.372  18.408  69.707  1.00  0.00     0.220 OA 
HETATM   25  C   UNL     1      -8.944  15.086  66.698  1.00  0.00    -0.281 C  
BRANCH  23  26
HETATM   26  C   UNL     1      -6.746  18.692  67.481  1.00  0.00    -0.199 A  
HETATM   27  C   UNL     1      -5.558  19.404  67.472  1.00  0.00    -0.178 A  
HETATM   28  C   UNL     1      -5.421  19.971  66.184  1.00  0.00    -0.181 A  
HETATM   29  C   UNL     1      -6.550  19.607  65.489  1.00  0.00    -0.269 A  
HETATM   30  O   UNL     1      -7.369  18.858  66.272  1.00  0.00    -0.233 OA 
ENDBRANCH  23  26
ENDBRANCH  13  18
ENDBRANCH   2   3
TORSDOF 4
ENDMDL
