MODEL        1
REMARK 921   NORMALIZED FREE ENERGY PREDICTED BY IDOCK:   -7.64 KCAL/MOL
REMARK 922        TOTAL FREE ENERGY PREDICTED BY IDOCK:   -9.00 KCAL/MOL
REMARK 923 INTER-LIGAND FREE ENERGY PREDICTED BY IDOCK:   -9.43 KCAL/MOL
REMARK 924 INTRA-LIGAND FREE ENERGY PREDICTED BY IDOCK:    0.42 KCAL/MOL
REMARK 927      BINDING AFFINITY PREDICTED BY RF-SCORE:    0.00 PKD
ROOT
HETATM    1  C   UNL     1     -11.839  14.767  69.053  1.00  0.00    -0.337 C  
HETATM    2  C   UNL     1     -11.049  15.320  70.089  1.00  0.00    -0.312 C  
HETATM    3  C   UNL     1     -10.297  14.715  68.939  1.00  0.00    -0.245 C  
HETATM    4  C   UNL     1     -11.309  14.346  67.157  1.00  0.00    -0.343 C  
HETATM    5  O   UNL     1      -9.485   7.552  69.917  1.00  0.00    -0.161 OA 
HETATM    6  O   UNL     1     -12.751  14.707  67.083  1.00  0.00    -0.317 OA 
HETATM    7  C   UNL     1     -10.686  15.454  67.667  1.00  0.00    -0.292 C  
HETATM    8  C   UNL     1     -10.881  16.920  67.435  1.00  0.00    -0.166 C  
HETATM    9  C   UNL     1      -9.156  14.416  67.202  1.00  0.00    -0.238 C  
HETATM   10  C   UNL     1      -9.416   8.661  70.430  1.00  0.00    -0.170 C  
HETATM   11  C   UNL     1     -10.547   9.343  71.084  1.00  0.00    -0.403 C  
HETATM   12  H   UNL     1     -13.213  14.539  66.269  1.00  0.00     0.000 HD 
HETATM   13  C   UNL     1      -9.463  12.759  67.439  1.00  0.00    -0.190 C  
HETATM   14  C   UNL     1      -8.207   9.564  70.237  1.00  0.00    -0.209 C  
HETATM   15  O   UNL     1      -9.106  11.986  66.546  1.00  0.00    -0.201 OA 
HETATM   16  C   UNL     1     -11.142  10.101  67.823  1.00  0.00    -0.293 C  
HETATM   17  C   UNL     1     -10.270  12.194  68.804  1.00  0.00    -0.133 C  
HETATM   18  C   UNL     1     -11.774  12.946  69.127  1.00  0.00    -0.376 C  
HETATM   19  C   UNL     1     -10.309  10.650  68.985  1.00  0.00    -0.237 C  
HETATM   20  C   UNL     1      -8.778  10.162  69.176  1.00  0.00    -0.173 C  
HETATM   21  C   UNL     1     -12.310  12.512  70.493  1.00  0.00    -0.345 C  
HETATM   22  C   UNL     1     -12.364  11.000  70.631  1.00  0.00    -0.480 C  
HETATM   23  C   UNL     1     -11.063  10.305  70.300  1.00  0.00    -0.388 C  
ENDROOT
BRANCH   4  24
HETATM   24  C   UNL     1     -11.050  14.784  65.407  1.00  0.00    -0.357 C  
HETATM   25  O   UNL     1      -9.923  15.001  64.928  1.00  0.00    -0.273 OA 
BRANCH  24  26
HETATM   26  C   UNL     1     -12.270  15.071  64.379  1.00  0.00    -0.337 C  
BRANCH  26  27
HETATM   27  O   UNL     1     -12.415  13.952  63.420  1.00  0.00    -0.833 OA 
BRANCH  27  28
HETATM   28  C   UNL     1     -12.421  12.608  63.670  1.00  0.00    -0.427 C  
HETATM   29  C   UNL     1     -11.134  11.857  63.367  1.00  0.00    -0.463 C  
HETATM   30  O   UNL     1     -13.368  12.013  64.129  1.00  0.00    -0.725 OA 
ENDBRANCH  27  28
ENDBRANCH  26  27
ENDBRANCH  24  26
ENDBRANCH   4  24
TORSDOF 4
ENDMDL
MODEL        2
REMARK 921   NORMALIZED FREE ENERGY PREDICTED BY IDOCK:   -7.45 KCAL/MOL
REMARK 922        TOTAL FREE ENERGY PREDICTED BY IDOCK:   -8.77 KCAL/MOL
REMARK 923 INTER-LIGAND FREE ENERGY PREDICTED BY IDOCK:   -9.33 KCAL/MOL
REMARK 924 INTRA-LIGAND FREE ENERGY PREDICTED BY IDOCK:    0.56 KCAL/MOL
REMARK 927      BINDING AFFINITY PREDICTED BY RF-SCORE:    0.00 PKD
ROOT
HETATM    1  C   UNL     1     -10.966  12.639  63.834  1.00  0.00    -0.468 C  
HETATM    2  C   UNL     1     -12.191  12.014  63.500  1.00  0.00    -0.653 C  
HETATM    3  C   UNL     1     -11.985  12.325  64.955  1.00  0.00    -0.420 C  
HETATM    4  C   UNL     1     -10.496  13.678  65.494  1.00  0.00    -0.306 C  
HETATM    5  O   UNL     1      -8.258   6.986  68.197  1.00  0.00    -0.118 OA 
HETATM    6  O   UNL     1      -9.689  14.300  64.409  1.00  0.00    -0.483 OA 
HETATM    7  C   UNL     1     -11.801  13.829  65.104  1.00  0.00    -0.365 C  
HETATM    8  C   UNL     1     -12.534  14.952  64.440  1.00  0.00    -0.227 C  
HETATM    9  C   UNL     1     -12.072  13.174  66.874  1.00  0.00    -0.377 C  
HETATM   10  C   UNL     1      -9.173   7.267  67.435  1.00  0.00    -0.128 C  
HETATM   11  C   UNL     1      -9.012   7.465  65.984  1.00  0.00    -0.156 C  
HETATM   12  H   UNL     1      -9.010  14.916  64.655  1.00  0.00     0.000 HD 
HETATM   13  C   UNL     1     -10.865  12.049  67.287  1.00  0.00    -0.246 C  
HETATM   14  C   UNL     1     -10.546   7.680  67.944  1.00  0.00    -0.233 C  
HETATM   15  O   UNL     1     -10.351  12.157  68.403  1.00  0.00    -0.219 OA 
HETATM   16  C   UNL     1      -8.092  10.523  67.155  1.00  0.00    -0.120 C  
HETATM   17  C   UNL     1     -10.346  10.868  66.205  1.00  0.00    -0.305 C  
HETATM   18  C   UNL     1      -9.866  11.447  64.666  1.00  0.00    -0.302 C  
HETATM   19  C   UNL     1      -9.383   9.790  66.778  1.00  0.00    -0.190 C  
HETATM   20  C   UNL     1     -10.207   8.981  67.912  1.00  0.00    -0.272 C  
HETATM   21  C   UNL     1      -9.624  10.281  63.705  1.00  0.00    -0.334 C  
HETATM   22  C   UNL     1      -8.657   9.259  64.279  1.00  0.00    -0.214 C  
HETATM   23  C   UNL     1      -9.028   8.770  65.660  1.00  0.00    -0.248 C  
ENDROOT
BRANCH   4  24
HETATM   24  C   UNL     1     -10.431  15.199  66.494  1.00  0.00    -0.291 C  
HETATM   25  O   UNL     1     -11.152  15.381  67.491  1.00  0.00    -0.314 OA 
BRANCH  24  26
HETATM   26  C   UNL     1      -9.542  16.490  66.079  1.00  0.00    -0.290 C  
BRANCH  26  27
HETATM   27  O   UNL     1     -10.415  17.598  65.627  1.00  0.00    -0.606 OA 
BRANCH  27  28
HETATM   28  C   UNL     1     -10.522  18.863  66.136  1.00  0.00    -0.457 C  
HETATM   29  C   UNL     1     -10.583  18.981  67.650  1.00  0.00    -0.526 C  
HETATM   30  O   UNL     1     -10.548  19.862  65.455  1.00  0.00    -0.464 OA 
ENDBRANCH  27  28
ENDBRANCH  26  27
ENDBRANCH  24  26
ENDBRANCH   4  24
TORSDOF 4
ENDMDL
MODEL        3
REMARK 921   NORMALIZED FREE ENERGY PREDICTED BY IDOCK:   -7.30 KCAL/MOL
REMARK 922        TOTAL FREE ENERGY PREDICTED BY IDOCK:   -8.58 KCAL/MOL
REMARK 923 INTER-LIGAND FREE ENERGY PREDICTED BY IDOCK:   -8.93 KCAL/MOL
REMARK 924 INTRA-LIGAND FREE ENERGY PREDICTED BY IDOCK:    0.35 KCAL/MOL
REMARK 927      BINDING AFFINITY PREDICTED BY RF-SCORE:    0.00 PKD
ROOT
HETATM    1  C   UNL     1     -11.302  12.473  64.433  1.00  0.00    -0.395 C  
HETATM    2  C   UNL     1     -12.634  11.996  64.396  1.00  0.00    -0.292 C  
HETATM    3  C   UNL     1     -12.288  12.896  65.548  1.00  0.00    -0.517 C  
HETATM    4  C   UNL     1     -10.559  14.052  65.438  1.00  0.00    -0.341 C  
HETATM    5  O   UNL     1      -9.334   9.059  70.976  1.00  0.00    -0.229 OA 
HETATM    6  O   UNL     1      -9.727  13.952  64.209  1.00  0.00    -0.553 OA 
HETATM    7  C   UNL     1     -11.841  14.240  64.991  1.00  0.00    -0.396 C  
HETATM    8  C   UNL     1     -12.411  15.046  63.867  1.00  0.00     0.114 C  
HETATM    9  C   UNL     1     -12.110  14.528  66.856  1.00  0.00    -0.309 C  
HETATM   10  C   UNL     1     -10.233   9.120  70.148  1.00  0.00    -0.205 C  
HETATM   11  C   UNL     1     -10.130   8.600  68.774  1.00  0.00    -0.210 C  
HETATM   12  H   UNL     1      -8.938  14.479  64.159  1.00  0.00     0.000 HD 
HETATM   13  C   UNL     1     -11.089  13.520  67.771  1.00  0.00    -0.268 C  
HETATM   14  C   UNL     1     -11.481   9.959  70.376  1.00  0.00    -0.372 C  
HETATM   15  O   UNL     1     -10.496  14.033  68.724  1.00  0.00    -0.239 OA 
HETATM   16  C   UNL     1      -8.631  11.632  68.424  1.00  0.00    -0.156 C  
HETATM   17  C   UNL     1     -10.848  11.903  67.368  1.00  0.00    -0.289 C  
HETATM   18  C   UNL     1     -10.373  11.617  65.748  1.00  0.00    -0.292 C  
HETATM   19  C   UNL     1     -10.049  11.054  68.397  1.00  0.00    -0.194 C  
HETATM   20  C   UNL     1     -10.927  11.016  69.756  1.00  0.00    -0.258 C  
HETATM   21  C   UNL     1     -10.392  10.119  65.439  1.00  0.00    -0.177 C  
HETATM   22  C   UNL     1      -9.580   9.317  66.443  1.00  0.00    -0.301 C  
HETATM   23  C   UNL     1      -9.943   9.590  67.884  1.00  0.00    -0.209 C  
ENDROOT
BRANCH   4  24
HETATM   24  C   UNL     1     -10.174  15.823  65.625  1.00  0.00    -0.380 C  
HETATM   25  O   UNL     1     -10.732  16.708  64.953  1.00  0.00    -0.710 OA 
BRANCH  24  26
HETATM   26  C   UNL     1      -8.975  16.369  66.570  1.00  0.00    -0.276 C  
BRANCH  26  27
HETATM   27  O   UNL     1      -9.523  17.147  67.706  1.00  0.00    -0.247 OA 
BRANCH  27  28
HETATM   28  C   UNL     1      -9.466  18.496  67.924  1.00  0.00    -0.296 C  
HETATM   29  C   UNL     1     -10.610  19.322  67.359  1.00  0.00    -0.594 C  
HETATM   30  O   UNL     1      -8.584  19.040  68.547  1.00  0.00    -0.336 OA 
ENDBRANCH  27  28
ENDBRANCH  26  27
ENDBRANCH  24  26
ENDBRANCH   4  24
TORSDOF 4
ENDMDL
MODEL        4
REMARK 921   NORMALIZED FREE ENERGY PREDICTED BY IDOCK:   -7.02 KCAL/MOL
REMARK 922        TOTAL FREE ENERGY PREDICTED BY IDOCK:   -8.24 KCAL/MOL
REMARK 923 INTER-LIGAND FREE ENERGY PREDICTED BY IDOCK:   -8.67 KCAL/MOL
REMARK 924 INTRA-LIGAND FREE ENERGY PREDICTED BY IDOCK:    0.43 KCAL/MOL
REMARK 927      BINDING AFFINITY PREDICTED BY RF-SCORE:    0.00 PKD
ROOT
HETATM    1  C   UNL     1     -10.984  12.716  63.771  1.00  0.00    -0.481 C  
HETATM    2  C   UNL     1     -12.169  12.064  63.354  1.00  0.00    -0.627 C  
HETATM    3  C   UNL     1     -12.054  12.346  64.824  1.00  0.00    -0.483 C  
HETATM    4  C   UNL     1     -10.638  13.726  65.478  1.00  0.00    -0.307 C  
HETATM    5  O   UNL     1      -8.357   7.036  68.149  1.00  0.00    -0.121 OA 
HETATM    6  O   UNL     1      -9.791  14.398  64.455  1.00  0.00    -0.584 OA 
HETATM    7  C   UNL     1     -11.923  13.850  65.019  1.00  0.00    -0.403 C  
HETATM    8  C   UNL     1     -12.651  14.967  64.340  1.00  0.00     0.010 C  
HETATM    9  C   UNL     1     -12.274  13.143  66.754  1.00  0.00    -0.306 C  
HETATM   10  C   UNL     1      -9.236   7.310  67.343  1.00  0.00    -0.128 C  
HETATM   11  C   UNL     1      -8.999   7.549  65.908  1.00  0.00    -0.128 C  
HETATM   12  H   UNL     1      -9.145  15.027  64.754  1.00  0.00     0.000 HD 
HETATM   13  C   UNL     1     -11.058  12.043  67.209  1.00  0.00    -0.285 C  
HETATM   14  C   UNL     1     -10.647   7.670  67.783  1.00  0.00    -0.265 C  
HETATM   15  O   UNL     1     -10.611  12.139  68.355  1.00  0.00    -0.212 OA 
HETATM   16  C   UNL     1      -8.238  10.601  67.199  1.00  0.00    -0.121 C  
HETATM   17  C   UNL     1     -10.445  10.905  66.131  1.00  0.00    -0.290 C  
HETATM   18  C   UNL     1      -9.897  11.535  64.636  1.00  0.00    -0.283 C  
HETATM   19  C   UNL     1      -9.483   9.841  66.734  1.00  0.00    -0.209 C  
HETATM   20  C   UNL     1     -10.345   8.981  67.800  1.00  0.00    -0.304 C  
HETATM   21  C   UNL     1      -9.566  10.401  63.663  1.00  0.00    -0.364 C  
HETATM   22  C   UNL     1      -8.603   9.393  64.268  1.00  0.00    -0.216 C  
HETATM   23  C   UNL     1      -9.036   8.859  65.614  1.00  0.00    -0.249 C  
ENDROOT
BRANCH   4  24
HETATM   24  C   UNL     1     -10.675  15.224  66.515  1.00  0.00    -0.311 C  
HETATM   25  O   UNL     1     -11.369  15.314  67.544  1.00  0.00    -0.331 OA 
BRANCH  24  26
HETATM   26  C   UNL     1      -9.927  16.602  66.102  1.00  0.00    -0.337 C  
BRANCH  26  27
HETATM   27  O   UNL     1      -8.471  16.377  65.950  1.00  0.00    -0.379 OA 
BRANCH  27  28
HETATM   28  C   UNL     1      -7.440  17.225  66.249  1.00  0.00    -0.319 C  
HETATM   29  C   UNL     1      -6.903  17.164  67.670  1.00  0.00    -0.159 C  
HETATM   30  O   UNL     1      -6.939  17.982  65.450  1.00  0.00    -0.481 OA 
ENDBRANCH  27  28
ENDBRANCH  26  27
ENDBRANCH  24  26
ENDBRANCH   4  24
TORSDOF 4
ENDMDL
MODEL        5
REMARK 921   NORMALIZED FREE ENERGY PREDICTED BY IDOCK:   -7.02 KCAL/MOL
REMARK 922        TOTAL FREE ENERGY PREDICTED BY IDOCK:   -8.23 KCAL/MOL
REMARK 923 INTER-LIGAND FREE ENERGY PREDICTED BY IDOCK:   -8.56 KCAL/MOL
REMARK 924 INTRA-LIGAND FREE ENERGY PREDICTED BY IDOCK:    0.32 KCAL/MOL
REMARK 927      BINDING AFFINITY PREDICTED BY RF-SCORE:    0.00 PKD
ROOT
HETATM    1  C   UNL     1     -10.016  13.305  67.878  1.00  0.00    -0.233 C  
HETATM    2  C   UNL     1     -11.041  13.408  68.849  1.00  0.00    -0.307 C  
HETATM    3  C   UNL     1     -11.334  14.030  67.514  1.00  0.00    -0.343 C  
HETATM    4  C   UNL     1     -10.154  13.508  65.879  1.00  0.00    -0.303 C  
HETATM    5  O   UNL     1      -8.679  20.796  67.223  1.00  0.00    -0.296 OA 
HETATM    6  O   UNL     1      -9.061  12.522  66.092  1.00  0.00    -0.404 OA 
HETATM    7  C   UNL     1     -11.265  12.944  66.451  1.00  0.00    -0.337 C  
HETATM    8  C   UNL     1     -11.780  11.540  66.484  1.00  0.00     0.086 C  
HETATM    9  C   UNL     1     -12.076  14.441  65.593  1.00  0.00    -0.359 C  
HETATM   10  C   UNL     1      -9.304  19.978  67.885  1.00  0.00    -0.327 C  
HETATM   11  C   UNL     1      -8.683  19.012  68.808  1.00  0.00    -0.351 C  
HETATM   12  H   UNL     1      -8.522  12.284  65.345  1.00  0.00     0.000 HD 
HETATM   13  C   UNL     1     -11.029  15.782  65.615  1.00  0.00    -0.243 C  
HETATM   14  C   UNL     1     -10.782  19.711  67.646  1.00  0.00    -0.500 C  
HETATM   15  O   UNL     1     -10.913  16.424  64.567  1.00  0.00    -0.750 OA 
HETATM   16  C   UNL     1      -8.311  17.393  65.841  1.00  0.00    -0.006 C  
HETATM   17  C   UNL     1     -10.142  16.192  66.985  1.00  0.00    -0.270 C  
HETATM   18  C   UNL     1      -9.206  14.923  67.656  1.00  0.00    -0.187 C  
HETATM   19  C   UNL     1      -9.380  17.546  66.927  1.00  0.00    -0.275 C  
HETATM   20  C   UNL     1     -10.499  18.708  66.795  1.00  0.00    -0.454 C  
HETATM   21  C   UNL     1      -8.619  15.344  69.005  1.00  0.00    -0.227 C  
HETATM   22  C   UNL     1      -7.856  16.655  68.912  1.00  0.00    -0.240 C  
HETATM   23  C   UNL     1      -8.641  17.779  68.276  1.00  0.00    -0.277 C  
ENDROOT
BRANCH   4  24
HETATM   24  C   UNL     1     -10.477  12.877  64.201  1.00  0.00    -0.406 C  
HETATM   25  O   UNL     1     -11.492  13.182  63.551  1.00  0.00    -0.396 OA 
BRANCH  24  26
HETATM   26  C   UNL     1      -9.547  11.758  63.485  1.00  0.00    -0.219 C  
BRANCH  26  27
HETATM   27  O   UNL     1      -9.798  10.421  64.073  1.00  0.00    -0.313 OA 
BRANCH  27  28
HETATM   28  C   UNL     1      -8.894   9.521  64.565  1.00  0.00    -0.213 C  
HETATM   29  C   UNL     1      -9.206   8.922  65.927  1.00  0.00    -0.290 C  
HETATM   30  O   UNL     1      -7.898   9.175  63.972  1.00  0.00    -0.116 OA 
ENDBRANCH  27  28
ENDBRANCH  26  27
ENDBRANCH  24  26
ENDBRANCH   4  24
TORSDOF 4
ENDMDL
MODEL        6
REMARK 921   NORMALIZED FREE ENERGY PREDICTED BY IDOCK:   -6.96 KCAL/MOL
REMARK 922        TOTAL FREE ENERGY PREDICTED BY IDOCK:   -8.16 KCAL/MOL
REMARK 923 INTER-LIGAND FREE ENERGY PREDICTED BY IDOCK:   -8.55 KCAL/MOL
REMARK 924 INTRA-LIGAND FREE ENERGY PREDICTED BY IDOCK:    0.39 KCAL/MOL
REMARK 927      BINDING AFFINITY PREDICTED BY RF-SCORE:    0.00 PKD
ROOT
HETATM    1  C   UNL     1     -11.645  15.338  65.704  1.00  0.00    -0.039 C  
HETATM    2  C   UNL     1     -11.208  15.351  64.358  1.00  0.00    -0.215 C  
HETATM    3  C   UNL     1     -10.426  14.476  65.295  1.00  0.00    -0.411 C  
HETATM    4  C   UNL     1     -11.260  13.977  67.138  1.00  0.00    -0.313 C  
HETATM    5  O   UNL     1      -5.301  18.350  68.708  1.00  0.00    -0.183 OA 
HETATM    6  O   UNL     1     -12.616  14.500  67.457  1.00  0.00    -0.517 OA 
HETATM    7  C   UNL     1     -11.369  13.436  65.883  1.00  0.00    -0.327 C  
HETATM    8  C   UNL     1     -12.445  12.637  65.217  1.00  0.00    -0.483 C  
HETATM    9  C   UNL     1      -9.615  12.841  66.333  1.00  0.00    -0.254 C  
HETATM   10  C   UNL     1      -5.843  18.102  67.639  1.00  0.00    -0.152 C  
HETATM   11  C   UNL     1      -7.041  18.797  67.137  1.00  0.00    -0.212 C  
HETATM   12  H   UNL     1     -12.996  14.272  68.298  1.00  0.00     0.000 HD 
HETATM   13  C   UNL     1      -8.814  14.004  67.282  1.00  0.00    -0.218 C  
HETATM   14  C   UNL     1      -5.475  16.878  66.815  1.00  0.00    -0.154 C  
HETATM   15  O   UNL     1      -8.199  13.599  68.272  1.00  0.00    -0.145 OA 
HETATM   16  C   UNL     1      -8.455  16.497  69.204  1.00  0.00    -0.151 C  
HETATM   17  C   UNL     1      -8.896  15.648  66.926  1.00  0.00    -0.279 C  
HETATM   18  C   UNL     1     -10.479  16.278  66.744  1.00  0.00    -0.287 C  
HETATM   19  C   UNL     1      -7.963  16.575  67.756  1.00  0.00    -0.171 C  
HETATM   20  C   UNL     1      -6.443  16.149  67.400  1.00  0.00    -0.215 C  
HETATM   21  C   UNL     1     -10.429  17.713  66.215  1.00  0.00    -0.292 C  
HETATM   22  C   UNL     1      -9.533  18.602  67.061  1.00  0.00    -0.309 C  
HETATM   23  C   UNL     1      -8.145  18.045  67.283  1.00  0.00    -0.218 C  
ENDROOT
BRANCH   4  24
HETATM   24  C   UNL     1     -11.585  12.422  68.031  1.00  0.00    -0.347 C  
HETATM   25  O   UNL     1     -11.787  11.342  67.450  1.00  0.00    -0.590 OA 
BRANCH  24  26
HETATM   26  C   UNL     1     -11.784  12.354  69.639  1.00  0.00    -0.307 C  
BRANCH  26  27
HETATM   27  O   UNL     1     -11.939  13.716  70.201  1.00  0.00    -0.318 OA 
BRANCH  27  28
HETATM   28  C   UNL     1     -12.869  14.170  71.095  1.00  0.00    -0.360 C  
HETATM   29  C   UNL     1     -13.411  13.151  72.084  1.00  0.00    -0.653 C  
HETATM   30  O   UNL     1     -13.249  15.317  71.146  1.00  0.00    -0.433 OA 
ENDBRANCH  27  28
ENDBRANCH  26  27
ENDBRANCH  24  26
ENDBRANCH   4  24
TORSDOF 4
ENDMDL
MODEL        7
REMARK 921   NORMALIZED FREE ENERGY PREDICTED BY IDOCK:   -6.93 KCAL/MOL
REMARK 922        TOTAL FREE ENERGY PREDICTED BY IDOCK:   -8.13 KCAL/MOL
REMARK 923 INTER-LIGAND FREE ENERGY PREDICTED BY IDOCK:   -8.46 KCAL/MOL
REMARK 924 INTRA-LIGAND FREE ENERGY PREDICTED BY IDOCK:    0.34 KCAL/MOL
REMARK 927      BINDING AFFINITY PREDICTED BY RF-SCORE:    0.00 PKD
ROOT
HETATM    1  C   UNL     1      -7.728  12.447  67.685  1.00  0.00    -0.151 C  
HETATM    2  C   UNL     1      -7.098  11.998  68.870  1.00  0.00    -0.104 C  
HETATM    3  C   UNL     1      -8.455  11.421  68.585  1.00  0.00    -0.131 C  
HETATM    4  C   UNL     1      -9.241  11.596  66.664  1.00  0.00    -0.191 C  
HETATM    5  O   UNL     1     -13.671  15.833  71.082  1.00  0.00    -0.560 OA 
HETATM    6  O   UNL     1      -8.419  12.283  65.632  1.00  0.00    -0.065 OA 
HETATM    7  C   UNL     1      -8.398  10.689  67.251  1.00  0.00    -0.120 C  
HETATM    8  C   UNL     1      -7.335   9.793  66.699  1.00  0.00    -0.094 C  
HETATM    9  C   UNL     1     -10.043  10.155  68.051  1.00  0.00    -0.186 C  
HETATM   10  C   UNL     1     -12.600  15.292  71.319  1.00  0.00    -0.383 C  
HETATM   11  C   UNL     1     -11.287  15.868  70.977  1.00  0.00    -0.434 C  
HETATM   12  H   UNL     1      -8.778  12.364  64.756  1.00  0.00     0.000 HD 
HETATM   13  C   UNL     1     -11.043  11.505  68.323  1.00  0.00    -0.239 C  
HETATM   14  C   UNL     1     -12.514  13.846  71.783  1.00  0.00    -0.291 C  
HETATM   15  O   UNL     1     -12.231  11.399  68.011  1.00  0.00    -0.607 OA 
HETATM   16  C   UNL     1     -12.159  14.453  68.010  1.00  0.00    -0.266 C  
HETATM   17  C   UNL     1     -10.433  12.949  68.939  1.00  0.00    -0.109 C  
HETATM   18  C   UNL     1      -9.086  13.591  68.098  1.00  0.00    -0.199 C  
HETATM   19  C   UNL     1     -11.486  14.029  69.318  1.00  0.00    -0.344 C  
HETATM   20  C   UNL     1     -12.379  13.410  70.518  1.00  0.00    -0.401 C  
HETATM   21  C   UNL     1      -8.488  14.773  68.864  1.00  0.00    -0.159 C  
HETATM   22  C   UNL     1      -9.533  15.825  69.196  1.00  0.00    -0.255 C  
HETATM   23  C   UNL     1     -10.758  15.278  69.892  1.00  0.00    -0.300 C  
ENDROOT
BRANCH   4  24
HETATM   24  C   UNL     1      -9.921  10.437  65.434  1.00  0.00    -0.295 C  
HETATM   25  O   UNL     1     -10.125   9.235  65.683  1.00  0.00    -0.215 OA 
BRANCH  24  26
HETATM   26  C   UNL     1     -10.171  10.841  63.885  1.00  0.00    -0.309 C  
BRANCH  26  27
HETATM   27  O   UNL     1     -11.474  11.530  63.732  1.00  0.00    -0.402 OA 
BRANCH  27  28
HETATM   28  C   UNL     1     -11.951  12.616  64.412  1.00  0.00    -0.400 C  
HETATM   29  C   UNL     1     -11.013  13.808  64.526  1.00  0.00    -0.399 C  
HETATM   30  O   UNL     1     -13.059  12.677  64.892  1.00  0.00    -0.850 OA 
ENDBRANCH  27  28
ENDBRANCH  26  27
ENDBRANCH  24  26
ENDBRANCH   4  24
TORSDOF 4
ENDMDL
MODEL        8
REMARK 921   NORMALIZED FREE ENERGY PREDICTED BY IDOCK:   -6.92 KCAL/MOL
REMARK 922        TOTAL FREE ENERGY PREDICTED BY IDOCK:   -8.11 KCAL/MOL
REMARK 923 INTER-LIGAND FREE ENERGY PREDICTED BY IDOCK:   -8.47 KCAL/MOL
REMARK 924 INTRA-LIGAND FREE ENERGY PREDICTED BY IDOCK:    0.36 KCAL/MOL
REMARK 927      BINDING AFFINITY PREDICTED BY RF-SCORE:    0.00 PKD
ROOT
HETATM    1  C   UNL     1      -7.914  13.671  67.426  1.00  0.00    -0.177 C  
HETATM    2  C   UNL     1      -7.247  13.696  68.675  1.00  0.00    -0.110 C  
HETATM    3  C   UNL     1      -8.712  14.028  68.703  1.00  0.00    -0.103 C  
HETATM    4  C   UNL     1      -9.889  13.533  67.058  1.00  0.00    -0.251 C  
HETATM    5  O   UNL     1      -9.746  21.085  67.272  1.00  0.00    -0.412 OA 
HETATM    6  O   UNL     1      -9.233  12.852  65.908  1.00  0.00    -0.454 OA 
HETATM    7  C   UNL     1      -9.487  12.834  68.166  1.00  0.00    -0.219 C  
HETATM    8  C   UNL     1      -9.290  11.373  68.423  1.00  0.00    -0.194 C  
HETATM    9  C   UNL     1     -10.794  13.969  68.964  1.00  0.00    -0.268 C  
HETATM   10  C   UNL     1      -9.095  20.261  67.901  1.00  0.00    -0.197 C  
HETATM   11  C   UNL     1      -7.877  19.605  67.393  1.00  0.00    -0.302 C  
HETATM   12  H   UNL     1      -9.771  12.627  65.157  1.00  0.00     0.000 HD 
HETATM   13  C   UNL     1     -10.804  15.493  68.208  1.00  0.00    -0.292 C  
HETATM   14  C   UNL     1      -9.611  19.644  69.192  1.00  0.00    -0.318 C  
HETATM   15  O   UNL     1     -11.904  15.978  67.929  1.00  0.00    -0.063 OA 
HETATM   16  C   UNL     1     -10.286  17.674  65.969  1.00  0.00    -0.305 C  
HETATM   17  C   UNL     1      -9.377  16.291  67.804  1.00  0.00    -0.216 C  
HETATM   18  C   UNL     1      -8.265  15.374  66.877  1.00  0.00    -0.281 C  
HETATM   19  C   UNL     1      -9.531  17.754  67.298  1.00  0.00    -0.255 C  
HETATM   20  C   UNL     1     -10.151  18.609  68.524  1.00  0.00    -0.426 C  
HETATM   21  C   UNL     1      -6.931  16.113  66.754  1.00  0.00    -0.107 C  
HETATM   22  C   UNL     1      -7.109  17.529  66.231  1.00  0.00    -0.340 C  
HETATM   23  C   UNL     1      -8.124  18.345  66.998  1.00  0.00    -0.239 C  
ENDROOT
BRANCH   4  24
HETATM   24  C   UNL     1     -11.432  12.598  66.806  1.00  0.00    -0.351 C  
HETATM   25  O   UNL     1     -11.509  11.368  66.974  1.00  0.00    -0.452 OA 
BRANCH  24  26
HETATM   26  C   UNL     1     -12.780  13.267  66.204  1.00  0.00     0.027 C  
BRANCH  26  27
HETATM   27  O   UNL     1     -13.077  12.717  64.860  1.00  0.00    -0.833 OA 
BRANCH  27  28
HETATM   28  C   UNL     1     -12.324  12.795  63.721  1.00  0.00    -0.446 C  
HETATM   29  C   UNL     1     -11.420  11.609  63.424  1.00  0.00    -0.360 C  
HETATM   30  O   UNL     1     -12.362  13.727  62.951  1.00  0.00    -0.528 OA 
ENDBRANCH  27  28
ENDBRANCH  26  27
ENDBRANCH  24  26
ENDBRANCH   4  24
TORSDOF 4
ENDMDL
MODEL        9
REMARK 921   NORMALIZED FREE ENERGY PREDICTED BY IDOCK:   -6.76 KCAL/MOL
REMARK 922        TOTAL FREE ENERGY PREDICTED BY IDOCK:   -7.92 KCAL/MOL
REMARK 923 INTER-LIGAND FREE ENERGY PREDICTED BY IDOCK:   -8.33 KCAL/MOL
REMARK 924 INTRA-LIGAND FREE ENERGY PREDICTED BY IDOCK:    0.41 KCAL/MOL
REMARK 927      BINDING AFFINITY PREDICTED BY RF-SCORE:    0.00 PKD
ROOT
HETATM    1  C   UNL     1     -11.798  12.319  68.703  1.00  0.00    -0.354 C  
HETATM    2  C   UNL     1     -11.444  13.289  69.671  1.00  0.00    -0.267 C  
HETATM    3  C   UNL     1     -10.327  12.420  69.170  1.00  0.00     0.132 C  
HETATM    4  C   UNL     1     -10.604  11.335  67.414  1.00  0.00    -0.224 C  
HETATM    5  O   UNL     1     -10.064   6.197  72.928  1.00  0.00    -0.175 OA 
HETATM    6  O   UNL     1     -11.906  11.469  66.707  1.00  0.00    -0.511 OA 
HETATM    7  C   UNL     1     -10.197  12.620  67.667  1.00  0.00    -0.217 C  
HETATM    8  C   UNL     1     -10.266  13.878  66.860  1.00  0.00    -0.257 C  
HETATM    9  C   UNL     1      -8.623  11.680  68.190  1.00  0.00    -0.158 C  
HETATM   10  C   UNL     1     -10.173   7.415  72.986  1.00  0.00    -0.286 C  
HETATM   11  C   UNL     1     -11.454   8.137  72.898  1.00  0.00    -0.274 C  
HETATM   12  H   UNL     1     -12.033  10.974  65.905  1.00  0.00     0.000 HD 
HETATM   13  C   UNL     1      -9.025  10.184  68.893  1.00  0.00    -0.155 C  
HETATM   14  C   UNL     1      -8.964   8.335  72.917  1.00  0.00    -0.324 C  
HETATM   15  O   UNL     1      -8.373   9.200  68.535  1.00  0.00    -0.120 OA 
HETATM   16  C   UNL     1     -10.772   7.639  69.604  1.00  0.00    -0.230 C  
HETATM   17  C   UNL     1     -10.294  10.032  69.989  1.00  0.00    -0.323 C  
HETATM   18  C   UNL     1     -11.797  10.660  69.458  1.00  0.00    -0.345 C  
HETATM   19  C   UNL     1     -10.425   8.654  70.697  1.00  0.00    -0.243 C  
HETATM   20  C   UNL     1      -9.085   8.454  71.583  1.00  0.00    -0.268 C  
HETATM   21  C   UNL     1     -12.813  10.663  70.602  1.00  0.00    -0.404 C  
HETATM   22  C   UNL     1     -12.941   9.298  71.257  1.00  0.00    -0.342 C  
HETATM   23  C   UNL     1     -11.623   8.696  71.688  1.00  0.00    -0.379 C  
ENDROOT
BRANCH   4  24
HETATM   24  C   UNL     1      -9.700  11.169  65.840  1.00  0.00    -0.229 C  
HETATM   25  O   UNL     1      -8.471  11.336  65.749  1.00  0.00    -0.130 OA 
BRANCH  24  26
HETATM   26  C   UNL     1     -10.442  10.940  64.417  1.00  0.00    -0.333 C  
BRANCH  26  27
HETATM   27  O   UNL     1     -10.873  12.235  63.841  1.00  0.00    -0.339 OA 
BRANCH  27  28
HETATM   28  C   UNL     1     -12.140  12.734  63.713  1.00  0.00    -0.517 C  
HETATM   29  C   UNL     1     -12.324  14.207  64.041  1.00  0.00    -0.315 C  
HETATM   30  O   UNL     1     -13.086  12.080  63.341  1.00  0.00    -0.747 OA 
ENDBRANCH  27  28
ENDBRANCH  26  27
ENDBRANCH  24  26
ENDBRANCH   4  24
TORSDOF 4
ENDMDL
MODEL       10
REMARK 921   NORMALIZED FREE ENERGY PREDICTED BY IDOCK:   -6.72 KCAL/MOL
REMARK 922        TOTAL FREE ENERGY PREDICTED BY IDOCK:   -7.86 KCAL/MOL
REMARK 923 INTER-LIGAND FREE ENERGY PREDICTED BY IDOCK:   -8.39 KCAL/MOL
REMARK 924 INTRA-LIGAND FREE ENERGY PREDICTED BY IDOCK:    0.52 KCAL/MOL
REMARK 927      BINDING AFFINITY PREDICTED BY RF-SCORE:    0.00 PKD
ROOT
HETATM    1  C   UNL     1      -8.498  15.243  67.960  1.00  0.00    -0.147 C  
HETATM    2  C   UNL     1      -8.237  15.861  66.713  1.00  0.00    -0.307 C  
HETATM    3  C   UNL     1      -9.553  15.148  66.832  1.00  0.00    -0.252 C  
HETATM    4  C   UNL     1     -10.266  14.658  68.726  1.00  0.00    -0.242 C  
HETATM    5  O   UNL     1      -8.756   8.072  65.342  1.00  0.00    -0.147 OA 
HETATM    6  O   UNL     1      -9.444  15.044  69.905  1.00  0.00    -0.461 OA 
HETATM    7  C   UNL     1     -10.350  15.790  67.959  1.00  0.00    -0.252 C  
HETATM    8  C   UNL     1     -10.519  17.236  68.306  1.00  0.00    -0.385 C  
HETATM    9  C   UNL     1     -11.592  14.684  67.027  1.00  0.00    -0.385 C  
HETATM   10  C   UNL     1      -8.488   9.218  65.004  1.00  0.00    -0.163 C  
HETATM   11  C   UNL     1      -7.324   9.975  65.494  1.00  0.00    -0.137 C  
HETATM   12  H   UNL     1      -9.770  14.820  70.769  1.00  0.00     0.000 HD 
HETATM   13  C   UNL     1     -11.088  13.059  67.061  1.00  0.00    -0.281 C  
HETATM   14  C   UNL     1      -9.469  10.074  64.217  1.00  0.00    -0.336 C  
HETATM   15  O   UNL     1     -11.943  12.208  67.318  1.00  0.00    -0.573 OA 
HETATM   16  C   UNL     1      -9.529  10.478  68.033  1.00  0.00    -0.157 C  
HETATM   17  C   UNL     1      -9.481  12.625  66.810  1.00  0.00    -0.237 C  
HETATM   18  C   UNL     1      -8.342  13.434  67.801  1.00  0.00    -0.178 C  
HETATM   19  C   UNL     1      -9.197  11.101  66.674  1.00  0.00    -0.188 C  
HETATM   20  C   UNL     1      -9.976  10.597  65.348  1.00  0.00    -0.343 C  
HETATM   21  C   UNL     1      -6.915  13.124  67.343  1.00  0.00    -0.117 C  
HETATM   22  C   UNL     1      -6.658  11.629  67.247  1.00  0.00    -0.122 C  
HETATM   23  C   UNL     1      -7.679  10.881  66.421  1.00  0.00    -0.154 C  
ENDROOT
BRANCH   4  24
HETATM   24  C   UNL     1     -11.816  14.947  69.639  1.00  0.00    -0.318 C  
HETATM   25  O   UNL     1     -12.349  16.068  69.723  1.00  0.00    -0.206 OA 
BRANCH  24  26
HETATM   26  C   UNL     1     -12.539  13.804  70.534  1.00  0.00    -0.291 C  
BRANCH  26  27
HETATM   27  O   UNL     1     -12.385  14.100  71.977  1.00  0.00    -0.268 OA 
BRANCH  27  28
HETATM   28  C   UNL     1     -13.129  14.938  72.762  1.00  0.00    -0.462 C  
HETATM   29  C   UNL     1     -12.487  15.395  74.062  1.00  0.00    -0.780 C  
HETATM   30  O   UNL     1     -14.232  15.335  72.465  1.00  0.00    -0.501 OA 
ENDBRANCH  27  28
ENDBRANCH  26  27
ENDBRANCH  24  26
ENDBRANCH   4  24
TORSDOF 4
ENDMDL
MODEL       11
REMARK 921   NORMALIZED FREE ENERGY PREDICTED BY IDOCK:   -6.69 KCAL/MOL
REMARK 922        TOTAL FREE ENERGY PREDICTED BY IDOCK:   -7.84 KCAL/MOL
REMARK 923 INTER-LIGAND FREE ENERGY PREDICTED BY IDOCK:   -7.89 KCAL/MOL
REMARK 924 INTRA-LIGAND FREE ENERGY PREDICTED BY IDOCK:    0.05 KCAL/MOL
REMARK 927      BINDING AFFINITY PREDICTED BY RF-SCORE:    0.00 PKD
ROOT
HETATM    1  C   UNL     1     -10.298  10.226  65.195  1.00  0.00    -0.198 C  
HETATM    2  C   UNL     1      -9.448  10.371  64.073  1.00  0.00    -0.351 C  
HETATM    3  C   UNL     1      -8.854  10.745  65.401  1.00  0.00    -0.202 C  
HETATM    4  C   UNL     1      -9.799  10.102  67.142  1.00  0.00    -0.187 C  
HETATM    5  O   UNL     1     -10.516  17.624  67.083  1.00  0.00    -0.339 OA 
HETATM    6  O   UNL     1     -11.032   9.280  67.007  1.00  0.00    -0.239 OA 
HETATM    7  C   UNL     1      -8.884   9.520  66.304  1.00  0.00    -0.172 C  
HETATM    8  C   UNL     1      -8.569   8.092  65.988  1.00  0.00    -0.162 C  
HETATM    9  C   UNL     1      -7.752  10.773  67.187  1.00  0.00    -0.120 C  
HETATM   10  C   UNL     1     -10.124  16.858  66.213  1.00  0.00    -0.324 C  
HETATM   11  C   UNL     1     -11.012  16.116  65.301  1.00  0.00    -0.280 C  
HETATM   12  H   UNL     1     -11.463   8.987  67.802  1.00  0.00     0.000 HD 
HETATM   13  C   UNL     1      -8.602  12.203  67.541  1.00  0.00    -0.171 C  
HETATM   14  C   UNL     1      -8.675  16.403  66.135  1.00  0.00    -0.347 C  
HETATM   15  O   UNL     1      -8.455  12.684  68.668  1.00  0.00    -0.086 OA 
HETATM   16  C   UNL     1     -11.086  14.105  68.042  1.00  0.00    -0.285 C  
HETATM   17  C   UNL     1      -9.648  12.911  66.427  1.00  0.00    -0.252 C  
HETATM   18  C   UNL     1     -10.841  11.866  65.778  1.00  0.00    -0.341 C  
HETATM   19  C   UNL     1     -10.206  14.312  66.806  1.00  0.00    -0.272 C  
HETATM   20  C   UNL     1      -8.938  15.316  66.881  1.00  0.00    -0.274 C  
HETATM   21  C   UNL     1     -11.587  12.550  64.631  1.00  0.00    -0.396 C  
HETATM   22  C   UNL     1     -12.146  13.903  65.038  1.00  0.00    -0.422 C  
HETATM   23  C   UNL     1     -11.125  14.827  65.662  1.00  0.00    -0.342 C  
ENDROOT
BRANCH   4  24
HETATM   24  C   UNL     1      -9.283   9.188  68.632  1.00  0.00    -0.136 C  
HETATM   25  O   UNL     1      -8.652   8.117  68.579  1.00  0.00    -0.129 OA 
BRANCH  24  26
HETATM   26  C   UNL     1      -9.731   9.617  70.129  1.00  0.00    -0.254 C  
BRANCH  26  27
HETATM   27  O   UNL     1     -11.206   9.577  70.261  1.00  0.00    -0.246 OA 
BRANCH  27  28
HETATM   28  C   UNL     1     -12.106  10.593  70.096  1.00  0.00    -0.333 C  
HETATM   29  C   UNL     1     -12.869  11.030  71.337  1.00  0.00    -0.548 C  
HETATM   30  O   UNL     1     -12.300  11.157  69.044  1.00  0.00    -0.479 OA 
ENDBRANCH  27  28
ENDBRANCH  26  27
ENDBRANCH  24  26
ENDBRANCH   4  24
TORSDOF 4
ENDMDL
MODEL       12
REMARK 921   NORMALIZED FREE ENERGY PREDICTED BY IDOCK:   -6.65 KCAL/MOL
REMARK 922        TOTAL FREE ENERGY PREDICTED BY IDOCK:   -7.78 KCAL/MOL
REMARK 923 INTER-LIGAND FREE ENERGY PREDICTED BY IDOCK:   -8.38 KCAL/MOL
REMARK 924 INTRA-LIGAND FREE ENERGY PREDICTED BY IDOCK:    0.60 KCAL/MOL
REMARK 927      BINDING AFFINITY PREDICTED BY RF-SCORE:    0.00 PKD
ROOT
HETATM    1  C   UNL     1     -10.938  12.523  63.837  1.00  0.00    -0.471 C  
HETATM    2  C   UNL     1     -12.131  11.861  63.460  1.00  0.00    -0.575 C  
HETATM    3  C   UNL     1     -11.979  12.164  64.923  1.00  0.00    -0.356 C  
HETATM    4  C   UNL     1     -10.552  13.558  65.521  1.00  0.00    -0.296 C  
HETATM    5  O   UNL     1      -8.177   6.913  68.223  1.00  0.00    -0.121 OA 
HETATM    6  O   UNL     1      -9.734  14.218  64.467  1.00  0.00    -0.539 OA 
HETATM    7  C   UNL     1     -11.849  13.671  65.094  1.00  0.00    -0.364 C  
HETATM    8  C   UNL     1     -12.598  14.776  64.419  1.00  0.00    -0.105 C  
HETATM    9  C   UNL     1     -12.151  12.987  66.847  1.00  0.00    -0.349 C  
HETATM   10  C   UNL     1      -9.078   7.173  67.436  1.00  0.00    -0.121 C  
HETATM   11  C   UNL     1      -8.879   7.392  65.993  1.00  0.00    -0.173 C  
HETATM   12  H   UNL     1      -9.083  14.853  64.740  1.00  0.00     0.000 HD 
HETATM   13  C   UNL     1     -10.920  11.898  67.285  1.00  0.00    -0.268 C  
HETATM   14  C   UNL     1     -10.478   7.535  67.908  1.00  0.00    -0.266 C  
HETATM   15  O   UNL     1     -10.443  12.011  68.418  1.00  0.00    -0.206 OA 
HETATM   16  C   UNL     1      -8.096  10.465  67.221  1.00  0.00    -0.114 C  
HETATM   17  C   UNL     1     -10.331  10.746  66.208  1.00  0.00    -0.303 C  
HETATM   18  C   UNL     1      -9.825  11.358  64.690  1.00  0.00    -0.302 C  
HETATM   19  C   UNL     1      -9.350   9.694  66.799  1.00  0.00    -0.193 C  
HETATM   20  C   UNL     1     -10.181   8.846  67.899  1.00  0.00    -0.274 C  
HETATM   21  C   UNL     1      -9.515  10.211  63.725  1.00  0.00    -0.330 C  
HETATM   22  C   UNL     1      -8.533   9.215  64.317  1.00  0.00    -0.200 C  
HETATM   23  C   UNL     1      -8.929   8.699  65.681  1.00  0.00    -0.231 C  
ENDROOT
BRANCH   4  24
HETATM   24  C   UNL     1     -10.567  15.070  66.538  1.00  0.00    -0.305 C  
HETATM   25  O   UNL     1     -10.753  16.202  66.058  1.00  0.00    -0.308 OA 
BRANCH  24  26
HETATM   26  C   UNL     1     -10.193  15.075  68.115  1.00  0.00    -0.221 C  
BRANCH  26  27
HETATM   27  O   UNL     1     -11.319  15.612  68.914  1.00  0.00    -0.293 OA 
BRANCH  27  28
HETATM   28  C   UNL     1     -11.774  15.198  70.135  1.00  0.00    -0.307 C  
HETATM   29  C   UNL     1     -11.632  16.186  71.282  1.00  0.00    -0.470 C  
HETATM   30  O   UNL     1     -12.288  14.121  70.332  1.00  0.00    -0.319 OA 
ENDBRANCH  27  28
ENDBRANCH  26  27
ENDBRANCH  24  26
ENDBRANCH   4  24
TORSDOF 4
ENDMDL
MODEL       13
REMARK 921   NORMALIZED FREE ENERGY PREDICTED BY IDOCK:   -6.61 KCAL/MOL
REMARK 922        TOTAL FREE ENERGY PREDICTED BY IDOCK:   -7.73 KCAL/MOL
REMARK 923 INTER-LIGAND FREE ENERGY PREDICTED BY IDOCK:   -8.51 KCAL/MOL
REMARK 924 INTRA-LIGAND FREE ENERGY PREDICTED BY IDOCK:    0.78 KCAL/MOL
REMARK 927      BINDING AFFINITY PREDICTED BY RF-SCORE:    0.00 PKD
ROOT
HETATM    1  C   UNL     1      -8.403  13.913  67.459  1.00  0.00    -0.202 C  
HETATM    2  C   UNL     1      -8.227  13.581  68.824  1.00  0.00     0.044 C  
HETATM    3  C   UNL     1      -9.271  14.619  68.528  1.00  0.00    -0.193 C  
HETATM    4  C   UNL     1      -9.973  14.813  66.576  1.00  0.00    -0.271 C  
HETATM    5  O   UNL     1      -6.236  21.213  68.049  1.00  0.00    -0.344 OA 
HETATM    6  O   UNL     1      -9.419  13.901  65.539  1.00  0.00    -0.518 OA 
HETATM    7  C   UNL     1     -10.324  13.999  67.621  1.00  0.00    -0.242 C  
HETATM    8  C   UNL     1     -10.954  12.643  67.678  1.00  0.00    -0.275 C  
HETATM    9  C   UNL     1     -11.082  15.639  68.229  1.00  0.00    -0.336 C  
HETATM   10  C   UNL     1      -6.297  20.167  68.682  1.00  0.00    -0.300 C  
HETATM   11  C   UNL     1      -5.467  18.982  68.405  1.00  0.00    -0.197 C  
HETATM   12  H   UNL     1      -9.739  13.990  64.649  1.00  0.00     0.000 HD 
HETATM   13  C   UNL     1     -10.115  16.956  67.756  1.00  0.00    -0.292 C  
HETATM   14  C   UNL     1      -7.414  19.894  69.678  1.00  0.00     0.078 C  
HETATM   15  O   UNL     1     -10.693  17.940  67.285  1.00  0.00    -0.354 OA 
HETATM   16  C   UNL     1      -7.945  18.576  66.112  1.00  0.00    -0.216 C  
HETATM   17  C   UNL     1      -8.436  16.909  67.868  1.00  0.00    -0.203 C  
HETATM   18  C   UNL     1      -7.692  15.558  67.124  1.00  0.00    -0.257 C  
HETATM   19  C   UNL     1      -7.694  18.246  67.586  1.00  0.00    -0.230 C  
HETATM   20  C   UNL     1      -8.157  19.290  68.733  1.00  0.00    -0.391 C  
HETATM   21  C   UNL     1      -6.202  15.506  67.470  1.00  0.00    -0.141 C  
HETATM   22  C   UNL     1      -5.497  16.815  67.158  1.00  0.00    -0.185 C  
HETATM   23  C   UNL     1      -6.163  18.031  67.760  1.00  0.00    -0.176 C  
ENDROOT
BRANCH   4  24
HETATM   24  C   UNL     1     -11.615  14.807  65.786  1.00  0.00    -0.290 C  
HETATM   25  O   UNL     1     -12.641  14.418  66.370  1.00  0.00    -0.334 OA 
BRANCH  24  26
HETATM   26  C   UNL     1     -11.842  15.167  64.222  1.00  0.00    -0.251 C  
BRANCH  26  27
HETATM   27  O   UNL     1     -12.525  14.051  63.527  1.00  0.00    -0.826 OA 
BRANCH  27  28
HETATM   28  C   UNL     1     -12.421  12.708  63.761  1.00  0.00    -0.420 C  
HETATM   29  C   UNL     1     -11.111  12.050  63.359  1.00  0.00    -0.476 C  
HETATM   30  O   UNL     1     -13.291  12.045  64.278  1.00  0.00    -0.709 OA 
ENDBRANCH  27  28
ENDBRANCH  26  27
ENDBRANCH  24  26
ENDBRANCH   4  24
TORSDOF 4
ENDMDL
MODEL       14
REMARK 921   NORMALIZED FREE ENERGY PREDICTED BY IDOCK:   -6.54 KCAL/MOL
REMARK 922        TOTAL FREE ENERGY PREDICTED BY IDOCK:   -7.65 KCAL/MOL
REMARK 923 INTER-LIGAND FREE ENERGY PREDICTED BY IDOCK:   -8.39 KCAL/MOL
REMARK 924 INTRA-LIGAND FREE ENERGY PREDICTED BY IDOCK:    0.73 KCAL/MOL
REMARK 927      BINDING AFFINITY PREDICTED BY RF-SCORE:    0.00 PKD
ROOT
HETATM    1  C   UNL     1      -9.134  15.419  68.981  1.00  0.00    -0.233 C  
HETATM    2  C   UNL     1      -7.894  14.776  68.752  1.00  0.00    -0.146 C  
HETATM    3  C   UNL     1      -8.425  15.607  67.619  1.00  0.00    -0.169 C  
HETATM    4  C   UNL     1      -9.939  16.985  68.004  1.00  0.00    -0.283 C  
HETATM    5  O   UNL     1     -13.050  11.720  63.566  1.00  0.00    -0.617 OA 
HETATM    6  O   UNL     1     -10.436  17.107  69.401  1.00  0.00    -0.321 OA 
HETATM    7  C   UNL     1      -8.573  17.043  68.102  1.00  0.00    -0.228 C  
HETATM    8  C   UNL     1      -7.654  17.865  68.950  1.00  0.00    -0.222 C  
HETATM    9  C   UNL     1      -8.759  17.124  66.206  1.00  0.00    -0.268 C  
HETATM   10  C   UNL     1     -11.968  11.736  64.139  1.00  0.00    -0.235 C  
HETATM   11  C   UNL     1     -11.772  11.360  65.549  1.00  0.00     0.319 C  
HETATM   12  H   UNL     1     -11.127  17.735  69.577  1.00  0.00     0.000 HD 
HETATM   13  C   UNL     1     -10.079  16.181  65.693  1.00  0.00    -0.337 C  
HETATM   14  C   UNL     1     -10.738  12.380  63.517  1.00  0.00    -0.473 C  
HETATM   15  O   UNL     1     -10.838  16.680  64.858  1.00  0.00    -0.697 OA 
HETATM   16  C   UNL     1     -12.806  14.581  65.885  1.00  0.00     0.030 C  
HETATM   17  C   UNL     1     -10.377  14.653  66.333  1.00  0.00    -0.293 C  
HETATM   18  C   UNL     1     -10.452  14.578  68.043  1.00  0.00    -0.236 C  
HETATM   19  C   UNL     1     -11.497  13.827  65.638  1.00  0.00    -0.318 C  
HETATM   20  C   UNL     1     -11.002  13.553  64.121  1.00  0.00    -0.274 C  
HETATM   21  C   UNL     1     -10.512  13.124  68.515  1.00  0.00    -0.262 C  
HETATM   22  C   UNL     1     -11.632  12.350  67.841  1.00  0.00    -0.415 C  
HETATM   23  C   UNL     1     -11.621  12.441  66.333  1.00  0.00    -0.442 C  
ENDROOT
BRANCH   4  24
HETATM   24  C   UNL     1     -10.171  18.768  67.705  1.00  0.00    -0.399 C  
HETATM   25  O   UNL     1     -11.152  19.225  67.092  1.00  0.00    -0.425 OA 
BRANCH  24  26
HETATM   26  C   UNL     1      -9.052  19.878  68.080  1.00  0.00    -0.299 C  
BRANCH  26  27
HETATM   27  O   UNL     1      -8.546  20.540  66.854  1.00  0.00    -0.274 OA 
BRANCH  27  28
HETATM   28  C   UNL     1      -7.254  20.662  66.421  1.00  0.00    -0.150 C  
HETATM   29  C   UNL     1      -6.265  21.268  67.404  1.00  0.00    -0.428 C  
HETATM   30  O   UNL     1      -6.873  20.301  65.332  1.00  0.00    -0.289 OA 
ENDBRANCH  27  28
ENDBRANCH  26  27
ENDBRANCH  24  26
ENDBRANCH   4  24
TORSDOF 4
ENDMDL
MODEL       15
REMARK 921   NORMALIZED FREE ENERGY PREDICTED BY IDOCK:   -6.43 KCAL/MOL
REMARK 922        TOTAL FREE ENERGY PREDICTED BY IDOCK:   -7.51 KCAL/MOL
REMARK 923 INTER-LIGAND FREE ENERGY PREDICTED BY IDOCK:   -7.78 KCAL/MOL
REMARK 924 INTRA-LIGAND FREE ENERGY PREDICTED BY IDOCK:    0.26 KCAL/MOL
REMARK 927      BINDING AFFINITY PREDICTED BY RF-SCORE:    0.00 PKD
ROOT
HETATM    1  C   UNL     1      -8.629  15.265  68.023  1.00  0.00    -0.152 C  
HETATM    2  C   UNL     1      -8.377  15.934  66.801  1.00  0.00    -0.306 C  
HETATM    3  C   UNL     1      -9.678  15.190  66.888  1.00  0.00    -0.248 C  
HETATM    4  C   UNL     1     -10.386  14.614  68.761  1.00  0.00    -0.248 C  
HETATM    5  O   UNL     1      -8.730   8.194  65.136  1.00  0.00    -0.122 OA 
HETATM    6  O   UNL     1      -9.576  14.973  69.956  1.00  0.00    -0.470 OA 
HETATM    7  C   UNL     1     -10.491  15.773  68.036  1.00  0.00    -0.270 C  
HETATM    8  C   UNL     1     -10.691  17.200  68.437  1.00  0.00    -0.347 C  
HETATM    9  C   UNL     1     -11.707  14.677  67.059  1.00  0.00    -0.379 C  
HETATM   10  C   UNL     1      -8.485   9.357  64.842  1.00  0.00    -0.163 C  
HETATM   11  C   UNL     1      -7.338  10.119  65.365  1.00  0.00    -0.144 C  
HETATM   12  H   UNL     1      -9.898  14.709  70.810  1.00  0.00     0.000 HD 
HETATM   13  C   UNL     1     -11.170  13.063  67.033  1.00  0.00    -0.289 C  
HETATM   14  C   UNL     1      -9.481  10.222  64.084  1.00  0.00    -0.358 C  
HETATM   15  O   UNL     1     -12.008  12.185  67.255  1.00  0.00    -0.573 OA 
HETATM   16  C   UNL     1      -9.560  10.480  67.913  1.00  0.00    -0.164 C  
HETATM   17  C   UNL     1      -9.554  12.672  66.771  1.00  0.00    -0.241 C  
HETATM   18  C   UNL     1      -8.434  13.466  67.796  1.00  0.00    -0.181 C  
HETATM   19  C   UNL     1      -9.238  11.161  66.579  1.00  0.00    -0.194 C  
HETATM   20  C   UNL     1     -10.002  10.691  65.232  1.00  0.00    -0.356 C  
HETATM   21  C   UNL     1      -7.000  13.203  67.332  1.00  0.00    -0.117 C  
HETATM   22  C   UNL     1      -6.712  11.719  67.181  1.00  0.00    -0.145 C  
HETATM   23  C   UNL     1      -7.715  10.982  66.324  1.00  0.00    -0.132 C  
ENDROOT
BRANCH   4  24
HETATM   24  C   UNL     1     -11.944  14.836  69.679  1.00  0.00    -0.316 C  
HETATM   25  O   UNL     1     -12.321  15.941  70.107  1.00  0.00    -0.338 OA 
BRANCH  24  26
HETATM   26  C   UNL     1     -12.883  13.596  70.136  1.00  0.00     0.086 C  
BRANCH  26  27
HETATM   27  O   UNL     1     -12.058  12.498  70.691  1.00  0.00    -0.356 OA 
BRANCH  27  28
HETATM   28  C   UNL     1     -12.469  11.330  71.271  1.00  0.00    -0.336 C  
HETATM   29  C   UNL     1     -11.859  10.050  70.723  1.00  0.00    -0.435 C  
HETATM   30  O   UNL     1     -13.257  11.274  72.187  1.00  0.00    -0.481 OA 
ENDBRANCH  27  28
ENDBRANCH  26  27
ENDBRANCH  24  26
ENDBRANCH   4  24
TORSDOF 4
ENDMDL
MODEL       16
REMARK 921   NORMALIZED FREE ENERGY PREDICTED BY IDOCK:   -6.40 KCAL/MOL
REMARK 922        TOTAL FREE ENERGY PREDICTED BY IDOCK:   -7.48 KCAL/MOL
REMARK 923 INTER-LIGAND FREE ENERGY PREDICTED BY IDOCK:   -8.16 KCAL/MOL
REMARK 924 INTRA-LIGAND FREE ENERGY PREDICTED BY IDOCK:    0.68 KCAL/MOL
REMARK 927      BINDING AFFINITY PREDICTED BY RF-SCORE:    0.00 PKD
ROOT
HETATM    1  C   UNL     1     -11.582  15.049  65.835  1.00  0.00    -0.165 C  
HETATM    2  C   UNL     1     -11.300  14.841  64.464  1.00  0.00    -0.309 C  
HETATM    3  C   UNL     1     -10.275  14.327  65.433  1.00  0.00    -0.395 C  
HETATM    4  C   UNL     1     -10.802  14.111  67.436  1.00  0.00    -0.287 C  
HETATM    5  O   UNL     1      -5.632  19.619  67.265  1.00  0.00    -0.171 OA 
HETATM    6  O   UNL     1     -12.190  14.466  67.837  1.00  0.00    -0.595 OA 
HETATM    7  C   UNL     1     -10.939  13.301  66.339  1.00  0.00    -0.301 C  
HETATM    8  C   UNL     1     -11.911  12.215  66.001  1.00  0.00    -0.236 C  
HETATM    9  C   UNL     1      -9.067  13.108  66.643  1.00  0.00    -0.180 C  
HETATM   10  C   UNL     1      -6.228  19.062  66.352  1.00  0.00    -0.179 C  
HETATM   11  C   UNL     1      -7.580  19.430  65.900  1.00  0.00    -0.286 C  
HETATM   12  H   UNL     1     -12.430  14.367  68.751  1.00  0.00     0.000 HD 
HETATM   13  C   UNL     1      -8.402  14.561  67.225  1.00  0.00    -0.212 C  
HETATM   14  C   UNL     1      -5.726  17.763  65.739  1.00  0.00    -0.174 C  
HETATM   15  O   UNL     1      -7.622  14.484  68.177  1.00  0.00    -0.106 OA 
HETATM   16  C   UNL     1      -8.314  17.435  68.554  1.00  0.00    -0.271 C  
HETATM   17  C   UNL     1      -8.827  16.054  66.571  1.00  0.00    -0.340 C  
HETATM   18  C   UNL     1     -10.509  16.367  66.496  1.00  0.00    -0.282 C  
HETATM   19  C   UNL     1      -8.001  17.276  67.064  1.00  0.00    -0.242 C  
HETATM   20  C   UNL     1      -6.474  17.033  66.585  1.00  0.00    -0.262 C  
HETATM   21  C   UNL     1     -10.784  17.642  65.697  1.00  0.00    -0.084 C  
HETATM   22  C   UNL     1      -9.986  18.826  66.218  1.00  0.00    -0.418 C  
HETATM   23  C   UNL     1      -8.503  18.560  66.344  1.00  0.00    -0.275 C  
ENDROOT
BRANCH   4  24
HETATM   24  C   UNL     1     -10.735  12.755  68.652  1.00  0.00    -0.246 C  
HETATM   25  O   UNL     1      -9.887  11.847  68.602  1.00  0.00    -0.197 OA 
BRANCH  24  26
HETATM   26  C   UNL     1     -11.861  12.543  69.799  1.00  0.00    -0.310 C  
BRANCH  26  27
HETATM   27  O   UNL     1     -12.088  11.100  70.044  1.00  0.00    -0.309 OA 
BRANCH  27  28
HETATM   28  C   UNL     1     -12.225  10.447  71.238  1.00  0.00    -0.389 C  
HETATM   29  C   UNL     1     -11.201   9.363  71.538  1.00  0.00    -0.457 C  
HETATM   30  O   UNL     1     -13.084  10.701  72.049  1.00  0.00    -0.481 OA 
ENDBRANCH  27  28
ENDBRANCH  26  27
ENDBRANCH  24  26
ENDBRANCH   4  24
TORSDOF 4
ENDMDL
MODEL       17
REMARK 921   NORMALIZED FREE ENERGY PREDICTED BY IDOCK:   -6.40 KCAL/MOL
REMARK 922        TOTAL FREE ENERGY PREDICTED BY IDOCK:   -7.47 KCAL/MOL
REMARK 923 INTER-LIGAND FREE ENERGY PREDICTED BY IDOCK:   -8.24 KCAL/MOL
REMARK 924 INTRA-LIGAND FREE ENERGY PREDICTED BY IDOCK:    0.78 KCAL/MOL
REMARK 927      BINDING AFFINITY PREDICTED BY RF-SCORE:    0.00 PKD
ROOT
HETATM    1  C   UNL     1      -9.663  18.784  65.960  1.00  0.00    -0.161 C  
HETATM    2  C   UNL     1     -10.862  19.363  66.442  1.00  0.00    -0.421 C  
HETATM    3  C   UNL     1      -9.970  18.737  67.476  1.00  0.00    -0.382 C  
HETATM    4  C   UNL     1      -7.989  18.324  66.980  1.00  0.00    -0.225 C  
HETATM    5  O   UNL     1     -11.288  11.601  67.987  1.00  0.00    -0.249 OA 
HETATM    6  O   UNL     1      -7.522  18.677  65.613  1.00  0.00    -0.496 OA 
HETATM    7  C   UNL     1      -8.624  19.447  67.445  1.00  0.00    -0.333 C  
HETATM    8  C   UNL     1      -8.316  20.906  67.321  1.00  0.00    -0.138 C  
HETATM    9  C   UNL     1      -8.611  18.407  69.042  1.00  0.00    -0.061 C  
HETATM   10  C   UNL     1     -11.776  12.721  67.916  1.00  0.00    -0.357 C  
HETATM   11  C   UNL     1     -12.086  13.411  66.652  1.00  0.00    -0.429 C  
HETATM   12  H   UNL     1      -6.618  18.489  65.387  1.00  0.00     0.000 HD 
HETATM   13  C   UNL     1      -8.793  16.754  68.681  1.00  0.00    -0.255 C  
HETATM   14  C   UNL     1     -11.896  13.625  69.134  1.00  0.00    -0.394 C  
HETATM   15  O   UNL     1      -8.047  15.963  69.265  1.00  0.00    -0.224 OA 
HETATM   16  C   UNL     1      -8.769  14.096  66.958  1.00  0.00    -0.222 C  
HETATM   17  C   UNL     1      -9.903  16.214  67.536  1.00  0.00    -0.237 C  
HETATM   18  C   UNL     1      -9.792  16.965  66.001  1.00  0.00    -0.281 C  
HETATM   19  C   UNL     1     -10.100  14.674  67.448  1.00  0.00    -0.232 C  
HETATM   20  C   UNL     1     -10.707  14.198  68.871  1.00  0.00    -0.270 C  
HETATM   21  C   UNL     1     -10.973  16.558  65.117  1.00  0.00    -0.201 C  
HETATM   22  C   UNL     1     -11.124  15.048  65.026  1.00  0.00    -0.421 C  
HETATM   23  C   UNL     1     -11.171  14.353  66.367  1.00  0.00    -0.345 C  
ENDROOT
BRANCH   4  24
HETATM   24  C   UNL     1      -6.365  18.727  67.702  1.00  0.00    -0.204 C  
HETATM   25  O   UNL     1      -5.485  17.870  67.897  1.00  0.00    -0.142 OA 
BRANCH  24  26
HETATM   26  C   UNL     1      -5.997  20.195  68.282  1.00  0.00    -0.254 C  
BRANCH  26  27
HETATM   27  O   UNL     1      -5.188  20.078  69.517  1.00  0.00    -0.195 OA 
BRANCH  27  28
HETATM   28  C   UNL     1      -5.606  19.791  70.787  1.00  0.00    -0.266 C  
HETATM   29  C   UNL     1      -5.297  18.394  71.303  1.00  0.00    -0.199 C  
HETATM   30  O   UNL     1      -6.174  20.583  71.504  1.00  0.00    -0.649 OA 
ENDBRANCH  27  28
ENDBRANCH  26  27
ENDBRANCH  24  26
ENDBRANCH   4  24
TORSDOF 4
ENDMDL
MODEL       18
REMARK 921   NORMALIZED FREE ENERGY PREDICTED BY IDOCK:   -6.38 KCAL/MOL
REMARK 922        TOTAL FREE ENERGY PREDICTED BY IDOCK:   -7.45 KCAL/MOL
REMARK 923 INTER-LIGAND FREE ENERGY PREDICTED BY IDOCK:   -8.21 KCAL/MOL
REMARK 924 INTRA-LIGAND FREE ENERGY PREDICTED BY IDOCK:    0.76 KCAL/MOL
REMARK 927      BINDING AFFINITY PREDICTED BY RF-SCORE:    0.00 PKD
ROOT
HETATM    1  C   UNL     1     -11.660  15.241  65.760  1.00  0.00    -0.015 C  
HETATM    2  C   UNL     1     -11.236  15.356  64.414  1.00  0.00    -0.215 C  
HETATM    3  C   UNL     1     -10.458  14.398  65.271  1.00  0.00    -0.410 C  
HETATM    4  C   UNL     1     -11.282  13.764  67.076  1.00  0.00    -0.311 C  
HETATM    5  O   UNL     1      -5.244  17.913  68.928  1.00  0.00    -0.164 OA 
HETATM    6  O   UNL     1     -12.627  14.279  67.450  1.00  0.00    -0.531 OA 
HETATM    7  C   UNL     1     -11.411  13.327  65.783  1.00  0.00    -0.328 C  
HETATM    8  C   UNL     1     -12.505  12.599  65.067  1.00  0.00    -0.556 C  
HETATM    9  C   UNL     1      -9.661  12.674  66.166  1.00  0.00    -0.253 C  
HETATM   10  C   UNL     1      -5.800  17.759  67.848  1.00  0.00    -0.150 C  
HETATM   11  C   UNL     1      -6.992  18.509  67.416  1.00  0.00    -0.208 C  
HETATM   12  H   UNL     1     -13.002  13.990  68.274  1.00  0.00     0.000 HD 
HETATM   13  C   UNL     1      -8.834  13.745  67.197  1.00  0.00    -0.231 C  
HETATM   14  C   UNL     1      -5.458  16.599  66.926  1.00  0.00    -0.091 C  
HETATM   15  O   UNL     1      -8.217  13.253  68.144  1.00  0.00    -0.144 OA 
HETATM   16  C   UNL     1      -8.420  16.071  69.308  1.00  0.00    -0.224 C  
HETATM   17  C   UNL     1      -8.895  15.413  66.974  1.00  0.00    -0.252 C  
HETATM   18  C   UNL     1     -10.470  16.078  66.859  1.00  0.00    -0.306 C  
HETATM   19  C   UNL     1      -7.941  16.258  67.865  1.00  0.00    -0.153 C  
HETATM   20  C   UNL     1      -6.431  15.840  67.460  1.00  0.00    -0.203 C  
HETATM   21  C   UNL     1     -10.403  17.550  66.446  1.00  0.00    -0.334 C  
HETATM   22  C   UNL     1      -9.487  18.356  67.352  1.00  0.00    -0.277 C  
HETATM   23  C   UNL     1      -8.106  17.763  67.513  1.00  0.00    -0.228 C  
ENDROOT
BRANCH   4  24
HETATM   24  C   UNL     1     -11.622  12.148  67.845  1.00  0.00    -0.347 C  
HETATM   25  O   UNL     1     -11.713  11.096  67.189  1.00  0.00    -0.501 OA 
BRANCH  24  26
HETATM   26  C   UNL     1     -11.979  11.977  69.417  1.00  0.00    -0.275 C  
BRANCH  26  27
HETATM   27  O   UNL     1     -11.124  10.936  70.034  1.00  0.00    -0.268 OA 
BRANCH  27  28
HETATM   28  C   UNL     1     -11.440  10.048  71.024  1.00  0.00    -0.383 C  
HETATM   29  C   UNL     1     -12.818  10.195  71.651  1.00  0.00    -0.559 C  
HETATM   30  O   UNL     1     -10.703   9.165  71.397  1.00  0.00    -0.290 OA 
ENDBRANCH  27  28
ENDBRANCH  26  27
ENDBRANCH  24  26
ENDBRANCH   4  24
TORSDOF 4
ENDMDL
MODEL       19
REMARK 921   NORMALIZED FREE ENERGY PREDICTED BY IDOCK:   -6.36 KCAL/MOL
REMARK 922        TOTAL FREE ENERGY PREDICTED BY IDOCK:   -7.42 KCAL/MOL
REMARK 923 INTER-LIGAND FREE ENERGY PREDICTED BY IDOCK:   -7.76 KCAL/MOL
REMARK 924 INTRA-LIGAND FREE ENERGY PREDICTED BY IDOCK:    0.33 KCAL/MOL
REMARK 927      BINDING AFFINITY PREDICTED BY RF-SCORE:    0.00 PKD
ROOT
HETATM    1  C   UNL     1     -11.796  13.155  68.220  1.00  0.00    -0.384 C  
HETATM    2  C   UNL     1     -11.228  14.094  69.115  1.00  0.00    -0.307 C  
HETATM    3  C   UNL     1     -10.257  13.297  68.292  1.00  0.00    -0.250 C  
HETATM    4  C   UNL     1     -10.954  12.284  66.611  1.00  0.00    -0.278 C  
HETATM    5  O   UNL     1      -8.836   6.923  71.497  1.00  0.00    -0.133 OA 
HETATM    6  O   UNL     1     -12.400  12.395  66.277  1.00  0.00    -0.577 OA 
HETATM    7  C   UNL     1     -10.533  13.571  66.820  1.00  0.00    -0.273 C  
HETATM    8  C   UNL     1     -10.848  14.862  66.132  1.00  0.00    -0.327 C  
HETATM    9  C   UNL     1      -8.850  12.676  66.861  1.00  0.00    -0.201 C  
HETATM   10  C   UNL     1      -8.961   8.131  71.650  1.00  0.00    -0.163 C  
HETATM   11  C   UNL     1     -10.241   8.801  71.939  1.00  0.00    -0.415 C  
HETATM   12  H   UNL     1     -12.718  11.933  65.510  1.00  0.00     0.000 HD 
HETATM   13  C   UNL     1      -9.010  11.133  67.560  1.00  0.00    -0.139 C  
HETATM   14  C   UNL     1      -7.839   9.104  71.319  1.00  0.00    -0.067 C  
HETATM   15  O   UNL     1      -8.446  10.195  66.990  1.00  0.00    -0.128 OA 
HETATM   16  C   UNL     1     -10.434   8.486  68.559  1.00  0.00    -0.205 C  
HETATM   17  C   UNL     1      -9.941  10.877  68.939  1.00  0.00    -0.208 C  
HETATM   18  C   UNL     1     -11.548  11.464  68.854  1.00  0.00    -0.388 C  
HETATM   19  C   UNL     1      -9.842   9.463  69.579  1.00  0.00    -0.192 C  
HETATM   20  C   UNL     1      -8.311   9.279  70.072  1.00  0.00    -0.176 C  
HETATM   21  C   UNL     1     -12.227  11.371  70.223  1.00  0.00    -0.433 C  
HETATM   22  C   UNL     1     -12.139   9.973  70.810  1.00  0.00    -0.418 C  
HETATM   23  C   UNL     1     -10.737   9.409  70.848  1.00  0.00    -0.393 C  
ENDROOT
BRANCH   4  24
HETATM   24  C   UNL     1     -10.492  12.229  64.849  1.00  0.00    -0.289 C  
HETATM   25  O   UNL     1     -10.459  13.244  64.130  1.00  0.00    -0.414 OA 
BRANCH  24  26
HETATM   26  C   UNL     1     -10.234  10.844  64.048  1.00  0.00    -0.357 C  
BRANCH  26  27
HETATM   27  O   UNL     1      -8.911  10.869  63.381  1.00  0.00    -0.176 OA 
BRANCH  27  28
HETATM   28  C   UNL     1      -7.908   9.941  63.440  1.00  0.00    -0.152 C  
HETATM   29  C   UNL     1      -8.186   8.599  62.782  1.00  0.00    -0.188 C  
HETATM   30  O   UNL     1      -6.834  10.144  63.958  1.00  0.00    -0.128 OA 
ENDBRANCH  27  28
ENDBRANCH  26  27
ENDBRANCH  24  26
ENDBRANCH   4  24
TORSDOF 4
ENDMDL
MODEL       20
REMARK 921   NORMALIZED FREE ENERGY PREDICTED BY IDOCK:   -6.30 KCAL/MOL
REMARK 922        TOTAL FREE ENERGY PREDICTED BY IDOCK:   -7.35 KCAL/MOL
REMARK 923 INTER-LIGAND FREE ENERGY PREDICTED BY IDOCK:   -7.61 KCAL/MOL
REMARK 924 INTRA-LIGAND FREE ENERGY PREDICTED BY IDOCK:    0.26 KCAL/MOL
REMARK 927      BINDING AFFINITY PREDICTED BY RF-SCORE:    0.00 PKD
ROOT
HETATM    1  C   UNL     1     -10.474  13.552  68.879  1.00  0.00    -0.145 C  
HETATM    2  C   UNL     1     -11.610  13.976  69.610  1.00  0.00    -0.348 C  
HETATM    3  C   UNL     1     -11.684  14.145  68.119  1.00  0.00    -0.390 C  
HETATM    4  C   UNL     1     -10.332  13.111  66.919  1.00  0.00    -0.247 C  
HETATM    5  O   UNL     1      -8.602  20.423  66.117  1.00  0.00    -0.135 OA 
HETATM    6  O   UNL     1      -9.340  12.226  67.586  1.00  0.00    -0.175 OA 
HETATM    7  C   UNL     1     -11.541  12.776  67.470  1.00  0.00    -0.412 C  
HETATM    8  C   UNL     1     -12.143  11.464  67.866  1.00  0.00     0.067 C  
HETATM    9  C   UNL     1     -12.138  13.935  66.080  1.00  0.00    -0.465 C  
HETATM   10  C   UNL     1      -9.358  19.868  66.903  1.00  0.00    -0.379 C  
HETATM   11  C   UNL     1      -8.927  19.236  68.162  1.00  0.00    -0.371 C  
HETATM   12  H   UNL     1      -8.723  11.754  67.038  1.00  0.00     0.000 HD 
HETATM   13  C   UNL     1     -11.023  15.196  65.833  1.00  0.00    -0.339 C  
HETATM   14  C   UNL     1     -10.805  19.562  66.547  1.00  0.00    -0.461 C  
HETATM   15  O   UNL     1     -10.729  15.469  64.666  1.00  0.00    -0.370 OA 
HETATM   16  C   UNL     1      -8.265  16.751  65.936  1.00  0.00     0.039 C  
HETATM   17  C   UNL     1     -10.302  16.006  67.120  1.00  0.00    -0.295 C  
HETATM   18  C   UNL     1      -9.543  15.002  68.283  1.00  0.00    -0.210 C  
HETATM   19  C   UNL     1      -9.456  17.259  66.753  1.00  0.00    -0.274 C  
HETATM   20  C   UNL     1     -10.475  18.336  66.103  1.00  0.00    -0.403 C  
HETATM   21  C   UNL     1      -9.115  15.820  69.503  1.00  0.00    -0.202 C  
HETATM   22  C   UNL     1      -8.268  17.021  69.117  1.00  0.00    -0.034 C  
HETATM   23  C   UNL     1      -8.890  17.897  68.053  1.00  0.00    -0.268 C  
ENDROOT
BRANCH   4  24
HETATM   24  C   UNL     1     -10.468  11.983  65.494  1.00  0.00    -0.269 C  
HETATM   25  O   UNL     1     -11.422  12.017  64.698  1.00  0.00    -0.324 OA 
BRANCH  24  26
HETATM   26  C   UNL     1      -9.438  10.757  65.238  1.00  0.00    -0.218 C  
BRANCH  26  27
HETATM   27  O   UNL     1     -10.073   9.465  65.588  1.00  0.00    -0.261 OA 
BRANCH  27  28
HETATM   28  C   UNL     1      -9.966   8.746  66.746  1.00  0.00    -0.268 C  
HETATM   29  C   UNL     1     -10.521   7.331  66.718  1.00  0.00    -0.311 C  
HETATM   30  O   UNL     1      -9.445   9.167  67.753  1.00  0.00    -0.138 OA 
ENDBRANCH  27  28
ENDBRANCH  26  27
ENDBRANCH  24  26
ENDBRANCH   4  24
TORSDOF 4
ENDMDL
MODEL       21
REMARK 921   NORMALIZED FREE ENERGY PREDICTED BY IDOCK:   -6.15 KCAL/MOL
REMARK 922        TOTAL FREE ENERGY PREDICTED BY IDOCK:   -7.17 KCAL/MOL
REMARK 923 INTER-LIGAND FREE ENERGY PREDICTED BY IDOCK:   -8.15 KCAL/MOL
REMARK 924 INTRA-LIGAND FREE ENERGY PREDICTED BY IDOCK:    0.98 KCAL/MOL
REMARK 927      BINDING AFFINITY PREDICTED BY RF-SCORE:    0.00 PKD
ROOT
HETATM    1  C   UNL     1      -7.722  13.701  67.558  1.00  0.00    -0.183 C  
HETATM    2  C   UNL     1      -7.083  13.835  68.814  1.00  0.00    -0.106 C  
HETATM    3  C   UNL     1      -8.570  14.045  68.806  1.00  0.00    -0.032 C  
HETATM    4  C   UNL     1      -9.672  13.382  67.168  1.00  0.00    -0.237 C  
HETATM    5  O   UNL     1     -10.158  20.922  67.048  1.00  0.00    -0.242 OA 
HETATM    6  O   UNL     1      -8.942  12.710  66.059  1.00  0.00    -0.425 OA 
HETATM    7  C   UNL     1      -9.234  12.768  68.312  1.00  0.00    -0.186 C  
HETATM    8  C   UNL     1      -8.922  11.341  68.636  1.00  0.00    -0.148 C  
HETATM    9  C   UNL     1     -10.645  13.824  69.039  1.00  0.00    -0.161 C  
HETATM   10  C   UNL     1      -9.453  20.184  67.722  1.00  0.00    -0.354 C  
HETATM   11  C   UNL     1      -8.176  19.610  67.261  1.00  0.00    -0.331 C  
HETATM   12  H   UNL     1      -9.445  12.408  65.311  1.00  0.00     0.000 HD 
HETATM   13  C   UNL     1     -10.767  15.308  68.216  1.00  0.00    -0.254 C  
HETATM   14  C   UNL     1      -9.939  19.582  69.032  1.00  0.00    -0.490 C  
HETATM   15  O   UNL     1     -11.897  15.686  67.900  1.00  0.00    -0.205 OA 
HETATM   16  C   UNL     1     -10.391  17.425  65.890  1.00  0.00    -0.276 C  
HETATM   17  C   UNL     1      -9.404  16.203  67.797  1.00  0.00    -0.211 C  
HETATM   18  C   UNL     1      -8.203  15.343  66.929  1.00  0.00    -0.281 C  
HETATM   19  C   UNL     1      -9.669  17.625  67.225  1.00  0.00    -0.284 C  
HETATM   20  C   UNL     1     -10.380  18.478  68.403  1.00  0.00    -0.359 C  
HETATM   21  C   UNL     1      -6.933  16.185  66.792  1.00  0.00    -0.107 C  
HETATM   22  C   UNL     1      -7.218  17.557  66.204  1.00  0.00    -0.343 C  
HETATM   23  C   UNL     1      -8.310  18.318  66.919  1.00  0.00    -0.256 C  
ENDROOT
BRANCH   4  24
HETATM   24  C   UNL     1     -11.128  12.312  66.936  1.00  0.00    -0.290 C  
HETATM   25  O   UNL     1     -12.097  12.638  66.227  1.00  0.00    -0.523 OA 
BRANCH  24  26
HETATM   26  C   UNL     1     -11.342  10.925  67.749  1.00  0.00    -0.292 C  
BRANCH  26  27
HETATM   27  O   UNL     1     -12.285  11.123  68.874  1.00  0.00    -0.522 OA 
BRANCH  27  28
HETATM   28  C   UNL     1     -12.171  10.698  70.169  1.00  0.00    -0.320 C  
HETATM   29  C   UNL     1     -12.886  11.531  71.221  1.00  0.00    -0.463 C  
HETATM   30  O   UNL     1     -11.563   9.707  70.500  1.00  0.00    -0.264 OA 
ENDBRANCH  27  28
ENDBRANCH  26  27
ENDBRANCH  24  26
ENDBRANCH   4  24
TORSDOF 4
ENDMDL
MODEL       22
REMARK 921   NORMALIZED FREE ENERGY PREDICTED BY IDOCK:   -6.14 KCAL/MOL
REMARK 922        TOTAL FREE ENERGY PREDICTED BY IDOCK:   -7.15 KCAL/MOL
REMARK 923 INTER-LIGAND FREE ENERGY PREDICTED BY IDOCK:   -7.50 KCAL/MOL
REMARK 924 INTRA-LIGAND FREE ENERGY PREDICTED BY IDOCK:    0.34 KCAL/MOL
REMARK 927      BINDING AFFINITY PREDICTED BY RF-SCORE:    0.00 PKD
ROOT
HETATM    1  C   UNL     1     -11.439  12.282  67.679  1.00  0.00    -0.401 C  
HETATM    2  C   UNL     1     -11.846  12.392  66.328  1.00  0.00    -0.431 C  
HETATM    3  C   UNL     1     -10.366  12.288  66.564  1.00  0.00    -0.250 C  
HETATM    4  C   UNL     1      -9.686  11.615  68.414  1.00  0.00    -0.199 C  
HETATM    5  O   UNL     1      -7.545  18.847  67.955  1.00  0.00    -0.250 OA 
HETATM    6  O   UNL     1     -10.699  11.248  69.441  1.00  0.00    -0.332 OA 
HETATM    7  C   UNL     1     -10.082  10.970  67.271  1.00  0.00    -0.222 C  
HETATM    8  C   UNL     1     -10.657   9.611  67.026  1.00  0.00    -0.267 C  
HETATM    9  C   UNL     1      -8.382  11.614  66.699  1.00  0.00    -0.154 C  
HETATM   10  C   UNL     1      -8.294  18.195  67.240  1.00  0.00    -0.241 C  
HETATM   11  C   UNL     1      -9.719  17.959  67.530  1.00  0.00    -0.278 C  
HETATM   12  H   UNL     1     -10.389  10.942  70.285  1.00  0.00     0.000 HD 
HETATM   13  C   UNL     1      -8.049  13.129  67.398  1.00  0.00    -0.179 C  
HETATM   14  C   UNL     1      -7.773  17.351  66.086  1.00  0.00    -0.311 C  
HETATM   15  O   UNL     1      -6.920  13.300  67.863  1.00  0.00    -0.102 OA 
HETATM   16  C   UNL     1      -8.270  15.544  69.436  1.00  0.00    -0.247 C  
HETATM   17  C   UNL     1      -9.222  14.332  67.505  1.00  0.00    -0.197 C  
HETATM   18  C   UNL     1     -10.697  13.852  68.234  1.00  0.00    -0.261 C  
HETATM   19  C   UNL     1      -8.730  15.727  67.987  1.00  0.00    -0.171 C  
HETATM   20  C   UNL     1      -7.685  16.264  66.874  1.00  0.00    -0.278 C  
HETATM   21  C   UNL     1     -11.752  14.950  68.084  1.00  0.00    -0.344 C  
HETATM   22  C   UNL     1     -11.254  16.294  68.589  1.00  0.00    -0.354 C  
HETATM   23  C   UNL     1      -9.928  16.718  68.001  1.00  0.00    -0.272 C  
ENDROOT
BRANCH   4  24
HETATM   24  C   UNL     1      -8.556  10.302  68.977  1.00  0.00    -0.162 C  
HETATM   25  O   UNL     1      -7.689   9.798  68.240  1.00  0.00    -0.084 OA 
BRANCH  24  26
HETATM   26  C   UNL     1      -8.687   9.585  70.425  1.00  0.00    -0.223 C  
BRANCH  26  27
HETATM   27  O   UNL     1      -9.983   8.875  70.537  1.00  0.00    -0.180 OA 
BRANCH  27  28
HETATM   28  C   UNL     1     -10.839   8.823  71.602  1.00  0.00    -0.329 C  
HETATM   29  C   UNL     1     -10.453   7.886  72.736  1.00  0.00    -0.412 C  
HETATM   30  O   UNL     1     -11.847   9.485  71.688  1.00  0.00    -0.366 OA 
ENDBRANCH  27  28
ENDBRANCH  26  27
ENDBRANCH  24  26
ENDBRANCH   4  24
TORSDOF 4
ENDMDL
MODEL       23
REMARK 921   NORMALIZED FREE ENERGY PREDICTED BY IDOCK:   -6.13 KCAL/MOL
REMARK 922        TOTAL FREE ENERGY PREDICTED BY IDOCK:   -7.15 KCAL/MOL
REMARK 923 INTER-LIGAND FREE ENERGY PREDICTED BY IDOCK:   -7.15 KCAL/MOL
REMARK 924 INTRA-LIGAND FREE ENERGY PREDICTED BY IDOCK:    0.00 KCAL/MOL
REMARK 927      BINDING AFFINITY PREDICTED BY RF-SCORE:    0.00 PKD
ROOT
HETATM    1  C   UNL     1     -12.204   7.656  72.214  1.00  0.00    -0.261 C  
HETATM    2  C   UNL     1     -13.349   7.184  71.528  1.00  0.00    -0.413 C  
HETATM    3  C   UNL     1     -12.024   6.721  70.995  1.00  0.00    -0.431 C  
HETATM    4  C   UNL     1     -10.332   6.916  72.194  1.00  0.00    -0.199 C  
HETATM    5  O   UNL     1      -9.278  11.636  66.389  1.00  0.00    -0.201 OA 
HETATM    6  O   UNL     1     -10.500   7.502  73.551  1.00  0.00    -0.357 OA 
HETATM    7  C   UNL     1     -11.303   5.954  72.094  1.00  0.00    -0.344 C  
HETATM    8  C   UNL     1     -11.838   4.954  73.070  1.00  0.00    -0.127 C  
HETATM    9  C   UNL     1     -10.328   5.586  70.498  1.00  0.00    -0.342 C  
HETATM   10  C   UNL     1     -10.272  11.009  66.731  1.00  0.00    -0.229 C  
HETATM   11  C   UNL     1     -11.219  11.458  67.766  1.00  0.00    -0.346 C  
HETATM   12  H   UNL     1      -9.728   7.591  74.098  1.00  0.00     0.000 HD 
HETATM   13  C   UNL     1      -9.720   7.025  69.824  1.00  0.00    -0.168 C  
HETATM   14  C   UNL     1     -10.509   9.573  66.288  1.00  0.00    -0.137 C  
HETATM   15  O   UNL     1      -8.549   7.016  69.436  1.00  0.00    -0.132 OA 
HETATM   16  C   UNL     1      -8.791  10.051  69.687  1.00  0.00    -0.217 C  
HETATM   17  C   UNL     1     -10.651   8.425  69.736  1.00  0.00    -0.221 C  
HETATM   18  C   UNL     1     -11.360   8.925  71.213  1.00  0.00    -0.371 C  
HETATM   19  C   UNL     1     -10.041   9.603  68.923  1.00  0.00    -0.198 C  
HETATM   20  C   UNL     1      -9.908   9.095  67.392  1.00  0.00    -0.237 C  
HETATM   21  C   UNL     1     -12.348  10.069  70.974  1.00  0.00    -0.458 C  
HETATM   22  C   UNL     1     -11.716  11.217  70.204  1.00  0.00    -0.429 C  
HETATM   23  C   UNL     1     -11.037  10.797  68.921  1.00  0.00    -0.307 C  
ENDROOT
BRANCH   4  24
HETATM   24  C   UNL     1      -9.024   5.789  72.779  1.00  0.00    -0.127 C  
HETATM   25  O   UNL     1      -9.253   4.827  73.533  1.00  0.00    -0.119 OA 
BRANCH  24  26
HETATM   26  C   UNL     1      -7.450   6.038  72.486  1.00  0.00    -0.098 C  
BRANCH  26  27
HETATM   27  O   UNL     1      -7.144   7.488  72.489  1.00  0.00    -0.066 OA 
BRANCH  27  28
HETATM   28  C   UNL     1      -7.006   8.329  73.559  1.00  0.00    -0.118 C  
HETATM   29  C   UNL     1      -5.594   8.795  73.876  1.00  0.00    -0.116 C  
HETATM   30  O   UNL     1      -7.933   8.724  74.228  1.00  0.00    -0.378 OA 
ENDBRANCH  27  28
ENDBRANCH  26  27
ENDBRANCH  24  26
ENDBRANCH   4  24
TORSDOF 4
ENDMDL
MODEL       24
REMARK 921   NORMALIZED FREE ENERGY PREDICTED BY IDOCK:   -6.12 KCAL/MOL
REMARK 922        TOTAL FREE ENERGY PREDICTED BY IDOCK:   -7.13 KCAL/MOL
REMARK 923 INTER-LIGAND FREE ENERGY PREDICTED BY IDOCK:   -7.58 KCAL/MOL
REMARK 924 INTRA-LIGAND FREE ENERGY PREDICTED BY IDOCK:    0.45 KCAL/MOL
REMARK 927      BINDING AFFINITY PREDICTED BY RF-SCORE:    0.00 PKD
ROOT
HETATM    1  C   UNL     1      -7.798  14.054  68.705  1.00  0.00    -0.130 C  
HETATM    2  C   UNL     1      -6.715  13.414  68.054  1.00  0.00    -0.131 C  
HETATM    3  C   UNL     1      -7.373  14.532  67.296  1.00  0.00    -0.098 C  
HETATM    4  C   UNL     1      -8.602  15.861  68.327  1.00  0.00    -0.176 C  
HETATM    5  O   UNL     1     -13.159  12.070  63.640  1.00  0.00    -0.756 OA 
HETATM    6  O   UNL     1      -8.779  15.659  69.790  1.00  0.00    -0.192 OA 
HETATM    7  C   UNL     1      -7.249  15.808  68.117  1.00  0.00    -0.124 C  
HETATM    8  C   UNL     1      -6.085  16.335  68.895  1.00  0.00    -0.131 C  
HETATM    9  C   UNL     1      -7.817  16.372  66.386  1.00  0.00    -0.297 C  
HETATM   10  C   UNL     1     -11.988  11.877  63.936  1.00  0.00    -0.402 C  
HETATM   11  C   UNL     1     -11.545  11.149  65.137  1.00  0.00     0.379 C  
HETATM   12  H   UNL     1      -9.340  16.265  70.260  1.00  0.00     0.000 HD 
HETATM   13  C   UNL     1      -9.315  15.669  65.990  1.00  0.00    -0.349 C  
HETATM   14  C   UNL     1     -10.849  12.580  63.211  1.00  0.00    -0.205 C  
HETATM   15  O   UNL     1     -10.169  16.406  65.490  1.00  0.00    -0.496 OA 
HETATM   16  C   UNL     1     -12.108  14.242  66.434  1.00  0.00    -0.442 C  
HETATM   17  C   UNL     1      -9.647  14.051  66.312  1.00  0.00    -0.284 C  
HETATM   18  C   UNL     1      -9.371  13.556  67.929  1.00  0.00    -0.215 C  
HETATM   19  C   UNL     1     -10.975  13.494  65.724  1.00  0.00    -0.285 C  
HETATM   20  C   UNL     1     -10.844  13.578  64.113  1.00  0.00    -0.250 C  
HETATM   21  C   UNL     1      -9.497  12.037  68.056  1.00  0.00    -0.199 C  
HETATM   22  C   UNL     1     -10.815  11.525  67.499  1.00  0.00    -0.285 C  
HETATM   23  C   UNL     1     -11.110  11.989  66.091  1.00  0.00    -0.367 C  
ENDROOT
BRANCH   4  24
HETATM   24  C   UNL     1      -8.685  17.672  68.507  1.00  0.00    -0.285 C  
HETATM   25  O   UNL     1      -7.673  18.394  68.516  1.00  0.00    -0.287 OA 
BRANCH  24  26
HETATM   26  C   UNL     1     -10.064  18.465  68.818  1.00  0.00    -0.363 C  
BRANCH  26  27
HETATM   27  O   UNL     1     -10.688  18.936  67.560  1.00  0.00    -0.450 OA 
BRANCH  27  28
HETATM   28  C   UNL     1     -10.400  20.057  66.831  1.00  0.00    -0.436 C  
HETATM   29  C   UNL     1     -10.996  20.128  65.434  1.00  0.00     0.089 C  
HETATM   30  O   UNL     1      -9.731  20.975  67.245  1.00  0.00    -0.412 OA 
ENDBRANCH  27  28
ENDBRANCH  26  27
ENDBRANCH  24  26
ENDBRANCH   4  24
TORSDOF 4
ENDMDL
MODEL       25
REMARK 921   NORMALIZED FREE ENERGY PREDICTED BY IDOCK:   -6.12 KCAL/MOL
REMARK 922        TOTAL FREE ENERGY PREDICTED BY IDOCK:   -7.13 KCAL/MOL
REMARK 923 INTER-LIGAND FREE ENERGY PREDICTED BY IDOCK:   -7.65 KCAL/MOL
REMARK 924 INTRA-LIGAND FREE ENERGY PREDICTED BY IDOCK:    0.52 KCAL/MOL
REMARK 927      BINDING AFFINITY PREDICTED BY RF-SCORE:    0.00 PKD
ROOT
HETATM    1  C   UNL     1     -10.531  10.177  65.611  1.00  0.00    -0.103 C  
HETATM    2  C   UNL     1      -9.683  10.194  64.478  1.00  0.00    -0.361 C  
HETATM    3  C   UNL     1      -9.078  10.685  65.761  1.00  0.00    -0.208 C  
HETATM    4  C   UNL     1     -10.027  10.236  67.560  1.00  0.00    -0.189 C  
HETATM    5  O   UNL     1     -10.601  17.728  66.761  1.00  0.00    -0.318 OA 
HETATM    6  O   UNL     1     -11.276   9.428  67.509  1.00  0.00    -0.423 OA 
HETATM    7  C   UNL     1      -9.127   9.556  66.781  1.00  0.00    -0.173 C  
HETATM    8  C   UNL     1      -8.841   8.098  66.606  1.00  0.00    -0.164 C  
HETATM    9  C   UNL     1      -7.967  10.868  67.534  1.00  0.00    -0.115 C  
HETATM   10  C   UNL     1     -10.227  16.872  65.970  1.00  0.00    -0.336 C  
HETATM   11  C   UNL     1     -11.133  16.062  65.137  1.00  0.00    -0.291 C  
HETATM   12  H   UNL     1     -11.710   9.224  68.330  1.00  0.00     0.000 HD 
HETATM   13  C   UNL     1      -8.789  12.342  67.747  1.00  0.00    -0.176 C  
HETATM   14  C   UNL     1      -8.786  16.384  65.934  1.00  0.00    -0.170 C  
HETATM   15  O   UNL     1      -8.628  12.928  68.820  1.00  0.00    -0.002 OA 
HETATM   16  C   UNL     1     -11.234  14.332  68.063  1.00  0.00    -0.300 C  
HETATM   17  C   UNL     1      -9.825  12.957  66.570  1.00  0.00    -0.254 C  
HETATM   18  C   UNL     1     -11.040  11.877  66.031  1.00  0.00    -0.369 C  
HETATM   19  C   UNL     1     -10.355  14.399  66.811  1.00  0.00    -0.273 C  
HETATM   20  C   UNL     1      -9.068  15.380  66.785  1.00  0.00    -0.286 C  
HETATM   21  C   UNL     1     -11.778  12.458  64.823  1.00  0.00    -0.425 C  
HETATM   22  C   UNL     1     -12.309  13.856  65.096  1.00  0.00    -0.471 C  
HETATM   23  C   UNL     1     -11.269  14.816  65.624  1.00  0.00    -0.343 C  
ENDROOT
BRANCH   4  24
HETATM   24  C   UNL     1      -9.523   9.463  69.131  1.00  0.00    -0.163 C  
HETATM   25  O   UNL     1      -8.581   8.655  69.212  1.00  0.00    -0.128 OA 
BRANCH  24  26
HETATM   26  C   UNL     1     -10.351   9.650  70.512  1.00  0.00    -0.295 C  
BRANCH  26  27
HETATM   27  O   UNL     1     -11.515   8.735  70.548  1.00  0.00    -0.262 OA 
BRANCH  27  28
HETATM   28  C   UNL     1     -11.639   7.535  71.192  1.00  0.00    -0.282 C  
HETATM   29  C   UNL     1     -11.154   7.487  72.632  1.00  0.00    -0.398 C  
HETATM   30  O   UNL     1     -12.121   6.547  70.688  1.00  0.00    -0.366 OA 
ENDBRANCH  27  28
ENDBRANCH  26  27
ENDBRANCH  24  26
ENDBRANCH   4  24
TORSDOF 4
ENDMDL
MODEL       26
REMARK 921   NORMALIZED FREE ENERGY PREDICTED BY IDOCK:   -6.07 KCAL/MOL
REMARK 922        TOTAL FREE ENERGY PREDICTED BY IDOCK:   -7.07 KCAL/MOL
REMARK 923 INTER-LIGAND FREE ENERGY PREDICTED BY IDOCK:   -7.69 KCAL/MOL
REMARK 924 INTRA-LIGAND FREE ENERGY PREDICTED BY IDOCK:    0.63 KCAL/MOL
REMARK 927      BINDING AFFINITY PREDICTED BY RF-SCORE:    0.00 PKD
ROOT
HETATM    1  C   UNL     1     -10.590  10.427  65.718  1.00  0.00    -0.100 C  
HETATM    2  C   UNL     1      -9.636  10.362  64.675  1.00  0.00    -0.360 C  
HETATM    3  C   UNL     1      -9.147  10.918  65.982  1.00  0.00    -0.208 C  
HETATM    4  C   UNL     1     -10.277  10.591  67.701  1.00  0.00    -0.197 C  
HETATM    5  O   UNL     1     -10.599  18.032  66.424  1.00  0.00    -0.339 OA 
HETATM    6  O   UNL     1     -11.534   9.804  67.573  1.00  0.00    -0.418 OA 
HETATM    7  C   UNL     1      -9.322   9.852  67.054  1.00  0.00    -0.175 C  
HETATM    8  C   UNL     1      -9.053   8.381  66.992  1.00  0.00    -0.171 C  
HETATM    9  C   UNL     1      -8.211  11.186  67.842  1.00  0.00    -0.121 C  
HETATM   10  C   UNL     1     -10.169  17.125  65.723  1.00  0.00    -0.219 C  
HETATM   11  C   UNL     1     -11.008  16.283  64.853  1.00  0.00    -0.321 C  
HETATM   12  H   UNL     1     -12.049   9.656  68.357  1.00  0.00     0.000 HD 
HETATM   13  C   UNL     1      -9.016  12.684  67.889  1.00  0.00    -0.189 C  
HETATM   14  C   UNL     1      -8.744  16.611  65.858  1.00  0.00    -0.101 C  
HETATM   15  O   UNL     1      -8.947  13.329  68.938  1.00  0.00     0.076 OA 
HETATM   16  C   UNL     1     -11.433  14.731  67.849  1.00  0.00    -0.361 C  
HETATM   17  C   UNL     1      -9.918  13.246  66.583  1.00  0.00    -0.272 C  
HETATM   18  C   UNL     1     -11.099  12.157  65.988  1.00  0.00    -0.354 C  
HETATM   19  C   UNL     1     -10.435  14.709  66.688  1.00  0.00    -0.278 C  
HETATM   20  C   UNL     1      -9.129  15.664  66.732  1.00  0.00    -0.281 C  
HETATM   21  C   UNL     1     -11.702  12.679  64.682  1.00  0.00    -0.411 C  
HETATM   22  C   UNL     1     -12.225  14.099  64.822  1.00  0.00    -0.457 C  
HETATM   23  C   UNL     1     -11.219  15.071  65.394  1.00  0.00    -0.356 C  
ENDROOT
BRANCH   4  24
HETATM   24  C   UNL     1      -9.946   9.904  69.355  1.00  0.00    -0.212 C  
HETATM   25  O   UNL     1      -8.854   9.397  69.667  1.00  0.00    -0.146 OA 
BRANCH  24  26
HETATM   26  C   UNL     1     -11.088   9.764  70.497  1.00  0.00    -0.321 C  
BRANCH  26  27
HETATM   27  O   UNL     1     -11.014   8.434  71.145  1.00  0.00    -0.231 OA 
BRANCH  27  28
HETATM   28  C   UNL     1     -11.798   7.334  70.928  1.00  0.00    -0.316 C  
HETATM   29  C   UNL     1     -11.407   6.444  69.759  1.00  0.00    -0.494 C  
HETATM   30  O   UNL     1     -12.745   7.036  71.618  1.00  0.00    -0.361 OA 
ENDBRANCH  27  28
ENDBRANCH  26  27
ENDBRANCH  24  26
ENDBRANCH   4  24
TORSDOF 4
ENDMDL
MODEL       27
REMARK 921   NORMALIZED FREE ENERGY PREDICTED BY IDOCK:   -6.02 KCAL/MOL
REMARK 922        TOTAL FREE ENERGY PREDICTED BY IDOCK:   -7.00 KCAL/MOL
REMARK 923 INTER-LIGAND FREE ENERGY PREDICTED BY IDOCK:   -7.28 KCAL/MOL
REMARK 924 INTRA-LIGAND FREE ENERGY PREDICTED BY IDOCK:    0.28 KCAL/MOL
REMARK 927      BINDING AFFINITY PREDICTED BY RF-SCORE:    0.00 PKD
ROOT
HETATM    1  C   UNL     1      -7.802  13.069  68.267  1.00  0.00    -0.143 C  
HETATM    2  C   UNL     1      -6.957  12.733  67.182  1.00  0.00     0.004 C  
HETATM    3  C   UNL     1      -8.433  12.661  66.914  1.00  0.00    -0.118 C  
HETATM    4  C   UNL     1      -9.743  13.605  68.230  1.00  0.00    -0.231 C  
HETATM    5  O   UNL     1     -11.078   6.205  68.976  1.00  0.00    -0.353 OA 
HETATM    6  O   UNL     1      -9.164  14.333  69.391  1.00  0.00    -0.377 OA 
HETATM    7  C   UNL     1      -9.033  14.041  67.141  1.00  0.00    -0.241 C  
HETATM    8  C   UNL     1      -8.508  15.387  66.750  1.00  0.00    -0.307 C  
HETATM    9  C   UNL     1     -10.390  13.040  66.254  1.00  0.00    -0.291 C  
HETATM   10  C   UNL     1     -10.180   6.794  68.387  1.00  0.00    -0.178 C  
HETATM   11  C   UNL     1      -8.957   7.299  69.035  1.00  0.00    -0.134 C  
HETATM   12  H   UNL     1      -9.761  14.764  69.992  1.00  0.00     0.000 HD 
HETATM   13  C   UNL     1     -10.828  11.678  67.175  1.00  0.00    -0.261 C  
HETATM   14  C   UNL     1     -10.342   7.281  66.955  1.00  0.00    -0.376 C  
HETATM   15  O   UNL     1     -12.033  11.442  67.295  1.00  0.00    -0.580 OA 
HETATM   16  C   UNL     1     -11.133   9.820  69.722  1.00  0.00    -0.272 C  
HETATM   17  C   UNL     1      -9.676  10.718  67.940  1.00  0.00    -0.181 C  
HETATM   18  C   UNL     1      -8.572  11.561  68.943  1.00  0.00     0.024 C  
HETATM   19  C   UNL     1     -10.200   9.402  68.582  1.00  0.00    -0.222 C  
HETATM   20  C   UNL     1     -10.768   8.486  67.375  1.00  0.00    -0.215 C  
HETATM   21  C   UNL     1      -7.452  10.629  69.410  1.00  0.00    -0.135 C  
HETATM   22  C   UNL     1      -7.992   9.366  70.059  1.00  0.00    -0.142 C  
HETATM   23  C   UNL     1      -9.009   8.629  69.217  1.00  0.00    -0.145 C  
ENDROOT
BRANCH   4  24
HETATM   24  C   UNL     1     -11.088  14.822  68.063  1.00  0.00    -0.286 C  
HETATM   25  O   UNL     1     -11.769  14.936  67.029  1.00  0.00    -0.348 OA 
BRANCH  24  26
HETATM   26  C   UNL     1     -11.405  15.946  69.188  1.00  0.00    -0.366 C  
BRANCH  26  27
HETATM   27  O   UNL     1     -10.344  16.980  69.202  1.00  0.00    -0.307 OA 
BRANCH  27  28
HETATM   28  C   UNL     1     -10.271  18.139  68.480  1.00  0.00    -0.384 C  
HETATM   29  C   UNL     1      -9.483  19.279  69.106  1.00  0.00    -0.306 C  
HETATM   30  O   UNL     1     -10.773  18.285  67.389  1.00  0.00    -0.412 OA 
ENDBRANCH  27  28
ENDBRANCH  26  27
ENDBRANCH  24  26
ENDBRANCH   4  24
TORSDOF 4
ENDMDL
MODEL       28
REMARK 921   NORMALIZED FREE ENERGY PREDICTED BY IDOCK:   -6.01 KCAL/MOL
REMARK 922        TOTAL FREE ENERGY PREDICTED BY IDOCK:   -6.99 KCAL/MOL
REMARK 923 INTER-LIGAND FREE ENERGY PREDICTED BY IDOCK:   -7.18 KCAL/MOL
REMARK 924 INTRA-LIGAND FREE ENERGY PREDICTED BY IDOCK:    0.19 KCAL/MOL
REMARK 927      BINDING AFFINITY PREDICTED BY RF-SCORE:    0.00 PKD
ROOT
HETATM    1  C   UNL     1     -11.468  10.806  68.621  1.00  0.00    -0.365 C  
HETATM    2  C   UNL     1     -11.088  10.587  69.967  1.00  0.00    -0.376 C  
HETATM    3  C   UNL     1     -10.078  11.286  69.102  1.00  0.00    -0.093 C  
HETATM    4  C   UNL     1     -10.699  12.111  67.294  1.00  0.00    -0.229 C  
HETATM    5  O   UNL     1      -6.056   6.437  65.464  1.00  0.00    -0.028 OA 
HETATM    6  O   UNL     1     -12.135  11.988  66.925  1.00  0.00    -0.608 OA 
HETATM    7  C   UNL     1     -10.697  12.576  68.583  1.00  0.00    -0.263 C  
HETATM    8  C   UNL     1     -11.543  13.583  69.296  1.00  0.00    -0.369 C  
HETATM    9  C   UNL     1      -8.836  12.715  68.194  1.00  0.00    -0.194 C  
HETATM   10  C   UNL     1      -6.544   6.746  66.543  1.00  0.00    -0.044 C  
HETATM   11  C   UNL     1      -7.896   6.360  66.982  1.00  0.00    -0.104 C  
HETATM   12  H   UNL     1     -12.418  12.364  66.099  1.00  0.00     0.000 HD 
HETATM   13  C   UNL     1      -8.343  11.449  67.170  1.00  0.00    -0.155 C  
HETATM   14  C   UNL     1      -5.890   7.771  67.457  1.00  0.00    -0.037 C  
HETATM   15  O   UNL     1      -7.616  11.744  66.217  1.00  0.00     0.064 OA 
HETATM   16  C   UNL     1      -8.597   9.086  65.075  1.00  0.00    -0.207 C  
HETATM   17  C   UNL     1      -8.864   9.865  67.405  1.00  0.00    -0.137 C  
HETATM   18  C   UNL     1     -10.561   9.665  67.526  1.00  0.00    -0.339 C  
HETATM   19  C   UNL     1      -8.184   8.783  66.518  1.00  0.00    -0.111 C  
HETATM   20  C   UNL     1      -6.616   8.768  66.918  1.00  0.00    -0.061 C  
HETATM   21  C   UNL     1     -10.904   8.235  67.949  1.00  0.00    -0.037 C  
HETATM   22  C   UNL     1     -10.250   7.200  67.049  1.00  0.00    -0.339 C  
HETATM   23  C   UNL     1      -8.760   7.385  66.881  1.00  0.00    -0.126 C  
ENDROOT
BRANCH   4  24
HETATM   24  C   UNL     1     -10.579  13.753  66.513  1.00  0.00    -0.279 C  
HETATM   25  O   UNL     1     -10.722  14.813  67.148  1.00  0.00    -0.287 OA 
BRANCH  24  26
HETATM   26  C   UNL     1     -10.427  13.960  64.912  1.00  0.00    -0.426 C  
BRANCH  26  27
HETATM   27  O   UNL     1     -11.666  13.543  64.215  1.00  0.00    -0.386 OA 
BRANCH  27  28
HETATM   28  C   UNL     1     -11.940  12.354  63.597  1.00  0.00    -0.539 C  
HETATM   29  C   UNL     1     -10.770  11.401  63.414  1.00  0.00    -0.405 C  
HETATM   30  O   UNL     1     -13.042  12.029  63.222  1.00  0.00    -0.701 OA 
ENDBRANCH  27  28
ENDBRANCH  26  27
ENDBRANCH  24  26
ENDBRANCH   4  24
TORSDOF 4
ENDMDL
MODEL       29
REMARK 921   NORMALIZED FREE ENERGY PREDICTED BY IDOCK:   -5.92 KCAL/MOL
REMARK 922        TOTAL FREE ENERGY PREDICTED BY IDOCK:   -6.88 KCAL/MOL
REMARK 923 INTER-LIGAND FREE ENERGY PREDICTED BY IDOCK:   -7.25 KCAL/MOL
REMARK 924 INTRA-LIGAND FREE ENERGY PREDICTED BY IDOCK:    0.37 KCAL/MOL
REMARK 927      BINDING AFFINITY PREDICTED BY RF-SCORE:    0.00 PKD
ROOT
HETATM    1  C   UNL     1      -7.652  13.652  67.498  1.00  0.00    -0.180 C  
HETATM    2  C   UNL     1      -7.083  13.789  68.787  1.00  0.00    -0.106 C  
HETATM    3  C   UNL     1      -8.567  13.999  68.697  1.00  0.00    -0.100 C  
HETATM    4  C   UNL     1      -9.578  13.333  67.002  1.00  0.00    -0.243 C  
HETATM    5  O   UNL     1     -10.053  20.873  66.836  1.00  0.00    -0.192 OA 
HETATM    6  O   UNL     1      -8.789  12.658  65.937  1.00  0.00    -0.394 OA 
HETATM    7  C   UNL     1      -9.204  12.721  68.170  1.00  0.00    -0.212 C  
HETATM    8  C   UNL     1      -8.911  11.295  68.514  1.00  0.00    -0.159 C  
HETATM    9  C   UNL     1     -10.652  13.780  68.816  1.00  0.00    -0.253 C  
HETATM   10  C   UNL     1      -9.385  20.136  67.550  1.00  0.00    -0.382 C  
HETATM   11  C   UNL     1      -8.086  19.561  67.162  1.00  0.00    -0.301 C  
HETATM   12  H   UNL     1      -9.250  12.354  65.163  1.00  0.00     0.000 HD 
HETATM   13  C   UNL     1     -10.728  15.262  67.984  1.00  0.00    -0.268 C  
HETATM   14  C   UNL     1      -9.943  19.538  68.833  1.00  0.00    -0.529 C  
HETATM   15  O   UNL     1     -11.839  15.640  67.605  1.00  0.00    -0.104 OA 
HETATM   16  C   UNL     1     -10.223  17.373  65.676  1.00  0.00    -0.117 C  
HETATM   17  C   UNL     1      -9.343  16.156  67.638  1.00  0.00    -0.214 C  
HETATM   18  C   UNL     1      -8.097  15.293  66.839  1.00  0.00    -0.224 C  
HETATM   19  C   UNL     1      -9.576  17.576  67.049  1.00  0.00    -0.268 C  
HETATM   20  C   UNL     1     -10.350  18.432  68.183  1.00  0.00    -0.393 C  
HETATM   21  C   UNL     1      -6.821  16.134  66.770  1.00  0.00    -0.049 C  
HETATM   22  C   UNL     1      -7.072  17.505  66.164  1.00  0.00    -0.341 C  
HETATM   23  C   UNL     1      -8.202  18.267  66.816  1.00  0.00    -0.269 C  
ENDROOT
BRANCH   4  24
HETATM   24  C   UNL     1     -11.020  12.263  66.693  1.00  0.00    -0.278 C  
HETATM   25  O   UNL     1     -11.786  11.889  67.598  1.00  0.00    -0.534 OA 
BRANCH  24  26
HETATM   26  C   UNL     1     -11.330  11.596  65.249  1.00  0.00    -0.154 C  
BRANCH  26  27
HETATM   27  O   UNL     1     -10.271  10.626  64.886  1.00  0.00    -0.317 OA 
BRANCH  27  28
HETATM   28  C   UNL     1      -9.843   9.529  65.581  1.00  0.00    -0.272 C  
HETATM   29  C   UNL     1      -8.444   9.028  65.263  1.00  0.00    -0.181 C  
HETATM   30  O   UNL     1     -10.502   8.970  66.428  1.00  0.00    -0.215 OA 
ENDBRANCH  27  28
ENDBRANCH  26  27
ENDBRANCH  24  26
ENDBRANCH   4  24
TORSDOF 4
ENDMDL
MODEL       30
REMARK 921   NORMALIZED FREE ENERGY PREDICTED BY IDOCK:   -5.91 KCAL/MOL
REMARK 922        TOTAL FREE ENERGY PREDICTED BY IDOCK:   -6.87 KCAL/MOL
REMARK 923 INTER-LIGAND FREE ENERGY PREDICTED BY IDOCK:   -7.29 KCAL/MOL
REMARK 924 INTRA-LIGAND FREE ENERGY PREDICTED BY IDOCK:    0.42 KCAL/MOL
REMARK 927      BINDING AFFINITY PREDICTED BY RF-SCORE:    0.00 PKD
ROOT
HETATM    1  C   UNL     1      -7.569  13.033  68.503  1.00  0.00    -0.121 C  
HETATM    2  C   UNL     1      -6.669  12.629  67.488  1.00  0.00    -0.156 C  
HETATM    3  C   UNL     1      -8.122  12.650  67.110  1.00  0.00    -0.141 C  
HETATM    4  C   UNL     1      -9.461  13.696  68.315  1.00  0.00    -0.213 C  
HETATM    5  O   UNL     1     -11.339   6.410  69.015  1.00  0.00    -0.355 OA 
HETATM    6  O   UNL     1      -8.924  14.398  69.512  1.00  0.00    -0.363 OA 
HETATM    7  C   UNL     1      -8.644  14.070  67.280  1.00  0.00    -0.228 C  
HETATM    8  C   UNL     1      -8.003  15.373  66.920  1.00  0.00    -0.230 C  
HETATM    9  C   UNL     1      -9.994  13.149  66.300  1.00  0.00    -0.285 C  
HETATM   10  C   UNL     1     -10.363   6.931  68.491  1.00  0.00    -0.186 C  
HETATM   11  C   UNL     1      -9.161   7.362  69.226  1.00  0.00    -0.135 C  
HETATM   12  H   UNL     1      -9.535  14.875  70.062  1.00  0.00     0.000 HD 
HETATM   13  C   UNL     1     -10.591  11.831  67.196  1.00  0.00    -0.231 C  
HETATM   14  C   UNL     1     -10.384   7.409  67.047  1.00  0.00    -0.384 C  
HETATM   15  O   UNL     1     -11.814  11.677  67.227  1.00  0.00    -0.609 OA 
HETATM   16  C   UNL     1     -11.209  10.030  69.727  1.00  0.00    -0.307 C  
HETATM   17  C   UNL     1      -9.566  10.807  68.054  1.00  0.00    -0.172 C  
HETATM   18  C   UNL     1      -8.486  11.588  69.130  1.00  0.00     0.214 C  
HETATM   19  C   UNL     1     -10.223   9.537  68.664  1.00  0.00    -0.215 C  
HETATM   20  C   UNL     1     -10.758   8.645  67.424  1.00  0.00    -0.212 C  
HETATM   21  C   UNL     1      -7.469  10.591  69.688  1.00  0.00    -0.145 C  
HETATM   22  C   UNL     1      -8.140   9.374  70.304  1.00  0.00    -0.180 C  
HETATM   23  C   UNL     1      -9.137   8.695  69.393  1.00  0.00    -0.149 C  
ENDROOT
BRANCH   4  24
HETATM   24  C   UNL     1     -10.706  14.997  68.038  1.00  0.00    -0.262 C  
HETATM   25  O   UNL     1     -10.440  16.074  67.477  1.00  0.00    -0.284 OA 
BRANCH  24  26
HETATM   26  C   UNL     1     -12.213  14.916  68.630  1.00  0.00    -0.066 C  
BRANCH  26  27
HETATM   27  O   UNL     1     -12.361  15.815  69.799  1.00  0.00    -0.319 OA 
BRANCH  27  28
HETATM   28  C   UNL     1     -12.859  15.527  71.039  1.00  0.00    -0.482 C  
HETATM   29  C   UNL     1     -11.838  15.241  72.129  1.00  0.00    -0.526 C  
HETATM   30  O   UNL     1     -14.039  15.514  71.305  1.00  0.00    -0.548 OA 
ENDBRANCH  27  28
ENDBRANCH  26  27
ENDBRANCH  24  26
ENDBRANCH   4  24
TORSDOF 4
ENDMDL
MODEL       31
REMARK 921   NORMALIZED FREE ENERGY PREDICTED BY IDOCK:   -5.90 KCAL/MOL
REMARK 922        TOTAL FREE ENERGY PREDICTED BY IDOCK:   -6.86 KCAL/MOL
REMARK 923 INTER-LIGAND FREE ENERGY PREDICTED BY IDOCK:   -7.19 KCAL/MOL
REMARK 924 INTRA-LIGAND FREE ENERGY PREDICTED BY IDOCK:    0.33 KCAL/MOL
REMARK 927      BINDING AFFINITY PREDICTED BY RF-SCORE:    0.00 PKD
ROOT
HETATM    1  C   UNL     1      -9.015  10.885  65.676  1.00  0.00    -0.209 C  
HETATM    2  C   UNL     1      -9.798  10.105  64.792  1.00  0.00    -0.382 C  
HETATM    3  C   UNL     1     -10.513  10.658  65.991  1.00  0.00    -0.250 C  
HETATM    4  C   UNL     1      -9.629  12.208  67.065  1.00  0.00    -0.205 C  
HETATM    5  O   UNL     1      -9.650   6.254  71.717  1.00  0.00    -0.155 OA 
HETATM    6  O   UNL     1      -8.315  12.725  66.594  1.00  0.00    -0.405 OA 
HETATM    7  C   UNL     1     -10.424  12.176  65.949  1.00  0.00    -0.288 C  
HETATM    8  C   UNL     1     -10.575  13.110  64.789  1.00  0.00    -0.390 C  
HETATM    9  C   UNL     1     -11.730  11.783  67.280  1.00  0.00    -0.293 C  
HETATM   10  C   UNL     1      -9.906   6.328  70.522  1.00  0.00    -0.177 C  
HETATM   11  C   UNL     1      -8.890   6.311  69.455  1.00  0.00    -0.135 C  
HETATM   12  H   UNL     1      -7.912  13.432  67.084  1.00  0.00     0.000 HD 
HETATM   13  C   UNL     1     -11.049  10.852  68.530  1.00  0.00    -0.256 C  
HETATM   14  C   UNL     1     -11.295   6.687  70.018  1.00  0.00    -0.440 C  
HETATM   15  O   UNL     1     -11.318  11.180  69.689  1.00  0.00    -0.254 OA 
HETATM   16  C   UNL     1      -8.804   9.585  70.371  1.00  0.00    -0.279 C  
HETATM   17  C   UNL     1     -10.006   9.569  68.212  1.00  0.00    -0.184 C  
HETATM   18  C   UNL     1      -8.676   9.943  67.200  1.00  0.00    -0.136 C  
HETATM   19  C   UNL     1      -9.615   8.688  69.432  1.00  0.00    -0.166 C  
HETATM   20  C   UNL     1     -10.977   7.993  69.964  1.00  0.00    -0.202 C  
HETATM   21  C   UNL     1      -7.925   8.669  66.808  1.00  0.00    -0.094 C  
HETATM   22  C   UNL     1      -7.530   7.842  68.020  1.00  0.00    -0.108 C  
HETATM   23  C   UNL     1      -8.676   7.542  68.959  1.00  0.00    -0.136 C  
ENDROOT
BRANCH   4  24
HETATM   24  C   UNL     1     -10.152  13.867  67.609  1.00  0.00    -0.241 C  
HETATM   25  O   UNL     1     -10.379  14.796  66.813  1.00  0.00    -0.262 OA 
BRANCH  24  26
HETATM   26  C   UNL     1     -10.217  14.304  69.168  1.00  0.00    -0.089 C  
BRANCH  26  27
HETATM   27  O   UNL     1     -11.623  14.494  69.596  1.00  0.00    -0.268 OA 
BRANCH  27  28
HETATM   28  C   UNL     1     -12.149  14.424  70.856  1.00  0.00    -0.344 C  
HETATM   29  C   UNL     1     -11.657  15.461  71.853  1.00  0.00    -0.521 C  
HETATM   30  O   UNL     1     -12.980  13.613  71.195  1.00  0.00    -0.321 OA 
ENDBRANCH  27  28
ENDBRANCH  26  27
ENDBRANCH  24  26
ENDBRANCH   4  24
TORSDOF 4
ENDMDL
MODEL       32
REMARK 921   NORMALIZED FREE ENERGY PREDICTED BY IDOCK:   -5.87 KCAL/MOL
REMARK 922        TOTAL FREE ENERGY PREDICTED BY IDOCK:   -6.82 KCAL/MOL
REMARK 923 INTER-LIGAND FREE ENERGY PREDICTED BY IDOCK:   -7.19 KCAL/MOL
REMARK 924 INTRA-LIGAND FREE ENERGY PREDICTED BY IDOCK:    0.37 KCAL/MOL
REMARK 927      BINDING AFFINITY PREDICTED BY RF-SCORE:    0.00 PKD
ROOT
HETATM    1  C   UNL     1      -9.118  11.010  65.778  1.00  0.00    -0.219 C  
HETATM    2  C   UNL     1      -9.939  10.275  64.890  1.00  0.00    -0.393 C  
HETATM    3  C   UNL     1     -10.610  10.798  66.127  1.00  0.00    -0.241 C  
HETATM    4  C   UNL     1      -9.668  12.295  67.227  1.00  0.00    -0.195 C  
HETATM    5  O   UNL     1      -9.670   6.186  71.674  1.00  0.00    -0.159 OA 
HETATM    6  O   UNL     1      -8.358  12.805  66.737  1.00  0.00    -0.378 OA 
HETATM    7  C   UNL     1     -10.494  12.316  66.133  1.00  0.00    -0.270 C  
HETATM    8  C   UNL     1     -10.660  13.291  65.011  1.00  0.00    -0.360 C  
HETATM    9  C   UNL     1     -11.770  11.900  67.487  1.00  0.00    -0.335 C  
HETATM   10  C   UNL     1      -9.958   6.306  70.490  1.00  0.00    -0.186 C  
HETATM   11  C   UNL     1      -8.973   6.308  69.395  1.00  0.00    -0.126 C  
HETATM   12  H   UNL     1      -7.928  13.488  67.239  1.00  0.00     0.000 HD 
HETATM   13  C   UNL     1     -11.072  10.915  68.685  1.00  0.00    -0.252 C  
HETATM   14  C   UNL     1     -11.354   6.706  70.038  1.00  0.00    -0.440 C  
HETATM   15  O   UNL     1     -11.303  11.208  69.861  1.00  0.00    -0.273 OA 
HETATM   16  C   UNL     1      -8.800   9.547  70.418  1.00  0.00    -0.279 C  
HETATM   17  C   UNL     1     -10.062   9.626  68.295  1.00  0.00    -0.203 C  
HETATM   18  C   UNL     1      -8.754  10.010  67.258  1.00  0.00    -0.127 C  
HETATM   19  C   UNL     1      -9.654   8.696  69.473  1.00  0.00    -0.170 C  
HETATM   20  C   UNL     1     -11.013   8.008  70.019  1.00  0.00    -0.202 C  
HETATM   21  C   UNL     1      -8.038   8.737  66.802  1.00  0.00    -0.104 C  
HETATM   22  C   UNL     1      -7.625   7.863  67.974  1.00  0.00    -0.113 C  
HETATM   23  C   UNL     1      -8.750   7.551  68.934  1.00  0.00    -0.132 C  
ENDROOT
BRANCH   4  24
HETATM   24  C   UNL     1     -10.145  13.943  67.841  1.00  0.00    -0.242 C  
HETATM   25  O   UNL     1     -11.330  14.293  67.981  1.00  0.00    -0.268 OA 
BRANCH  24  26
HETATM   26  C   UNL     1      -9.072  15.129  68.110  1.00  0.00    -0.176 C  
BRANCH  26  27
HETATM   27  O   UNL     1      -8.577  15.682  66.828  1.00  0.00    -0.226 OA 
BRANCH  27  28
HETATM   28  C   UNL     1      -8.909  16.862  66.222  1.00  0.00    -0.279 C  
HETATM   29  C   UNL     1      -8.001  18.048  66.505  1.00  0.00    -0.294 C  
HETATM   30  O   UNL     1      -9.852  16.993  65.477  1.00  0.00    -0.551 OA 
ENDBRANCH  27  28
ENDBRANCH  26  27
ENDBRANCH  24  26
ENDBRANCH   4  24
TORSDOF 4
ENDMDL
MODEL       33
REMARK 921   NORMALIZED FREE ENERGY PREDICTED BY IDOCK:   -5.84 KCAL/MOL
REMARK 922        TOTAL FREE ENERGY PREDICTED BY IDOCK:   -6.79 KCAL/MOL
REMARK 923 INTER-LIGAND FREE ENERGY PREDICTED BY IDOCK:   -7.07 KCAL/MOL
REMARK 924 INTRA-LIGAND FREE ENERGY PREDICTED BY IDOCK:    0.29 KCAL/MOL
REMARK 927      BINDING AFFINITY PREDICTED BY RF-SCORE:    0.00 PKD
ROOT
HETATM    1  C   UNL     1      -7.727  12.308  67.749  1.00  0.00    -0.139 C  
HETATM    2  C   UNL     1      -7.116  11.891  68.957  1.00  0.00    -0.092 C  
HETATM    3  C   UNL     1      -8.469  11.308  68.666  1.00  0.00    -0.143 C  
HETATM    4  C   UNL     1      -9.225  11.432  66.729  1.00  0.00    -0.177 C  
HETATM    5  O   UNL     1     -13.717  15.792  70.961  1.00  0.00    -0.539 OA 
HETATM    6  O   UNL     1      -8.386  12.089  65.692  1.00  0.00    -0.168 OA 
HETATM    7  C   UNL     1      -8.392  10.540  67.354  1.00  0.00    -0.121 C  
HETATM    8  C   UNL     1      -7.322   9.628  66.842  1.00  0.00    -0.091 C  
HETATM    9  C   UNL     1     -10.051  10.030  68.142  1.00  0.00    -0.186 C  
HETATM   10  C   UNL     1     -12.650  15.257  71.229  1.00  0.00    -0.383 C  
HETATM   11  C   UNL     1     -11.332  15.821  70.892  1.00  0.00    -0.426 C  
HETATM   12  H   UNL     1      -8.731  12.146  64.808  1.00  0.00     0.000 HD 
HETATM   13  C   UNL     1     -11.053  11.388  68.362  1.00  0.00    -0.242 C  
HETATM   14  C   UNL     1     -12.574  13.824  71.734  1.00  0.00    -0.319 C  
HETATM   15  O   UNL     1     -12.237  11.274  68.035  1.00  0.00    -0.621 OA 
HETATM   16  C   UNL     1     -12.160  14.327  67.951  1.00  0.00    -0.296 C  
HETATM   17  C   UNL     1     -10.451  12.847  68.948  1.00  0.00    -0.109 C  
HETATM   18  C   UNL     1      -9.090  13.464  68.110  1.00  0.00    -0.207 C  
HETATM   19  C   UNL     1     -11.507  13.938  69.281  1.00  0.00    -0.348 C  
HETATM   20  C   UNL     1     -12.420  13.353  70.483  1.00  0.00    -0.350 C  
HETATM   21  C   UNL     1      -8.502  14.667  68.853  1.00  0.00    -0.136 C  
HETATM   22  C   UNL     1      -9.551  15.729  69.140  1.00  0.00    -0.255 C  
HETATM   23  C   UNL     1     -10.786  15.201  69.831  1.00  0.00    -0.287 C  
ENDROOT
BRANCH   4  24
HETATM   24  C   UNL     1      -9.888  10.239  65.521  1.00  0.00    -0.282 C  
HETATM   25  O   UNL     1      -9.986   9.023  65.760  1.00  0.00    -0.241 OA 
BRANCH  24  26
HETATM   26  C   UNL     1     -10.259  10.644  63.996  1.00  0.00    -0.264 C  
BRANCH  26  27
HETATM   27  O   UNL     1      -9.028  10.826  63.192  1.00  0.00    -0.200 OA 
BRANCH  27  28
HETATM   28  C   UNL     1      -8.001   9.945  62.992  1.00  0.00    -0.142 C  
HETATM   29  C   UNL     1      -8.384   8.565  62.479  1.00  0.00    -0.182 C  
HETATM   30  O   UNL     1      -6.837  10.214  63.177  1.00  0.00    -0.128 OA 
ENDBRANCH  27  28
ENDBRANCH  26  27
ENDBRANCH  24  26
ENDBRANCH   4  24
TORSDOF 4
ENDMDL
MODEL       34
REMARK 921   NORMALIZED FREE ENERGY PREDICTED BY IDOCK:   -5.83 KCAL/MOL
REMARK 922        TOTAL FREE ENERGY PREDICTED BY IDOCK:   -6.77 KCAL/MOL
REMARK 923 INTER-LIGAND FREE ENERGY PREDICTED BY IDOCK:   -7.63 KCAL/MOL
REMARK 924 INTRA-LIGAND FREE ENERGY PREDICTED BY IDOCK:    0.86 KCAL/MOL
REMARK 927      BINDING AFFINITY PREDICTED BY RF-SCORE:    0.00 PKD
ROOT
HETATM    1  C   UNL     1     -11.940  14.738  69.791  1.00  0.00    -0.368 C  
HETATM    2  C   UNL     1     -11.250  15.147  70.957  1.00  0.00    -0.328 C  
HETATM    3  C   UNL     1     -10.398  14.621  69.838  1.00  0.00     0.109 C  
HETATM    4  C   UNL     1     -11.218  14.479  67.929  1.00  0.00    -0.295 C  
HETATM    5  O   UNL     1      -9.978   7.365  70.156  1.00  0.00    -0.183 OA 
HETATM    6  O   UNL     1     -12.627  14.917  67.738  1.00  0.00    -0.289 OA 
HETATM    7  C   UNL     1     -10.613  15.499  68.614  1.00  0.00    -0.243 C  
HETATM    8  C   UNL     1     -10.724  16.988  68.515  1.00  0.00    -0.352 C  
HETATM    9  C   UNL     1      -9.082  14.437  68.212  1.00  0.00    -0.193 C  
HETATM   10  C   UNL     1      -9.924   8.414  70.785  1.00  0.00    -0.189 C  
HETATM   11  C   UNL     1     -11.094   9.084  71.380  1.00  0.00    -0.399 C  
HETATM   12  H   UNL     1     -13.001  14.852  66.867  1.00  0.00     0.000 HD 
HETATM   13  C   UNL     1      -9.477  12.782  68.243  1.00  0.00    -0.203 C  
HETATM   14  C   UNL     1      -8.667   9.269  70.816  1.00  0.00    -0.272 C  
HETATM   15  O   UNL     1      -9.053  12.083  67.319  1.00  0.00    -0.168 OA 
HETATM   16  C   UNL     1     -11.291  10.186  68.169  1.00  0.00    -0.171 C  
HETATM   17  C   UNL     1     -10.453  12.127  69.448  1.00  0.00     0.244 C  
HETATM   18  C   UNL     1     -11.954  12.918  69.684  1.00  0.00    -0.358 C  
HETATM   19  C   UNL     1     -10.572  10.576  69.464  1.00  0.00    -0.278 C  
HETATM   20  C   UNL     1      -9.092   9.996  69.768  1.00  0.00    -0.219 C  
HETATM   21  C   UNL     1     -12.656  12.379  70.932  1.00  0.00    -0.337 C  
HETATM   22  C   UNL     1     -12.783  10.865  70.907  1.00  0.00    -0.464 C  
HETATM   23  C   UNL     1     -11.482  10.142  70.648  1.00  0.00    -0.432 C  
ENDROOT
BRANCH   4  24
HETATM   24  C   UNL     1     -10.747  15.073  66.272  1.00  0.00    -0.322 C  
HETATM   25  O   UNL     1     -11.558  15.161  65.333  1.00  0.00    -0.288 OA 
BRANCH  24  26
HETATM   26  C   UNL     1      -9.214  15.390  65.851  1.00  0.00    -0.239 C  
BRANCH  26  27
HETATM   27  O   UNL     1      -8.983  16.852  65.792  1.00  0.00    -0.524 OA 
BRANCH  27  28
HETATM   28  C   UNL     1      -7.815  17.540  65.969  1.00  0.00    -0.178 C  
HETATM   29  C   UNL     1      -6.819  16.942  66.950  1.00  0.00    -0.250 C  
HETATM   30  O   UNL     1      -7.539  18.560  65.381  1.00  0.00    -0.444 OA 
ENDBRANCH  27  28
ENDBRANCH  26  27
ENDBRANCH  24  26
ENDBRANCH   4  24
TORSDOF 4
ENDMDL
MODEL       35
REMARK 921   NORMALIZED FREE ENERGY PREDICTED BY IDOCK:   -5.83 KCAL/MOL
REMARK 922        TOTAL FREE ENERGY PREDICTED BY IDOCK:   -6.77 KCAL/MOL
REMARK 923 INTER-LIGAND FREE ENERGY PREDICTED BY IDOCK:   -7.20 KCAL/MOL
REMARK 924 INTRA-LIGAND FREE ENERGY PREDICTED BY IDOCK:    0.44 KCAL/MOL
REMARK 927      BINDING AFFINITY PREDICTED BY RF-SCORE:    0.00 PKD
ROOT
HETATM    1  C   UNL     1     -11.057  14.155  66.007  1.00  0.00    -0.314 C  
HETATM    2  C   UNL     1     -12.242  13.851  66.719  1.00  0.00    -0.438 C  
HETATM    3  C   UNL     1     -10.977  13.878  67.527  1.00  0.00    -0.288 C  
HETATM    4  C   UNL     1      -9.289  14.798  66.724  1.00  0.00    -0.249 C  
HETATM    5  O   UNL     1      -7.594   7.448  67.172  1.00  0.00    -0.102 OA 
HETATM    6  O   UNL     1      -9.402  15.409  65.373  1.00  0.00    -0.302 OA 
HETATM    7  C   UNL     1     -10.369  15.270  67.424  1.00  0.00    -0.256 C  
HETATM    8  C   UNL     1     -11.034  16.609  67.473  1.00  0.00    -0.147 C  
HETATM    9  C   UNL     1      -9.425  14.409  68.839  1.00  0.00    -0.107 C  
HETATM   10  C   UNL     1      -8.661   8.026  67.328  1.00  0.00    -0.131 C  
HETATM   11  C   UNL     1      -9.560   8.417  66.227  1.00  0.00    -0.286 C  
HETATM   12  H   UNL     1      -8.631  15.829  65.006  1.00  0.00     0.000 HD 
HETATM   13  C   UNL     1      -8.638  13.012  68.271  1.00  0.00    -0.167 C  
HETATM   14  C   UNL     1      -9.066   8.621  68.668  1.00  0.00    -0.138 C  
HETATM   15  O   UNL     1      -7.472  12.835  68.633  1.00  0.00    -0.116 OA 
HETATM   16  C   UNL     1      -7.346  10.998  66.194  1.00  0.00    -0.060 C  
HETATM   17  C   UNL     1      -9.391  11.939  67.214  1.00  0.00    -0.177 C  
HETATM   18  C   UNL     1     -10.052  12.647  65.802  1.00  0.00    -0.284 C  
HETATM   19  C   UNL     1      -8.631  10.611  66.931  1.00  0.00    -0.126 C  
HETATM   20  C   UNL     1      -8.542   9.815  68.337  1.00  0.00    -0.119 C  
HETATM   21  C   UNL     1     -10.890  11.626  65.029  1.00  0.00    -0.346 C  
HETATM   22  C   UNL     1     -10.114  10.351  64.743  1.00  0.00    -0.387 C  
HETATM   23  C   UNL     1      -9.474   9.732  65.964  1.00  0.00    -0.269 C  
ENDROOT
BRANCH   4  24
HETATM   24  C   UNL     1      -8.136  16.095  67.279  1.00  0.00    -0.175 C  
HETATM   25  O   UNL     1      -7.789  16.225  68.466  1.00  0.00    -0.172 OA 
BRANCH  24  26
HETATM   26  C   UNL     1      -7.591  17.268  66.301  1.00  0.00    -0.325 C  
BRANCH  26  27
HETATM   27  O   UNL     1      -8.658  18.262  66.039  1.00  0.00    -0.494 OA 
BRANCH  27  28
HETATM   28  C   UNL     1      -8.688  19.589  66.366  1.00  0.00    -0.361 C  
HETATM   29  C   UNL     1     -10.023  20.139  66.843  1.00  0.00    -0.600 C  
HETATM   30  O   UNL     1      -7.724  20.317  66.316  1.00  0.00    -0.267 OA 
ENDBRANCH  27  28
ENDBRANCH  26  27
ENDBRANCH  24  26
ENDBRANCH   4  24
TORSDOF 4
ENDMDL
MODEL       36
REMARK 921   NORMALIZED FREE ENERGY PREDICTED BY IDOCK:   -5.82 KCAL/MOL
REMARK 922        TOTAL FREE ENERGY PREDICTED BY IDOCK:   -6.76 KCAL/MOL
REMARK 923 INTER-LIGAND FREE ENERGY PREDICTED BY IDOCK:   -6.96 KCAL/MOL
REMARK 924 INTRA-LIGAND FREE ENERGY PREDICTED BY IDOCK:    0.20 KCAL/MOL
REMARK 927      BINDING AFFINITY PREDICTED BY RF-SCORE:    0.00 PKD
ROOT
HETATM    1  C   UNL     1     -11.383  10.216  70.784  1.00  0.00    -0.436 C  
HETATM    2  C   UNL     1     -12.755   9.876  70.709  1.00  0.00    -0.303 C  
HETATM    3  C   UNL     1     -11.892   9.383  69.584  1.00  0.00     0.397 C  
HETATM    4  C   UNL     1      -9.824   9.367  69.833  1.00  0.00    -0.210 C  
HETATM    5  O   UNL     1     -11.198  14.511  64.471  1.00  0.00    -0.360 OA 
HETATM    6  O   UNL     1      -9.272   9.840  71.132  1.00  0.00    -0.316 OA 
HETATM    7  C   UNL     1     -10.813   8.479  70.164  1.00  0.00    -0.238 C  
HETATM    8  C   UNL     1     -10.916   7.430  71.227  1.00  0.00    -0.263 C  
HETATM    9  C   UNL     1     -10.751   8.196  68.280  1.00  0.00    -0.073 C  
HETATM   10  C   UNL     1     -11.967  13.918  65.217  1.00  0.00    -0.375 C  
HETATM   11  C   UNL     1     -12.262  14.330  66.600  1.00  0.00    -0.411 C  
HETATM   12  H   UNL     1      -8.328   9.833  71.245  1.00  0.00     0.000 HD 
HETATM   13  C   UNL     1     -10.400   9.649  67.468  1.00  0.00    -0.241 C  
HETATM   14  C   UNL     1     -12.522  12.544  64.872  1.00  0.00    -0.524 C  
HETATM   15  O   UNL     1      -9.559   9.603  66.567  1.00  0.00    -0.171 OA 
HETATM   16  C   UNL     1      -9.362  12.613  67.050  1.00  0.00    -0.220 C  
HETATM   17  C   UNL     1     -11.123  11.105  67.906  1.00  0.00    -0.331 C  
HETATM   18  C   UNL     1     -10.997  11.514  69.564  1.00  0.00    -0.186 C  
HETATM   19  C   UNL     1     -10.861  12.311  66.959  1.00  0.00    -0.288 C  
HETATM   20  C   UNL     1     -11.518  11.934  65.529  1.00  0.00    -0.311 C  
HETATM   21  C   UNL     1     -11.864  12.733  69.885  1.00  0.00    -0.371 C  
HETATM   22  C   UNL     1     -11.566  13.905  68.963  1.00  0.00    -0.351 C  
HETATM   23  C   UNL     1     -11.619  13.559  67.493  1.00  0.00    -0.385 C  
ENDROOT
BRANCH   4  24
HETATM   24  C   UNL     1      -8.510   8.116  69.664  1.00  0.00    -0.126 C  
HETATM   25  O   UNL     1      -8.584   7.167  68.864  1.00  0.00    -0.128 OA 
BRANCH  24  26
HETATM   26  C   UNL     1      -7.218   8.056  70.641  1.00  0.00    -0.052 C  
BRANCH  26  27
HETATM   27  O   UNL     1      -7.477   7.156  71.789  1.00  0.00    -0.084 OA 
BRANCH  27  28
HETATM   28  C   UNL     1      -7.809   7.485  73.074  1.00  0.00    -0.101 C  
HETATM   29  C   UNL     1      -7.898   6.336  74.066  1.00  0.00    -0.098 C  
HETATM   30  O   UNL     1      -8.007   8.617  73.449  1.00  0.00    -0.405 OA 
ENDBRANCH  27  28
ENDBRANCH  26  27
ENDBRANCH  24  26
ENDBRANCH   4  24
TORSDOF 4
ENDMDL
MODEL       37
REMARK 921   NORMALIZED FREE ENERGY PREDICTED BY IDOCK:   -5.81 KCAL/MOL
REMARK 922        TOTAL FREE ENERGY PREDICTED BY IDOCK:   -6.75 KCAL/MOL
REMARK 923 INTER-LIGAND FREE ENERGY PREDICTED BY IDOCK:   -7.25 KCAL/MOL
REMARK 924 INTRA-LIGAND FREE ENERGY PREDICTED BY IDOCK:    0.50 KCAL/MOL
REMARK 927      BINDING AFFINITY PREDICTED BY RF-SCORE:    0.00 PKD
ROOT
HETATM    1  C   UNL     1      -9.066   9.115  64.777  1.00  0.00    -0.157 C  
HETATM    2  C   UNL     1      -7.924   9.445  64.008  1.00  0.00    -0.142 C  
HETATM    3  C   UNL     1      -7.854   9.781  65.471  1.00  0.00    -0.120 C  
HETATM    4  C   UNL     1      -9.219   8.899  66.773  1.00  0.00    -0.159 C  
HETATM    5  O   UNL     1     -10.892  16.267  66.739  1.00  0.00    -0.253 OA 
HETATM    6  O   UNL     1     -10.216   7.952  66.206  1.00  0.00    -0.479 OA 
HETATM    7  C   UNL     1      -8.011   8.494  66.269  1.00  0.00    -0.102 C  
HETATM    8  C   UNL     1      -7.418   7.142  66.027  1.00  0.00    -0.080 C  
HETATM    9  C   UNL     1      -7.410   9.798  67.523  1.00  0.00    -0.090 C  
HETATM   10  C   UNL     1     -10.137  15.622  66.023  1.00  0.00    -0.333 C  
HETATM   11  C   UNL     1     -10.569  14.855  64.842  1.00  0.00    -0.417 C  
HETATM   12  H   UNL     1     -10.839   7.549  66.800  1.00  0.00     0.000 HD 
HETATM   13  C   UNL     1      -8.516  11.088  67.621  1.00  0.00    -0.121 C  
HETATM   14  C   UNL     1      -8.694  15.347  66.418  1.00  0.00    -0.307 C  
HETATM   15  O   UNL     1      -8.811  11.493  68.748  1.00  0.00    -0.138 OA 
HETATM   16  C   UNL     1     -11.261  12.642  67.330  1.00  0.00    -0.346 C  
HETATM   17  C   UNL     1      -9.225  11.753  66.247  1.00  0.00    -0.227 C  
HETATM   18  C   UNL     1      -9.987  10.630  65.202  1.00  0.00    -0.366 C  
HETATM   19  C   UNL     1     -10.061  13.046  66.467  1.00  0.00    -0.270 C  
HETATM   20  C   UNL     1      -9.037  14.182  66.996  1.00  0.00    -0.255 C  
HETATM   21  C   UNL     1     -10.404  11.309  63.895  1.00  0.00    -0.439 C  
HETATM   22  C   UNL     1     -11.243  12.552  64.139  1.00  0.00    -0.437 C  
HETATM   23  C   UNL     1     -10.618  13.537  65.100  1.00  0.00    -0.364 C  
ENDROOT
BRANCH   4  24
HETATM   24  C   UNL     1      -9.098   7.938  68.317  1.00  0.00    -0.134 C  
HETATM   25  O   UNL     1      -8.026   7.464  68.733  1.00  0.00    -0.119 OA 
BRANCH  24  26
HETATM   26  C   UNL     1     -10.394   7.501  69.187  1.00  0.00    -0.212 C  
BRANCH  26  27
HETATM   27  O   UNL     1     -11.136   8.696  69.651  1.00  0.00    -0.154 OA 
BRANCH  27  28
HETATM   28  C   UNL     1     -10.958   9.420  70.798  1.00  0.00    -0.304 C  
HETATM   29  C   UNL     1     -10.189   8.736  71.917  1.00  0.00    -0.415 C  
HETATM   30  O   UNL     1     -11.354  10.552  70.948  1.00  0.00    -0.306 OA 
ENDBRANCH  27  28
ENDBRANCH  26  27
ENDBRANCH  24  26
ENDBRANCH   4  24
TORSDOF 4
ENDMDL
MODEL       38
REMARK 921   NORMALIZED FREE ENERGY PREDICTED BY IDOCK:   -5.80 KCAL/MOL
REMARK 922        TOTAL FREE ENERGY PREDICTED BY IDOCK:   -6.73 KCAL/MOL
REMARK 923 INTER-LIGAND FREE ENERGY PREDICTED BY IDOCK:   -6.96 KCAL/MOL
REMARK 924 INTRA-LIGAND FREE ENERGY PREDICTED BY IDOCK:    0.23 KCAL/MOL
REMARK 927      BINDING AFFINITY PREDICTED BY RF-SCORE:    0.00 PKD
ROOT
HETATM    1  C   UNL     1      -7.521  13.757  68.707  1.00  0.00    -0.098 C  
HETATM    2  C   UNL     1      -6.388  13.285  68.000  1.00  0.00    -0.128 C  
HETATM    3  C   UNL     1      -7.162  14.392  67.342  1.00  0.00    -0.148 C  
HETATM    4  C   UNL     1      -8.505  15.499  68.486  1.00  0.00    -0.163 C  
HETATM    5  O   UNL     1     -12.719  11.680  63.510  1.00  0.00    -0.445 OA 
HETATM    6  O   UNL     1      -8.643  15.159  69.928  1.00  0.00    -0.410 OA 
HETATM    7  C   UNL     1      -7.156  15.600  68.267  1.00  0.00    -0.116 C  
HETATM    8  C   UNL     1      -6.040  16.173  69.084  1.00  0.00    -0.139 C  
HETATM    9  C   UNL     1      -7.797  16.248  66.593  1.00  0.00    -0.310 C  
HETATM   10  C   UNL     1     -11.530  11.581  63.784  1.00  0.00    -0.286 C  
HETATM   11  C   UNL     1     -11.004  10.802  64.918  1.00  0.00     0.086 C  
HETATM   12  H   UNL     1      -9.256  15.664  70.449  1.00  0.00     0.000 HD 
HETATM   13  C   UNL     1      -9.223  15.435  66.143  1.00  0.00    -0.327 C  
HETATM   14  C   UNL     1     -10.476  12.452  63.118  1.00  0.00     0.020 C  
HETATM   15  O   UNL     1     -10.152  16.122  65.711  1.00  0.00    -0.334 OA 
HETATM   16  C   UNL     1     -11.855  13.703  66.475  1.00  0.00    -0.441 C  
HETATM   17  C   UNL     1      -9.389  13.770  66.329  1.00  0.00    -0.166 C  
HETATM   18  C   UNL     1      -9.046  13.171  67.897  1.00  0.00    -0.207 C  
HETATM   19  C   UNL     1     -10.662  13.135  65.700  1.00  0.00    -0.294 C  
HETATM   20  C   UNL     1     -10.559  13.367  64.101  1.00  0.00    -0.257 C  
HETATM   21  C   UNL     1      -9.019  11.642  67.894  1.00  0.00    -0.170 C  
HETATM   22  C   UNL     1     -10.287  11.049  67.301  1.00  0.00    -0.249 C  
HETATM   23  C   UNL     1     -10.643  11.599  65.939  1.00  0.00    -0.318 C  
ENDROOT
BRANCH   4  24
HETATM   24  C   UNL     1      -8.765  17.272  68.820  1.00  0.00    -0.232 C  
HETATM   25  O   UNL     1      -7.829  18.087  68.894  1.00  0.00    -0.272 OA 
BRANCH  24  26
HETATM   26  C   UNL     1     -10.214  17.896  69.192  1.00  0.00    -0.185 C  
BRANCH  26  27
HETATM   27  O   UNL     1     -11.237  16.827  69.261  1.00  0.00    -0.205 OA 
BRANCH  27  28
HETATM   28  C   UNL     1     -11.617  16.077  70.340  1.00  0.00    -0.348 C  
HETATM   29  C   UNL     1     -12.122  14.674  70.045  1.00  0.00    -0.383 C  
HETATM   30  O   UNL     1     -11.549  16.461  71.484  1.00  0.00    -0.437 OA 
ENDBRANCH  27  28
ENDBRANCH  26  27
ENDBRANCH  24  26
ENDBRANCH   4  24
TORSDOF 4
ENDMDL
MODEL       39
REMARK 921   NORMALIZED FREE ENERGY PREDICTED BY IDOCK:   -5.80 KCAL/MOL
REMARK 922        TOTAL FREE ENERGY PREDICTED BY IDOCK:   -6.73 KCAL/MOL
REMARK 923 INTER-LIGAND FREE ENERGY PREDICTED BY IDOCK:   -7.29 KCAL/MOL
REMARK 924 INTRA-LIGAND FREE ENERGY PREDICTED BY IDOCK:    0.57 KCAL/MOL
REMARK 927      BINDING AFFINITY PREDICTED BY RF-SCORE:    0.00 PKD
ROOT
HETATM    1  C   UNL     1      -8.999   9.768  66.796  1.00  0.00    -0.156 C  
HETATM    2  C   UNL     1      -9.820   9.024  65.915  1.00  0.00    -0.257 C  
HETATM    3  C   UNL     1     -10.536   9.836  66.956  1.00  0.00    -0.269 C  
HETATM    4  C   UNL     1      -9.496  11.340  67.952  1.00  0.00    -0.178 C  
HETATM    5  O   UNL     1     -11.036   6.109  73.183  1.00  0.00    -0.248 OA 
HETATM    6  O   UNL     1      -8.072  11.566  67.587  1.00  0.00    -0.120 OA 
HETATM    7  C   UNL     1     -10.172  11.300  66.761  1.00  0.00    -0.263 C  
HETATM    8  C   UNL     1     -10.041  12.092  65.498  1.00  0.00    -0.275 C  
HETATM    9  C   UNL     1     -11.651  11.302  67.964  1.00  0.00    -0.343 C  
HETATM   10  C   UNL     1     -11.158   6.073  71.966  1.00  0.00    -0.274 C  
HETATM   11  C   UNL     1     -10.063   5.753  71.033  1.00  0.00    -0.260 C  
HETATM   12  H   UNL     1      -7.597  12.253  68.041  1.00  0.00     0.000 HD 
HETATM   13  C   UNL     1     -11.272  10.436  69.378  1.00  0.00    -0.259 C  
HETATM   14  C   UNL     1     -12.405   6.593  71.266  1.00  0.00    -0.329 C  
HETATM   15  O   UNL     1     -11.589  10.948  70.455  1.00  0.00    -0.322 OA 
HETATM   16  C   UNL     1      -9.479   9.055  71.595  1.00  0.00    -0.293 C  
HETATM   17  C   UNL     1     -10.451   8.967  69.325  1.00  0.00    -0.238 C  
HETATM   18  C   UNL     1      -8.983   8.983  68.441  1.00  0.00    -0.133 C  
HETATM   19  C   UNL     1     -10.344   8.194  70.670  1.00  0.00    -0.214 C  
HETATM   20  C   UNL     1     -11.854   7.809  71.110  1.00  0.00    -0.311 C  
HETATM   21  C   UNL     1      -8.439   7.562  68.279  1.00  0.00    -0.125 C  
HETATM   22  C   UNL     1      -8.318   6.841  69.611  1.00  0.00    -0.132 C  
HETATM   23  C   UNL     1      -9.585   6.857  70.436  1.00  0.00    -0.171 C  
ENDROOT
BRANCH   4  24
HETATM   24  C   UNL     1      -9.763  13.118  68.250  1.00  0.00    -0.223 C  
HETATM   25  O   UNL     1     -10.837  13.575  68.679  1.00  0.00    -0.248 OA 
BRANCH  24  26
HETATM   26  C   UNL     1      -8.681  14.253  67.839  1.00  0.00    -0.178 C  
BRANCH  26  27
HETATM   27  O   UNL     1      -9.365  15.514  67.469  1.00  0.00    -0.204 OA 
BRANCH  27  28
HETATM   28  C   UNL     1      -9.435  16.120  66.245  1.00  0.00    -0.316 C  
HETATM   29  C   UNL     1     -10.626  15.752  65.374  1.00  0.00    -0.441 C  
HETATM   30  O   UNL     1      -8.628  16.928  65.848  1.00  0.00    -0.514 OA 
ENDBRANCH  27  28
ENDBRANCH  26  27
ENDBRANCH  24  26
ENDBRANCH   4  24
TORSDOF 4
ENDMDL
MODEL       40
REMARK 921   NORMALIZED FREE ENERGY PREDICTED BY IDOCK:   -5.78 KCAL/MOL
REMARK 922        TOTAL FREE ENERGY PREDICTED BY IDOCK:   -6.71 KCAL/MOL
REMARK 923 INTER-LIGAND FREE ENERGY PREDICTED BY IDOCK:   -6.75 KCAL/MOL
REMARK 924 INTRA-LIGAND FREE ENERGY PREDICTED BY IDOCK:    0.05 KCAL/MOL
REMARK 927      BINDING AFFINITY PREDICTED BY RF-SCORE:    0.00 PKD
ROOT
HETATM    1  C   UNL     1     -11.091  10.218  70.539  1.00  0.00    -0.381 C  
HETATM    2  C   UNL     1     -12.422   9.739  70.480  1.00  0.00    -0.129 C  
HETATM    3  C   UNL     1     -11.532   9.355  69.332  1.00  0.00     0.182 C  
HETATM    4  C   UNL     1      -9.469   9.550  69.548  1.00  0.00    -0.185 C  
HETATM    5  O   UNL     1     -11.465  14.605  64.297  1.00  0.00    -0.282 OA 
HETATM    6  O   UNL     1      -8.946  10.057  70.845  1.00  0.00    -0.252 OA 
HETATM    7  C   UNL     1     -10.356   8.559  69.880  1.00  0.00    -0.210 C  
HETATM    8  C   UNL     1     -10.330   7.489  70.926  1.00  0.00    -0.203 C  
HETATM    9  C   UNL     1     -10.298   8.313  67.991  1.00  0.00    -0.268 C  
HETATM   10  C   UNL     1     -12.154  13.924  65.045  1.00  0.00    -0.406 C  
HETATM   11  C   UNL     1     -12.466  14.282  66.440  1.00  0.00    -0.287 C  
HETATM   12  H   UNL     1      -8.005  10.147  70.943  1.00  0.00     0.000 HD 
HETATM   13  C   UNL     1     -10.114   9.807  67.198  1.00  0.00    -0.211 C  
HETATM   14  C   UNL     1     -12.570  12.505  64.686  1.00  0.00    -0.507 C  
HETATM   15  O   UNL     1      -9.289   9.862  66.282  1.00  0.00    -0.160 OA 
HETATM   16  C   UNL     1      -9.396  12.868  66.814  1.00  0.00    -0.243 C  
HETATM   17  C   UNL     1     -10.976  11.173  67.672  1.00  0.00    -0.323 C  
HETATM   18  C   UNL     1     -10.863  11.568  69.335  1.00  0.00    -0.180 C  
HETATM   19  C   UNL     1     -10.857  12.414  66.741  1.00  0.00    -0.283 C  
HETATM   20  C   UNL     1     -11.497  11.993  65.316  1.00  0.00    -0.358 C  
HETATM   21  C   UNL     1     -11.846  12.685  69.690  1.00  0.00    -0.379 C  
HETATM   22  C   UNL     1     -11.687  13.895  68.784  1.00  0.00    -0.392 C  
HETATM   23  C   UNL     1     -11.730  13.568  67.309  1.00  0.00    -0.423 C  
ENDROOT
BRANCH   4  24
HETATM   24  C   UNL     1      -8.037   8.444  69.336  1.00  0.00    -0.114 C  
HETATM   25  O   UNL     1      -8.040   7.259  69.712  1.00  0.00    -0.123 OA 
BRANCH  24  26
HETATM   26  C   UNL     1      -6.602   8.956  68.781  1.00  0.00    -0.054 C  
BRANCH  26  27
HETATM   27  O   UNL     1      -6.558  10.437  68.743  1.00  0.00    -0.051 OA 
BRANCH  27  28
HETATM   28  C   UNL     1      -6.051  11.300  69.675  1.00  0.00    -0.102 C  
HETATM   29  C   UNL     1      -5.329  12.526  69.139  1.00  0.00    -0.068 C  
HETATM   30  O   UNL     1      -6.169  11.147  70.868  1.00  0.00    -0.361 OA 
ENDBRANCH  27  28
ENDBRANCH  26  27
ENDBRANCH  24  26
ENDBRANCH   4  24
TORSDOF 4
ENDMDL
MODEL       41
REMARK 921   NORMALIZED FREE ENERGY PREDICTED BY IDOCK:   -5.77 KCAL/MOL
REMARK 922        TOTAL FREE ENERGY PREDICTED BY IDOCK:   -6.69 KCAL/MOL
REMARK 923 INTER-LIGAND FREE ENERGY PREDICTED BY IDOCK:   -7.27 KCAL/MOL
REMARK 924 INTRA-LIGAND FREE ENERGY PREDICTED BY IDOCK:    0.58 KCAL/MOL
REMARK 927      BINDING AFFINITY PREDICTED BY RF-SCORE:    0.00 PKD
ROOT
HETATM    1  C   UNL     1      -9.474   8.664  65.657  1.00  0.00    -0.114 C  
HETATM    2  C   UNL     1      -8.172   8.807  65.119  1.00  0.00    -0.149 C  
HETATM    3  C   UNL     1      -8.371   9.330  66.513  1.00  0.00    -0.126 C  
HETATM    4  C   UNL     1     -10.053   8.728  67.585  1.00  0.00    -0.216 C  
HETATM    5  O   UNL     1     -10.962  16.125  66.337  1.00  0.00    -0.196 OA 
HETATM    6  O   UNL     1     -10.999   7.785  66.929  1.00  0.00    -0.443 OA 
HETATM    7  C   UNL     1      -8.811   8.176  67.403  1.00  0.00    -0.131 C  
HETATM    8  C   UNL     1      -8.316   6.765  67.452  1.00  0.00    -0.122 C  
HETATM    9  C   UNL     1      -8.357   9.590  68.597  1.00  0.00    -0.117 C  
HETATM   10  C   UNL     1     -10.143  15.338  65.881  1.00  0.00    -0.334 C  
HETATM   11  C   UNL     1     -10.396  14.452  64.731  1.00  0.00    -0.352 C  
HETATM   12  H   UNL     1     -11.767   7.511  67.418  1.00  0.00     0.000 HD 
HETATM   13  C   UNL     1      -9.329  10.956  68.305  1.00  0.00    -0.168 C  
HETATM   14  C   UNL     1      -8.845  15.018  66.607  1.00  0.00    -0.307 C  
HETATM   15  O   UNL     1      -9.809  11.528  69.287  1.00  0.00     0.025 OA 
HETATM   16  C   UNL     1     -11.793  12.646  67.251  1.00  0.00    -0.395 C  
HETATM   17  C   UNL     1      -9.675  11.479  66.742  1.00  0.00    -0.220 C  
HETATM   18  C   UNL     1     -10.312  10.283  65.695  1.00  0.00    -0.232 C  
HETATM   19  C   UNL     1     -10.409  12.845  66.625  1.00  0.00    -0.258 C  
HETATM   20  C   UNL     1      -9.410  13.967  67.228  1.00  0.00    -0.231 C  
HETATM   21  C   UNL     1     -10.384  10.809  64.259  1.00  0.00    -0.401 C  
HETATM   22  C   UNL     1     -11.131  12.129  64.172  1.00  0.00    -0.424 C  
HETATM   23  C   UNL     1     -10.623  13.187  65.124  1.00  0.00    -0.332 C  
ENDROOT
BRANCH   4  24
HETATM   24  C   UNL     1     -10.344   7.976  69.219  1.00  0.00    -0.220 C  
HETATM   25  O   UNL     1     -10.133   6.773  69.453  1.00  0.00    -0.164 OA 
BRANCH  24  26
HETATM   26  C   UNL     1     -11.038   8.775  70.446  1.00  0.00    -0.236 C  
BRANCH  26  27
HETATM   27  O   UNL     1     -11.897   7.865  71.239  1.00  0.00    -0.288 OA 
BRANCH  27  28
HETATM   28  C   UNL     1     -13.220   8.002  71.559  1.00  0.00    -0.290 C  
HETATM   29  C   UNL     1     -13.565   9.097  72.555  1.00  0.00    -0.497 C  
HETATM   30  O   UNL     1     -14.101   7.326  71.082  1.00  0.00    -0.335 OA 
ENDBRANCH  27  28
ENDBRANCH  26  27
ENDBRANCH  24  26
ENDBRANCH   4  24
TORSDOF 4
ENDMDL
MODEL       42
REMARK 921   NORMALIZED FREE ENERGY PREDICTED BY IDOCK:   -5.75 KCAL/MOL
REMARK 922        TOTAL FREE ENERGY PREDICTED BY IDOCK:   -6.68 KCAL/MOL
REMARK 923 INTER-LIGAND FREE ENERGY PREDICTED BY IDOCK:   -7.25 KCAL/MOL
REMARK 924 INTRA-LIGAND FREE ENERGY PREDICTED BY IDOCK:    0.58 KCAL/MOL
REMARK 927      BINDING AFFINITY PREDICTED BY RF-SCORE:    0.00 PKD
ROOT
HETATM    1  C   UNL     1     -10.328  13.425  69.125  1.00  0.00     0.099 C  
HETATM    2  C   UNL     1     -11.463  13.837  69.865  1.00  0.00    -0.230 C  
HETATM    3  C   UNL     1     -11.551  14.007  68.376  1.00  0.00    -0.366 C  
HETATM    4  C   UNL     1     -10.198  12.987  67.164  1.00  0.00    -0.243 C  
HETATM    5  O   UNL     1      -8.546  20.316  66.353  1.00  0.00    -0.256 OA 
HETATM    6  O   UNL     1      -9.192  12.111  67.822  1.00  0.00    -0.176 OA 
HETATM    7  C   UNL     1     -11.400  12.640  67.725  1.00  0.00    -0.349 C  
HETATM    8  C   UNL     1     -11.985  11.322  68.124  1.00  0.00    -0.182 C  
HETATM    9  C   UNL     1     -12.018  13.794  66.340  1.00  0.00    -0.473 C  
HETATM   10  C   UNL     1      -9.290  19.754  67.145  1.00  0.00    -0.351 C  
HETATM   11  C   UNL     1      -8.843  19.125  68.400  1.00  0.00    -0.386 C  
HETATM   12  H   UNL     1      -8.574  11.646  67.269  1.00  0.00     0.000 HD 
HETATM   13  C   UNL     1     -10.918  15.066  66.084  1.00  0.00    -0.334 C  
HETATM   14  C   UNL     1     -10.737  19.434  66.800  1.00  0.00    -0.550 C  
HETATM   15  O   UNL     1     -10.636  15.343  64.916  1.00  0.00    -0.416 OA 
HETATM   16  C   UNL     1      -8.174  16.648  66.168  1.00  0.00    -0.295 C  
HETATM   17  C   UNL     1     -10.194  15.882  67.367  1.00  0.00    -0.270 C  
HETATM   18  C   UNL     1      -9.417  14.885  68.522  1.00  0.00    -0.210 C  
HETATM   19  C   UNL     1      -9.364  17.144  66.994  1.00  0.00    -0.250 C  
HETATM   20  C   UNL     1     -10.398  18.211  66.353  1.00  0.00    -0.404 C  
HETATM   21  C   UNL     1      -8.987  15.707  69.740  1.00  0.00    -0.006 C  
HETATM   22  C   UNL     1      -8.154  16.916  69.348  1.00  0.00     0.206 C  
HETATM   23  C   UNL     1      -8.794  17.786  68.290  1.00  0.00    -0.277 C  
ENDROOT
BRANCH   4  24
HETATM   24  C   UNL     1     -10.334  11.859  65.739  1.00  0.00    -0.248 C  
HETATM   25  O   UNL     1     -10.701  10.676  65.850  1.00  0.00    -0.152 OA 
BRANCH  24  26
HETATM   26  C   UNL     1      -9.847  12.262  64.246  1.00  0.00    -0.127 C  
BRANCH  26  27
HETATM   27  O   UNL     1     -10.942  12.054  63.270  1.00  0.00    -0.388 OA 
BRANCH  27  28
HETATM   28  C   UNL     1     -12.239  12.483  63.337  1.00  0.00    -0.517 C  
HETATM   29  C   UNL     1     -13.256  11.485  63.867  1.00  0.00     0.627 C  
HETATM   30  O   UNL     1     -12.597  13.595  63.024  1.00  0.00    -0.729 OA 
ENDBRANCH  27  28
ENDBRANCH  26  27
ENDBRANCH  24  26
ENDBRANCH   4  24
TORSDOF 4
ENDMDL
MODEL       43
REMARK 921   NORMALIZED FREE ENERGY PREDICTED BY IDOCK:   -5.69 KCAL/MOL
REMARK 922        TOTAL FREE ENERGY PREDICTED BY IDOCK:   -6.60 KCAL/MOL
REMARK 923 INTER-LIGAND FREE ENERGY PREDICTED BY IDOCK:   -6.80 KCAL/MOL
REMARK 924 INTRA-LIGAND FREE ENERGY PREDICTED BY IDOCK:    0.19 KCAL/MOL
REMARK 927      BINDING AFFINITY PREDICTED BY RF-SCORE:    0.00 PKD
ROOT
HETATM    1  C   UNL     1     -10.923  13.697  69.503  1.00  0.00    -0.054 C  
HETATM    2  C   UNL     1     -12.229  14.148  69.809  1.00  0.00    -0.397 C  
HETATM    3  C   UNL     1     -11.933  13.925  68.353  1.00  0.00    -0.391 C  
HETATM    4  C   UNL     1     -10.264  12.796  67.826  1.00  0.00    -0.223 C  
HETATM    5  O   UNL     1      -8.811  19.825  65.462  1.00  0.00    -0.244 OA 
HETATM    6  O   UNL     1      -9.423  12.238  68.920  1.00  0.00    -0.401 OA 
HETATM    7  C   UNL     1     -11.552  12.465  68.157  1.00  0.00    -0.395 C  
HETATM    8  C   UNL     1     -12.157  11.231  68.749  1.00  0.00    -0.258 C  
HETATM    9  C   UNL     1     -11.842  13.153  66.403  1.00  0.00    -0.455 C  
HETATM   10  C   UNL     1      -9.709  19.398  66.175  1.00  0.00    -0.359 C  
HETATM   11  C   UNL     1      -9.575  19.162  67.623  1.00  0.00    -0.375 C  
HETATM   12  H   UNL     1      -8.661  11.723  68.679  1.00  0.00     0.000 HD 
HETATM   13  C   UNL     1     -10.775  14.438  66.080  1.00  0.00    -0.304 C  
HETATM   14  C   UNL     1     -10.998  18.836  65.596  1.00  0.00     0.114 C  
HETATM   15  O   UNL     1     -10.212  14.442  64.983  1.00  0.00    -0.409 OA 
HETATM   16  C   UNL     1      -8.228  16.297  66.381  1.00  0.00    -0.354 C  
HETATM   17  C   UNL     1     -10.452  15.630  67.225  1.00  0.00    -0.292 C  
HETATM   18  C   UNL     1      -9.957  15.053  68.760  1.00  0.00    -0.228 C  
HETATM   19  C   UNL     1      -9.615  16.844  66.731  1.00  0.00    -0.273 C  
HETATM   20  C   UNL     1     -10.496  17.588  65.595  1.00  0.00    -0.156 C  
HETATM   21  C   UNL     1      -9.900  16.199  69.772  1.00  0.00    -0.057 C  
HETATM   22  C   UNL     1      -9.053  17.359  69.275  1.00  0.00     0.180 C  
HETATM   23  C   UNL     1      -9.434  17.854  67.899  1.00  0.00    -0.272 C  
ENDROOT
BRANCH   4  24
HETATM   24  C   UNL     1      -9.968  11.338  66.775  1.00  0.00    -0.206 C  
HETATM   25  O   UNL     1     -10.663  10.308  66.841  1.00  0.00    -0.239 OA 
BRANCH  24  26
HETATM   26  C   UNL     1      -8.693  11.211  65.782  1.00  0.00    -0.150 C  
BRANCH  26  27
HETATM   27  O   UNL     1      -7.450  10.995  66.558  1.00  0.00    -0.139 OA 
BRANCH  27  28
HETATM   28  C   UNL     1      -6.374  11.828  66.697  1.00  0.00    -0.011 C  
HETATM   29  C   UNL     1      -6.588  13.074  67.542  1.00  0.00    -0.160 C  
HETATM   30  O   UNL     1      -5.289  11.612  66.210  1.00  0.00    -0.292 OA 
ENDBRANCH  27  28
ENDBRANCH  26  27
ENDBRANCH  24  26
ENDBRANCH   4  24
TORSDOF 4
ENDMDL
MODEL       44
REMARK 921   NORMALIZED FREE ENERGY PREDICTED BY IDOCK:   -5.67 KCAL/MOL
REMARK 922        TOTAL FREE ENERGY PREDICTED BY IDOCK:   -6.58 KCAL/MOL
REMARK 923 INTER-LIGAND FREE ENERGY PREDICTED BY IDOCK:   -7.47 KCAL/MOL
REMARK 924 INTRA-LIGAND FREE ENERGY PREDICTED BY IDOCK:    0.89 KCAL/MOL
REMARK 927      BINDING AFFINITY PREDICTED BY RF-SCORE:    0.00 PKD
ROOT
HETATM    1  C   UNL     1     -11.698  15.182  65.802  1.00  0.00    -0.016 C  
HETATM    2  C   UNL     1     -11.289  15.503  64.485  1.00  0.00    -0.322 C  
HETATM    3  C   UNL     1     -10.458  14.477  65.201  1.00  0.00    -0.439 C  
HETATM    4  C   UNL     1     -11.237  13.558  66.900  1.00  0.00    -0.311 C  
HETATM    5  O   UNL     1      -5.407  17.714  69.315  1.00  0.00    -0.171 OA 
HETATM    6  O   UNL     1     -12.604  13.946  67.341  1.00  0.00    -0.410 OA 
HETATM    7  C   UNL     1     -11.352  13.298  65.559  1.00  0.00    -0.315 C  
HETATM    8  C   UNL     1     -12.412  12.622  64.748  1.00  0.00    -0.555 C  
HETATM    9  C   UNL     1      -9.569  12.689  65.849  1.00  0.00    -0.158 C  
HETATM   10  C   UNL     1      -5.961  17.683  68.224  1.00  0.00    -0.161 C  
HETATM   11  C   UNL     1      -7.192  18.423  67.899  1.00  0.00    -0.235 C  
HETATM   12  H   UNL     1     -12.959  13.527  68.117  1.00  0.00     0.000 HD 
HETATM   13  C   UNL     1      -8.791  13.648  67.019  1.00  0.00    -0.223 C  
HETATM   14  C   UNL     1      -5.566  16.681  67.149  1.00  0.00    -0.175 C  
HETATM   15  O   UNL     1      -8.144  13.061  67.890  1.00  0.00    -0.132 OA 
HETATM   16  C   UNL     1      -8.482  15.676  69.433  1.00  0.00    -0.244 C  
HETATM   17  C   UNL     1      -8.939  15.325  67.030  1.00  0.00    -0.254 C  
HETATM   18  C   UNL     1     -10.546  15.918  67.007  1.00  0.00    -0.306 C  
HETATM   19  C   UNL     1      -8.023  16.086  68.031  1.00  0.00    -0.142 C  
HETATM   20  C   UNL     1      -6.496  15.806  67.572  1.00  0.00    -0.203 C  
HETATM   21  C   UNL     1     -10.557  17.434  66.803  1.00  0.00    -0.194 C  
HETATM   22  C   UNL     1      -9.676  18.153  67.812  1.00  0.00    -0.294 C  
HETATM   23  C   UNL     1      -8.266  17.615  67.891  1.00  0.00    -0.234 C  
ENDROOT
BRANCH   4  24
HETATM   24  C   UNL     1     -11.490  11.835  67.438  1.00  0.00    -0.305 C  
HETATM   25  O   UNL     1     -12.248  11.527  68.374  1.00  0.00    -0.540 OA 
BRANCH  24  26
HETATM   26  C   UNL     1     -10.639  10.591  66.840  1.00  0.00    -0.243 C  
BRANCH  26  27
HETATM   27  O   UNL     1      -9.950   9.863  67.931  1.00  0.00    -0.150 OA 
BRANCH  27  28
HETATM   28  C   UNL     1      -9.995   8.529  68.229  1.00  0.00    -0.184 C  
HETATM   29  C   UNL     1     -10.363   7.593  67.089  1.00  0.00    -0.385 C  
HETATM   30  O   UNL     1      -9.740   8.074  69.320  1.00  0.00    -0.163 OA 
ENDBRANCH  27  28
ENDBRANCH  26  27
ENDBRANCH  24  26
ENDBRANCH   4  24
TORSDOF 4
ENDMDL
MODEL       45
REMARK 921   NORMALIZED FREE ENERGY PREDICTED BY IDOCK:   -5.67 KCAL/MOL
REMARK 922        TOTAL FREE ENERGY PREDICTED BY IDOCK:   -6.57 KCAL/MOL
REMARK 923 INTER-LIGAND FREE ENERGY PREDICTED BY IDOCK:   -7.43 KCAL/MOL
REMARK 924 INTRA-LIGAND FREE ENERGY PREDICTED BY IDOCK:    0.87 KCAL/MOL
REMARK 927      BINDING AFFINITY PREDICTED BY RF-SCORE:    0.00 PKD
ROOT
HETATM    1  C   UNL     1     -11.146  13.096  66.512  1.00  0.00    -0.317 C  
HETATM    2  C   UNL     1     -12.449  12.984  65.971  1.00  0.00    -0.256 C  
HETATM    3  C   UNL     1     -12.075  14.333  66.514  1.00  0.00    -0.454 C  
HETATM    4  C   UNL     1     -10.065  14.761  66.853  1.00  0.00    -0.246 C  
HETATM    5  O   UNL     1     -13.306  14.622  73.678  1.00  0.00    -0.360 OA 
HETATM    6  O   UNL     1      -9.062  13.709  66.532  1.00  0.00    -0.397 OA 
HETATM    7  C   UNL     1     -10.866  14.845  65.744  1.00  0.00    -0.343 C  
HETATM    8  C   UNL     1     -10.571  14.785  64.278  1.00  0.00     0.500 C  
HETATM    9  C   UNL     1     -11.518  16.347  66.719  1.00  0.00     0.621 C  
HETATM   10  C   UNL     1     -13.744  14.286  72.585  1.00  0.00    -0.452 C  
HETATM   11  C   UNL     1     -13.495  12.976  71.960  1.00  0.00    -0.584 C  
HETATM   12  H   UNL     1      -8.145  13.905  66.687  1.00  0.00     0.000 HD 
HETATM   13  C   UNL     1     -11.484  16.035  68.392  1.00  0.00    -0.331 C  
HETATM   14  C   UNL     1     -14.400  15.283  71.641  1.00  0.00    -0.666 C  
HETATM   15  O   UNL     1     -11.044  16.925  69.123  1.00  0.00    -0.222 OA 
HETATM   16  C   UNL     1     -10.653  14.639  71.111  1.00  0.00     0.944 C  
HETATM   17  C   UNL     1     -11.978  14.556  69.027  1.00  0.00    -0.334 C  
HETATM   18  C   UNL     1     -11.234  13.178  68.331  1.00  0.00    -0.305 C  
HETATM   19  C   UNL     1     -12.079  14.476  70.577  1.00  0.00    -0.395 C  
HETATM   20  C   UNL     1     -13.229  15.524  71.024  1.00  0.00    -0.539 C  
HETATM   21  C   UNL     1     -11.907  11.896  68.827  1.00  0.00    -0.371 C  
HETATM   22  C   UNL     1     -11.967  11.833  70.345  1.00  0.00    -0.422 C  
HETATM   23  C   UNL     1     -12.570  13.060  70.988  1.00  0.00    -0.386 C  
ENDROOT
BRANCH   4  24
HETATM   24  C   UNL     1      -8.922  16.087  66.348  1.00  0.00    -0.319 C  
HETATM   25  O   UNL     1      -7.687  15.943  66.338  1.00  0.00    -0.172 OA 
BRANCH  24  26
HETATM   26  C   UNL     1      -9.413  17.596  66.017  1.00  0.00    -0.066 C  
BRANCH  26  27
HETATM   27  O   UNL     1      -8.285  18.549  66.144  1.00  0.00    -0.413 OA 
BRANCH  27  28
HETATM   28  C   UNL     1      -8.239  19.732  66.827  1.00  0.00    -0.312 C  
HETATM   29  C   UNL     1      -9.572  20.299  67.290  1.00  0.00    -0.581 C  
HETATM   30  O   UNL     1      -7.215  20.317  67.091  1.00  0.00    -0.254 OA 
ENDBRANCH  27  28
ENDBRANCH  26  27
ENDBRANCH  24  26
ENDBRANCH   4  24
TORSDOF 4
ENDMDL
MODEL       46
REMARK 921   NORMALIZED FREE ENERGY PREDICTED BY IDOCK:   -5.64 KCAL/MOL
REMARK 922        TOTAL FREE ENERGY PREDICTED BY IDOCK:   -6.54 KCAL/MOL
REMARK 923 INTER-LIGAND FREE ENERGY PREDICTED BY IDOCK:   -7.23 KCAL/MOL
REMARK 924 INTRA-LIGAND FREE ENERGY PREDICTED BY IDOCK:    0.69 KCAL/MOL
REMARK 927      BINDING AFFINITY PREDICTED BY RF-SCORE:    0.00 PKD
ROOT
HETATM    1  C   UNL     1     -11.926  13.839  68.388  1.00  0.00    -0.395 C  
HETATM    2  C   UNL     1     -11.941  14.002  69.794  1.00  0.00    -0.393 C  
HETATM    3  C   UNL     1     -10.617  14.223  69.119  1.00  0.00    -0.201 C  
HETATM    4  C   UNL     1     -10.575  14.520  67.058  1.00  0.00    -0.278 C  
HETATM    5  O   UNL     1      -7.119   7.906  68.244  1.00  0.00    -0.083 OA 
HETATM    6  O   UNL     1     -11.869  14.512  66.323  1.00  0.00    -0.380 OA 
HETATM    7  C   UNL     1     -10.770  15.362  68.121  1.00  0.00    -0.271 C  
HETATM    8  C   UNL     1     -11.497  16.663  68.260  1.00  0.00     0.008 C  
HETATM    9  C   UNL     1      -8.892  15.078  68.282  1.00  0.00    -0.172 C  
HETATM   10  C   UNL     1      -7.762   8.613  69.008  1.00  0.00    -0.095 C  
HETATM   11  C   UNL     1      -9.231   8.602  69.109  1.00  0.00    -0.152 C  
HETATM   12  H   UNL     1     -11.850  14.647  65.383  1.00  0.00     0.000 HD 
HETATM   13  C   UNL     1      -8.485  13.492  67.819  1.00  0.00    -0.184 C  
HETATM   14  C   UNL     1      -7.119   9.760  69.775  1.00  0.00    -0.095 C  
HETATM   15  O   UNL     1      -7.504  13.353  67.085  1.00  0.00    -0.095 OA 
HETATM   16  C   UNL     1      -8.789  10.658  66.437  1.00  0.00    -0.164 C  
HETATM   17  C   UNL     1      -9.408  12.167  68.293  1.00  0.00    -0.198 C  
HETATM   18  C   UNL     1     -11.083  12.283  67.951  1.00  0.00    -0.290 C  
HETATM   19  C   UNL     1      -8.815  10.767  67.965  1.00  0.00    -0.132 C  
HETATM   20  C   UNL     1      -7.437  10.634  68.803  1.00  0.00    -0.104 C  
HETATM   21  C   UNL     1     -11.847  11.133  68.611  1.00  0.00    -0.357 C  
HETATM   22  C   UNL     1     -11.264   9.777  68.250  1.00  0.00    -0.074 C  
HETATM   23  C   UNL     1      -9.776   9.664  68.492  1.00  0.00    -0.161 C  
ENDROOT
BRANCH   4  24
HETATM   24  C   UNL     1      -9.886  15.790  65.948  1.00  0.00    -0.349 C  
HETATM   25  O   UNL     1     -10.399  16.075  64.851  1.00  0.00    -0.543 OA 
BRANCH  24  26
HETATM   26  C   UNL     1      -8.477  16.538  66.232  1.00  0.00    -0.328 C  
BRANCH  26  27
HETATM   27  O   UNL     1      -8.613  17.999  66.023  1.00  0.00    -0.500 OA 
BRANCH  27  28
HETATM   28  C   UNL     1      -9.235  18.920  66.820  1.00  0.00    -0.319 C  
HETATM   29  C   UNL     1     -10.408  19.666  66.204  1.00  0.00    -0.627 C  
HETATM   30  O   UNL     1      -8.915  19.145  67.964  1.00  0.00    -0.294 OA 
ENDBRANCH  27  28
ENDBRANCH  26  27
ENDBRANCH  24  26
ENDBRANCH   4  24
TORSDOF 4
ENDMDL
MODEL       47
REMARK 921   NORMALIZED FREE ENERGY PREDICTED BY IDOCK:   -5.61 KCAL/MOL
REMARK 922        TOTAL FREE ENERGY PREDICTED BY IDOCK:   -6.51 KCAL/MOL
REMARK 923 INTER-LIGAND FREE ENERGY PREDICTED BY IDOCK:   -6.69 KCAL/MOL
REMARK 924 INTRA-LIGAND FREE ENERGY PREDICTED BY IDOCK:    0.19 KCAL/MOL
REMARK 927      BINDING AFFINITY PREDICTED BY RF-SCORE:    0.00 PKD
ROOT
HETATM    1  C   UNL     1     -12.221   7.677  72.201  1.00  0.00    -0.301 C  
HETATM    2  C   UNL     1     -13.375   7.200  71.535  1.00  0.00    -0.413 C  
HETATM    3  C   UNL     1     -12.057   6.777  70.953  1.00  0.00    -0.421 C  
HETATM    4  C   UNL     1     -10.336   6.974  72.111  1.00  0.00    -0.191 C  
HETATM    5  O   UNL     1      -9.534  11.863  66.405  1.00  0.00    -0.217 OA 
HETATM    6  O   UNL     1     -10.477   7.521  73.487  1.00  0.00    -0.357 OA 
HETATM    7  C   UNL     1     -11.291   5.996  72.012  1.00  0.00    -0.345 C  
HETATM    8  C   UNL     1     -11.781   4.960  72.975  1.00  0.00    -0.217 C  
HETATM    9  C   UNL     1     -10.355   5.689  70.380  1.00  0.00    -0.330 C  
HETATM   10  C   UNL     1     -10.506  11.208  66.758  1.00  0.00    -0.252 C  
HETATM   11  C   UNL     1     -11.432  11.612  67.830  1.00  0.00    -0.381 C  
HETATM   12  H   UNL     1      -9.692   7.611  74.015  1.00  0.00     0.000 HD 
HETATM   13  C   UNL     1      -9.793   7.156  69.728  1.00  0.00    -0.173 C  
HETATM   14  C   UNL     1     -10.728   9.780  66.284  1.00  0.00     0.044 C  
HETATM   15  O   UNL     1      -8.633   7.180  69.308  1.00  0.00    -0.135 OA 
HETATM   16  C   UNL     1      -8.925  10.202  69.646  1.00  0.00    -0.190 C  
HETATM   17  C   UNL     1     -10.752   8.540  69.702  1.00  0.00    -0.200 C  
HETATM   18  C   UNL     1     -11.429   8.987  71.211  1.00  0.00    -0.390 C  
HETATM   19  C   UNL     1     -10.187   9.750  68.905  1.00  0.00    -0.213 C  
HETATM   20  C   UNL     1     -10.088   9.285  67.358  1.00  0.00    -0.280 C  
HETATM   21  C   UNL     1     -12.444  10.118  71.031  1.00  0.00    -0.474 C  
HETATM   22  C   UNL     1     -11.856  11.298  70.274  1.00  0.00    -0.446 C  
HETATM   23  C   UNL     1     -11.205  10.924  68.962  1.00  0.00    -0.327 C  
ENDROOT
BRANCH   4  24
HETATM   24  C   UNL     1      -8.992   5.858  72.629  1.00  0.00    -0.131 C  
HETATM   25  O   UNL     1      -9.183   4.867  73.356  1.00  0.00    -0.123 OA 
BRANCH  24  26
HETATM   26  C   UNL     1      -7.430   6.151  72.310  1.00  0.00    -0.095 C  
BRANCH  26  27
HETATM   27  O   UNL     1      -6.748   4.911  71.872  1.00  0.00    -0.043 OA 
BRANCH  27  28
HETATM   28  C   UNL     1      -6.884   4.233  70.692  1.00  0.00    -0.033 C  
HETATM   29  C   UNL     1      -6.089   4.764  69.510  1.00  0.00    -0.018 C  
HETATM   30  O   UNL     1      -7.570   3.246  70.558  1.00  0.00    -0.040 OA 
ENDBRANCH  27  28
ENDBRANCH  26  27
ENDBRANCH  24  26
ENDBRANCH   4  24
TORSDOF 4
ENDMDL
MODEL       48
REMARK 921   NORMALIZED FREE ENERGY PREDICTED BY IDOCK:   -5.59 KCAL/MOL
REMARK 922        TOTAL FREE ENERGY PREDICTED BY IDOCK:   -6.47 KCAL/MOL
REMARK 923 INTER-LIGAND FREE ENERGY PREDICTED BY IDOCK:   -7.17 KCAL/MOL
REMARK 924 INTRA-LIGAND FREE ENERGY PREDICTED BY IDOCK:    0.70 KCAL/MOL
REMARK 927      BINDING AFFINITY PREDICTED BY RF-SCORE:    0.00 PKD
ROOT
HETATM    1  C   UNL     1      -8.281   9.429  70.704  1.00  0.00    -0.207 C  
HETATM    2  C   UNL     1      -6.960   8.920  70.704  1.00  0.00    -0.064 C  
HETATM    3  C   UNL     1      -7.934   8.223  69.799  1.00  0.00    -0.106 C  
HETATM    4  C   UNL     1      -9.727   9.172  69.327  1.00  0.00    -0.164 C  
HETATM    5  O   UNL     1     -11.634   3.149  73.471  1.00  0.00    -0.174 OA 
HETATM    6  O   UNL     1      -9.975  10.523  69.899  1.00  0.00    -0.420 OA 
HETATM    7  C   UNL     1      -8.466   9.233  68.793  1.00  0.00    -0.129 C  
HETATM    8  C   UNL     1      -7.740  10.301  68.036  1.00  0.00    -0.089 C  
HETATM    9  C   UNL     1      -9.007   7.529  68.133  1.00  0.00    -0.129 C  
HETATM   10  C   UNL     1     -10.536   3.641  73.246  1.00  0.00    -0.188 C  
HETATM   11  C   UNL     1      -9.974   4.784  73.987  1.00  0.00    -0.200 C  
HETATM   12  H   UNL     1     -10.793  10.956  69.684  1.00  0.00     0.000 HD 
HETATM   13  C   UNL     1     -10.003   6.738  69.263  1.00  0.00    -0.160 C  
HETATM   14  C   UNL     1      -9.728   3.275  72.011  1.00  0.00    -0.235 C  
HETATM   15  O   UNL     1     -11.023   6.193  68.832  1.00  0.00    -0.310 OA 
HETATM   16  C   UNL     1     -11.952   6.391  71.736  1.00  0.00    -0.370 C  
HETATM   17  C   UNL     1      -9.650   6.740  70.909  1.00  0.00    -0.173 C  
HETATM   18  C   UNL     1      -9.386   8.286  71.598  1.00  0.00    -0.254 C  
HETATM   19  C   UNL     1     -10.533   5.819  71.799  1.00  0.00    -0.281 C  
HETATM   20  C   UNL     1     -10.257   4.299  71.317  1.00  0.00    -0.106 C  
HETATM   21  C   UNL     1      -8.867   8.154  73.031  1.00  0.00    -0.316 C  
HETATM   22  C   UNL     1      -9.764   7.273  73.885  1.00  0.00    -0.323 C  
HETATM   23  C   UNL     1     -10.057   5.921  73.276  1.00  0.00    -0.202 C  
ENDROOT
BRANCH   4  24
HETATM   24  C   UNL     1     -10.595   9.603  67.783  1.00  0.00    -0.264 C  
HETATM   25  O   UNL     1     -10.617   8.852  66.792  1.00  0.00    -0.243 OA 
BRANCH  24  26
HETATM   26  C   UNL     1     -11.275  11.052  67.529  1.00  0.00    -0.302 C  
BRANCH  26  27
HETATM   27  O   UNL     1     -11.080  11.477  66.123  1.00  0.00    -0.296 OA 
BRANCH  27  28
HETATM   28  C   UNL     1     -11.668  12.517  65.457  1.00  0.00    -0.409 C  
HETATM   29  C   UNL     1     -10.760  13.675  65.074  1.00  0.00    -0.374 C  
HETATM   30  O   UNL     1     -12.837  12.544  65.148  1.00  0.00    -0.685 OA 
ENDBRANCH  27  28
ENDBRANCH  26  27
ENDBRANCH  24  26
ENDBRANCH   4  24
TORSDOF 4
ENDMDL
MODEL       49
REMARK 921   NORMALIZED FREE ENERGY PREDICTED BY IDOCK:   -5.57 KCAL/MOL
REMARK 922        TOTAL FREE ENERGY PREDICTED BY IDOCK:   -6.45 KCAL/MOL
REMARK 923 INTER-LIGAND FREE ENERGY PREDICTED BY IDOCK:   -6.92 KCAL/MOL
REMARK 924 INTRA-LIGAND FREE ENERGY PREDICTED BY IDOCK:    0.47 KCAL/MOL
REMARK 927      BINDING AFFINITY PREDICTED BY RF-SCORE:    0.00 PKD
ROOT
HETATM    1  C   UNL     1     -11.953  12.381  68.796  1.00  0.00    -0.276 C  
HETATM    2  C   UNL     1     -11.557  13.308  69.790  1.00  0.00    -0.297 C  
HETATM    3  C   UNL     1     -10.461  12.472  69.195  1.00  0.00     0.071 C  
HETATM    4  C   UNL     1     -10.819  11.468  67.405  1.00  0.00    -0.246 C  
HETATM    5  O   UNL     1      -9.979   6.081  72.637  1.00  0.00    -0.174 OA 
HETATM    6  O   UNL     1     -12.155  11.625  66.769  1.00  0.00    -0.472 OA 
HETATM    7  C   UNL     1     -10.407  12.742  67.698  1.00  0.00    -0.221 C  
HETATM    8  C   UNL     1     -10.523  14.037  66.956  1.00  0.00    -0.275 C  
HETATM    9  C   UNL     1      -8.804  11.792  68.098  1.00  0.00    -0.169 C  
HETATM   10  C   UNL     1     -10.092   7.294  72.758  1.00  0.00    -0.210 C  
HETATM   11  C   UNL     1     -11.380   8.009  72.767  1.00  0.00    -0.439 C  
HETATM   12  H   UNL     1     -12.318  11.167  65.953  1.00  0.00     0.000 HD 
HETATM   13  C   UNL     1      -9.163  10.261  68.748  1.00  0.00    -0.166 C  
HETATM   14  C   UNL     1      -8.893   8.226  72.673  1.00  0.00    -0.304 C  
HETATM   15  O   UNL     1      -8.524   9.299  68.314  1.00  0.00    -0.119 OA 
HETATM   16  C   UNL     1     -10.858   7.672  69.424  1.00  0.00    -0.136 C  
HETATM   17  C   UNL     1     -10.375  10.048  69.897  1.00  0.00    -0.315 C  
HETATM   18  C   UNL     1     -11.906  10.688  69.471  1.00  0.00    -0.345 C  
HETATM   19  C   UNL     1     -10.464   8.637  70.545  1.00  0.00    -0.237 C  
HETATM   20  C   UNL     1      -9.081   8.406  71.354  1.00  0.00    -0.240 C  
HETATM   21  C   UNL     1     -12.864  10.630  70.662  1.00  0.00    -0.404 C  
HETATM   22  C   UNL     1     -12.952   9.234  71.257  1.00  0.00    -0.342 C  
HETATM   23  C   UNL     1     -11.611   8.624  71.594  1.00  0.00    -0.379 C  
ENDROOT
BRANCH   4  24
HETATM   24  C   UNL     1      -9.993  11.383  65.783  1.00  0.00    -0.230 C  
HETATM   25  O   UNL     1      -9.772  12.389  65.086  1.00  0.00    -0.179 OA 
BRANCH  24  26
HETATM   26  C   UNL     1      -9.618   9.983  65.056  1.00  0.00    -0.297 C  
BRANCH  26  27
HETATM   27  O   UNL     1      -8.204   9.990  64.614  1.00  0.00    -0.149 OA 
BRANCH  27  28
HETATM   28  C   UNL     1      -7.596   9.190  63.686  1.00  0.00    -0.113 C  
HETATM   29  C   UNL     1      -6.543   9.850  62.810  1.00  0.00    -0.118 C  
HETATM   30  O   UNL     1      -7.835   8.013  63.552  1.00  0.00    -0.136 OA 
ENDBRANCH  27  28
ENDBRANCH  26  27
ENDBRANCH  24  26
ENDBRANCH   4  24
TORSDOF 4
ENDMDL
MODEL       50
REMARK 921   NORMALIZED FREE ENERGY PREDICTED BY IDOCK:   -5.57 KCAL/MOL
REMARK 922        TOTAL FREE ENERGY PREDICTED BY IDOCK:   -6.44 KCAL/MOL
REMARK 923 INTER-LIGAND FREE ENERGY PREDICTED BY IDOCK:   -7.10 KCAL/MOL
REMARK 924 INTRA-LIGAND FREE ENERGY PREDICTED BY IDOCK:    0.66 KCAL/MOL
REMARK 927      BINDING AFFINITY PREDICTED BY RF-SCORE:    0.00 PKD
ROOT
HETATM    1  C   UNL     1     -10.282   9.907  69.563  1.00  0.00    -0.243 C  
HETATM    2  C   UNL     1      -9.113   9.963  70.360  1.00  0.00    -0.021 C  
HETATM    3  C   UNL     1      -8.897   9.772  68.886  1.00  0.00    -0.140 C  
HETATM    4  C   UNL     1     -10.463  10.185  67.577  1.00  0.00    -0.253 C  
HETATM    5  O   UNL     1      -9.345   2.724  67.141  1.00  0.00    -0.165 OA 
HETATM    6  O   UNL     1     -11.747  10.668  68.152  1.00  0.00    -0.671 OA 
HETATM    7  C   UNL     1      -9.494  10.964  68.153  1.00  0.00    -0.167 C  
HETATM    8  C   UNL     1      -9.439  12.421  68.493  1.00  0.00    -0.101 C  
HETATM    9  C   UNL     1      -8.436  10.051  66.857  1.00  0.00    -0.125 C  
HETATM   10  C   UNL     1      -8.891   3.550  67.921  1.00  0.00    -0.120 C  
HETATM   11  C   UNL     1      -9.595   4.029  69.123  1.00  0.00    -0.233 C  
HETATM   12  H   UNL     1     -12.462  10.856  67.554  1.00  0.00     0.000 HD 
HETATM   13  C   UNL     1      -8.996   8.459  66.642  1.00  0.00    -0.151 C  
HETATM   14  C   UNL     1      -7.639   4.353  67.603  1.00  0.00    -0.077 C  
HETATM   15  O   UNL     1      -9.101   8.049  65.483  1.00  0.00    -0.080 OA 
HETATM   16  C   UNL     1     -10.994   6.002  66.732  1.00  0.00    -0.305 C  
HETATM   17  C   UNL     1      -9.442   7.493  67.947  1.00  0.00    -0.153 C  
HETATM   18  C   UNL     1     -10.581   8.193  69.018  1.00  0.00    -0.167 C  
HETATM   19  C   UNL     1      -9.747   6.003  67.622  1.00  0.00    -0.120 C  
HETATM   20  C   UNL     1      -8.370   5.352  67.076  1.00  0.00    -0.107 C  
HETATM   21  C   UNL     1     -10.748   7.325  70.267  1.00  0.00    -0.252 C  
HETATM   22  C   UNL     1     -11.073   5.882  69.920  1.00  0.00    -0.417 C  
HETATM   23  C   UNL     1     -10.114   5.255  68.935  1.00  0.00    -0.254 C  
ENDROOT
BRANCH   4  24
HETATM   24  C   UNL     1     -10.669  11.224  66.094  1.00  0.00    -0.250 C  
HETATM   25  O   UNL     1      -9.833  11.257  65.174  1.00  0.00    -0.229 OA 
BRANCH  24  26
HETATM   26  C   UNL     1     -11.877  12.292  65.926  1.00  0.00    -0.354 C  
BRANCH  26  27
HETATM   27  O   UNL     1     -11.339  13.658  65.729  1.00  0.00    -0.302 OA 
BRANCH  27  28
HETATM   28  C   UNL     1     -11.689  14.586  64.788  1.00  0.00    -0.422 C  
HETATM   29  C   UNL     1     -10.940  15.909  64.830  1.00  0.00    -0.427 C  
HETATM   30  O   UNL     1     -12.526  14.398  63.936  1.00  0.00    -0.798 OA 
ENDBRANCH  27  28
ENDBRANCH  26  27
ENDBRANCH  24  26
ENDBRANCH   4  24
TORSDOF 4
ENDMDL
MODEL       51
REMARK 921   NORMALIZED FREE ENERGY PREDICTED BY IDOCK:   -5.55 KCAL/MOL
REMARK 922        TOTAL FREE ENERGY PREDICTED BY IDOCK:   -6.42 KCAL/MOL
REMARK 923 INTER-LIGAND FREE ENERGY PREDICTED BY IDOCK:   -6.60 KCAL/MOL
REMARK 924 INTRA-LIGAND FREE ENERGY PREDICTED BY IDOCK:    0.17 KCAL/MOL
REMARK 927      BINDING AFFINITY PREDICTED BY RF-SCORE:    0.00 PKD
ROOT
HETATM    1  C   UNL     1     -11.364  10.200  70.850  1.00  0.00    -0.420 C  
HETATM    2  C   UNL     1     -12.743   9.892  70.769  1.00  0.00    -0.303 C  
HETATM    3  C   UNL     1     -11.894   9.417  69.625  1.00  0.00     0.397 C  
HETATM    4  C   UNL     1      -9.826   9.350  69.865  1.00  0.00    -0.210 C  
HETATM    5  O   UNL     1     -11.111  14.693  64.679  1.00  0.00    -0.376 OA 
HETATM    6  O   UNL     1      -9.260   9.768  71.176  1.00  0.00    -0.316 OA 
HETATM    7  C   UNL     1     -10.833   8.472  70.171  1.00  0.00    -0.238 C  
HETATM    8  C   UNL     1     -10.954   7.392  71.200  1.00  0.00    -0.265 C  
HETATM    9  C   UNL     1     -10.784   8.250  68.279  1.00  0.00    -0.076 C  
HETATM   10  C   UNL     1     -11.889  14.093  65.408  1.00  0.00    -0.362 C  
HETATM   11  C   UNL     1     -12.171  14.466  66.805  1.00  0.00    -0.319 C  
HETATM   12  H   UNL     1      -8.317   9.738  71.285  1.00  0.00     0.000 HD 
HETATM   13  C   UNL     1     -10.405   9.721  67.513  1.00  0.00    -0.237 C  
HETATM   14  C   UNL     1     -12.474  12.743  65.021  1.00  0.00    -0.572 C  
HETATM   15  O   UNL     1      -9.569   9.686  66.607  1.00  0.00    -0.166 OA 
HETATM   16  C   UNL     1      -9.306  12.674  67.187  1.00  0.00    -0.210 C  
HETATM   17  C   UNL     1     -11.096  11.177  68.001  1.00  0.00    -0.334 C  
HETATM   18  C   UNL     1     -10.955  11.529  69.671  1.00  0.00    -0.129 C  
HETATM   19  C   UNL     1     -10.811  12.407  67.092  1.00  0.00    -0.280 C  
HETATM   20  C   UNL     1     -11.482  12.091  65.653  1.00  0.00    -0.372 C  
HETATM   21  C   UNL     1     -11.795  12.755  70.035  1.00  0.00    -0.352 C  
HETATM   22  C   UNL     1     -11.476  13.949  69.150  1.00  0.00    -0.345 C  
HETATM   23  C   UNL     1     -11.541  13.653  67.670  1.00  0.00    -0.381 C  
ENDROOT
BRANCH   4  24
HETATM   24  C   UNL     1      -8.540   8.077  69.650  1.00  0.00    -0.135 C  
HETATM   25  O   UNL     1      -8.517   7.025  70.312  1.00  0.00    -0.135 OA 
BRANCH  24  26
HETATM   26  C   UNL     1      -7.249   8.282  68.690  1.00  0.00    -0.087 C  
BRANCH  26  27
HETATM   27  O   UNL     1      -7.015   7.070  67.871  1.00  0.00    -0.077 OA 
BRANCH  27  28
HETATM   28  C   UNL     1      -7.726   6.616  66.794  1.00  0.00    -0.106 C  
HETATM   29  C   UNL     1      -7.356   7.205  65.442  1.00  0.00    -0.080 C  
HETATM   30  O   UNL     1      -8.594   5.777  66.866  1.00  0.00    -0.111 OA 
ENDBRANCH  27  28
ENDBRANCH  26  27
ENDBRANCH  24  26
ENDBRANCH   4  24
TORSDOF 4
ENDMDL
MODEL       52
REMARK 921   NORMALIZED FREE ENERGY PREDICTED BY IDOCK:   -5.54 KCAL/MOL
REMARK 922        TOTAL FREE ENERGY PREDICTED BY IDOCK:   -6.42 KCAL/MOL
REMARK 923 INTER-LIGAND FREE ENERGY PREDICTED BY IDOCK:   -7.24 KCAL/MOL
REMARK 924 INTRA-LIGAND FREE ENERGY PREDICTED BY IDOCK:    0.82 KCAL/MOL
REMARK 927      BINDING AFFINITY PREDICTED BY RF-SCORE:    0.00 PKD
ROOT
HETATM    1  C   UNL     1      -8.413   8.660  66.717  1.00  0.00    -0.117 C  
HETATM    2  C   UNL     1      -9.171   7.714  65.985  1.00  0.00    -0.118 C  
HETATM    3  C   UNL     1      -9.958   8.728  66.765  1.00  0.00    -0.338 C  
HETATM    4  C   UNL     1      -8.994  10.445  67.445  1.00  0.00    -0.135 C  
HETATM    5  O   UNL     1     -10.819   6.532  73.647  1.00  0.00    -0.259 OA 
HETATM    6  O   UNL     1      -7.551  10.612  67.122  1.00  0.00    -0.095 OA 
HETATM    7  C   UNL     1      -9.594  10.116  66.258  1.00  0.00    -0.245 C  
HETATM    8  C   UNL     1      -9.389  10.597  64.856  1.00  0.00    -0.271 C  
HETATM    9  C   UNL     1     -11.145  10.363  67.338  1.00  0.00    -0.297 C  
HETATM   10  C   UNL     1     -10.864   6.213  72.466  1.00  0.00    -0.240 C  
HETATM   11  C   UNL     1      -9.710   5.710  71.700  1.00  0.00    -0.196 C  
HETATM   12  H   UNL     1      -7.112  11.395  67.433  1.00  0.00     0.000 HD 
HETATM   13  C   UNL     1     -10.849   9.856  68.935  1.00  0.00    -0.210 C  
HETATM   14  C   UNL     1     -12.068   6.529  71.592  1.00  0.00    -0.381 C  
HETATM   15  O   UNL     1     -11.237  10.596  69.843  1.00  0.00    -0.267 OA 
HETATM   16  C   UNL     1      -9.188   9.065  71.514  1.00  0.00    -0.260 C  
HETATM   17  C   UNL     1     -10.015   8.433  69.272  1.00  0.00    -0.195 C  
HETATM   18  C   UNL     1      -8.495   8.276  68.498  1.00  0.00    -0.126 C  
HETATM   19  C   UNL     1      -9.987   7.994  70.764  1.00  0.00    -0.202 C  
HETATM   20  C   UNL     1     -11.518   7.688  71.190  1.00  0.00    -0.296 C  
HETATM   21  C   UNL     1      -7.930   6.869  68.702  1.00  0.00    -0.120 C  
HETATM   22  C   UNL     1      -7.888   6.478  70.170  1.00  0.00    -0.107 C  
HETATM   23  C   UNL     1      -9.204   6.657  70.892  1.00  0.00    -0.157 C  
ENDROOT
BRANCH   4  24
HETATM   24  C   UNL     1      -9.293  12.237  67.306  1.00  0.00    -0.185 C  
HETATM   25  O   UNL     1      -9.297  12.997  68.290  1.00  0.00    -0.212 OA 
BRANCH  24  26
HETATM   26  C   UNL     1      -9.721  12.954  65.916  1.00  0.00    -0.184 C  
BRANCH  26  27
HETATM   27  O   UNL     1     -11.064  13.568  66.042  1.00  0.00    -0.292 OA 
BRANCH  27  28
HETATM   28  C   UNL     1     -12.093  13.562  65.141  1.00  0.00    -0.404 C  
HETATM   29  C   UNL     1     -11.817  12.896  63.803  1.00  0.00    -0.571 C  
HETATM   30  O   UNL     1     -13.185  14.030  65.364  1.00  0.00    -0.761 OA 
ENDBRANCH  27  28
ENDBRANCH  26  27
ENDBRANCH  24  26
ENDBRANCH   4  24
TORSDOF 4
ENDMDL
MODEL       53
REMARK 921   NORMALIZED FREE ENERGY PREDICTED BY IDOCK:   -5.54 KCAL/MOL
REMARK 922        TOTAL FREE ENERGY PREDICTED BY IDOCK:   -6.41 KCAL/MOL
REMARK 923 INTER-LIGAND FREE ENERGY PREDICTED BY IDOCK:   -7.00 KCAL/MOL
REMARK 924 INTRA-LIGAND FREE ENERGY PREDICTED BY IDOCK:    0.59 KCAL/MOL
REMARK 927      BINDING AFFINITY PREDICTED BY RF-SCORE:    0.00 PKD
ROOT
HETATM    1  C   UNL     1     -10.873  15.877  67.413  1.00  0.00    -0.291 C  
HETATM    2  C   UNL     1     -11.653  15.911  68.594  1.00  0.00    -0.383 C  
HETATM    3  C   UNL     1     -10.202  15.568  68.772  1.00  0.00    -0.212 C  
HETATM    4  C   UNL     1      -8.871  15.983  67.224  1.00  0.00    -0.190 C  
HETATM    5  O   UNL     1      -9.128   8.448  67.737  1.00  0.00    -0.135 OA 
HETATM    6  O   UNL     1      -9.408  16.619  65.991  1.00  0.00    -0.381 OA 
HETATM    7  C   UNL     1      -9.365  16.731  68.261  1.00  0.00    -0.230 C  
HETATM    8  C   UNL     1      -9.567  18.204  68.437  1.00  0.00    -0.345 C  
HETATM    9  C   UNL     1      -8.152  15.619  69.223  1.00  0.00    -0.244 C  
HETATM   10  C   UNL     1      -9.824   9.303  68.267  1.00  0.00    -0.158 C  
HETATM   11  C   UNL     1     -10.981   9.947  67.622  1.00  0.00    -0.263 C  
HETATM   12  H   UNL     1      -8.801  16.808  65.285  1.00  0.00     0.000 HD 
HETATM   13  C   UNL     1      -8.091  14.064  68.535  1.00  0.00    -0.139 C  
HETATM   14  C   UNL     1      -9.423   9.970  69.575  1.00  0.00    -0.245 C  
HETATM   15  O   UNL     1      -6.977  13.559  68.380  1.00  0.00    -0.086 OA 
HETATM   16  C   UNL     1      -8.426  11.796  66.349  1.00  0.00    -0.081 C  
HETATM   17  C   UNL     1      -9.484  13.263  68.033  1.00  0.00    -0.219 C  
HETATM   18  C   UNL     1     -10.494  14.149  66.970  1.00  0.00    -0.271 C  
HETATM   19  C   UNL     1      -9.303  11.779  67.605  1.00  0.00    -0.180 C  
HETATM   20  C   UNL     1      -8.810  10.971  68.918  1.00  0.00    -0.120 C  
HETATM   21  C   UNL     1     -11.820  13.417  66.753  1.00  0.00    -0.452 C  
HETATM   22  C   UNL     1     -11.612  11.979  66.308  1.00  0.00    -0.378 C  
HETATM   23  C   UNL     1     -10.683  11.188  67.199  1.00  0.00    -0.305 C  
ENDROOT
BRANCH   4  24
HETATM   24  C   UNL     1      -7.299  16.893  67.080  1.00  0.00    -0.193 C  
HETATM   25  O   UNL     1      -6.411  16.845  67.949  1.00  0.00    -0.133 OA 
BRANCH  24  26
HETATM   26  C   UNL     1      -6.998  17.947  65.886  1.00  0.00    -0.278 C  
BRANCH  26  27
HETATM   27  O   UNL     1      -6.266  19.126  66.407  1.00  0.00    -0.172 OA 
BRANCH  27  28
HETATM   28  C   UNL     1      -6.770  20.248  67.003  1.00  0.00    -0.236 C  
HETATM   29  C   UNL     1      -5.812  21.034  67.885  1.00  0.00    -0.391 C  
HETATM   30  O   UNL     1      -7.902  20.643  66.847  1.00  0.00    -0.288 OA 
ENDBRANCH  27  28
ENDBRANCH  26  27
ENDBRANCH  24  26
ENDBRANCH   4  24
TORSDOF 4
ENDMDL
MODEL       54
REMARK 921   NORMALIZED FREE ENERGY PREDICTED BY IDOCK:   -5.52 KCAL/MOL
REMARK 922        TOTAL FREE ENERGY PREDICTED BY IDOCK:   -6.39 KCAL/MOL
REMARK 923 INTER-LIGAND FREE ENERGY PREDICTED BY IDOCK:   -7.14 KCAL/MOL
REMARK 924 INTRA-LIGAND FREE ENERGY PREDICTED BY IDOCK:    0.74 KCAL/MOL
REMARK 927      BINDING AFFINITY PREDICTED BY RF-SCORE:    0.00 PKD
ROOT
HETATM    1  C   UNL     1     -11.581  15.424  65.816  1.00  0.00     0.073 C  
HETATM    2  C   UNL     1     -11.216  15.565  64.456  1.00  0.00    -0.327 C  
HETATM    3  C   UNL     1     -10.368  14.632  65.272  1.00  0.00    -0.425 C  
HETATM    4  C   UNL     1     -11.093  13.954  67.103  1.00  0.00    -0.300 C  
HETATM    5  O   UNL     1      -5.150  18.323  68.746  1.00  0.00    -0.171 OA 
HETATM    6  O   UNL     1     -12.440  14.414  67.536  1.00  0.00    -0.599 OA 
HETATM    7  C   UNL     1     -11.257  13.521  65.813  1.00  0.00    -0.308 C  
HETATM    8  C   UNL     1     -12.350  12.756  65.136  1.00  0.00    -0.555 C  
HETATM    9  C   UNL     1      -9.469  12.934  66.120  1.00  0.00    -0.161 C  
HETATM   10  C   UNL     1      -5.743  18.156  67.688  1.00  0.00    -0.149 C  
HETATM   11  C   UNL     1      -6.980  18.861  67.311  1.00  0.00    -0.214 C  
HETATM   12  H   UNL     1     -12.771  14.104  68.372  1.00  0.00     0.000 HD 
HETATM   13  C   UNL     1      -8.643  14.031  67.125  1.00  0.00    -0.205 C  
HETATM   14  C   UNL     1      -5.394  17.016  66.743  1.00  0.00    -0.185 C  
HETATM   15  O   UNL     1      -7.969  13.556  68.044  1.00  0.00    -0.126 OA 
HETATM   16  C   UNL     1      -8.234  16.356  69.238  1.00  0.00    -0.109 C  
HETATM   17  C   UNL     1      -8.778  15.696  66.919  1.00  0.00    -0.283 C  
HETATM   18  C   UNL     1     -10.381  16.299  66.874  1.00  0.00    -0.299 C  
HETATM   19  C   UNL     1      -7.822  16.571  67.779  1.00  0.00    -0.164 C  
HETATM   20  C   UNL     1      -6.314  16.216  67.310  1.00  0.00    -0.204 C  
HETATM   21  C   UNL     1     -10.388  17.776  66.471  1.00  0.00    -0.345 C  
HETATM   22  C   UNL     1      -9.467  18.611  67.346  1.00  0.00    -0.315 C  
HETATM   23  C   UNL     1      -8.059  18.072  67.446  1.00  0.00    -0.227 C  
ENDROOT
BRANCH   4  24
HETATM   24  C   UNL     1     -11.338  12.321  67.872  1.00  0.00    -0.298 C  
HETATM   25  O   UNL     1     -11.973  11.405  67.320  1.00  0.00    -0.580 OA 
BRANCH  24  26
HETATM   26  C   UNL     1     -10.880  11.983  69.390  1.00  0.00    -0.001 C  
BRANCH  26  27
HETATM   27  O   UNL     1      -9.916  10.858  69.403  1.00  0.00    -0.172 OA 
BRANCH  27  28
HETATM   28  C   UNL     1      -9.776   9.843  68.497  1.00  0.00    -0.154 C  
HETATM   29  C   UNL     1      -8.603   9.950  67.536  1.00  0.00    -0.122 C  
HETATM   30  O   UNL     1     -10.509   8.882  68.445  1.00  0.00    -0.210 OA 
ENDBRANCH  27  28
ENDBRANCH  26  27
ENDBRANCH  24  26
ENDBRANCH   4  24
TORSDOF 4
ENDMDL
MODEL       55
REMARK 921   NORMALIZED FREE ENERGY PREDICTED BY IDOCK:   -5.48 KCAL/MOL
REMARK 922        TOTAL FREE ENERGY PREDICTED BY IDOCK:   -6.34 KCAL/MOL
REMARK 923 INTER-LIGAND FREE ENERGY PREDICTED BY IDOCK:   -6.69 KCAL/MOL
REMARK 924 INTRA-LIGAND FREE ENERGY PREDICTED BY IDOCK:    0.35 KCAL/MOL
REMARK 927      BINDING AFFINITY PREDICTED BY RF-SCORE:    0.00 PKD
ROOT
HETATM    1  C   UNL     1     -10.402  10.110  65.289  1.00  0.00    -0.154 C  
HETATM    2  C   UNL     1      -9.640  10.224  64.101  1.00  0.00    -0.376 C  
HETATM    3  C   UNL     1      -8.945  10.625  65.371  1.00  0.00    -0.208 C  
HETATM    4  C   UNL     1      -9.756  10.028  67.195  1.00  0.00    -0.174 C  
HETATM    5  O   UNL     1     -10.450  17.550  67.013  1.00  0.00    -0.328 OA 
HETATM    6  O   UNL     1     -10.998   9.210  67.174  1.00  0.00    -0.327 OA 
HETATM    7  C   UNL     1      -8.910   9.422  66.303  1.00  0.00    -0.172 C  
HETATM    8  C   UNL     1      -8.625   7.985  65.997  1.00  0.00    -0.162 C  
HETATM    9  C   UNL     1      -7.709  10.689  67.067  1.00  0.00    -0.117 C  
HETATM   10  C   UNL     1     -10.128  16.762  66.133  1.00  0.00    -0.345 C  
HETATM   11  C   UNL     1     -11.086  16.004  65.310  1.00  0.00    -0.219 C  
HETATM   12  H   UNL     1     -11.368   8.938  68.006  1.00  0.00     0.000 HD 
HETATM   13  C   UNL     1      -8.525  12.132  67.451  1.00  0.00    -0.173 C  
HETATM   14  C   UNL     1      -8.690  16.298  65.956  1.00  0.00    -0.285 C  
HETATM   15  O   UNL     1      -8.291  12.638  68.551  1.00  0.00    -0.141 OA 
HETATM   16  C   UNL     1     -10.957  14.058  68.095  1.00  0.00    -0.268 C  
HETATM   17  C   UNL     1      -9.650  12.819  66.403  1.00  0.00    -0.254 C  
HETATM   18  C   UNL     1     -10.893  11.766  65.873  1.00  0.00    -0.339 C  
HETATM   19  C   UNL     1     -10.173  14.231  66.791  1.00  0.00    -0.272 C  
HETATM   20  C   UNL     1      -8.900  15.230  66.746  1.00  0.00    -0.302 C  
HETATM   21  C   UNL     1     -11.723  12.426  64.770  1.00  0.00    -0.425 C  
HETATM   22  C   UNL     1     -12.244  13.791  65.187  1.00  0.00    -0.453 C  
HETATM   23  C   UNL     1     -11.175  14.724  65.709  1.00  0.00    -0.337 C  
ENDROOT
BRANCH   4  24
HETATM   24  C   UNL     1      -9.130   9.146  68.661  1.00  0.00    -0.136 C  
HETATM   25  O   UNL     1      -8.701   7.980  68.613  1.00  0.00    -0.131 OA 
BRANCH  24  26
HETATM   26  C   UNL     1      -9.222   9.754  70.161  1.00  0.00    -0.208 C  
BRANCH  26  27
HETATM   27  O   UNL     1      -7.878  10.142  70.648  1.00  0.00    -0.153 OA 
BRANCH  27  28
HETATM   28  C   UNL     1      -6.830   9.335  70.995  1.00  0.00    -0.089 C  
HETATM   29  C   UNL     1      -7.088   8.332  72.108  1.00  0.00    -0.103 C  
HETATM   30  O   UNL     1      -5.747   9.369  70.458  1.00  0.00    -0.038 OA 
ENDBRANCH  27  28
ENDBRANCH  26  27
ENDBRANCH  24  26
ENDBRANCH   4  24
TORSDOF 4
ENDMDL
MODEL       56
REMARK 921   NORMALIZED FREE ENERGY PREDICTED BY IDOCK:   -5.47 KCAL/MOL
REMARK 922        TOTAL FREE ENERGY PREDICTED BY IDOCK:   -6.33 KCAL/MOL
REMARK 923 INTER-LIGAND FREE ENERGY PREDICTED BY IDOCK:   -7.09 KCAL/MOL
REMARK 924 INTRA-LIGAND FREE ENERGY PREDICTED BY IDOCK:    0.76 KCAL/MOL
REMARK 927      BINDING AFFINITY PREDICTED BY RF-SCORE:    0.00 PKD
ROOT
HETATM    1  C   UNL     1     -11.618  12.145  67.589  1.00  0.00    -0.413 C  
HETATM    2  C   UNL     1     -11.906  11.943  68.960  1.00  0.00    -0.368 C  
HETATM    3  C   UNL     1     -10.581  12.580  68.652  1.00  0.00    -0.240 C  
HETATM    4  C   UNL     1     -10.267  13.386  66.757  1.00  0.00    -0.259 C  
HETATM    5  O   UNL     1      -5.573   7.488  67.273  1.00  0.00    -0.028 OA 
HETATM    6  O   UNL     1     -11.380  13.312  65.772  1.00  0.00    -0.300 OA 
HETATM    7  C   UNL     1     -10.833  13.881  67.903  1.00  0.00    -0.256 C  
HETATM    8  C   UNL     1     -11.864  14.938  68.146  1.00  0.00    -0.307 C  
HETATM    9  C   UNL     1      -8.996  13.936  68.408  1.00  0.00    -0.178 C  
HETATM   10  C   UNL     1      -6.485   7.842  68.008  1.00  0.00    -0.055 C  
HETATM   11  C   UNL     1      -7.904   7.521  67.780  1.00  0.00    -0.117 C  
HETATM   12  H   UNL     1     -11.236  13.680  64.907  1.00  0.00     0.000 HD 
HETATM   13  C   UNL     1      -8.149  12.627  67.728  1.00  0.00    -0.166 C  
HETATM   14  C   UNL     1      -6.274   8.862  69.117  1.00  0.00    -0.043 C  
HETATM   15  O   UNL     1      -7.054  12.870  67.213  1.00  0.00    -0.144 OA 
HETATM   16  C   UNL     1      -7.527  10.227  65.756  1.00  0.00    -0.144 C  
HETATM   17  C   UNL     1      -8.793  11.072  67.702  1.00  0.00    -0.131 C  
HETATM   18  C   UNL     1     -10.365  10.942  67.034  1.00  0.00    -0.276 C  
HETATM   19  C   UNL     1      -7.835   9.942  67.229  1.00  0.00    -0.102 C  
HETATM   20  C   UNL     1      -6.626   9.873  68.303  1.00  0.00    -0.055 C  
HETATM   21  C   UNL     1     -10.930   9.538  67.257  1.00  0.00    -0.062 C  
HETATM   22  C   UNL     1      -9.986   8.457  66.759  1.00  0.00    -0.354 C  
HETATM   23  C   UNL     1      -8.577   8.577  67.292  1.00  0.00    -0.123 C  
ENDROOT
BRANCH   4  24
HETATM   24  C   UNL     1      -9.727  15.003  66.113  1.00  0.00    -0.306 C  
HETATM   25  O   UNL     1      -8.601  15.477  66.343  1.00  0.00    -0.294 OA 
BRANCH  24  26
HETATM   26  C   UNL     1     -10.718  16.012  65.320  1.00  0.00    -0.399 C  
BRANCH  26  27
HETATM   27  O   UNL     1     -10.209  17.402  65.391  1.00  0.00    -0.603 OA 
BRANCH  27  28
HETATM   28  C   UNL     1     -10.439  18.347  66.352  1.00  0.00    -0.383 C  
HETATM   29  C   UNL     1     -10.496  19.792  65.880  1.00  0.00    -0.587 C  
HETATM   30  O   UNL     1     -10.616  18.091  67.520  1.00  0.00    -0.395 OA 
ENDBRANCH  27  28
ENDBRANCH  26  27
ENDBRANCH  24  26
ENDBRANCH   4  24
TORSDOF 4
ENDMDL
MODEL       57
REMARK 921   NORMALIZED FREE ENERGY PREDICTED BY IDOCK:   -5.44 KCAL/MOL
REMARK 922        TOTAL FREE ENERGY PREDICTED BY IDOCK:   -6.28 KCAL/MOL
REMARK 923 INTER-LIGAND FREE ENERGY PREDICTED BY IDOCK:   -6.59 KCAL/MOL
REMARK 924 INTRA-LIGAND FREE ENERGY PREDICTED BY IDOCK:    0.30 KCAL/MOL
REMARK 927      BINDING AFFINITY PREDICTED BY RF-SCORE:    0.00 PKD
ROOT
HETATM    1  C   UNL     1      -8.721   8.554  65.091  1.00  0.00    -0.156 C  
HETATM    2  C   UNL     1      -7.424   8.925  64.662  1.00  0.00    -0.104 C  
HETATM    3  C   UNL     1      -7.764   9.251  66.088  1.00  0.00    -0.096 C  
HETATM    4  C   UNL     1      -9.403   8.316  66.970  1.00  0.00    -0.160 C  
HETATM    5  O   UNL     1     -11.238  15.630  66.478  1.00  0.00    -0.208 OA 
HETATM    6  O   UNL     1     -10.178   7.344  66.154  1.00  0.00    -0.430 OA 
HETATM    7  C   UNL     1      -8.091   7.954  66.814  1.00  0.00    -0.108 C  
HETATM    8  C   UNL     1      -7.413   6.622  66.743  1.00  0.00    -0.079 C  
HETATM    9  C   UNL     1      -7.896   9.265  68.183  1.00  0.00    -0.095 C  
HETATM   10  C   UNL     1     -10.297  15.014  65.995  1.00  0.00    -0.312 C  
HETATM   11  C   UNL     1     -10.367  14.244  64.741  1.00  0.00    -0.373 C  
HETATM   12  H   UNL     1     -10.926   6.918  66.556  1.00  0.00     0.000 HD 
HETATM   13  C   UNL     1      -9.027  10.519  67.976  1.00  0.00    -0.135 C  
HETATM   14  C   UNL     1      -9.008  14.781  66.768  1.00  0.00    -0.292 C  
HETATM   15  O   UNL     1      -9.631  10.906  68.980  1.00  0.00    -0.200 OA 
HETATM   16  C   UNL     1     -11.638  11.990  66.948  1.00  0.00    -0.389 C  
HETATM   17  C   UNL     1      -9.357  11.173  66.461  1.00  0.00    -0.199 C  
HETATM   18  C   UNL     1      -9.770  10.036  65.248  1.00  0.00    -0.373 C  
HETATM   19  C   UNL     1     -10.263  12.438  66.444  1.00  0.00    -0.253 C  
HETATM   20  C   UNL     1      -9.457  13.600  67.231  1.00  0.00    -0.230 C  
HETATM   21  C   UNL     1      -9.837  10.712  63.877  1.00  0.00    -0.398 C  
HETATM   22  C   UNL     1     -10.750  11.927  63.883  1.00  0.00    -0.450 C  
HETATM   23  C   UNL     1     -10.442  12.923  64.977  1.00  0.00    -0.337 C  
ENDROOT
BRANCH   4  24
HETATM   24  C   UNL     1      -9.676   7.347  68.489  1.00  0.00    -0.151 C  
HETATM   25  O   UNL     1      -8.923   7.417  69.476  1.00  0.00    -0.143 OA 
BRANCH  24  26
HETATM   26  C   UNL     1     -10.829   6.214  68.617  1.00  0.00    -0.332 C  
BRANCH  26  27
HETATM   27  O   UNL     1     -10.348   4.922  68.075  1.00  0.00    -0.085 OA 
BRANCH  27  28
HETATM   28  C   UNL     1      -9.459   4.042  68.628  1.00  0.00    -0.154 C  
HETATM   29  C   UNL     1      -9.418   3.985  70.147  1.00  0.00    -0.258 C  
HETATM   30  O   UNL     1      -8.743   3.314  67.981  1.00  0.00    -0.091 OA 
ENDBRANCH  27  28
ENDBRANCH  26  27
ENDBRANCH  24  26
ENDBRANCH   4  24
TORSDOF 4
ENDMDL
MODEL       58
REMARK 921   NORMALIZED FREE ENERGY PREDICTED BY IDOCK:   -5.42 KCAL/MOL
REMARK 922        TOTAL FREE ENERGY PREDICTED BY IDOCK:   -6.27 KCAL/MOL
REMARK 923 INTER-LIGAND FREE ENERGY PREDICTED BY IDOCK:   -6.91 KCAL/MOL
REMARK 924 INTRA-LIGAND FREE ENERGY PREDICTED BY IDOCK:    0.64 KCAL/MOL
REMARK 927      BINDING AFFINITY PREDICTED BY RF-SCORE:    0.00 PKD
ROOT
HETATM    1  C   UNL     1      -7.846  13.792  68.895  1.00  0.00     0.005 C  
HETATM    2  C   UNL     1      -6.759  13.104  68.304  1.00  0.00    -0.101 C  
HETATM    3  C   UNL     1      -7.328  14.245  67.509  1.00  0.00    -0.199 C  
HETATM    4  C   UNL     1      -8.553  15.629  68.470  1.00  0.00    -0.180 C  
HETATM    5  O   UNL     1     -13.014  12.010  63.561  1.00  0.00    -0.774 OA 
HETATM    6  O   UNL     1      -8.814  15.442  69.923  1.00  0.00    -0.345 OA 
HETATM    7  C   UNL     1      -7.194  15.519  68.331  1.00  0.00    -0.114 C  
HETATM    8  C   UNL     1      -6.051  15.999  69.169  1.00  0.00    -0.136 C  
HETATM    9  C   UNL     1      -7.646  16.097  66.572  1.00  0.00    -0.168 C  
HETATM   10  C   UNL     1     -11.869  11.769  63.918  1.00  0.00    -0.349 C  
HETATM   11  C   UNL     1     -11.521  11.029  65.144  1.00  0.00     0.385 C  
HETATM   12  H   UNL     1      -9.373  16.074  70.361  1.00  0.00     0.000 HD 
HETATM   13  C   UNL     1      -9.149  15.456  66.099  1.00  0.00    -0.304 C  
HETATM   14  C   UNL     1     -10.665  12.420  63.252  1.00  0.00    -0.263 C  
HETATM   15  O   UNL     1      -9.944  16.225  65.554  1.00  0.00    -0.491 OA 
HETATM   16  C   UNL     1     -12.020  14.150  66.400  1.00  0.00    -0.457 C  
HETATM   17  C   UNL     1      -9.566  13.854  66.409  1.00  0.00    -0.292 C  
HETATM   18  C   UNL     1      -9.396  13.357  68.039  1.00  0.00    -0.217 C  
HETATM   19  C   UNL     1     -10.884  13.352  65.753  1.00  0.00    -0.283 C  
HETATM   20  C   UNL     1     -10.665  13.421  64.151  1.00  0.00    -0.286 C  
HETATM   21  C   UNL     1      -9.593  11.845  68.163  1.00  0.00    -0.195 C  
HETATM   22  C   UNL     1     -10.901  11.386  67.539  1.00  0.00    -0.291 C  
HETATM   23  C   UNL     1     -11.102  11.856  66.117  1.00  0.00    -0.374 C  
ENDROOT
BRANCH   4  24
HETATM   24  C   UNL     1      -8.568  17.443  68.641  1.00  0.00    -0.259 C  
HETATM   25  O   UNL     1      -9.466  18.157  68.160  1.00  0.00    -0.275 OA 
BRANCH  24  26
HETATM   26  C   UNL     1      -7.344  18.277  69.299  1.00  0.00    -0.033 C  
BRANCH  26  27
HETATM   27  O   UNL     1      -7.032  19.473  68.481  1.00  0.00    -0.279 OA 
BRANCH  27  28
HETATM   28  C   UNL     1      -6.362  19.543  67.291  1.00  0.00    -0.190 C  
HETATM   29  C   UNL     1      -7.063  20.282  66.162  1.00  0.00    -0.295 C  
HETATM   30  O   UNL     1      -5.262  19.076  67.110  1.00  0.00    -0.149 OA 
ENDBRANCH  27  28
ENDBRANCH  26  27
ENDBRANCH  24  26
ENDBRANCH   4  24
TORSDOF 4
ENDMDL
MODEL       59
REMARK 921   NORMALIZED FREE ENERGY PREDICTED BY IDOCK:   -5.40 KCAL/MOL
REMARK 922        TOTAL FREE ENERGY PREDICTED BY IDOCK:   -6.24 KCAL/MOL
REMARK 923 INTER-LIGAND FREE ENERGY PREDICTED BY IDOCK:   -6.64 KCAL/MOL
REMARK 924 INTRA-LIGAND FREE ENERGY PREDICTED BY IDOCK:    0.39 KCAL/MOL
REMARK 927      BINDING AFFINITY PREDICTED BY RF-SCORE:    0.00 PKD
ROOT
HETATM    1  C   UNL     1      -7.094  13.053  67.886  1.00  0.00    -0.128 C  
HETATM    2  C   UNL     1      -6.792  13.298  69.248  1.00  0.00    -0.031 C  
HETATM    3  C   UNL     1      -8.251  13.258  68.894  1.00  0.00     0.199 C  
HETATM    4  C   UNL     1      -8.824  12.414  67.078  1.00  0.00    -0.210 C  
HETATM    5  O   UNL     1     -10.470  19.768  66.522  1.00  0.00    -0.448 OA 
HETATM    6  O   UNL     1      -7.760  11.866  66.194  1.00  0.00    -0.359 OA 
HETATM    7  C   UNL     1      -8.570  11.886  68.317  1.00  0.00    -0.162 C  
HETATM    8  C   UNL     1      -8.116  10.533  68.766  1.00  0.00    -0.131 C  
HETATM    9  C   UNL     1     -10.260  12.698  68.659  1.00  0.00    -0.165 C  
HETATM   10  C   UNL     1      -9.830  19.160  67.371  1.00  0.00    -0.329 C  
HETATM   11  C   UNL     1      -8.407  18.804  67.237  1.00  0.00    -0.281 C  
HETATM   12  H   UNL     1      -8.021  11.480  65.366  1.00  0.00     0.000 HD 
HETATM   13  C   UNL     1     -10.425  14.137  67.766  1.00  0.00    -0.246 C  
HETATM   14  C   UNL     1     -10.503  18.494  68.561  1.00  0.00    -0.207 C  
HETATM   15  O   UNL     1     -11.498  14.321  67.185  1.00  0.00    -0.324 OA 
HETATM   16  C   UNL     1      -9.866  16.274  65.495  1.00  0.00    -0.144 C  
HETATM   17  C   UNL     1      -9.164  15.243  67.628  1.00  0.00    -0.187 C  
HETATM   18  C   UNL     1      -7.673  14.590  67.093  1.00  0.00    -0.093 C  
HETATM   19  C   UNL     1      -9.513  16.598  66.950  1.00  0.00    -0.248 C  
HETATM   20  C   UNL     1     -10.604  17.328  67.897  1.00  0.00    -0.384 C  
HETATM   21  C   UNL     1      -6.557  15.629  67.211  1.00  0.00    -0.131 C  
HETATM   22  C   UNL     1      -6.914  16.932  66.515  1.00  0.00    -0.262 C  
HETATM   23  C   UNL     1      -8.250  17.505  66.930  1.00  0.00    -0.253 C  
ENDROOT
BRANCH   4  24
HETATM   24  C   UNL     1      -9.997  11.115  66.569  1.00  0.00    -0.214 C  
HETATM   25  O   UNL     1     -10.937  10.738  67.290  1.00  0.00    -0.290 OA 
BRANCH  24  26
HETATM   26  C   UNL     1      -9.820  10.251  65.209  1.00  0.00    -0.306 C  
BRANCH  26  27
HETATM   27  O   UNL     1     -10.802  10.684  64.187  1.00  0.00    -0.071 OA 
BRANCH  27  28
HETATM   28  C   UNL     1     -11.169  11.954  63.840  1.00  0.00    -0.420 C  
HETATM   29  C   UNL     1     -12.534  12.420  64.321  1.00  0.00    -0.529 C  
HETATM   30  O   UNL     1     -10.468  12.708  63.205  1.00  0.00    -0.286 OA 
ENDBRANCH  27  28
ENDBRANCH  26  27
ENDBRANCH  24  26
ENDBRANCH   4  24
TORSDOF 4
ENDMDL
MODEL       60
REMARK 921   NORMALIZED FREE ENERGY PREDICTED BY IDOCK:   -5.39 KCAL/MOL
REMARK 922        TOTAL FREE ENERGY PREDICTED BY IDOCK:   -6.23 KCAL/MOL
REMARK 923 INTER-LIGAND FREE ENERGY PREDICTED BY IDOCK:   -6.41 KCAL/MOL
REMARK 924 INTRA-LIGAND FREE ENERGY PREDICTED BY IDOCK:    0.18 KCAL/MOL
REMARK 927      BINDING AFFINITY PREDICTED BY RF-SCORE:    0.00 PKD
ROOT
HETATM    1  C   UNL     1     -11.911  10.791  69.172  1.00  0.00    -0.302 C  
HETATM    2  C   UNL     1     -11.918  11.904  70.045  1.00  0.00    -0.409 C  
HETATM    3  C   UNL     1     -10.566  11.379  69.657  1.00  0.00     0.068 C  
HETATM    4  C   UNL     1     -10.412  10.111  68.012  1.00  0.00    -0.209 C  
HETATM    5  O   UNL     1      -8.618   5.895  74.021  1.00  0.00    -0.120 OA 
HETATM    6  O   UNL     1     -11.656   9.776  67.268  1.00  0.00    -0.111 OA 
HETATM    7  C   UNL     1     -10.427  11.475  68.144  1.00  0.00    -0.216 C  
HETATM    8  C   UNL     1     -10.834  12.575  67.215  1.00  0.00    -0.277 C  
HETATM    9  C   UNL     1      -8.671  11.114  68.791  1.00  0.00    -0.130 C  
HETATM   10  C   UNL     1      -9.094   7.020  73.956  1.00  0.00    -0.208 C  
HETATM   11  C   UNL     1     -10.528   7.304  73.769  1.00  0.00    -0.335 C  
HETATM   12  H   UNL     1     -11.586   9.196  66.518  1.00  0.00     0.000 HD 
HETATM   13  C   UNL     1      -8.635   9.635  69.631  1.00  0.00    -0.187 C  
HETATM   14  C   UNL     1      -8.219   8.257  73.821  1.00  0.00    -0.264 C  
HETATM   15  O   UNL     1      -7.698   8.870  69.388  1.00  0.00    -0.088 OA 
HETATM   16  C   UNL     1      -9.561   6.750  70.556  1.00  0.00    -0.174 C  
HETATM   17  C   UNL     1      -9.852   9.199  70.710  1.00  0.00    -0.334 C  
HETATM   18  C   UNL     1     -11.445   9.285  70.088  1.00  0.00    -0.138 C  
HETATM   19  C   UNL     1      -9.594   7.915  71.550  1.00  0.00    -0.189 C  
HETATM   20  C   UNL     1      -8.303   8.215  72.479  1.00  0.00    -0.230 C  
HETATM   21  C   UNL     1     -12.470   9.078  71.205  1.00  0.00    -0.346 C  
HETATM   22  C   UNL     1     -12.211   7.803  71.989  1.00  0.00    -0.342 C  
HETATM   23  C   UNL     1     -10.797   7.676  72.506  1.00  0.00    -0.367 C  
ENDROOT
BRANCH   4  24
HETATM   24  C   UNL     1      -9.422  10.091  66.482  1.00  0.00    -0.175 C  
HETATM   25  O   UNL     1      -9.104  11.127  65.874  1.00  0.00    -0.195 OA 
BRANCH  24  26
HETATM   26  C   UNL     1      -9.009   8.723  65.717  1.00  0.00    -0.206 C  
BRANCH  26  27
HETATM   27  O   UNL     1      -8.990   7.584  66.664  1.00  0.00    -0.139 OA 
BRANCH  27  28
HETATM   28  C   UNL     1      -9.672   6.401  66.591  1.00  0.00    -0.153 C  
HETATM   29  C   UNL     1     -11.005   6.342  67.322  1.00  0.00    -0.474 C  
HETATM   30  O   UNL     1      -9.285   5.437  65.972  1.00  0.00    -0.154 OA 
ENDBRANCH  27  28
ENDBRANCH  26  27
ENDBRANCH  24  26
ENDBRANCH   4  24
TORSDOF 4
ENDMDL
MODEL       61
REMARK 921   NORMALIZED FREE ENERGY PREDICTED BY IDOCK:   -5.32 KCAL/MOL
REMARK 922        TOTAL FREE ENERGY PREDICTED BY IDOCK:   -6.14 KCAL/MOL
REMARK 923 INTER-LIGAND FREE ENERGY PREDICTED BY IDOCK:   -6.54 KCAL/MOL
REMARK 924 INTRA-LIGAND FREE ENERGY PREDICTED BY IDOCK:    0.40 KCAL/MOL
REMARK 927      BINDING AFFINITY PREDICTED BY RF-SCORE:    0.00 PKD
ROOT
HETATM    1  C   UNL     1      -9.129  11.008  65.501  1.00  0.00    -0.225 C  
HETATM    2  C   UNL     1      -9.998  10.267  64.665  1.00  0.00    -0.377 C  
HETATM    3  C   UNL     1     -10.616  10.857  65.900  1.00  0.00    -0.244 C  
HETATM    4  C   UNL     1      -9.596  12.363  66.915  1.00  0.00    -0.219 C  
HETATM    5  O   UNL     1      -9.657   6.424  71.588  1.00  0.00    -0.161 OA 
HETATM    6  O   UNL     1      -8.287  12.811  66.370  1.00  0.00    -0.399 OA 
HETATM    7  C   UNL     1     -10.453  12.369  65.846  1.00  0.00    -0.284 C  
HETATM    8  C   UNL     1     -10.622  13.307  64.692  1.00  0.00    -0.421 C  
HETATM    9  C   UNL     1     -11.701  12.045  67.249  1.00  0.00    -0.339 C  
HETATM   10  C   UNL     1      -9.975   6.509  70.409  1.00  0.00    -0.179 C  
HETATM   11  C   UNL     1      -9.023   6.440  69.287  1.00  0.00    -0.133 C  
HETATM   12  H   UNL     1      -7.821  13.498  66.834  1.00  0.00     0.000 HD 
HETATM   13  C   UNL     1     -10.999  11.082  68.464  1.00  0.00    -0.228 C  
HETATM   14  C   UNL     1     -11.370   6.937  69.982  1.00  0.00    -0.343 C  
HETATM   15  O   UNL     1     -11.186  11.425  69.634  1.00  0.00    -0.258 OA 
HETATM   16  C   UNL     1      -8.720   9.707  70.182  1.00  0.00    -0.263 C  
HETATM   17  C   UNL     1     -10.041   9.748  68.094  1.00  0.00    -0.193 C  
HETATM   18  C   UNL     1      -8.753  10.052  67.007  1.00  0.00    -0.137 C  
HETATM   19  C   UNL     1      -9.627   8.849  69.294  1.00  0.00    -0.162 C  
HETATM   20  C   UNL     1     -10.991   8.225  69.904  1.00  0.00    -0.166 C  
HETATM   21  C   UNL     1      -8.090   8.741  66.579  1.00  0.00    -0.103 C  
HETATM   22  C   UNL     1      -7.670   7.898  67.772  1.00  0.00    -0.121 C  
HETATM   23  C   UNL     1      -8.775   7.657  68.774  1.00  0.00    -0.128 C  
ENDROOT
BRANCH   4  24
HETATM   24  C   UNL     1     -10.004  14.046  67.480  1.00  0.00    -0.236 C  
HETATM   25  O   UNL     1     -10.701  14.830  66.812  1.00  0.00    -0.297 OA 
BRANCH  24  26
HETATM   26  C   UNL     1      -9.371  14.705  68.820  1.00  0.00    -0.191 C  
BRANCH  26  27
HETATM   27  O   UNL     1      -7.905  14.490  68.860  1.00  0.00    -0.138 OA 
BRANCH  27  28
HETATM   28  C   UNL     1      -6.975  15.101  69.655  1.00  0.00    -0.192 C  
HETATM   29  C   UNL     1      -6.765  16.590  69.430  1.00  0.00    -0.213 C  
HETATM   30  O   UNL     1      -6.346  14.530  70.516  1.00  0.00    -0.187 OA 
ENDBRANCH  27  28
ENDBRANCH  26  27
ENDBRANCH  24  26
ENDBRANCH   4  24
TORSDOF 4
ENDMDL
MODEL       62
REMARK 921   NORMALIZED FREE ENERGY PREDICTED BY IDOCK:   -5.29 KCAL/MOL
REMARK 922        TOTAL FREE ENERGY PREDICTED BY IDOCK:   -6.11 KCAL/MOL
REMARK 923 INTER-LIGAND FREE ENERGY PREDICTED BY IDOCK:   -6.98 KCAL/MOL
REMARK 924 INTRA-LIGAND FREE ENERGY PREDICTED BY IDOCK:    0.87 KCAL/MOL
REMARK 927      BINDING AFFINITY PREDICTED BY RF-SCORE:    0.00 PKD
ROOT
HETATM    1  C   UNL     1      -7.681  12.162  67.864  1.00  0.00    -0.134 C  
HETATM    2  C   UNL     1      -7.018  11.925  69.092  1.00  0.00    -0.079 C  
HETATM    3  C   UNL     1      -8.364  11.278  68.934  1.00  0.00    -0.074 C  
HETATM    4  C   UNL     1      -9.189  11.122  67.027  1.00  0.00    -0.163 C  
HETATM    5  O   UNL     1     -13.650  15.914  70.800  1.00  0.00    -0.346 OA 
HETATM    6  O   UNL     1      -8.404  11.652  65.880  1.00  0.00    -0.374 OA 
HETATM    7  C   UNL     1      -8.311  10.342  67.734  1.00  0.00    -0.114 C  
HETATM    8  C   UNL     1      -7.235   9.393  67.310  1.00  0.00    -0.087 C  
HETATM    9  C   UNL     1      -9.928   9.906  68.645  1.00  0.00    -0.177 C  
HETATM   10  C   UNL     1     -12.560  15.443  71.098  1.00  0.00    -0.422 C  
HETATM   11  C   UNL     1     -11.270  15.986  70.639  1.00  0.00    -0.395 C  
HETATM   12  H   UNL     1      -8.780  11.582  65.010  1.00  0.00     0.000 HD 
HETATM   13  C   UNL     1     -10.957  11.259  68.718  1.00  0.00    -0.220 C  
HETATM   14  C   UNL     1     -12.428  14.093  71.788  1.00  0.00    -0.360 C  
HETATM   15  O   UNL     1     -12.149  11.076  68.454  1.00  0.00    -0.594 OA 
HETATM   16  C   UNL     1     -12.157  14.091  67.959  1.00  0.00    -0.312 C  
HETATM   17  C   UNL     1     -10.376  12.797  69.080  1.00  0.00     0.040 C  
HETATM   18  C   UNL     1      -9.061  13.325  68.117  1.00  0.00    -0.207 C  
HETATM   19  C   UNL     1     -11.450  13.899  69.303  1.00  0.00    -0.348 C  
HETATM   20  C   UNL     1     -12.304  13.462  70.606  1.00  0.00    -0.423 C  
HETATM   21  C   UNL     1      -8.481  14.630  68.669  1.00  0.00    -0.164 C  
HETATM   22  C   UNL     1      -9.548  15.697  68.850  1.00  0.00    -0.224 C  
HETATM   23  C   UNL     1     -10.745  15.241  69.652  1.00  0.00    -0.289 C  
ENDROOT
BRANCH   4  24
HETATM   24  C   UNL     1      -9.860   9.764  66.015  1.00  0.00    -0.274 C  
HETATM   25  O   UNL     1      -9.754   9.731  64.777  1.00  0.00    -0.283 OA 
BRANCH  24  26
HETATM   26  C   UNL     1     -10.773   8.573  66.630  1.00  0.00     0.129 C  
BRANCH  26  27
HETATM   27  O   UNL     1     -10.052   7.280  66.565  1.00  0.00    -0.188 OA 
BRANCH  27  28
HETATM   28  C   UNL     1     -10.457   6.053  67.013  1.00  0.00    -0.270 C  
HETATM   29  C   UNL     1     -10.753   5.940  68.500  1.00  0.00    -0.327 C  
HETATM   30  O   UNL     1     -10.607   5.091  66.297  1.00  0.00    -0.304 OA 
ENDBRANCH  27  28
ENDBRANCH  26  27
ENDBRANCH  24  26
ENDBRANCH   4  24
TORSDOF 4
ENDMDL
MODEL       63
REMARK 921   NORMALIZED FREE ENERGY PREDICTED BY IDOCK:   -5.26 KCAL/MOL
REMARK 922        TOTAL FREE ENERGY PREDICTED BY IDOCK:   -6.06 KCAL/MOL
REMARK 923 INTER-LIGAND FREE ENERGY PREDICTED BY IDOCK:   -6.74 KCAL/MOL
REMARK 924 INTRA-LIGAND FREE ENERGY PREDICTED BY IDOCK:    0.68 KCAL/MOL
REMARK 927      BINDING AFFINITY PREDICTED BY RF-SCORE:    0.00 PKD
ROOT
HETATM    1  C   UNL     1      -8.432  11.977  67.675  1.00  0.00    -0.160 C  
HETATM    2  C   UNL     1      -8.275  11.337  66.422  1.00  0.00    -0.150 C  
HETATM    3  C   UNL     1      -9.667  11.351  66.985  1.00  0.00    -0.210 C  
HETATM    4  C   UNL     1     -10.116  12.677  68.528  1.00  0.00    -0.178 C  
HETATM    5  O   UNL     1     -10.618   5.771  71.554  1.00  0.00    -0.229 OA 
HETATM    6  O   UNL     1      -9.036  13.577  69.014  1.00  0.00    -0.372 OA 
HETATM    7  C   UNL     1     -10.101  12.799  67.163  1.00  0.00    -0.234 C  
HETATM    8  C   UNL     1      -9.905  13.974  66.256  1.00  0.00    -0.318 C  
HETATM    9  C   UNL     1     -11.689  11.766  67.371  1.00  0.00    -0.304 C  
HETATM   10  C   UNL     1     -10.186   6.131  70.468  1.00  0.00    -0.199 C  
HETATM   11  C   UNL     1      -8.822   6.643  70.247  1.00  0.00    -0.152 C  
HETATM   12  H   UNL     1      -9.240  14.182  69.718  1.00  0.00     0.000 HD 
HETATM   13  C   UNL     1     -11.532  10.682  68.672  1.00  0.00    -0.263 C  
HETATM   14  C   UNL     1     -11.094   6.314  69.261  1.00  0.00    -0.461 C  
HETATM   15  O   UNL     1     -12.484  10.595  69.452  1.00  0.00    -0.297 OA 
HETATM   16  C   UNL     1     -10.388   9.450  71.357  1.00  0.00    -0.326 C  
HETATM   17  C   UNL     1     -10.120   9.802  68.926  1.00  0.00    -0.194 C  
HETATM   18  C   UNL     1      -8.681  10.730  68.982  1.00  0.00    -0.136 C  
HETATM   19  C   UNL     1     -10.184   8.710  70.032  1.00  0.00    -0.201 C  
HETATM   20  C   UNL     1     -11.273   7.616  69.547  1.00  0.00     0.063 C  
HETATM   21  C   UNL     1      -7.453   9.817  69.000  1.00  0.00    -0.080 C  
HETATM   22  C   UNL     1      -7.529   8.779  70.108  1.00  0.00    -0.056 C  
HETATM   23  C   UNL     1      -8.813   7.981  70.115  1.00  0.00    -0.143 C  
ENDROOT
BRANCH   4  24
HETATM   24  C   UNL     1     -11.386  13.954  68.807  1.00  0.00    -0.277 C  
HETATM   25  O   UNL     1     -12.359  13.781  69.562  1.00  0.00    -0.316 OA 
BRANCH  24  26
HETATM   26  C   UNL     1     -11.428  15.350  67.985  1.00  0.00    -0.326 C  
BRANCH  26  27
HETATM   27  O   UNL     1     -10.545  16.355  68.623  1.00  0.00    -0.268 OA 
BRANCH  27  28
HETATM   28  C   UNL     1      -9.900  17.414  68.046  1.00  0.00    -0.288 C  
HETATM   29  C   UNL     1     -10.267  17.727  66.605  1.00  0.00    -0.361 C  
HETATM   30  O   UNL     1      -9.091  18.104  68.622  1.00  0.00    -0.308 OA 
ENDBRANCH  27  28
ENDBRANCH  26  27
ENDBRANCH  24  26
ENDBRANCH   4  24
TORSDOF 4
ENDMDL
MODEL       64
REMARK 921   NORMALIZED FREE ENERGY PREDICTED BY IDOCK:   -5.24 KCAL/MOL
REMARK 922        TOTAL FREE ENERGY PREDICTED BY IDOCK:   -6.04 KCAL/MOL
REMARK 923 INTER-LIGAND FREE ENERGY PREDICTED BY IDOCK:   -6.55 KCAL/MOL
REMARK 924 INTRA-LIGAND FREE ENERGY PREDICTED BY IDOCK:    0.51 KCAL/MOL
REMARK 927      BINDING AFFINITY PREDICTED BY RF-SCORE:    0.00 PKD
ROOT
HETATM    1  C   UNL     1      -7.264   9.576  66.369  1.00  0.00    -0.089 C  
HETATM    2  C   UNL     1      -6.274  10.237  65.602  1.00  0.00    -0.113 C  
HETATM    3  C   UNL     1      -6.804  10.993  66.787  1.00  0.00    -0.128 C  
HETATM    4  C   UNL     1      -7.853   9.955  68.257  1.00  0.00    -0.085 C  
HETATM    5  O   UNL     1     -12.891  14.559  65.014  1.00  0.00    -0.562 OA 
HETATM    6  O   UNL     1      -8.032   8.488  68.084  1.00  0.00    -0.108 OA 
HETATM    7  C   UNL     1      -6.518  10.182  68.043  1.00  0.00    -0.058 C  
HETATM    8  C   UNL     1      -5.289   9.421  68.431  1.00  0.00    -0.037 C  
HETATM    9  C   UNL     1      -7.038  11.908  68.662  1.00  0.00    -0.102 C  
HETATM   10  C   UNL     1     -11.746  14.278  64.684  1.00  0.00    -0.430 C  
HETATM   11  C   UNL     1     -11.378  13.077  63.914  1.00  0.00    -0.460 C  
HETATM   12  H   UNL     1      -8.511   8.014  68.755  1.00  0.00     0.000 HD 
HETATM   13  C   UNL     1      -8.614  12.281  68.141  1.00  0.00    -0.181 C  
HETATM   14  C   UNL     1     -10.543  15.021  65.243  1.00  0.00    -0.418 C  
HETATM   15  O   UNL     1      -9.382  12.774  68.972  1.00  0.00     0.218 OA 
HETATM   16  C   UNL     1     -11.551  11.793  67.058  1.00  0.00    -0.321 C  
HETATM   17  C   UNL     1      -9.133  11.944  66.575  1.00  0.00    -0.211 C  
HETATM   18  C   UNL     1      -8.895  10.328  66.058  1.00  0.00    -0.166 C  
HETATM   19  C   UNL     1     -10.525  12.512  66.178  1.00  0.00    -0.272 C  
HETATM   20  C   UNL     1     -10.406  14.126  66.238  1.00  0.00    -0.294 C  
HETATM   21  C   UNL     1      -9.200  10.191  64.565  1.00  0.00    -0.305 C  
HETATM   22  C   UNL     1     -10.577  10.728  64.211  1.00  0.00    -0.225 C  
HETATM   23  C   UNL     1     -10.833  12.134  64.701  1.00  0.00    -0.351 C  
ENDROOT
BRANCH   4  24
HETATM   24  C   UNL     1      -7.717   9.784  70.066  1.00  0.00    -0.171 C  
HETATM   25  O   UNL     1      -6.641   9.916  70.676  1.00  0.00    -0.111 OA 
BRANCH  24  26
HETATM   26  C   UNL     1      -8.951   9.304  71.001  1.00  0.00    -0.156 C  
BRANCH  26  27
HETATM   27  O   UNL     1     -10.231   9.848  70.492  1.00  0.00    -0.278 OA 
BRANCH  27  28
HETATM   28  C   UNL     1     -11.486   9.718  71.021  1.00  0.00    -0.383 C  
HETATM   29  C   UNL     1     -11.673   8.620  72.057  1.00  0.00    -0.439 C  
HETATM   30  O   UNL     1     -12.418  10.429  70.726  1.00  0.00    -0.316 OA 
ENDBRANCH  27  28
ENDBRANCH  26  27
ENDBRANCH  24  26
ENDBRANCH   4  24
TORSDOF 4
ENDMDL
MODEL       65
REMARK 921   NORMALIZED FREE ENERGY PREDICTED BY IDOCK:   -5.23 KCAL/MOL
REMARK 922        TOTAL FREE ENERGY PREDICTED BY IDOCK:   -6.03 KCAL/MOL
REMARK 923 INTER-LIGAND FREE ENERGY PREDICTED BY IDOCK:   -6.46 KCAL/MOL
REMARK 924 INTRA-LIGAND FREE ENERGY PREDICTED BY IDOCK:    0.44 KCAL/MOL
REMARK 927      BINDING AFFINITY PREDICTED BY RF-SCORE:    0.00 PKD
ROOT
HETATM    1  C   UNL     1     -10.334  10.331  69.705  1.00  0.00    -0.287 C  
HETATM    2  C   UNL     1     -11.506   9.536  69.709  1.00  0.00    -0.048 C  
HETATM    3  C   UNL     1     -10.620   9.399  68.504  1.00  0.00    -0.234 C  
HETATM    4  C   UNL     1      -8.661  10.099  68.608  1.00  0.00    -0.128 C  
HETATM    5  O   UNL     1     -12.163  14.557  63.612  1.00  0.00    -0.566 OA 
HETATM    6  O   UNL     1      -8.202  10.706  69.887  1.00  0.00    -0.358 OA 
HETATM    7  C   UNL     1      -9.252   8.915  68.963  1.00  0.00    -0.140 C  
HETATM    8  C   UNL     1      -8.899   7.874  69.978  1.00  0.00    -0.141 C  
HETATM    9  C   UNL     1      -9.250   8.712  67.068  1.00  0.00    -0.186 C  
HETATM   10  C   UNL     1     -12.615  13.718  64.379  1.00  0.00    -0.169 C  
HETATM   11  C   UNL     1     -12.921  13.971  65.797  1.00  0.00    -0.297 C  
HETATM   12  H   UNL     1      -7.309  11.026  69.935  1.00  0.00     0.000 HD 
HETATM   13  C   UNL     1      -9.491  10.214  66.305  1.00  0.00    -0.180 C  
HETATM   14  C   UNL     1     -12.687  12.244  64.007  1.00  0.00    -0.457 C  
HETATM   15  O   UNL     1      -8.763  10.483  65.347  1.00  0.00    -0.172 OA 
HETATM   16  C   UNL     1      -9.579  13.362  65.962  1.00  0.00    -0.174 C  
HETATM   17  C   UNL     1     -10.634  11.317  66.862  1.00  0.00    -0.300 C  
HETATM   18  C   UNL     1     -10.522  11.709  68.526  1.00  0.00    -0.236 C  
HETATM   19  C   UNL     1     -10.883  12.559  65.960  1.00  0.00    -0.309 C  
HETATM   20  C   UNL     1     -11.485  12.008  64.562  1.00  0.00    -0.385 C  
HETATM   21  C   UNL     1     -11.728  12.542  68.965  1.00  0.00    -0.368 C  
HETATM   22  C   UNL     1     -11.929  13.763  68.083  1.00  0.00    -0.394 C  
HETATM   23  C   UNL     1     -11.980  13.453  66.605  1.00  0.00    -0.452 C  
ENDROOT
BRANCH   4  24
HETATM   24  C   UNL     1      -7.015   9.388  68.288  1.00  0.00    -0.071 C  
HETATM   25  O   UNL     1      -6.519   8.492  68.994  1.00  0.00    -0.046 OA 
BRANCH  24  26
HETATM   26  C   UNL     1      -6.010   9.966  67.155  1.00  0.00    -0.051 C  
BRANCH  26  27
HETATM   27  O   UNL     1      -5.809   8.966  66.080  1.00  0.00    -0.049 OA 
BRANCH  27  28
HETATM   28  C   UNL     1      -6.011   9.106  64.735  1.00  0.00    -0.065 C  
HETATM   29  C   UNL     1      -5.255  10.234  64.051  1.00  0.00    -0.129 C  
HETATM   30  O   UNL     1      -6.725   8.381  64.082  1.00  0.00    -0.070 OA 
ENDBRANCH  27  28
ENDBRANCH  26  27
ENDBRANCH  24  26
ENDBRANCH   4  24
TORSDOF 4
ENDMDL
MODEL       66
REMARK 921   NORMALIZED FREE ENERGY PREDICTED BY IDOCK:   -5.22 KCAL/MOL
REMARK 922        TOTAL FREE ENERGY PREDICTED BY IDOCK:   -6.02 KCAL/MOL
REMARK 923 INTER-LIGAND FREE ENERGY PREDICTED BY IDOCK:   -6.69 KCAL/MOL
REMARK 924 INTRA-LIGAND FREE ENERGY PREDICTED BY IDOCK:    0.68 KCAL/MOL
REMARK 927      BINDING AFFINITY PREDICTED BY RF-SCORE:    0.00 PKD
ROOT
HETATM    1  C   UNL     1      -7.844   8.842  69.256  1.00  0.00    -0.100 C  
HETATM    2  C   UNL     1      -6.990   9.500  70.172  1.00  0.00    -0.092 C  
HETATM    3  C   UNL     1      -8.454   9.519  70.506  1.00  0.00    -0.213 C  
HETATM    4  C   UNL     1      -9.724   8.178  69.543  1.00  0.00    -0.170 C  
HETATM    5  O   UNL     1     -11.767  15.035  67.112  1.00  0.00    -0.327 OA 
HETATM    6  O   UNL     1      -9.128   7.235  68.559  1.00  0.00    -0.137 OA 
HETATM    7  C   UNL     1      -8.932   8.082  70.658  1.00  0.00    -0.148 C  
HETATM    8  C   UNL     1      -8.269   6.921  71.330  1.00  0.00    -0.114 C  
HETATM    9  C   UNL     1     -10.338   9.160  71.360  1.00  0.00    -0.409 C  
HETATM   10  C   UNL     1     -10.796  14.683  67.768  1.00  0.00    -0.267 C  
HETATM   11  C   UNL     1      -9.559  14.132  67.187  1.00  0.00    -0.244 C  
HETATM   12  H   UNL     1      -9.708   6.623  68.119  1.00  0.00     0.000 HD 
HETATM   13  C   UNL     1     -10.938  10.213  70.166  1.00  0.00    -0.316 C  
HETATM   14  C   UNL     1     -10.852  14.553  69.283  1.00  0.00    -0.270 C  
HETATM   15  O   UNL     1     -12.164  10.315  70.068  1.00  0.00    -0.217 OA 
HETATM   16  C   UNL     1     -11.519  11.355  67.268  1.00  0.00    -0.301 C  
HETATM   17  C   UNL     1      -9.913  11.043  69.120  1.00  0.00    -0.142 C  
HETATM   18  C   UNL     1      -8.778  10.070  68.284  1.00  0.00    -0.119 C  
HETATM   19  C   UNL     1     -10.582  12.114  68.212  1.00  0.00    -0.236 C  
HETATM   20  C   UNL     1     -11.182  13.252  69.195  1.00  0.00    -0.305 C  
HETATM   21  C   UNL     1      -7.768  10.943  67.536  1.00  0.00    -0.109 C  
HETATM   22  C   UNL     1      -8.450  11.960  66.636  1.00  0.00    -0.143 C  
HETATM   23  C   UNL     1      -9.495  12.798  67.336  1.00  0.00    -0.190 C  
ENDROOT
BRANCH   4  24
HETATM   24  C   UNL     1     -10.943   6.936  70.084  1.00  0.00    -0.281 C  
HETATM   25  O   UNL     1     -11.156   5.884  69.455  1.00  0.00    -0.381 OA 
BRANCH  24  26
HETATM   26  C   UNL     1     -11.947   7.172  71.335  1.00  0.00    -0.328 C  
BRANCH  26  27
HETATM   27  O   UNL     1     -11.894   6.021  72.266  1.00  0.00    -0.319 OA 
BRANCH  27  28
HETATM   28  C   UNL     1     -10.978   5.759  73.248  1.00  0.00    -0.253 C  
HETATM   29  C   UNL     1     -10.425   4.343  73.295  1.00  0.00    -0.254 C  
HETATM   30  O   UNL     1     -10.586   6.583  74.040  1.00  0.00    -0.310 OA 
ENDBRANCH  27  28
ENDBRANCH  26  27
ENDBRANCH  24  26
ENDBRANCH   4  24
TORSDOF 4
ENDMDL
MODEL       67
REMARK 921   NORMALIZED FREE ENERGY PREDICTED BY IDOCK:   -5.13 KCAL/MOL
REMARK 922        TOTAL FREE ENERGY PREDICTED BY IDOCK:   -5.91 KCAL/MOL
REMARK 923 INTER-LIGAND FREE ENERGY PREDICTED BY IDOCK:   -6.24 KCAL/MOL
REMARK 924 INTRA-LIGAND FREE ENERGY PREDICTED BY IDOCK:    0.33 KCAL/MOL
REMARK 927      BINDING AFFINITY PREDICTED BY RF-SCORE:    0.00 PKD
ROOT
HETATM    1  C   UNL     1      -8.966   9.235  67.023  1.00  0.00    -0.142 C  
HETATM    2  C   UNL     1      -9.834   8.457  66.220  1.00  0.00    -0.257 C  
HETATM    3  C   UNL     1     -10.494   9.342  67.238  1.00  0.00    -0.332 C  
HETATM    4  C   UNL     1      -9.390  10.882  68.102  1.00  0.00    -0.165 C  
HETATM    5  O   UNL     1     -10.813   6.000  73.691  1.00  0.00    -0.254 OA 
HETATM    6  O   UNL     1      -7.977  11.059  67.669  1.00  0.00    -0.111 OA 
HETATM    7  C   UNL     1     -10.113  10.786  66.942  1.00  0.00    -0.255 C  
HETATM    8  C   UNL     1     -10.018  11.499  65.630  1.00  0.00    -0.275 C  
HETATM    9  C   UNL     1     -11.543  10.887  68.198  1.00  0.00    -0.317 C  
HETATM   10  C   UNL     1     -10.983   5.894  72.483  1.00  0.00    -0.264 C  
HETATM   11  C   UNL     1      -9.931   5.498  71.530  1.00  0.00    -0.229 C  
HETATM   12  H   UNL     1      -7.474  11.761  68.064  1.00  0.00     0.000 HD 
HETATM   13  C   UNL     1     -11.124  10.099  69.647  1.00  0.00    -0.263 C  
HETATM   14  C   UNL     1     -12.247   6.396  71.802  1.00  0.00    -0.312 C  
HETATM   15  O   UNL     1     -11.389  10.680  70.702  1.00  0.00    -0.316 OA 
HETATM   16  C   UNL     1      -9.269   8.816  71.871  1.00  0.00    -0.320 C  
HETATM   17  C   UNL     1     -10.331   8.614  69.649  1.00  0.00    -0.213 C  
HETATM   18  C   UNL     1      -8.899   8.548  68.711  1.00  0.00    -0.139 C  
HETATM   19  C   UNL     1     -10.184   7.919  71.033  1.00  0.00    -0.217 C  
HETATM   20  C   UNL     1     -11.682   7.591  71.552  1.00  0.00    -0.309 C  
HETATM   21  C   UNL     1      -8.386   7.110  68.613  1.00  0.00    -0.125 C  
HETATM   22  C   UNL     1      -8.225   6.467  69.980  1.00  0.00    -0.125 C  
HETATM   23  C   UNL     1      -9.458   6.556  70.850  1.00  0.00    -0.179 C  
ENDROOT
BRANCH   4  24
HETATM   24  C   UNL     1      -9.614  12.679  68.303  1.00  0.00    -0.208 C  
HETATM   25  O   UNL     1     -10.655  13.181  68.763  1.00  0.00    -0.248 OA 
BRANCH  24  26
HETATM   26  C   UNL     1      -8.541  13.768  67.762  1.00  0.00    -0.184 C  
BRANCH  26  27
HETATM   27  O   UNL     1      -7.724  14.291  68.881  1.00  0.00    -0.136 OA 
BRANCH  27  28
HETATM   28  C   UNL     1      -6.614  13.740  69.458  1.00  0.00    -0.081 C  
HETATM   29  C   UNL     1      -6.059  14.456  70.680  1.00  0.00    -0.183 C  
HETATM   30  O   UNL     1      -6.083  12.727  69.065  1.00  0.00    -0.077 OA 
ENDBRANCH  27  28
ENDBRANCH  26  27
ENDBRANCH  24  26
ENDBRANCH   4  24
TORSDOF 4
ENDMDL
MODEL       68
REMARK 921   NORMALIZED FREE ENERGY PREDICTED BY IDOCK:   -5.12 KCAL/MOL
REMARK 922        TOTAL FREE ENERGY PREDICTED BY IDOCK:   -5.90 KCAL/MOL
REMARK 923 INTER-LIGAND FREE ENERGY PREDICTED BY IDOCK:   -6.50 KCAL/MOL
REMARK 924 INTRA-LIGAND FREE ENERGY PREDICTED BY IDOCK:    0.61 KCAL/MOL
REMARK 927      BINDING AFFINITY PREDICTED BY RF-SCORE:    0.00 PKD
ROOT
HETATM    1  C   UNL     1     -11.540  12.594  67.780  1.00  0.00    -0.403 C  
HETATM    2  C   UNL     1     -11.942  12.737  66.431  1.00  0.00    -0.443 C  
HETATM    3  C   UNL     1     -10.476  12.506  66.661  1.00  0.00    -0.252 C  
HETATM    4  C   UNL     1      -9.849  11.779  68.510  1.00  0.00    -0.189 C  
HETATM    5  O   UNL     1      -7.092  18.798  68.029  1.00  0.00    -0.230 OA 
HETATM    6  O   UNL     1     -10.886  11.503  69.541  1.00  0.00    -0.405 OA 
HETATM    7  C   UNL     1     -10.304  11.170  67.370  1.00  0.00    -0.231 C  
HETATM    8  C   UNL     1     -10.996   9.865  67.129  1.00  0.00    -0.147 C  
HETATM    9  C   UNL     1      -8.557  11.663  66.789  1.00  0.00    -0.180 C  
HETATM   10  C   UNL     1      -7.898  18.212  67.319  1.00  0.00    -0.222 C  
HETATM   11  C   UNL     1      -9.337  18.101  67.615  1.00  0.00    -0.260 C  
HETATM   12  H   UNL     1     -10.600  11.172  70.384  1.00  0.00     0.000 HD 
HETATM   13  C   UNL     1      -8.092  13.145  67.484  1.00  0.00    -0.181 C  
HETATM   14  C   UNL     1      -7.456  17.325  66.164  1.00  0.00    -0.321 C  
HETATM   15  O   UNL     1      -6.950  13.218  67.945  1.00  0.00    -0.102 OA 
HETATM   16  C   UNL     1      -8.094  15.573  69.519  1.00  0.00    -0.202 C  
HETATM   17  C   UNL     1      -9.156  14.445  67.594  1.00  0.00    -0.194 C  
HETATM   18  C   UNL     1     -10.663  14.095  68.329  1.00  0.00    -0.256 C  
HETATM   19  C   UNL     1      -8.543  15.792  68.071  1.00  0.00    -0.163 C  
HETATM   20  C   UNL     1      -7.460  16.236  66.953  1.00  0.00    -0.271 C  
HETATM   21  C   UNL     1     -11.620  15.280  68.182  1.00  0.00    -0.344 C  
HETATM   22  C   UNL     1     -11.006  16.576  68.683  1.00  0.00    -0.344 C  
HETATM   23  C   UNL     1      -9.650  16.884  68.089  1.00  0.00    -0.255 C  
ENDROOT
BRANCH   4  24
HETATM   24  C   UNL     1      -8.834  10.374  69.070  1.00  0.00    -0.172 C  
HETATM   25  O   UNL     1      -7.693  10.514  69.544  1.00  0.00    -0.146 OA 
BRANCH  24  26
HETATM   26  C   UNL     1      -9.274   8.828  68.858  1.00  0.00    -0.141 C  
BRANCH  26  27
HETATM   27  O   UNL     1      -8.163   8.048  68.265  1.00  0.00    -0.120 OA 
BRANCH  27  28
HETATM   28  C   UNL     1      -7.836   7.895  66.946  1.00  0.00    -0.104 C  
HETATM   29  C   UNL     1      -8.737   6.985  66.127  1.00  0.00    -0.155 C  
HETATM   30  O   UNL     1      -6.903   8.451  66.415  1.00  0.00    -0.068 OA 
ENDBRANCH  27  28
ENDBRANCH  26  27
ENDBRANCH  24  26
ENDBRANCH   4  24
TORSDOF 4
ENDMDL
MODEL       69
REMARK 921   NORMALIZED FREE ENERGY PREDICTED BY IDOCK:   -5.12 KCAL/MOL
REMARK 922        TOTAL FREE ENERGY PREDICTED BY IDOCK:   -5.89 KCAL/MOL
REMARK 923 INTER-LIGAND FREE ENERGY PREDICTED BY IDOCK:   -6.35 KCAL/MOL
REMARK 924 INTRA-LIGAND FREE ENERGY PREDICTED BY IDOCK:    0.46 KCAL/MOL
REMARK 927      BINDING AFFINITY PREDICTED BY RF-SCORE:    0.00 PKD
ROOT
HETATM    1  C   UNL     1     -11.475  12.022  67.710  1.00  0.00    -0.394 C  
HETATM    2  C   UNL     1     -12.002  12.170  66.405  1.00  0.00    -0.201 C  
HETATM    3  C   UNL     1     -10.506  12.222  66.521  1.00  0.00    -0.254 C  
HETATM    4  C   UNL     1      -9.606  11.516  68.262  1.00  0.00    -0.189 C  
HETATM    5  O   UNL     1      -8.314  18.961  68.164  1.00  0.00    -0.288 OA 
HETATM    6  O   UNL     1     -10.484  10.972  69.333  1.00  0.00    -0.329 OA 
HETATM    7  C   UNL     1     -10.022  10.904  67.109  1.00  0.00    -0.221 C  
HETATM    8  C   UNL     1     -10.463   9.505  66.810  1.00  0.00    -0.263 C  
HETATM    9  C   UNL     1      -8.455  11.773  66.458  1.00  0.00    -0.125 C  
HETATM   10  C   UNL     1      -9.044  18.273  67.463  1.00  0.00    -0.253 C  
HETATM   11  C   UNL     1     -10.406  17.858  67.841  1.00  0.00    -0.396 C  
HETATM   12  H   UNL     1     -10.073  10.650  70.127  1.00  0.00     0.000 HD 
HETATM   13  C   UNL     1      -8.234  13.269  67.237  1.00  0.00    -0.158 C  
HETATM   14  C   UNL     1      -8.531  17.569  66.215  1.00  0.00    -0.247 C  
HETATM   15  O   UNL     1      -7.095  13.539  67.628  1.00  0.00    -0.145 OA 
HETATM   16  C   UNL     1      -8.548  15.510  69.455  1.00  0.00    -0.259 C  
HETATM   17  C   UNL     1      -9.519  14.320  67.518  1.00  0.00    -0.209 C  
HETATM   18  C   UNL     1     -10.866  13.629  68.319  1.00  0.00    -0.268 C  
HETATM   19  C   UNL     1      -9.144  15.729  68.061  1.00  0.00    -0.187 C  
HETATM   20  C   UNL     1      -8.260  16.452  66.914  1.00  0.00    -0.253 C  
HETATM   21  C   UNL     1     -12.044  14.606  68.329  1.00  0.00    -0.214 C  
HETATM   22  C   UNL     1     -11.657  15.964  68.890  1.00  0.00    -0.392 C  
HETATM   23  C   UNL     1     -10.438  16.574  68.236  1.00  0.00    -0.313 C  
ENDROOT
BRANCH   4  24
HETATM   24  C   UNL     1      -8.295  10.308  68.643  1.00  0.00    -0.122 C  
HETATM   25  O   UNL     1      -8.509   9.086  68.720  1.00  0.00    -0.127 OA 
BRANCH  24  26
HETATM   26  C   UNL     1      -6.789  10.743  69.055  1.00  0.00    -0.075 C  
BRANCH  26  27
HETATM   27  O   UNL     1      -6.816  11.710  70.177  1.00  0.00    -0.019 OA 
BRANCH  27  28
HETATM   28  C   UNL     1      -5.764  12.255  70.861  1.00  0.00    -0.028 C  
HETATM   29  C   UNL     1      -5.386  13.681  70.496  1.00  0.00    -0.126 C  
HETATM   30  O   UNL     1      -5.155  11.677  71.731  1.00  0.00    -0.293 OA 
ENDBRANCH  27  28
ENDBRANCH  26  27
ENDBRANCH  24  26
ENDBRANCH   4  24
TORSDOF 4
ENDMDL
MODEL       70
REMARK 921   NORMALIZED FREE ENERGY PREDICTED BY IDOCK:   -5.11 KCAL/MOL
REMARK 922        TOTAL FREE ENERGY PREDICTED BY IDOCK:   -5.89 KCAL/MOL
REMARK 923 INTER-LIGAND FREE ENERGY PREDICTED BY IDOCK:   -6.55 KCAL/MOL
REMARK 924 INTRA-LIGAND FREE ENERGY PREDICTED BY IDOCK:    0.67 KCAL/MOL
REMARK 927      BINDING AFFINITY PREDICTED BY RF-SCORE:    0.00 PKD
ROOT
HETATM    1  C   UNL     1      -9.462  11.402  64.693  1.00  0.00    -0.171 C  
HETATM    2  C   UNL     1      -9.955  10.095  64.463  1.00  0.00    -0.275 C  
HETATM    3  C   UNL     1     -10.513  10.808  65.661  1.00  0.00    -0.255 C  
HETATM    4  C   UNL     1     -10.268  12.871  65.810  1.00  0.00    -0.288 C  
HETATM    5  O   UNL     1      -6.152   9.914  71.414  1.00  0.00    -0.252 OA 
HETATM    6  O   UNL     1      -9.552  13.572  64.709  1.00  0.00    -0.496 OA 
HETATM    7  C   UNL     1     -11.199  12.082  65.188  1.00  0.00    -0.368 C  
HETATM    8  C   UNL     1     -12.084  12.306  64.002  1.00  0.00    -0.563 C  
HETATM    9  C   UNL     1     -11.749  11.854  66.999  1.00  0.00    -0.304 C  
HETATM   10  C   UNL     1      -6.708   9.373  70.468  1.00  0.00    -0.087 C  
HETATM   11  C   UNL     1      -6.130   9.269  69.116  1.00  0.00    -0.042 C  
HETATM   12  H   UNL     1      -9.440  14.513  64.777  1.00  0.00     0.000 HD 
HETATM   13  C   UNL     1     -10.402  11.861  68.038  1.00  0.00    -0.196 C  
HETATM   14  C   UNL     1      -8.169   8.954  70.525  1.00  0.00    -0.160 C  
HETATM   15  O   UNL     1     -10.490  12.531  69.070  1.00  0.00    -0.130 OA 
HETATM   16  C   UNL     1      -7.438  12.406  69.014  1.00  0.00     0.075 C  
HETATM   17  C   UNL     1      -8.985  11.037  67.657  1.00  0.00    -0.142 C  
HETATM   18  C   UNL     1      -8.324  11.394  66.118  1.00  0.00    -0.071 C  
HETATM   19  C   UNL     1      -7.911  10.968  68.780  1.00  0.00    -0.138 C  
HETATM   20  C   UNL     1      -8.563  10.129  70.001  1.00  0.00    -0.019 C  
HETATM   21  C   UNL     1      -7.172  10.440  65.793  1.00  0.00    -0.143 C  
HETATM   22  C   UNL     1      -6.124  10.415  66.894  1.00  0.00    -0.061 C  
HETATM   23  C   UNL     1      -6.687  10.154  68.272  1.00  0.00    -0.054 C  
ENDROOT
BRANCH   4  24
HETATM   24  C   UNL     1     -11.381  14.291  66.067  1.00  0.00    -0.335 C  
HETATM   25  O   UNL     1     -12.528  14.171  66.533  1.00  0.00    -0.447 OA 
BRANCH  24  26
HETATM   26  C   UNL     1     -11.023  15.793  65.575  1.00  0.00    -0.268 C  
BRANCH  26  27
HETATM   27  O   UNL     1     -10.625  16.636  66.726  1.00  0.00    -0.293 OA 
BRANCH  27  28
HETATM   28  C   UNL     1      -9.659  17.602  66.784  1.00  0.00    -0.294 C  
HETATM   29  C   UNL     1      -8.936  17.758  68.113  1.00  0.00    -0.271 C  
HETATM   30  O   UNL     1      -9.349  18.301  65.848  1.00  0.00    -0.506 OA 
ENDBRANCH  27  28
ENDBRANCH  26  27
ENDBRANCH  24  26
ENDBRANCH   4  24
TORSDOF 4
ENDMDL
MODEL       71
REMARK 921   NORMALIZED FREE ENERGY PREDICTED BY IDOCK:   -5.04 KCAL/MOL
REMARK 922        TOTAL FREE ENERGY PREDICTED BY IDOCK:   -5.80 KCAL/MOL
REMARK 923 INTER-LIGAND FREE ENERGY PREDICTED BY IDOCK:   -6.24 KCAL/MOL
REMARK 924 INTRA-LIGAND FREE ENERGY PREDICTED BY IDOCK:    0.44 KCAL/MOL
REMARK 927      BINDING AFFINITY PREDICTED BY RF-SCORE:    0.00 PKD
ROOT
HETATM    1  C   UNL     1      -9.872  10.074  64.816  1.00  0.00    -0.325 C  
HETATM    2  C   UNL     1      -9.170  10.743  63.785  1.00  0.00    -0.266 C  
HETATM    3  C   UNL     1      -8.515  10.743  65.137  1.00  0.00    -0.102 C  
HETATM    4  C   UNL     1      -9.172   9.385  66.574  1.00  0.00    -0.159 C  
HETATM    5  O   UNL     1     -11.060  16.215  69.198  1.00  0.00    -0.288 OA 
HETATM    6  O   UNL     1     -10.268   8.450  66.203  1.00  0.00    -0.449 OA 
HETATM    7  C   UNL     1      -8.264   9.300  65.551  1.00  0.00    -0.125 C  
HETATM    8  C   UNL     1      -7.762   8.147  64.740  1.00  0.00    -0.123 C  
HETATM    9  C   UNL     1      -7.261  10.359  66.777  1.00  0.00    -0.109 C  
HETATM   10  C   UNL     1     -10.641  15.876  68.100  1.00  0.00    -0.280 C  
HETATM   11  C   UNL     1     -11.487  15.342  67.018  1.00  0.00    -0.167 C  
HETATM   12  H   UNL     1     -10.568   7.831  66.859  1.00  0.00     0.000 HD 
HETATM   13  C   UNL     1      -8.286  11.405  67.643  1.00  0.00    -0.129 C  
HETATM   14  C   UNL     1      -9.152  15.745  67.813  1.00  0.00    -0.188 C  
HETATM   15  O   UNL     1      -8.106  11.490  68.861  1.00  0.00    -0.123 OA 
HETATM   16  C   UNL     1     -10.976  12.539  68.875  1.00  0.00    -0.272 C  
HETATM   17  C   UNL     1      -9.533  12.248  66.890  1.00  0.00    -0.217 C  
HETATM   18  C   UNL     1     -10.606  11.290  65.959  1.00  0.00    -0.314 C  
HETATM   19  C   UNL     1     -10.264  13.310  67.759  1.00  0.00    -0.228 C  
HETATM   20  C   UNL     1      -9.168  14.440  68.137  1.00  0.00    -0.199 C  
HETATM   21  C   UNL     1     -11.559  12.176  65.155  1.00  0.00    -0.372 C  
HETATM   22  C   UNL     1     -12.280  13.185  66.034  1.00  0.00    -0.478 C  
HETATM   23  C   UNL     1     -11.360  14.009  66.906  1.00  0.00    -0.343 C  
ENDROOT
BRANCH   4  24
HETATM   24  C   UNL     1      -8.376   8.128  67.625  1.00  0.00    -0.127 C  
HETATM   25  O   UNL     1      -7.238   8.274  68.105  1.00  0.00    -0.089 OA 
BRANCH  24  26
HETATM   26  C   UNL     1      -9.021   6.665  67.893  1.00  0.00    -0.112 C  
BRANCH  26  27
HETATM   27  O   UNL     1      -8.552   5.696  66.875  1.00  0.00    -0.111 OA 
BRANCH  27  28
HETATM   28  C   UNL     1      -9.274   5.065  65.901  1.00  0.00    -0.157 C  
HETATM   29  C   UNL     1     -10.759   4.880  66.170  1.00  0.00    -0.243 C  
HETATM   30  O   UNL     1      -8.802   4.679  64.857  1.00  0.00    -0.142 OA 
ENDBRANCH  27  28
ENDBRANCH  26  27
ENDBRANCH  24  26
ENDBRANCH   4  24
TORSDOF 4
ENDMDL
MODEL       72
REMARK 921   NORMALIZED FREE ENERGY PREDICTED BY IDOCK:   -5.04 KCAL/MOL
REMARK 922        TOTAL FREE ENERGY PREDICTED BY IDOCK:   -5.79 KCAL/MOL
REMARK 923 INTER-LIGAND FREE ENERGY PREDICTED BY IDOCK:   -6.27 KCAL/MOL
REMARK 924 INTRA-LIGAND FREE ENERGY PREDICTED BY IDOCK:    0.48 KCAL/MOL
REMARK 927      BINDING AFFINITY PREDICTED BY RF-SCORE:    0.00 PKD
ROOT
HETATM    1  C   UNL     1      -7.929   9.354  70.484  1.00  0.00    -0.199 C  
HETATM    2  C   UNL     1      -6.669   8.731  70.314  1.00  0.00    -0.041 C  
HETATM    3  C   UNL     1      -7.812   8.126  69.550  1.00  0.00    -0.104 C  
HETATM    4  C   UNL     1      -9.561   9.230  69.311  1.00  0.00    -0.161 C  
HETATM    5  O   UNL     1     -11.424   3.379  73.715  1.00  0.00    -0.162 OA 
HETATM    6  O   UNL     1      -9.613  10.595  69.901  1.00  0.00    -0.399 OA 
HETATM    7  C   UNL     1      -8.381   9.183  68.615  1.00  0.00    -0.126 C  
HETATM    8  C   UNL     1      -7.671  10.186  67.762  1.00  0.00    -0.090 C  
HETATM    9  C   UNL     1      -9.151   7.536  68.045  1.00  0.00    -0.131 C  
HETATM   10  C   UNL     1     -10.327   3.775  73.344  1.00  0.00    -0.163 C  
HETATM   11  C   UNL     1      -9.574   4.861  73.995  1.00  0.00    -0.140 C  
HETATM   12  H   UNL     1     -10.412  11.099  69.792  1.00  0.00     0.000 HD 
HETATM   13  C   UNL     1     -10.055   6.830  69.302  1.00  0.00    -0.168 C  
HETATM   14  C   UNL     1      -9.724   3.345  72.015  1.00  0.00    -0.234 C  
HETATM   15  O   UNL     1     -11.166   6.379  69.013  1.00  0.00    -0.347 OA 
HETATM   16  C   UNL     1     -11.684   6.645  72.012  1.00  0.00    -0.354 C  
HETATM   17  C   UNL     1      -9.489   6.794  70.887  1.00  0.00    -0.159 C  
HETATM   18  C   UNL     1      -9.003   8.308  71.524  1.00  0.00    -0.223 C  
HETATM   19  C   UNL     1     -10.324   5.951  71.892  1.00  0.00    -0.255 C  
HETATM   20  C   UNL     1     -10.248   4.414  71.390  1.00  0.00    -0.153 C  
HETATM   21  C   UNL     1      -8.313   8.126  72.877  1.00  0.00    -0.248 C  
HETATM   22  C   UNL     1      -9.163   7.323  73.848  1.00  0.00    -0.290 C  
HETATM   23  C   UNL     1      -9.650   6.005  73.293  1.00  0.00    -0.143 C  
ENDROOT
BRANCH   4  24
HETATM   24  C   UNL     1     -10.584   9.742  67.892  1.00  0.00    -0.259 C  
HETATM   25  O   UNL     1     -10.623   9.103  66.826  1.00  0.00    -0.227 OA 
BRANCH  24  26
HETATM   26  C   UNL     1     -11.402  11.140  67.853  1.00  0.00    -0.309 C  
BRANCH  26  27
HETATM   27  O   UNL     1     -12.577  11.080  68.754  1.00  0.00    -0.350 OA 
BRANCH  27  28
HETATM   28  C   UNL     1     -12.603  10.973  70.117  1.00  0.00    -0.211 C  
HETATM   29  C   UNL     1     -12.589  12.278  70.898  1.00  0.00    -0.334 C  
HETATM   30  O   UNL     1     -12.657   9.920  70.709  1.00  0.00    -0.295 OA 
ENDBRANCH  27  28
ENDBRANCH  26  27
ENDBRANCH  24  26
ENDBRANCH   4  24
TORSDOF 4
ENDMDL
MODEL       73
REMARK 921   NORMALIZED FREE ENERGY PREDICTED BY IDOCK:   -4.99 KCAL/MOL
REMARK 922        TOTAL FREE ENERGY PREDICTED BY IDOCK:   -5.74 KCAL/MOL
REMARK 923 INTER-LIGAND FREE ENERGY PREDICTED BY IDOCK:   -6.01 KCAL/MOL
REMARK 924 INTRA-LIGAND FREE ENERGY PREDICTED BY IDOCK:    0.27 KCAL/MOL
REMARK 927      BINDING AFFINITY PREDICTED BY RF-SCORE:    0.00 PKD
ROOT
HETATM    1  C   UNL     1      -7.732   7.599  72.361  1.00  0.00    -0.113 C  
HETATM    2  C   UNL     1      -7.568   8.592  73.357  1.00  0.00    -0.043 C  
HETATM    3  C   UNL     1      -8.976   8.126  73.116  1.00  0.00    -0.330 C  
HETATM    4  C   UNL     1      -9.284   6.348  72.076  1.00  0.00    -0.148 C  
HETATM    5  O   UNL     1     -11.970  11.821  67.611  1.00  0.00    -0.599 OA 
HETATM    6  O   UNL     1      -8.089   5.591  71.614  1.00  0.00    -0.114 OA 
HETATM    7  C   UNL     1      -9.043   6.631  73.395  1.00  0.00    -0.142 C  
HETATM    8  C   UNL     1      -8.425   5.837  74.502  1.00  0.00    -0.111 C  
HETATM    9  C   UNL     1     -10.857   7.206  73.273  1.00  0.00    -0.378 C  
HETATM   10  C   UNL     1     -11.309  11.888  68.639  1.00  0.00    -0.276 C  
HETATM   11  C   UNL     1      -9.843  11.757  68.691  1.00  0.00    -0.153 C  
HETATM   12  H   UNL     1      -8.230   4.780  71.139  1.00  0.00     0.000 HD 
HETATM   13  C   UNL     1     -11.171   7.875  71.741  1.00  0.00    -0.260 C  
HETATM   14  C   UNL     1     -11.958  11.878  70.015  1.00  0.00    -0.409 C  
HETATM   15  O   UNL     1     -12.214   7.533  71.179  1.00  0.00    -0.314 OA 
HETATM   16  C   UNL     1     -10.777   8.488  68.658  1.00  0.00    -0.082 C  
HETATM   17  C   UNL     1     -10.083   8.918  70.990  1.00  0.00    -0.324 C  
HETATM   18  C   UNL     1      -8.477   8.335  70.868  1.00  0.00    -0.144 C  
HETATM   19  C   UNL     1     -10.582   9.605  69.687  1.00  0.00    -0.252 C  
HETATM   20  C   UNL     1     -11.835  10.541  70.103  1.00  0.00    -0.404 C  
HETATM   21  C   UNL     1      -7.541   9.438  70.370  1.00  0.00    -0.152 C  
HETATM   22  C   UNL     1      -8.038  10.071  69.082  1.00  0.00    -0.126 C  
HETATM   23  C   UNL     1      -9.471  10.548  69.144  1.00  0.00    -0.205 C  
ENDROOT
BRANCH   4  24
HETATM   24  C   UNL     1     -10.209   4.810  72.390  1.00  0.00    -0.194 C  
HETATM   25  O   UNL     1     -11.278   4.785  73.025  1.00  0.00    -0.270 OA 
BRANCH  24  26
HETATM   26  C   UNL     1      -9.640   3.343  71.999  1.00  0.00    -0.144 C  
BRANCH  26  27
HETATM   27  O   UNL     1      -9.855   3.070  70.558  1.00  0.00    -0.095 OA 
BRANCH  27  28
HETATM   28  C   UNL     1      -9.161   3.555  69.484  1.00  0.00    -0.154 C  
HETATM   29  C   UNL     1      -9.976   4.272  68.420  1.00  0.00    -0.028 C  
HETATM   30  O   UNL     1      -7.962   3.460  69.359  1.00  0.00    -0.050 OA 
ENDBRANCH  27  28
ENDBRANCH  26  27
ENDBRANCH  24  26
ENDBRANCH   4  24
TORSDOF 4
ENDMDL
MODEL       74
REMARK 921   NORMALIZED FREE ENERGY PREDICTED BY IDOCK:   -4.96 KCAL/MOL
REMARK 922        TOTAL FREE ENERGY PREDICTED BY IDOCK:   -5.70 KCAL/MOL
REMARK 923 INTER-LIGAND FREE ENERGY PREDICTED BY IDOCK:   -6.24 KCAL/MOL
REMARK 924 INTRA-LIGAND FREE ENERGY PREDICTED BY IDOCK:    0.54 KCAL/MOL
REMARK 927      BINDING AFFINITY PREDICTED BY RF-SCORE:    0.00 PKD
ROOT
HETATM    1  C   UNL     1      -7.823  13.198  68.514  1.00  0.00    -0.105 C  
HETATM    2  C   UNL     1      -6.623  13.118  67.768  1.00  0.00    -0.151 C  
HETATM    3  C   UNL     1      -7.885  12.786  67.024  1.00  0.00    -0.022 C  
HETATM    4  C   UNL     1      -9.715  13.355  67.841  1.00  0.00    -0.226 C  
HETATM    5  O   UNL     1      -9.660   5.801  68.010  1.00  0.00    -0.115 OA 
HETATM    6  O   UNL     1      -9.706  14.085  69.138  1.00  0.00    -0.419 OA 
HETATM    7  C   UNL     1      -8.798  14.004  67.056  1.00  0.00    -0.234 C  
HETATM    8  C   UNL     1      -8.465  15.452  66.878  1.00  0.00    -0.287 C  
HETATM    9  C   UNL     1      -9.558  12.836  65.756  1.00  0.00    -0.102 C  
HETATM   10  C   UNL     1      -8.763   6.595  67.761  1.00  0.00    -0.116 C  
HETATM   11  C   UNL     1      -7.946   7.271  68.784  1.00  0.00    -0.123 C  
HETATM   12  H   UNL     1     -10.540  14.344  69.511  1.00  0.00     0.000 HD 
HETATM   13  C   UNL     1      -9.979  11.347  66.462  1.00  0.00    -0.211 C  
HETATM   14  C   UNL     1      -8.550   7.155  66.362  1.00  0.00    -0.137 C  
HETATM   15  O   UNL     1     -11.082  10.877  66.172  1.00  0.00    -0.105 OA 
HETATM   16  C   UNL     1     -10.699   9.267  68.740  1.00  0.00    -0.184 C  
HETATM   17  C   UNL     1      -8.964  10.566  67.555  1.00  0.00    -0.137 C  
HETATM   18  C   UNL     1      -8.442  11.521  68.878  1.00  0.00     0.011 C  
HETATM   19  C   UNL     1      -9.383   9.127  67.970  1.00  0.00    -0.149 C  
HETATM   20  C   UNL     1      -9.328   8.219  66.631  1.00  0.00    -0.246 C  
HETATM   21  C   UNL     1      -7.365  10.787  69.679  1.00  0.00    -0.107 C  
HETATM   22  C   UNL     1      -7.813   9.395  70.096  1.00  0.00    -0.148 C  
HETATM   23  C   UNL     1      -8.328   8.548  68.955  1.00  0.00    -0.118 C  
ENDROOT
BRANCH   4  24
HETATM   24  C   UNL     1     -11.156  14.302  67.252  1.00  0.00    -0.306 C  
HETATM   25  O   UNL     1     -11.236  15.539  67.355  1.00  0.00    -0.315 OA 
BRANCH  24  26
HETATM   26  C   UNL     1     -12.502  13.599  66.687  1.00  0.00    -0.240 C  
BRANCH  26  27
HETATM   27  O   UNL     1     -13.052  14.370  65.547  1.00  0.00    -0.553 OA 
BRANCH  27  28
HETATM   28  C   UNL     1     -12.477  14.626  64.333  1.00  0.00    -0.288 C  
HETATM   29  C   UNL     1     -12.241  13.426  63.429  1.00  0.00    -0.419 C  
HETATM   30  O   UNL     1     -12.177  15.733  63.950  1.00  0.00    -0.690 OA 
ENDBRANCH  27  28
ENDBRANCH  26  27
ENDBRANCH  24  26
ENDBRANCH   4  24
TORSDOF 4
ENDMDL
MODEL       75
REMARK 921   NORMALIZED FREE ENERGY PREDICTED BY IDOCK:   -4.96 KCAL/MOL
REMARK 922        TOTAL FREE ENERGY PREDICTED BY IDOCK:   -5.70 KCAL/MOL
REMARK 923 INTER-LIGAND FREE ENERGY PREDICTED BY IDOCK:   -6.43 KCAL/MOL
REMARK 924 INTRA-LIGAND FREE ENERGY PREDICTED BY IDOCK:    0.74 KCAL/MOL
REMARK 927      BINDING AFFINITY PREDICTED BY RF-SCORE:    0.00 PKD
ROOT
HETATM    1  C   UNL     1      -6.733  12.170  67.781  1.00  0.00    -0.103 C  
HETATM    2  C   UNL     1      -6.570  12.196  69.187  1.00  0.00    -0.106 C  
HETATM    3  C   UNL     1      -7.979  12.044  68.690  1.00  0.00    -0.082 C  
HETATM    4  C   UNL     1      -8.292  11.482  66.709  1.00  0.00    -0.165 C  
HETATM    5  O   UNL     1     -10.892  18.555  67.263  1.00  0.00    -0.408 OA 
HETATM    6  O   UNL     1      -7.098  11.240  65.853  1.00  0.00    -0.369 OA 
HETATM    7  C   UNL     1      -8.061  10.772  67.858  1.00  0.00    -0.112 C  
HETATM    8  C   UNL     1      -7.460   9.425  68.110  1.00  0.00    -0.079 C  
HETATM    9  C   UNL     1      -9.868  11.294  68.165  1.00  0.00    -0.190 C  
HETATM   10  C   UNL     1     -10.240  17.886  68.054  1.00  0.00    -0.376 C  
HETATM   11  C   UNL     1      -8.775  17.737  68.002  1.00  0.00    -0.251 C  
HETATM   12  H   UNL     1      -7.241  10.984  64.949  1.00  0.00     0.000 HD 
HETATM   13  C   UNL     1     -10.163  12.840  67.520  1.00  0.00    -0.216 C  
HETATM   14  C   UNL     1     -10.902  16.935  69.040  1.00  0.00    -0.255 C  
HETATM   15  O   UNL     1     -11.204  12.995  66.877  1.00  0.00    -0.276 OA 
HETATM   16  C   UNL     1      -9.735  15.409  65.717  1.00  0.00    -0.385 C  
HETATM   17  C   UNL     1      -9.060  14.100  67.700  1.00  0.00    -0.194 C  
HETATM   18  C   UNL     1      -7.457  13.743  67.211  1.00  0.00    -0.048 C  
HETATM   19  C   UNL     1      -9.541  15.503  67.233  1.00  0.00    -0.216 C  
HETATM   20  C   UNL     1     -10.791  15.907  68.179  1.00  0.00    -0.317 C  
HETATM   21  C   UNL     1      -6.508  14.872  67.615  1.00  0.00    -0.168 C  
HETATM   22  C   UNL     1      -6.988  16.227  67.121  1.00  0.00    -0.243 C  
HETATM   23  C   UNL     1      -8.418  16.545  67.494  1.00  0.00    -0.189 C  
ENDROOT
BRANCH   4  24
HETATM   24  C   UNL     1      -9.232  10.165  65.871  1.00  0.00    -0.162 C  
HETATM   25  O   UNL     1     -10.165  10.401  65.084  1.00  0.00    -0.304 OA 
BRANCH  24  26
HETATM   26  C   UNL     1      -9.027   8.590  66.198  1.00  0.00    -0.179 C  
BRANCH  26  27
HETATM   27  O   UNL     1     -10.321   7.960  66.546  1.00  0.00    -0.247 OA 
BRANCH  27  28
HETATM   28  C   UNL     1     -10.558   6.896  67.371  1.00  0.00    -0.303 C  
HETATM   29  C   UNL     1     -10.635   7.198  68.860  1.00  0.00    -0.218 C  
HETATM   30  O   UNL     1     -10.726   5.764  66.980  1.00  0.00    -0.272 OA 
ENDBRANCH  27  28
ENDBRANCH  26  27
ENDBRANCH  24  26
ENDBRANCH   4  24
TORSDOF 4
ENDMDL
MODEL       76
REMARK 921   NORMALIZED FREE ENERGY PREDICTED BY IDOCK:   -4.95 KCAL/MOL
REMARK 922        TOTAL FREE ENERGY PREDICTED BY IDOCK:   -5.68 KCAL/MOL
REMARK 923 INTER-LIGAND FREE ENERGY PREDICTED BY IDOCK:   -6.17 KCAL/MOL
REMARK 924 INTRA-LIGAND FREE ENERGY PREDICTED BY IDOCK:    0.49 KCAL/MOL
REMARK 927      BINDING AFFINITY PREDICTED BY RF-SCORE:    0.00 PKD
ROOT
HETATM    1  C   UNL     1      -5.809  15.017  68.096  1.00  0.00    -0.141 C  
HETATM    2  C   UNL     1      -5.348  15.729  69.229  1.00  0.00    -0.106 C  
HETATM    3  C   UNL     1      -6.780  15.279  69.272  1.00  0.00    -0.148 C  
HETATM    4  C   UNL     1      -7.415  13.812  67.936  1.00  0.00    -0.152 C  
HETATM    5  O   UNL     1     -11.068  20.118  65.940  1.00  0.00    -0.078 OA 
HETATM    6  O   UNL     1      -6.417  13.251  66.986  1.00  0.00    -0.460 OA 
HETATM    7  C   UNL     1      -6.811  13.761  69.165  1.00  0.00    -0.102 C  
HETATM    8  C   UNL     1      -5.935  12.739  69.818  1.00  0.00    -0.131 C  
HETATM    9  C   UNL     1      -8.570  14.267  69.697  1.00  0.00     0.683 C  
HETATM   10  C   UNL     1     -10.148  19.951  66.729  1.00  0.00    -0.459 C  
HETATM   11  C   UNL     1      -8.728  19.876  66.341  1.00  0.00    -0.397 C  
HETATM   12  H   UNL     1      -6.707  12.582  66.376  1.00  0.00     0.000 HD 
HETATM   13  C   UNL     1      -9.275  15.291  68.535  1.00  0.00    -0.200 C  
HETATM   14  C   UNL     1     -10.391  19.562  68.179  1.00  0.00    -0.550 C  
HETATM   15  O   UNL     1     -10.443  15.058  68.212  1.00  0.00    -0.231 OA 
HETATM   16  C   UNL     1      -9.730  16.685  65.727  1.00  0.00    -0.194 C  
HETATM   17  C   UNL     1      -8.407  16.537  67.808  1.00  0.00    -0.176 C  
HETATM   18  C   UNL     1      -6.915  16.075  67.105  1.00  0.00    -0.242 C  
HETATM   19  C   UNL     1      -9.227  17.510  66.914  1.00  0.00    -0.273 C  
HETATM   20  C   UNL     1     -10.288  18.254  67.883  1.00  0.00    -0.417 C  
HETATM   21  C   UNL     1      -6.121  17.308  66.671  1.00  0.00    -0.247 C  
HETATM   22  C   UNL     1      -6.936  18.226  65.775  1.00  0.00    -0.284 C  
HETATM   23  C   UNL     1      -8.282  18.608  66.348  1.00  0.00    -0.295 C  
ENDROOT
BRANCH   4  24
HETATM   24  C   UNL     1      -8.262  12.206  68.085  1.00  0.00    -0.164 C  
HETATM   25  O   UNL     1      -7.735  11.215  68.621  1.00  0.00    -0.118 OA 
BRANCH  24  26
HETATM   26  C   UNL     1      -9.701  11.901  67.404  1.00  0.00    -0.184 C  
BRANCH  26  27
HETATM   27  O   UNL     1     -10.075  10.480  67.595  1.00  0.00    -0.168 OA 
BRANCH  27  28
HETATM   28  C   UNL     1     -10.106   9.474  66.670  1.00  0.00    -0.252 C  
HETATM   29  C   UNL     1      -9.632   9.827  65.269  1.00  0.00    -0.368 C  
HETATM   30  O   UNL     1     -10.462   8.344  66.915  1.00  0.00    -0.317 OA 
ENDBRANCH  27  28
ENDBRANCH  26  27
ENDBRANCH  24  26
ENDBRANCH   4  24
TORSDOF 4
ENDMDL
MODEL       77
REMARK 921   NORMALIZED FREE ENERGY PREDICTED BY IDOCK:   -4.91 KCAL/MOL
REMARK 922        TOTAL FREE ENERGY PREDICTED BY IDOCK:   -5.64 KCAL/MOL
REMARK 923 INTER-LIGAND FREE ENERGY PREDICTED BY IDOCK:   -6.10 KCAL/MOL
REMARK 924 INTRA-LIGAND FREE ENERGY PREDICTED BY IDOCK:    0.46 KCAL/MOL
REMARK 927      BINDING AFFINITY PREDICTED BY RF-SCORE:    0.00 PKD
ROOT
HETATM    1  C   UNL     1      -6.678  10.446  69.184  1.00  0.00    -0.061 C  
HETATM    2  C   UNL     1      -6.009   9.376  68.542  1.00  0.00    -0.044 C  
HETATM    3  C   UNL     1      -7.384   9.696  68.029  1.00  0.00    -0.082 C  
HETATM    4  C   UNL     1      -8.241  11.530  68.522  1.00  0.00    -0.148 C  
HETATM    5  O   UNL     1     -12.439   6.305  72.012  1.00  0.00    -0.306 OA 
HETATM    6  O   UNL     1      -7.450  12.468  69.363  1.00  0.00    -0.315 OA 
HETATM    7  C   UNL     1      -7.388  11.133  67.526  1.00  0.00    -0.102 C  
HETATM    8  C   UNL     1      -6.360  11.867  66.724  1.00  0.00    -0.039 C  
HETATM    9  C   UNL     1      -9.009  10.365  66.880  1.00  0.00    -0.151 C  
HETATM   10  C   UNL     1     -11.366   6.202  71.431  1.00  0.00    -0.275 C  
HETATM   11  C   UNL     1     -10.060   6.499  72.046  1.00  0.00    -0.201 C  
HETATM   12  H   UNL     1      -7.841  13.305  69.588  1.00  0.00     0.000 HD 
HETATM   13  C   UNL     1      -9.978   9.837  68.174  1.00  0.00    -0.154 C  
HETATM   14  C   UNL     1     -11.283   5.984  69.928  1.00  0.00    -0.438 C  
HETATM   15  O   UNL     1     -11.179  10.113  68.129  1.00  0.00    -0.258 OA 
HETATM   16  C   UNL     1     -11.066   9.619  71.142  1.00  0.00    -0.444 C  
HETATM   17  C   UNL     1      -9.326   9.019  69.493  1.00  0.00    -0.160 C  
HETATM   18  C   UNL     1      -8.003   9.797  70.254  1.00  0.00    -0.185 C  
HETATM   19  C   UNL     1     -10.348   8.426  70.504  1.00  0.00    -0.220 C  
HETATM   20  C   UNL     1     -11.203   7.308  69.704  1.00  0.00    -0.109 C  
HETATM   21  C   UNL     1      -7.360   8.874  71.291  1.00  0.00    -0.115 C  
HETATM   22  C   UNL     1      -8.377   8.332  72.283  1.00  0.00    -0.229 C  
HETATM   23  C   UNL     1      -9.581   7.686  71.637  1.00  0.00    -0.182 C  
ENDROOT
BRANCH   4  24
HETATM   24  C   UNL     1      -8.984  12.904  67.584  1.00  0.00    -0.192 C  
HETATM   25  O   UNL     1      -8.307  13.708  66.919  1.00  0.00    -0.129 OA 
BRANCH  24  26
HETATM   26  C   UNL     1     -10.560  13.275  67.663  1.00  0.00    -0.236 C  
BRANCH  26  27
HETATM   27  O   UNL     1     -10.903  13.801  69.004  1.00  0.00    -0.249 OA 
BRANCH  27  28
HETATM   28  C   UNL     1     -11.295  15.064  69.352  1.00  0.00    -0.297 C  
HETATM   29  C   UNL     1     -11.221  15.413  70.830  1.00  0.00    -0.397 C  
HETATM   30  O   UNL     1     -11.664  15.897  68.557  1.00  0.00    -0.383 OA 
ENDBRANCH  27  28
ENDBRANCH  26  27
ENDBRANCH  24  26
ENDBRANCH   4  24
TORSDOF 4
ENDMDL
MODEL       78
REMARK 921   NORMALIZED FREE ENERGY PREDICTED BY IDOCK:   -4.83 KCAL/MOL
REMARK 922        TOTAL FREE ENERGY PREDICTED BY IDOCK:   -5.54 KCAL/MOL
REMARK 923 INTER-LIGAND FREE ENERGY PREDICTED BY IDOCK:   -6.02 KCAL/MOL
REMARK 924 INTRA-LIGAND FREE ENERGY PREDICTED BY IDOCK:    0.48 KCAL/MOL
REMARK 927      BINDING AFFINITY PREDICTED BY RF-SCORE:    0.00 PKD
ROOT
HETATM    1  C   UNL     1     -11.124  13.216  66.327  1.00  0.00    -0.308 C  
HETATM    2  C   UNL     1     -12.440  13.127  65.813  1.00  0.00    -0.441 C  
HETATM    3  C   UNL     1     -12.071  14.433  66.456  1.00  0.00    -0.395 C  
HETATM    4  C   UNL     1     -10.058  14.865  66.775  1.00  0.00    -0.251 C  
HETATM    5  O   UNL     1     -13.102  14.110  73.650  1.00  0.00    -0.349 OA 
HETATM    6  O   UNL     1      -9.050  13.860  66.341  1.00  0.00    -0.443 OA 
HETATM    7  C   UNL     1     -10.891  15.026  65.698  1.00  0.00    -0.356 C  
HETATM    8  C   UNL     1     -10.637  15.092  64.225  1.00  0.00     0.591 C  
HETATM    9  C   UNL     1     -11.536  16.432  66.812  1.00  0.00     0.826 C  
HETATM   10  C   UNL     1     -13.565  13.858  72.545  1.00  0.00    -0.576 C  
HETATM   11  C   UNL     1     -13.316  12.608  71.807  1.00  0.00    -0.405 C  
HETATM   12  H   UNL     1      -8.131  14.057  66.487  1.00  0.00     0.000 HD 
HETATM   13  C   UNL     1     -11.451  15.984  68.451  1.00  0.00    -0.331 C  
HETATM   14  C   UNL     1     -14.262  14.918  71.705  1.00  0.00    -0.633 C  
HETATM   15  O   UNL     1     -11.003  16.818  69.242  1.00  0.00    -0.294 OA 
HETATM   16  C   UNL     1     -10.523  14.382  71.022  1.00  0.00     1.597 C  
HETATM   17  C   UNL     1     -11.905  14.449  68.975  1.00  0.00    -0.358 C  
HETATM   18  C   UNL     1     -11.162  13.146  68.148  1.00  0.00    -0.304 C  
HETATM   19  C   UNL     1     -11.961  14.241  70.515  1.00  0.00    -0.402 C  
HETATM   20  C   UNL     1     -13.113  15.229  71.079  1.00  0.00    -0.544 C  
HETATM   21  C   UNL     1     -11.802  11.817  68.554  1.00  0.00    -0.365 C  
HETATM   22  C   UNL     1     -11.817  11.628  70.062  1.00  0.00    -0.435 C  
HETATM   23  C   UNL     1     -12.420  12.787  70.821  1.00  0.00    -0.357 C  
ENDROOT
BRANCH   4  24
HETATM   24  C   UNL     1      -8.949  16.247  66.350  1.00  0.00    -0.308 C  
HETATM   25  O   UNL     1      -9.286  17.171  65.590  1.00  0.00    -0.515 OA 
BRANCH  24  26
HETATM   26  C   UNL     1      -7.395  16.303  66.808  1.00  0.00    -0.208 C  
BRANCH  26  27
HETATM   27  O   UNL     1      -7.245  15.809  68.197  1.00  0.00    -0.111 OA 
BRANCH  27  28
HETATM   28  C   UNL     1      -6.219  15.085  68.740  1.00  0.00    -0.083 C  
HETATM   29  C   UNL     1      -6.216  14.946  70.254  1.00  0.00    -0.152 C  
HETATM   30  O   UNL     1      -5.355  14.549  68.086  1.00  0.00    -0.108 OA 
ENDBRANCH  27  28
ENDBRANCH  26  27
ENDBRANCH  24  26
ENDBRANCH   4  24
TORSDOF 4
ENDMDL
MODEL       79
REMARK 921   NORMALIZED FREE ENERGY PREDICTED BY IDOCK:   -4.80 KCAL/MOL
REMARK 922        TOTAL FREE ENERGY PREDICTED BY IDOCK:   -5.51 KCAL/MOL
REMARK 923 INTER-LIGAND FREE ENERGY PREDICTED BY IDOCK:   -5.81 KCAL/MOL
REMARK 924 INTRA-LIGAND FREE ENERGY PREDICTED BY IDOCK:    0.31 KCAL/MOL
REMARK 927      BINDING AFFINITY PREDICTED BY RF-SCORE:    0.00 PKD
ROOT
HETATM    1  C   UNL     1      -7.831  15.824  69.803  1.00  0.00     0.098 C  
HETATM    2  C   UNL     1      -7.027  14.659  69.842  1.00  0.00    -0.099 C  
HETATM    3  C   UNL     1      -7.104  15.362  68.517  1.00  0.00    -0.114 C  
HETATM    4  C   UNL     1      -7.810  17.320  68.456  1.00  0.00    -0.266 C  
HETATM    5  O   UNL     1     -12.968  13.171  64.812  1.00  0.00    -0.725 OA 
HETATM    6  O   UNL     1      -8.207  17.962  69.738  1.00  0.00     0.759 OA 
HETATM    7  C   UNL     1      -6.574  16.778  68.691  1.00  0.00    -0.169 C  
HETATM    8  C   UNL     1      -5.387  17.266  69.460  1.00  0.00    -0.173 C  
HETATM    9  C   UNL     1      -6.685  16.507  66.808  1.00  0.00    -0.202 C  
HETATM   10  C   UNL     1     -12.007  12.827  65.487  1.00  0.00    -0.449 C  
HETATM   11  C   UNL     1     -12.019  12.730  66.957  1.00  0.00    -0.364 C  
HETATM   12  H   UNL     1      -8.529  18.855  69.710  1.00  0.00     0.000 HD 
HETATM   13  C   UNL     1      -8.287  16.170  66.345  1.00  0.00    -0.322 C  
HETATM   14  C   UNL     1     -10.613  12.692  64.892  1.00  0.00    -0.332 C  
HETATM   15  O   UNL     1      -8.722  16.755  65.350  1.00  0.00    -0.044 OA 
HETATM   16  C   UNL     1     -11.447  16.056  66.541  1.00  0.00     0.435 C  
HETATM   17  C   UNL     1      -9.265  15.126  67.233  1.00  0.00    -0.208 C  
HETATM   18  C   UNL     1      -9.380  15.479  68.906  1.00  0.00    -0.222 C  
HETATM   19  C   UNL     1     -10.634  14.759  66.592  1.00  0.00    -0.299 C  
HETATM   20  C   UNL     1     -10.309  13.960  65.223  1.00  0.00    -0.396 C  
HETATM   21  C   UNL     1     -10.110  14.354  69.643  1.00  0.00     0.242 C  
HETATM   22  C   UNL     1     -11.456  14.037  69.012  1.00  0.00    -0.337 C  
HETATM   23  C   UNL     1     -11.391  13.773  67.526  1.00  0.00    -0.334 C  
ENDROOT
BRANCH   4  24
HETATM   24  C   UNL     1      -7.189  18.899  67.791  1.00  0.00    -0.232 C  
HETATM   25  O   UNL     1      -6.377  19.614  68.404  1.00  0.00    -0.239 OA 
BRANCH  24  26
HETATM   26  C   UNL     1      -7.755  19.565  66.426  1.00  0.00    -0.296 C  
BRANCH  26  27
HETATM   27  O   UNL     1      -9.050  20.239  66.675  1.00  0.00    -0.328 OA 
BRANCH  27  28
HETATM   28  C   UNL     1     -10.315  19.759  66.474  1.00  0.00    -0.506 C  
HETATM   29  C   UNL     1     -10.977  19.078  67.662  1.00  0.00    -0.330 C  
HETATM   30  O   UNL     1     -10.919  19.868  65.433  1.00  0.00    -0.362 OA 
ENDBRANCH  27  28
ENDBRANCH  26  27
ENDBRANCH  24  26
ENDBRANCH   4  24
TORSDOF 4
ENDMDL
MODEL       80
REMARK 921   NORMALIZED FREE ENERGY PREDICTED BY IDOCK:   -4.75 KCAL/MOL
REMARK 922        TOTAL FREE ENERGY PREDICTED BY IDOCK:   -5.44 KCAL/MOL
REMARK 923 INTER-LIGAND FREE ENERGY PREDICTED BY IDOCK:   -6.45 KCAL/MOL
REMARK 924 INTRA-LIGAND FREE ENERGY PREDICTED BY IDOCK:    1.01 KCAL/MOL
REMARK 927      BINDING AFFINITY PREDICTED BY RF-SCORE:    0.00 PKD
ROOT
HETATM    1  C   UNL     1      -7.700  10.171  69.315  1.00  0.00    -0.126 C  
HETATM    2  C   UNL     1      -6.546   9.501  68.843  1.00  0.00    -0.047 C  
HETATM    3  C   UNL     1      -7.855   9.045  68.266  1.00  0.00    -0.100 C  
HETATM    4  C   UNL     1      -9.530  10.265  68.480  1.00  0.00    -0.158 C  
HETATM    5  O   UNL     1     -10.957   4.092  72.597  1.00  0.00    -0.061 OA 
HETATM    6  O   UNL     1      -9.365  11.560  69.194  1.00  0.00    -0.405 OA 
HETATM    7  C   UNL     1      -8.511  10.227  67.565  1.00  0.00    -0.118 C  
HETATM    8  C   UNL     1      -7.902  11.274  66.686  1.00  0.00    -0.152 C  
HETATM    9  C   UNL     1      -9.498   8.695  67.005  1.00  0.00    -0.221 C  
HETATM   10  C   UNL     1      -9.923   4.463  72.056  1.00  0.00    -0.185 C  
HETATM   11  C   UNL     1      -8.981   5.429  72.645  1.00  0.00    -0.133 C  
HETATM   12  H   UNL     1     -10.129  12.117  69.293  1.00  0.00     0.000 HD 
HETATM   13  C   UNL     1     -10.196   7.911  68.344  1.00  0.00    -0.202 C  
HETATM   14  C   UNL     1      -9.619   4.143  70.600  1.00  0.00    -0.264 C  
HETATM   15  O   UNL     1     -11.373   7.556  68.239  1.00  0.00     0.308 OA 
HETATM   16  C   UNL     1     -11.289   7.529  71.293  1.00  0.00    -0.284 C  
HETATM   17  C   UNL     1      -9.343   7.675  69.776  1.00  0.00    -0.150 C  
HETATM   18  C   UNL     1      -8.631   9.083  70.443  1.00  0.00    -0.215 C  
HETATM   19  C   UNL     1     -10.033   6.777  70.843  1.00  0.00    -0.200 C  
HETATM   20  C   UNL     1     -10.170   5.301  70.193  1.00  0.00    -0.350 C  
HETATM   21  C   UNL     1      -7.712   8.719  71.611  1.00  0.00    -0.117 C  
HETATM   22  C   UNL     1      -8.420   7.866  72.651  1.00  0.00    -0.203 C  
HETATM   23  C   UNL     1      -9.103   6.643  72.082  1.00  0.00    -0.138 C  
ENDROOT
BRANCH   4  24
HETATM   24  C   UNL     1     -10.763  10.981  67.345  1.00  0.00    -0.257 C  
HETATM   25  O   UNL     1     -11.930  11.232  67.692  1.00  0.00    -0.634 OA 
BRANCH  24  26
HETATM   26  C   UNL     1     -10.480  11.207  65.765  1.00  0.00    -0.246 C  
BRANCH  26  27
HETATM   27  O   UNL     1     -11.144  12.444  65.291  1.00  0.00    -0.287 OA 
BRANCH  27  28
HETATM   28  C   UNL     1     -12.299  12.570  64.569  1.00  0.00    -0.467 C  
HETATM   29  C   UNL     1     -12.208  12.251  63.085  1.00  0.00    -0.356 C  
HETATM   30  O   UNL     1     -13.360  12.894  65.049  1.00  0.00    -0.682 OA 
ENDBRANCH  27  28
ENDBRANCH  26  27
ENDBRANCH  24  26
ENDBRANCH   4  24
TORSDOF 4
ENDMDL
MODEL       81
REMARK 921   NORMALIZED FREE ENERGY PREDICTED BY IDOCK:   -4.75 KCAL/MOL
REMARK 922        TOTAL FREE ENERGY PREDICTED BY IDOCK:   -5.44 KCAL/MOL
REMARK 923 INTER-LIGAND FREE ENERGY PREDICTED BY IDOCK:   -6.27 KCAL/MOL
REMARK 924 INTRA-LIGAND FREE ENERGY PREDICTED BY IDOCK:    0.83 KCAL/MOL
REMARK 927      BINDING AFFINITY PREDICTED BY RF-SCORE:    0.00 PKD
ROOT
HETATM    1  C   UNL     1     -11.669  13.205  67.762  1.00  0.00    -0.401 C  
HETATM    2  C   UNL     1     -11.999  12.956  69.116  1.00  0.00    -0.308 C  
HETATM    3  C   UNL     1     -10.627  13.512  68.864  1.00  0.00    -0.188 C  
HETATM    4  C   UNL     1     -10.218  14.388  67.019  1.00  0.00    -0.263 C  
HETATM    5  O   UNL     1      -5.958   8.154  67.311  1.00  0.00    -0.047 OA 
HETATM    6  O   UNL     1     -11.313  14.442  66.012  1.00  0.00    -0.324 OA 
HETATM    7  C   UNL     1     -10.772  14.863  68.179  1.00  0.00    -0.251 C  
HETATM    8  C   UNL     1     -11.732  15.977  68.458  1.00  0.00    -0.244 C  
HETATM    9  C   UNL     1      -8.947  14.763  68.718  1.00  0.00    -0.179 C  
HETATM   10  C   UNL     1      -6.858   8.534  68.047  1.00  0.00    -0.070 C  
HETATM   11  C   UNL     1      -8.292   8.326  67.779  1.00  0.00    -0.128 C  
HETATM   12  H   UNL     1     -11.126  14.841  65.170  1.00  0.00     0.000 HD 
HETATM   13  C   UNL     1      -8.179  13.433  67.985  1.00  0.00    -0.161 C  
HETATM   14  C   UNL     1      -6.600   9.480  69.211  1.00  0.00    -0.048 C  
HETATM   15  O   UNL     1      -7.059  13.623  67.503  1.00  0.00    -0.167 OA 
HETATM   16  C   UNL     1      -7.685  11.097  65.903  1.00  0.00     0.062 C  
HETATM   17  C   UNL     1      -8.929  11.930  67.869  1.00  0.00    -0.179 C  
HETATM   18  C   UNL     1     -10.492  11.946  67.168  1.00  0.00    -0.249 C  
HETATM   19  C   UNL     1      -8.042  10.761  67.354  1.00  0.00    -0.112 C  
HETATM   20  C   UNL     1      -6.863  10.553  68.444  1.00  0.00    -0.064 C  
HETATM   21  C   UNL     1     -11.158  10.576  67.309  1.00  0.00    -0.284 C  
HETATM   22  C   UNL     1     -10.281   9.457  66.772  1.00  0.00    -0.320 C  
HETATM   23  C   UNL     1      -8.879   9.451  67.335  1.00  0.00    -0.135 C  
ENDROOT
BRANCH   4  24
HETATM   24  C   UNL     1      -9.554  15.993  66.468  1.00  0.00    -0.261 C  
HETATM   25  O   UNL     1      -9.939  16.560  65.430  1.00  0.00    -0.552 OA 
BRANCH  24  26
HETATM   26  C   UNL     1      -8.312  16.732  67.202  1.00  0.00    -0.183 C  
BRANCH  26  27
HETATM   27  O   UNL     1      -7.186  16.916  66.257  1.00  0.00    -0.261 OA 
BRANCH  27  28
HETATM   28  C   UNL     1      -6.690  18.079  65.735  1.00  0.00    -0.257 C  
HETATM   29  C   UNL     1      -5.178  18.177  65.615  1.00  0.00    -0.221 C  
HETATM   30  O   UNL     1      -7.382  18.996  65.358  1.00  0.00    -0.470 OA 
ENDBRANCH  27  28
ENDBRANCH  26  27
ENDBRANCH  24  26
ENDBRANCH   4  24
TORSDOF 4
ENDMDL
MODEL       82
REMARK 921   NORMALIZED FREE ENERGY PREDICTED BY IDOCK:   -4.72 KCAL/MOL
REMARK 922        TOTAL FREE ENERGY PREDICTED BY IDOCK:   -5.40 KCAL/MOL
REMARK 923 INTER-LIGAND FREE ENERGY PREDICTED BY IDOCK:   -6.04 KCAL/MOL
REMARK 924 INTRA-LIGAND FREE ENERGY PREDICTED BY IDOCK:    0.64 KCAL/MOL
REMARK 927      BINDING AFFINITY PREDICTED BY RF-SCORE:    0.00 PKD
ROOT
HETATM    1  C   UNL     1     -10.907  13.520  65.263  1.00  0.00    -0.316 C  
HETATM    2  C   UNL     1     -12.196  12.937  65.224  1.00  0.00    -0.524 C  
HETATM    3  C   UNL     1     -11.385  12.661  66.458  1.00  0.00    -0.377 C  
HETATM    4  C   UNL     1      -9.725  13.854  66.858  1.00  0.00    -0.268 C  
HETATM    5  O   UNL     1      -6.989   6.965  65.389  1.00  0.00    -0.056 OA 
HETATM    6  O   UNL     1      -9.406  14.952  65.906  1.00  0.00    -0.437 OA 
HETATM    7  C   UNL     1     -11.062  13.989  67.129  1.00  0.00    -0.313 C  
HETATM    8  C   UNL     1     -11.932  15.186  67.347  1.00  0.00     0.036 C  
HETATM    9  C   UNL     1     -10.613  12.651  68.410  1.00  0.00    -0.258 C  
HETATM   10  C   UNL     1      -8.118   7.416  65.252  1.00  0.00    -0.131 C  
HETATM   11  C   UNL     1      -8.563   8.197  64.085  1.00  0.00     0.173 C  
HETATM   12  H   UNL     1      -8.648  15.496  66.089  1.00  0.00     0.000 HD 
HETATM   13  C   UNL     1      -9.416  11.610  67.795  1.00  0.00    -0.178 C  
HETATM   14  C   UNL     1      -9.126   7.419  66.392  1.00  0.00    -0.196 C  
HETATM   15  O   UNL     1      -8.478  11.324  68.544  1.00  0.00    -0.146 OA 
HETATM   16  C   UNL     1      -7.050  10.615  65.938  1.00  0.00    -0.115 C  
HETATM   17  C   UNL     1      -9.469  11.035  66.213  1.00  0.00    -0.219 C  
HETATM   18  C   UNL     1      -9.638  12.237  65.004  1.00  0.00     0.018 C  
HETATM   19  C   UNL     1      -8.424   9.944  65.846  1.00  0.00    -0.137 C  
HETATM   20  C   UNL     1      -8.750   8.654  66.768  1.00  0.00    -0.135 C  
HETATM   21  C   UNL     1      -9.890  11.594  63.639  1.00  0.00    -0.366 C  
HETATM   22  C   UNL     1      -8.838  10.553  63.294  1.00  0.00    -0.212 C  
HETATM   23  C   UNL     1      -8.631   9.510  64.368  1.00  0.00    -0.213 C  
ENDROOT
BRANCH   4  24
HETATM   24  C   UNL     1      -9.155  14.842  68.279  1.00  0.00    -0.183 C  
HETATM   25  O   UNL     1      -8.478  14.361  69.205  1.00  0.00     0.007 OA 
BRANCH  24  26
HETATM   26  C   UNL     1      -9.607  16.379  68.523  1.00  0.00    -0.229 C  
BRANCH  26  27
HETATM   27  O   UNL     1      -8.724  17.305  67.775  1.00  0.00    -0.220 OA 
BRANCH  27  28
HETATM   28  C   UNL     1      -9.006  18.555  67.297  1.00  0.00    -0.270 C  
HETATM   29  C   UNL     1     -10.473  18.953  67.266  1.00  0.00    -0.510 C  
HETATM   30  O   UNL     1      -8.164  19.340  66.929  1.00  0.00    -0.261 OA 
ENDBRANCH  27  28
ENDBRANCH  26  27
ENDBRANCH  24  26
ENDBRANCH   4  24
TORSDOF 4
ENDMDL
MODEL       83
REMARK 921   NORMALIZED FREE ENERGY PREDICTED BY IDOCK:   -4.72 KCAL/MOL
REMARK 922        TOTAL FREE ENERGY PREDICTED BY IDOCK:   -5.40 KCAL/MOL
REMARK 923 INTER-LIGAND FREE ENERGY PREDICTED BY IDOCK:   -5.91 KCAL/MOL
REMARK 924 INTRA-LIGAND FREE ENERGY PREDICTED BY IDOCK:    0.51 KCAL/MOL
REMARK 927      BINDING AFFINITY PREDICTED BY RF-SCORE:    0.00 PKD
ROOT
HETATM    1  C   UNL     1      -6.819  11.839  67.748  1.00  0.00    -0.090 C  
HETATM    2  C   UNL     1      -6.826  11.656  69.152  1.00  0.00    -0.111 C  
HETATM    3  C   UNL     1      -8.165  11.606  68.474  1.00  0.00    -0.144 C  
HETATM    4  C   UNL     1      -8.240  11.348  66.409  1.00  0.00    -0.124 C  
HETATM    5  O   UNL     1     -10.869  18.314  67.694  1.00  0.00    -0.396 OA 
HETATM    6  O   UNL     1      -6.954  11.209  65.674  1.00  0.00    -0.373 OA 
HETATM    7  C   UNL     1      -8.151  10.472  67.459  1.00  0.00    -0.107 C  
HETATM    8  C   UNL     1      -7.587   9.091  67.578  1.00  0.00    -0.089 C  
HETATM    9  C   UNL     1      -9.981  10.980  67.625  1.00  0.00    -0.196 C  
HETATM   10  C   UNL     1     -10.318  17.523  68.448  1.00  0.00    -0.378 C  
HETATM   11  C   UNL     1      -8.858  17.354  68.549  1.00  0.00    -0.277 C  
HETATM   12  H   UNL     1      -6.988  11.092  64.731  1.00  0.00     0.000 HD 
HETATM   13  C   UNL     1     -10.191  12.610  67.187  1.00  0.00    -0.225 C  
HETATM   14  C   UNL     1     -11.096  16.452  69.198  1.00  0.00    -0.303 C  
HETATM   15  O   UNL     1     -11.148  12.878  66.454  1.00  0.00    -0.274 OA 
HETATM   16  C   UNL     1      -9.544  15.407  65.846  1.00  0.00    -0.386 C  
HETATM   17  C   UNL     1      -9.114  13.807  67.680  1.00  0.00    -0.196 C  
HETATM   18  C   UNL     1      -7.466  13.493  67.335  1.00  0.00    -0.136 C  
HETATM   19  C   UNL     1      -9.533  15.273  67.372  1.00  0.00    -0.200 C  
HETATM   20  C   UNL     1     -10.885  15.559  68.213  1.00  0.00    -0.292 C  
HETATM   21  C   UNL     1      -6.568  14.531  68.011  1.00  0.00    -0.156 C  
HETATM   22  C   UNL     1      -6.983  15.953  67.670  1.00  0.00    -0.187 C  
HETATM   23  C   UNL     1      -8.446  16.243  67.915  1.00  0.00    -0.166 C  
ENDROOT
BRANCH   4  24
HETATM   24  C   UNL     1      -9.077  10.187  65.280  1.00  0.00    -0.195 C  
HETATM   25  O   UNL     1     -10.004   9.443  65.646  1.00  0.00    -0.304 OA 
BRANCH  24  26
HETATM   26  C   UNL     1      -8.584   9.927  63.758  1.00  0.00    -0.199 C  
BRANCH  26  27
HETATM   27  O   UNL     1      -8.425   8.476  63.505  1.00  0.00    -0.140 OA 
BRANCH  27  28
HETATM   28  C   UNL     1      -7.416   7.645  63.908  1.00  0.00    -0.107 C  
HETATM   29  C   UNL     1      -7.783   6.581  64.930  1.00  0.00    -0.105 C  
HETATM   30  O   UNL     1      -6.286   7.703  63.482  1.00  0.00    -0.053 OA 
ENDBRANCH  27  28
ENDBRANCH  26  27
ENDBRANCH  24  26
ENDBRANCH   4  24
TORSDOF 4
ENDMDL
MODEL       84
REMARK 921   NORMALIZED FREE ENERGY PREDICTED BY IDOCK:   -4.71 KCAL/MOL
REMARK 922        TOTAL FREE ENERGY PREDICTED BY IDOCK:   -5.39 KCAL/MOL
REMARK 923 INTER-LIGAND FREE ENERGY PREDICTED BY IDOCK:   -5.34 KCAL/MOL
REMARK 924 INTRA-LIGAND FREE ENERGY PREDICTED BY IDOCK:   -0.05 KCAL/MOL
REMARK 927      BINDING AFFINITY PREDICTED BY RF-SCORE:    0.00 PKD
ROOT
HETATM    1  C   UNL     1      -9.358   7.946  71.590  1.00  0.00    -0.189 C  
HETATM    2  C   UNL     1     -10.399   8.866  71.862  1.00  0.00    -0.407 C  
HETATM    3  C   UNL     1     -10.674   7.862  70.779  1.00  0.00    -0.230 C  
HETATM    4  C   UNL     1      -9.465   6.172  70.643  1.00  0.00    -0.168 C  
HETATM    5  O   UNL     1      -8.050  10.205  64.412  1.00  0.00    -0.157 OA 
HETATM    6  O   UNL     1      -8.369   6.012  71.638  1.00  0.00    -0.124 OA 
HETATM    7  C   UNL     1     -10.581   6.467  71.381  1.00  0.00    -0.274 C  
HETATM    8  C   UNL     1     -11.090   5.956  72.692  1.00  0.00    -0.322 C  
HETATM    9  C   UNL     1     -11.386   6.228  69.670  1.00  0.00    -0.492 C  
HETATM   10  C   UNL     1      -8.682  10.497  65.419  1.00  0.00    -0.183 C  
HETATM   11  C   UNL     1      -8.071  10.994  66.664  1.00  0.00    -0.155 C  
HETATM   12  H   UNL     1      -7.818   5.241  71.575  1.00  0.00     0.000 HD 
HETATM   13  C   UNL     1     -10.348   6.774  68.438  1.00  0.00    -0.191 C  
HETATM   14  C   UNL     1     -10.154  10.148  65.574  1.00  0.00    -0.338 C  
HETATM   15  O   UNL     1     -10.218   6.051  67.447  1.00  0.00    -0.147 OA 
HETATM   16  C   UNL     1      -7.642   7.642  67.036  1.00  0.00    -0.103 C  
HETATM   17  C   UNL     1      -9.485   8.213  68.580  1.00  0.00    -0.147 C  
HETATM   18  C   UNL     1      -8.553   8.368  70.009  1.00  0.00    -0.131 C  
HETATM   19  C   UNL     1      -8.729   8.686  67.306  1.00  0.00    -0.133 C  
HETATM   20  C   UNL     1      -9.852   8.986  66.180  1.00  0.00    -0.349 C  
HETATM   21  C   UNL     1      -7.990   9.786  70.133  1.00  0.00    -0.201 C  
HETATM   22  C   UNL     1      -7.233  10.210  68.886  1.00  0.00    -0.079 C  
HETATM   23  C   UNL     1      -8.013  10.035  67.603  1.00  0.00    -0.105 C  
ENDROOT
BRANCH   4  24
HETATM   24  C   UNL     1      -9.757   4.374  70.590  1.00  0.00    -0.213 C  
HETATM   25  O   UNL     1     -10.156   3.727  71.575  1.00  0.00    -0.157 OA 
BRANCH  24  26
HETATM   26  C   UNL     1      -9.379   3.456  69.308  1.00  0.00    -0.170 C  
BRANCH  26  27
HETATM   27  O   UNL     1      -7.912   3.259  69.225  1.00  0.00    -0.050 OA 
BRANCH  27  28
HETATM   28  C   UNL     1      -6.958   4.128  68.776  1.00  0.00    -0.047 C  
HETATM   29  C   UNL     1      -6.653   4.088  67.287  1.00  0.00    -0.046 C  
HETATM   30  O   UNL     1      -6.380   4.919  69.485  1.00  0.00    -0.028 OA 
ENDBRANCH  27  28
ENDBRANCH  26  27
ENDBRANCH  24  26
ENDBRANCH   4  24
TORSDOF 4
ENDMDL
MODEL       85
REMARK 921   NORMALIZED FREE ENERGY PREDICTED BY IDOCK:   -4.69 KCAL/MOL
REMARK 922        TOTAL FREE ENERGY PREDICTED BY IDOCK:   -5.36 KCAL/MOL
REMARK 923 INTER-LIGAND FREE ENERGY PREDICTED BY IDOCK:   -5.81 KCAL/MOL
REMARK 924 INTRA-LIGAND FREE ENERGY PREDICTED BY IDOCK:    0.45 KCAL/MOL
REMARK 927      BINDING AFFINITY PREDICTED BY RF-SCORE:    0.00 PKD
ROOT
HETATM    1  C   UNL     1      -8.442   7.345  70.973  1.00  0.00    -0.119 C  
HETATM    2  C   UNL     1      -9.289   7.865  71.981  1.00  0.00    -0.217 C  
HETATM    3  C   UNL     1      -9.965   7.426  70.714  1.00  0.00    -0.182 C  
HETATM    4  C   UNL     1      -8.927   6.195  69.393  1.00  0.00    -0.128 C  
HETATM    5  O   UNL     1      -9.833  12.769  65.779  1.00  0.00    -0.262 OA 
HETATM    6  O   UNL     1      -7.545   5.783  69.760  1.00  0.00    -0.076 OA 
HETATM    7  C   UNL     1      -9.686   5.945  70.506  1.00  0.00    -0.217 C  
HETATM    8  C   UNL     1      -9.684   4.825  71.499  1.00  0.00    -0.235 C  
HETATM    9  C   UNL     1     -11.071   6.376  69.270  1.00  0.00    -0.437 C  
HETATM   10  C   UNL     1     -10.041  12.471  66.948  1.00  0.00    -0.225 C  
HETATM   11  C   UNL     1      -9.004  12.446  67.993  1.00  0.00    -0.194 C  
HETATM   12  H   UNL     1      -7.072   5.221  69.157  1.00  0.00     0.000 HD 
HETATM   13  C   UNL     1     -10.550   7.576  68.183  1.00  0.00    -0.145 C  
HETATM   14  C   UNL     1     -11.359  11.860  67.399  1.00  0.00    -0.389 C  
HETATM   15  O   UNL     1     -10.810   7.408  66.989  1.00  0.00    -0.354 OA 
HETATM   16  C   UNL     1      -8.536   9.401  66.553  1.00  0.00    -0.142 C  
HETATM   17  C   UNL     1      -9.666   8.914  68.696  1.00  0.00    -0.169 C  
HETATM   18  C   UNL     1      -8.269   8.556  69.621  1.00  0.00    -0.115 C  
HETATM   19  C   UNL     1      -9.425  10.024  67.634  1.00  0.00    -0.163 C  
HETATM   20  C   UNL     1     -10.879  10.615  67.236  1.00  0.00    -0.345 C  
HETATM   21  C   UNL     1      -7.672   9.836  70.210  1.00  0.00    -0.187 C  
HETATM   22  C   UNL     1      -7.421  10.891  69.146  1.00  0.00    -0.130 C  
HETATM   23  C   UNL     1      -8.623  11.189  68.280  1.00  0.00    -0.146 C  
ENDROOT
BRANCH   4  24
HETATM   24  C   UNL     1      -9.255   4.593  68.590  1.00  0.00    -0.126 C  
HETATM   25  O   UNL     1      -9.661   3.597  69.215  1.00  0.00    -0.182 OA 
BRANCH  24  26
HETATM   26  C   UNL     1      -8.903   4.297  67.035  1.00  0.00    -0.116 C  
BRANCH  26  27
HETATM   27  O   UNL     1     -10.144   4.152  66.240  1.00  0.00    -0.206 OA 
BRANCH  27  28
HETATM   28  C   UNL     1     -10.281   4.028  64.885  1.00  0.00    -0.200 C  
HETATM   29  C   UNL     1      -8.999   4.060  64.069  1.00  0.00    -0.131 C  
HETATM   30  O   UNL     1     -11.343   3.875  64.327  1.00  0.00    -0.276 OA 
ENDBRANCH  27  28
ENDBRANCH  26  27
ENDBRANCH  24  26
ENDBRANCH   4  24
TORSDOF 4
ENDMDL
MODEL       86
REMARK 921   NORMALIZED FREE ENERGY PREDICTED BY IDOCK:   -4.67 KCAL/MOL
REMARK 922        TOTAL FREE ENERGY PREDICTED BY IDOCK:   -5.35 KCAL/MOL
REMARK 923 INTER-LIGAND FREE ENERGY PREDICTED BY IDOCK:   -5.75 KCAL/MOL
REMARK 924 INTRA-LIGAND FREE ENERGY PREDICTED BY IDOCK:    0.41 KCAL/MOL
REMARK 927      BINDING AFFINITY PREDICTED BY RF-SCORE:    0.00 PKD
ROOT
HETATM    1  C   UNL     1      -8.074  11.512  67.479  1.00  0.00    -0.137 C  
HETATM    2  C   UNL     1      -7.819  10.810  66.276  1.00  0.00    -0.156 C  
HETATM    3  C   UNL     1      -9.092  10.455  66.989  1.00  0.00    -0.153 C  
HETATM    4  C   UNL     1      -9.821  11.746  68.452  1.00  0.00    -0.199 C  
HETATM    5  O   UNL     1      -7.828   5.436  72.101  1.00  0.00    -0.102 OA 
HETATM    6  O   UNL     1      -9.054  12.989  68.734  1.00  0.00    -0.385 OA 
HETATM    7  C   UNL     1      -9.954  11.705  67.089  1.00  0.00    -0.219 C  
HETATM    8  C   UNL     1     -10.220  12.767  66.068  1.00  0.00    -0.290 C  
HETATM    9  C   UNL     1     -11.103  10.260  67.562  1.00  0.00    -0.302 C  
HETATM   10  C   UNL     1      -7.622   5.782  70.945  1.00  0.00    -0.092 C  
HETATM   11  C   UNL     1      -6.518   6.665  70.530  1.00  0.00    -0.047 C  
HETATM   12  H   UNL     1      -9.387  13.578  69.402  1.00  0.00     0.000 HD 
HETATM   13  C   UNL     1     -10.502   9.440  68.927  1.00  0.00    -0.216 C  
HETATM   14  C   UNL     1      -8.633   5.529  69.837  1.00  0.00    -0.120 C  
HETATM   15  O   UNL     1     -11.310   9.152  69.813  1.00  0.00    -0.126 OA 
HETATM   16  C   UNL     1      -8.813   8.952  71.562  1.00  0.00    -0.253 C  
HETATM   17  C   UNL     1      -8.866   9.082  69.095  1.00  0.00    -0.142 C  
HETATM   18  C   UNL     1      -7.803  10.412  68.908  1.00  0.00    -0.115 C  
HETATM   19  C   UNL     1      -8.486   8.163  70.292  1.00  0.00    -0.126 C  
HETATM   20  C   UNL     1      -9.199   6.734  70.028  1.00  0.00    -0.158 C  
HETATM   21  C   UNL     1      -6.349   9.937  68.867  1.00  0.00    -0.041 C  
HETATM   22  C   UNL     1      -5.999   9.066  70.062  1.00  0.00    -0.031 C  
HETATM   23  C   UNL     1      -6.951   7.913  70.282  1.00  0.00    -0.049 C  
ENDROOT
BRANCH   4  24
HETATM   24  C   UNL     1     -11.408  12.586  68.762  1.00  0.00    -0.293 C  
HETATM   25  O   UNL     1     -11.983  13.276  67.902  1.00  0.00    -0.345 OA 
BRANCH  24  26
HETATM   26  C   UNL     1     -12.118  12.622  70.219  1.00  0.00    -0.294 C  
BRANCH  26  27
HETATM   27  O   UNL     1     -11.743  13.857  70.948  1.00  0.00    -0.211 OA 
BRANCH  27  28
HETATM   28  C   UNL     1     -12.132  15.145  70.701  1.00  0.00    -0.329 C  
HETATM   29  C   UNL     1     -11.032  16.123  70.321  1.00  0.00    -0.345 C  
HETATM   30  O   UNL     1     -13.280  15.522  70.749  1.00  0.00    -0.475 OA 
ENDBRANCH  27  28
ENDBRANCH  26  27
ENDBRANCH  24  26
ENDBRANCH   4  24
TORSDOF 4
ENDMDL
MODEL       87
REMARK 921   NORMALIZED FREE ENERGY PREDICTED BY IDOCK:   -4.67 KCAL/MOL
REMARK 922        TOTAL FREE ENERGY PREDICTED BY IDOCK:   -5.34 KCAL/MOL
REMARK 923 INTER-LIGAND FREE ENERGY PREDICTED BY IDOCK:   -5.68 KCAL/MOL
REMARK 924 INTRA-LIGAND FREE ENERGY PREDICTED BY IDOCK:    0.34 KCAL/MOL
REMARK 927      BINDING AFFINITY PREDICTED BY RF-SCORE:    0.00 PKD
ROOT
HETATM    1  C   UNL     1      -7.786   9.530  68.924  1.00  0.00    -0.076 C  
HETATM    2  C   UNL     1      -7.155   9.947  70.121  1.00  0.00    -0.146 C  
HETATM    3  C   UNL     1      -8.648   9.793  70.182  1.00  0.00    -0.214 C  
HETATM    4  C   UNL     1      -9.611   8.713  68.683  1.00  0.00    -0.155 C  
HETATM    5  O   UNL     1     -11.930  15.858  67.867  1.00  0.00     0.006 OA 
HETATM    6  O   UNL     1      -8.777   8.119  67.603  1.00  0.00    -0.129 OA 
HETATM    7  C   UNL     1      -8.997   8.348  69.853  1.00  0.00    -0.142 C  
HETATM    8  C   UNL     1      -8.334   7.081  70.294  1.00  0.00    -0.133 C  
HETATM    9  C   UNL     1     -10.597   9.107  70.558  1.00  0.00    -0.287 C  
HETATM   10  C   UNL     1     -11.042  15.387  68.566  1.00  0.00    -0.295 C  
HETATM   11  C   UNL     1      -9.681  15.090  68.088  1.00  0.00    -0.215 C  
HETATM   12  H   UNL     1      -9.217   7.627  66.919  1.00  0.00     0.000 HD 
HETATM   13  C   UNL     1     -11.106  10.421  69.605  1.00  0.00    -0.276 C  
HETATM   14  C   UNL     1     -11.321  14.832  69.955  1.00  0.00    -0.310 C  
HETATM   15  O   UNL     1     -12.306  10.481  69.321  1.00  0.00    -0.234 OA 
HETATM   16  C   UNL     1     -11.340  12.303  67.067  1.00  0.00    -0.395 C  
HETATM   17  C   UNL     1     -10.019  11.567  69.021  1.00  0.00    -0.040 C  
HETATM   18  C   UNL     1      -8.676  10.931  68.170  1.00  0.00    -0.133 C  
HETATM   19  C   UNL     1     -10.643  12.813  68.332  1.00  0.00    -0.262 C  
HETATM   20  C   UNL     1     -11.500  13.593  69.462  1.00  0.00    -0.324 C  
HETATM   21  C   UNL     1      -7.655  12.033  67.876  1.00  0.00    -0.124 C  
HETATM   22  C   UNL     1      -8.287  13.225  67.178  1.00  0.00    -0.143 C  
HETATM   23  C   UNL     1      -9.507  13.774  67.880  1.00  0.00    -0.214 C  
ENDROOT
BRANCH   4  24
HETATM   24  C   UNL     1     -10.768   7.306  68.643  1.00  0.00    -0.138 C  
HETATM   25  O   UNL     1     -11.246   6.798  69.672  1.00  0.00    -0.295 OA 
BRANCH  24  26
HETATM   26  C   UNL     1     -11.147   6.514  67.280  1.00  0.00    -0.350 C  
BRANCH  26  27
HETATM   27  O   UNL     1     -10.257   5.345  67.094  1.00  0.00    -0.182 OA 
BRANCH  27  28
HETATM   28  C   UNL     1      -9.391   5.085  66.068  1.00  0.00    -0.157 C  
HETATM   29  C   UNL     1      -9.347   3.650  65.566  1.00  0.00    -0.160 C  
HETATM   30  O   UNL     1      -8.697   5.925  65.544  1.00  0.00    -0.154 OA 
ENDBRANCH  27  28
ENDBRANCH  26  27
ENDBRANCH  24  26
ENDBRANCH   4  24
TORSDOF 4
ENDMDL
MODEL       88
REMARK 921   NORMALIZED FREE ENERGY PREDICTED BY IDOCK:   -4.66 KCAL/MOL
REMARK 922        TOTAL FREE ENERGY PREDICTED BY IDOCK:   -5.32 KCAL/MOL
REMARK 923 INTER-LIGAND FREE ENERGY PREDICTED BY IDOCK:   -5.37 KCAL/MOL
REMARK 924 INTRA-LIGAND FREE ENERGY PREDICTED BY IDOCK:    0.04 KCAL/MOL
REMARK 927      BINDING AFFINITY PREDICTED BY RF-SCORE:    0.00 PKD
ROOT
HETATM    1  C   UNL     1     -10.130   9.342  70.879  1.00  0.00    -0.373 C  
HETATM    2  C   UNL     1     -11.033   9.979  69.996  1.00  0.00    -0.352 C  
HETATM    3  C   UNL     1     -11.149   8.485  70.092  1.00  0.00    -0.192 C  
HETATM    4  C   UNL     1     -10.256   7.507  71.699  1.00  0.00    -0.184 C  
HETATM    5  O   UNL     1      -6.441   5.272  65.571  1.00  0.00    -0.038 OA 
HETATM    6  O   UNL     1      -9.539   8.331  72.709  1.00  0.00    -0.264 OA 
HETATM    7  C   UNL     1     -11.472   8.118  71.533  1.00  0.00    -0.310 C  
HETATM    8  C   UNL     1     -12.416   8.767  72.496  1.00  0.00    -0.368 C  
HETATM    9  C   UNL     1     -11.776   6.529  70.526  1.00  0.00    -0.438 C  
HETATM   10  C   UNL     1      -7.278   6.156  65.707  1.00  0.00    -0.075 C  
HETATM   11  C   UNL     1      -6.978   7.512  66.196  1.00  0.00    -0.065 C  
HETATM   12  H   UNL     1      -9.131   7.885  73.442  1.00  0.00     0.000 HD 
HETATM   13  C   UNL     1     -10.349   6.034  69.743  1.00  0.00    -0.228 C  
HETATM   14  C   UNL     1      -8.769   5.873  65.608  1.00  0.00    -0.149 C  
HETATM   15  O   UNL     1     -10.063   4.835  69.797  1.00  0.00    -0.233 OA 
HETATM   16  C   UNL     1      -7.248   5.818  69.132  1.00  0.00    -0.074 C  
HETATM   17  C   UNL     1      -9.334   7.134  68.973  1.00  0.00    -0.140 C  
HETATM   18  C   UNL     1      -8.843   8.468  69.928  1.00  0.00    -0.137 C  
HETATM   19  C   UNL     1      -8.174   6.523  68.136  1.00  0.00    -0.117 C  
HETATM   20  C   UNL     1      -8.856   5.678  66.936  1.00  0.00    -0.113 C  
HETATM   21  C   UNL     1      -8.109   9.501  69.071  1.00  0.00    -0.101 C  
HETATM   22  C   UNL     1      -6.963   8.883  68.287  1.00  0.00    -0.076 C  
HETATM   23  C   UNL     1      -7.357   7.670  67.476  1.00  0.00    -0.095 C  
ENDROOT
BRANCH   4  24
HETATM   24  C   UNL     1     -10.820   6.333  72.974  1.00  0.00    -0.259 C  
HETATM   25  O   UNL     1     -11.736   5.515  72.777  1.00  0.00    -0.297 OA 
BRANCH  24  26
HETATM   26  C   UNL     1     -10.278   6.362  74.501  1.00  0.00    -0.288 C  
BRANCH  26  27
HETATM   27  O   UNL     1      -8.870   5.906  74.561  1.00  0.00    -0.121 OA 
BRANCH  27  28
HETATM   28  C   UNL     1      -8.196   5.097  73.689  1.00  0.00    -0.109 C  
HETATM   29  C   UNL     1      -7.098   5.753  72.867  1.00  0.00    -0.085 C  
HETATM   30  O   UNL     1      -8.414   3.914  73.562  1.00  0.00    -0.087 OA 
ENDBRANCH  27  28
ENDBRANCH  26  27
ENDBRANCH  24  26
ENDBRANCH   4  24
TORSDOF 4
ENDMDL
MODEL       89
REMARK 921   NORMALIZED FREE ENERGY PREDICTED BY IDOCK:   -4.64 KCAL/MOL
REMARK 922        TOTAL FREE ENERGY PREDICTED BY IDOCK:   -5.31 KCAL/MOL
REMARK 923 INTER-LIGAND FREE ENERGY PREDICTED BY IDOCK:   -5.74 KCAL/MOL
REMARK 924 INTRA-LIGAND FREE ENERGY PREDICTED BY IDOCK:    0.44 KCAL/MOL
REMARK 927      BINDING AFFINITY PREDICTED BY RF-SCORE:    0.00 PKD
ROOT
HETATM    1  C   UNL     1     -11.118  10.858  69.731  1.00  0.00    -0.328 C  
HETATM    2  C   UNL     1     -12.487  10.708  69.401  1.00  0.00     0.063 C  
HETATM    3  C   UNL     1     -11.512  10.511  68.276  1.00  0.00    -0.272 C  
HETATM    4  C   UNL     1      -9.503  10.198  68.727  1.00  0.00    -0.171 C  
HETATM    5  O   UNL     1      -9.796  16.901  65.251  1.00  0.00    -0.433 OA 
HETATM    6  O   UNL     1      -9.104  10.169  70.160  1.00  0.00    -0.377 OA 
HETATM    7  C   UNL     1     -10.584   9.360  68.637  1.00  0.00    -0.230 C  
HETATM    8  C   UNL     1     -10.898   8.044  69.276  1.00  0.00    -0.072 C  
HETATM    9  C   UNL     1     -10.284   9.689  66.784  1.00  0.00    -0.308 C  
HETATM   10  C   UNL     1     -10.695  16.185  65.672  1.00  0.00    -0.310 C  
HETATM   11  C   UNL     1     -11.149  16.163  67.073  1.00  0.00    -0.024 C  
HETATM   12  H   UNL     1      -8.187  10.026  70.366  1.00  0.00     0.000 HD 
HETATM   13  C   UNL     1      -9.732  11.280  66.540  1.00  0.00    -0.202 C  
HETATM   14  C   UNL     1     -11.286  15.061  64.835  1.00  0.00    -0.419 C  
HETATM   15  O   UNL     1      -8.780  11.436  65.770  1.00  0.00    -0.162 OA 
HETATM   16  C   UNL     1      -8.456  14.094  67.240  1.00  0.00    -0.228 C  
HETATM   17  C   UNL     1     -10.411  12.588  67.354  1.00  0.00    -0.231 C  
HETATM   18  C   UNL     1     -10.486  12.430  69.058  1.00  0.00    -0.033 C  
HETATM   19  C   UNL     1      -9.944  13.998  66.893  1.00  0.00    -0.263 C  
HETATM   20  C   UNL     1     -10.424  14.170  65.357  1.00  0.00    -0.372 C  
HETATM   21  C   UNL     1     -11.308  13.567  69.668  1.00  0.00    -0.219 C  
HETATM   22  C   UNL     1     -10.811  14.933  69.223  1.00  0.00    -0.272 C  
HETATM   23  C   UNL     1     -10.686  15.083  67.725  1.00  0.00    -0.278 C  
ENDROOT
BRANCH   4  24
HETATM   24  C   UNL     1      -8.262   8.934  68.296  1.00  0.00    -0.121 C  
HETATM   25  O   UNL     1      -8.412   7.727  68.557  1.00  0.00    -0.127 OA 
BRANCH  24  26
HETATM   26  C   UNL     1      -6.809   9.300  67.677  1.00  0.00    -0.076 C  
BRANCH  26  27
HETATM   27  O   UNL     1      -6.443   8.338  66.611  1.00  0.00    -0.054 OA 
BRANCH  27  28
HETATM   28  C   UNL     1      -6.528   8.493  65.255  1.00  0.00    -0.059 C  
HETATM   29  C   UNL     1      -6.184   9.869  64.707  1.00  0.00    -0.107 C  
HETATM   30  O   UNL     1      -6.835   7.605  64.494  1.00  0.00    -0.053 OA 
ENDBRANCH  27  28
ENDBRANCH  26  27
ENDBRANCH  24  26
ENDBRANCH   4  24
TORSDOF 4
ENDMDL
MODEL       90
REMARK 921   NORMALIZED FREE ENERGY PREDICTED BY IDOCK:   -4.64 KCAL/MOL
REMARK 922        TOTAL FREE ENERGY PREDICTED BY IDOCK:   -5.30 KCAL/MOL
REMARK 923 INTER-LIGAND FREE ENERGY PREDICTED BY IDOCK:   -5.25 KCAL/MOL
REMARK 924 INTRA-LIGAND FREE ENERGY PREDICTED BY IDOCK:   -0.05 KCAL/MOL
REMARK 927      BINDING AFFINITY PREDICTED BY RF-SCORE:    0.00 PKD
ROOT
HETATM    1  C   UNL     1      -9.676   5.475  68.800  1.00  0.00    -0.190 C  
HETATM    2  C   UNL     1     -10.339   5.637  67.560  1.00  0.00    -0.277 C  
HETATM    3  C   UNL     1      -9.425   6.756  67.969  1.00  0.00    -0.119 C  
HETATM    4  C   UNL     1      -8.029   6.416  69.477  1.00  0.00    -0.113 C  
HETATM    5  O   UNL     1     -12.914  11.437  72.308  1.00  0.00    -0.286 OA 
HETATM    6  O   UNL     1      -7.980   5.062  70.093  1.00  0.00    -0.075 OA 
HETATM    7  C   UNL     1      -8.018   6.196  68.124  1.00  0.00    -0.107 C  
HETATM    8  C   UNL     1      -7.278   5.220  67.265  1.00  0.00    -0.075 C  
HETATM    9  C   UNL     1      -7.813   8.091  68.139  1.00  0.00    -0.126 C  
HETATM   10  C   UNL     1     -12.965  10.773  71.281  1.00  0.00    -0.402 C  
HETATM   11  C   UNL     1     -13.435   9.378  71.220  1.00  0.00    -0.331 C  
HETATM   12  H   UNL     1      -7.343   4.907  70.781  1.00  0.00     0.000 HD 
HETATM   13  C   UNL     1      -8.683   8.777  69.431  1.00  0.00    -0.142 C  
HETATM   14  C   UNL     1     -12.321  11.243  69.986  1.00  0.00    -0.330 C  
HETATM   15  O   UNL     1      -8.112   9.641  70.100  1.00  0.00    -0.160 OA 
HETATM   16  C   UNL     1     -10.210   8.926  72.202  1.00  0.00    -0.292 C  
HETATM   17  C   UNL     1     -10.239   8.265  69.821  1.00  0.00    -0.204 C  
HETATM   18  C   UNL     1     -10.417   6.577  70.049  1.00  0.00    -0.257 C  
HETATM   19  C   UNL     1     -10.987   9.107  70.894  1.00  0.00    -0.349 C  
HETATM   20  C   UNL     1     -11.181  10.589  70.274  1.00  0.00    -0.391 C  
HETATM   21  C   UNL     1     -11.895   6.206  70.185  1.00  0.00     0.067 C  
HETATM   22  C   UNL     1     -12.593   7.023  71.259  1.00  0.00    -0.418 C  
HETATM   23  C   UNL     1     -12.408   8.516  71.113  1.00  0.00    -0.230 C  
ENDROOT
BRANCH   4  24
HETATM   24  C   UNL     1      -6.225   6.618  69.639  1.00  0.00    -0.041 C  
HETATM   25  O   UNL     1      -5.412   5.999  68.931  1.00  0.00    -0.007 OA 
BRANCH  24  26
HETATM   26  C   UNL     1      -5.539   7.503  70.811  1.00  0.00    -0.027 C  
BRANCH  26  27
HETATM   27  O   UNL     1      -5.852   6.933  72.142  1.00  0.00    -0.037 OA 
BRANCH  27  28
HETATM   28  C   UNL     1      -6.957   7.137  72.921  1.00  0.00    -0.069 C  
HETATM   29  C   UNL     1      -6.875   8.273  73.929  1.00  0.00    -0.161 C  
HETATM   30  O   UNL     1      -7.974   6.489  72.830  1.00  0.00    -0.102 OA 
ENDBRANCH  27  28
ENDBRANCH  26  27
ENDBRANCH  24  26
ENDBRANCH   4  24
TORSDOF 4
ENDMDL
MODEL       91
REMARK 921   NORMALIZED FREE ENERGY PREDICTED BY IDOCK:   -4.63 KCAL/MOL
REMARK 922        TOTAL FREE ENERGY PREDICTED BY IDOCK:   -5.29 KCAL/MOL
REMARK 923 INTER-LIGAND FREE ENERGY PREDICTED BY IDOCK:   -5.66 KCAL/MOL
REMARK 924 INTRA-LIGAND FREE ENERGY PREDICTED BY IDOCK:    0.36 KCAL/MOL
REMARK 927      BINDING AFFINITY PREDICTED BY RF-SCORE:    0.00 PKD
ROOT
HETATM    1  C   UNL     1      -8.863  11.044  64.468  1.00  0.00    -0.006 C  
HETATM    2  C   UNL     1      -9.825  10.798  63.459  1.00  0.00    -0.401 C  
HETATM    3  C   UNL     1     -10.329  10.757  64.874  1.00  0.00    -0.369 C  
HETATM    4  C   UNL     1      -9.161  11.593  66.383  1.00  0.00    -0.212 C  
HETATM    5  O   UNL     1      -9.272   4.164  67.759  1.00  0.00    -0.130 OA 
HETATM    6  O   UNL     1      -7.864  12.215  66.001  1.00  0.00    -0.109 OA 
HETATM    7  C   UNL     1     -10.082  12.116  65.513  1.00  0.00    -0.275 C  
HETATM    8  C   UNL     1     -10.268  13.488  64.944  1.00  0.00    -0.351 C  
HETATM    9  C   UNL     1     -11.256  11.202  66.705  1.00  0.00    -0.186 C  
HETATM   10  C   UNL     1      -9.658   4.796  66.785  1.00  0.00    -0.173 C  
HETATM   11  C   UNL     1      -8.784   5.236  65.684  1.00  0.00    -0.146 C  
HETATM   12  H   UNL     1      -7.332  12.596  66.690  1.00  0.00     0.000 HD 
HETATM   13  C   UNL     1     -10.535   9.769  67.272  1.00  0.00    -0.261 C  
HETATM   14  C   UNL     1     -11.051   5.404  66.722  1.00  0.00     0.187 C  
HETATM   15  O   UNL     1     -10.628   9.531  68.479  1.00  0.00    -0.214 OA 
HETATM   16  C   UNL     1      -8.237   7.701  67.962  1.00  0.00    -0.124 C  
HETATM   17  C   UNL     1      -9.682   8.741  66.248  1.00  0.00    -0.342 C  
HETATM   18  C   UNL     1      -8.449   9.488  65.324  1.00  0.00    -0.159 C  
HETATM   19  C   UNL     1      -9.246   7.377  66.856  1.00  0.00    -0.183 C  
HETATM   20  C   UNL     1     -10.602   6.571  67.218  1.00  0.00    -0.383 C  
HETATM   21  C   UNL     1      -7.892   8.514  64.284  1.00  0.00    -0.142 C  
HETATM   22  C   UNL     1      -7.447   7.203  64.910  1.00  0.00    -0.095 C  
HETATM   23  C   UNL     1      -8.499   6.547  65.775  1.00  0.00    -0.149 C  
ENDROOT
BRANCH   4  24
HETATM   24  C   UNL     1      -9.434  12.827  67.695  1.00  0.00    -0.190 C  
HETATM   25  O   UNL     1     -10.567  13.145  68.095  1.00  0.00    -0.231 OA 
BRANCH  24  26
HETATM   26  C   UNL     1      -8.236  13.712  68.336  1.00  0.00    -0.146 C  
BRANCH  26  27
HETATM   27  O   UNL     1      -7.670  14.632  67.323  1.00  0.00    -0.194 OA 
BRANCH  27  28
HETATM   28  C   UNL     1      -7.882  15.975  67.176  1.00  0.00    -0.209 C  
HETATM   29  C   UNL     1      -8.846  16.620  68.159  1.00  0.00    -0.206 C  
HETATM   30  O   UNL     1      -7.337  16.655  66.338  1.00  0.00    -0.259 OA 
ENDBRANCH  27  28
ENDBRANCH  26  27
ENDBRANCH  24  26
ENDBRANCH   4  24
TORSDOF 4
ENDMDL
MODEL       92
REMARK 921   NORMALIZED FREE ENERGY PREDICTED BY IDOCK:   -4.63 KCAL/MOL
REMARK 922        TOTAL FREE ENERGY PREDICTED BY IDOCK:   -5.29 KCAL/MOL
REMARK 923 INTER-LIGAND FREE ENERGY PREDICTED BY IDOCK:   -5.39 KCAL/MOL
REMARK 924 INTRA-LIGAND FREE ENERGY PREDICTED BY IDOCK:    0.10 KCAL/MOL
REMARK 927      BINDING AFFINITY PREDICTED BY RF-SCORE:    0.00 PKD
ROOT
HETATM    1  C   UNL     1      -6.714   9.036  69.500  1.00  0.00    -0.047 C  
HETATM    2  C   UNL     1      -6.315  10.114  70.326  1.00  0.00    -0.117 C  
HETATM    3  C   UNL     1      -7.701   9.584  70.558  1.00  0.00    -0.177 C  
HETATM    4  C   UNL     1      -8.206   7.715  69.790  1.00  0.00    -0.131 C  
HETATM    5  O   UNL     1     -12.415  12.699  65.976  1.00  0.00    -0.555 OA 
HETATM    6  O   UNL     1      -7.164   6.961  69.042  1.00  0.00    -0.085 OA 
HETATM    7  C   UNL     1      -7.597   8.117  70.950  1.00  0.00    -0.076 C  
HETATM    8  C   UNL     1      -6.630   7.440  71.870  1.00  0.00    -0.046 C  
HETATM    9  C   UNL     1      -9.392   8.620  71.344  1.00  0.00    -0.305 C  
HETATM   10  C   UNL     1     -11.481  12.875  66.747  1.00  0.00    -0.340 C  
HETATM   11  C   UNL     1     -10.061  12.797  66.359  1.00  0.00    -0.266 C  
HETATM   12  H   UNL     1      -7.395   6.108  68.691  1.00  0.00     0.000 HD 
HETATM   13  C   UNL     1     -10.190   9.147  69.937  1.00  0.00    -0.205 C  
HETATM   14  C   UNL     1     -11.685  12.961  68.252  1.00  0.00    -0.390 C  
HETATM   15  O   UNL     1     -11.333   8.724  69.744  1.00  0.00    -0.077 OA 
HETATM   16  C   UNL     1     -10.775   9.507  66.844  1.00  0.00    -0.184 C  
HETATM   17  C   UNL     1      -9.439  10.157  68.818  1.00  0.00    -0.171 C  
HETATM   18  C   UNL     1      -7.913   9.618  68.256  1.00  0.00    -0.096 C  
HETATM   19  C   UNL     1     -10.344  10.714  67.683  1.00  0.00    -0.246 C  
HETATM   20  C   UNL     1     -11.466  11.641  68.393  1.00  0.00    -0.360 C  
HETATM   21  C   UNL     1      -7.234  10.704  67.420  1.00  0.00    -0.092 C  
HETATM   22  C   UNL     1      -8.130  11.209  66.302  1.00  0.00    -0.142 C  
HETATM   23  C   UNL     1      -9.503  11.643  66.763  1.00  0.00    -0.197 C  
ENDROOT
BRANCH   4  24
HETATM   24  C   UNL     1      -8.905   6.180  70.479  1.00  0.00    -0.146 C  
HETATM   25  O   UNL     1      -8.607   5.752  71.608  1.00  0.00    -0.130 OA 
BRANCH  24  26
HETATM   26  C   UNL     1      -9.850   5.179  69.622  1.00  0.00    -0.216 C  
BRANCH  26  27
HETATM   27  O   UNL     1      -9.224   4.866  68.316  1.00  0.00    -0.113 OA 
BRANCH  27  28
HETATM   28  C   UNL     1      -9.684   5.150  67.059  1.00  0.00    -0.159 C  
HETATM   29  C   UNL     1      -9.042   6.334  66.355  1.00  0.00    -0.164 C  
HETATM   30  O   UNL     1     -10.536   4.505  66.493  1.00  0.00    -0.155 OA 
ENDBRANCH  27  28
ENDBRANCH  26  27
ENDBRANCH  24  26
ENDBRANCH   4  24
TORSDOF 4
ENDMDL
MODEL       93
REMARK 921   NORMALIZED FREE ENERGY PREDICTED BY IDOCK:   -4.61 KCAL/MOL
REMARK 922        TOTAL FREE ENERGY PREDICTED BY IDOCK:   -5.27 KCAL/MOL
REMARK 923 INTER-LIGAND FREE ENERGY PREDICTED BY IDOCK:   -6.09 KCAL/MOL
REMARK 924 INTRA-LIGAND FREE ENERGY PREDICTED BY IDOCK:    0.82 KCAL/MOL
REMARK 927      BINDING AFFINITY PREDICTED BY RF-SCORE:    0.00 PKD
ROOT
HETATM    1  C   UNL     1      -9.515   6.886  67.372  1.00  0.00    -0.151 C  
HETATM    2  C   UNL     1     -10.812   6.485  66.972  1.00  0.00    -0.465 C  
HETATM    3  C   UNL     1     -10.746   7.457  68.115  1.00  0.00    -0.169 C  
HETATM    4  C   UNL     1      -8.973   8.499  68.451  1.00  0.00    -0.139 C  
HETATM    5  O   UNL     1      -9.816   3.924  74.406  1.00  0.00    -0.114 OA 
HETATM    6  O   UNL     1      -7.830   8.248  67.532  1.00  0.00    -0.103 OA 
HETATM    7  C   UNL     1     -10.050   8.722  67.633  1.00  0.00    -0.273 C  
HETATM    8  C   UNL     1     -10.202   9.463  66.342  1.00  0.00    -0.300 C  
HETATM    9  C   UNL     1     -10.827   9.180  69.313  1.00  0.00    -0.150 C  
HETATM   10  C   UNL     1     -10.427   3.968  73.346  1.00  0.00    -0.176 C  
HETATM   11  C   UNL     1      -9.970   3.329  72.100  1.00  0.00    -0.231 C  
HETATM   12  H   UNL     1      -7.021   8.723  67.685  1.00  0.00     0.000 HD 
HETATM   13  C   UNL     1     -10.200   8.196  70.550  1.00  0.00    -0.198 C  
HETATM   14  C   UNL     1     -11.617   4.894  73.141  1.00  0.00    -0.300 C  
HETATM   15  O   UNL     1      -9.871   8.751  71.601  1.00  0.00    -0.252 OA 
HETATM   16  C   UNL     1      -8.197   6.230  72.020  1.00  0.00    -0.110 C  
HETATM   17  C   UNL     1      -9.982   6.539  70.340  1.00  0.00    -0.202 C  
HETATM   18  C   UNL     1      -9.079   6.092  68.954  1.00  0.00    -0.121 C  
HETATM   19  C   UNL     1      -9.587   5.734  71.611  1.00  0.00    -0.178 C  
HETATM   20  C   UNL     1     -10.824   5.862  72.648  1.00  0.00    -0.290 C  
HETATM   21  C   UNL     1      -9.128   4.576  68.748  1.00  0.00    -0.166 C  
HETATM   22  C   UNL     1      -8.710   3.816  69.996  1.00  0.00    -0.119 C  
HETATM   23  C   UNL     1      -9.454   4.229  71.245  1.00  0.00    -0.229 C  
ENDROOT
BRANCH   4  24
HETATM   24  C   UNL     1      -8.519  10.254  68.632  1.00  0.00    -0.127 C  
HETATM   25  O   UNL     1      -7.808  10.673  69.562  1.00  0.00    -0.144 OA 
BRANCH  24  26
HETATM   26  C   UNL     1      -9.124  11.423  67.686  1.00  0.00    -0.155 C  
BRANCH  26  27
HETATM   27  O   UNL     1      -9.828  12.439  68.503  1.00  0.00    -0.212 OA 
BRANCH  27  28
HETATM   28  C   UNL     1     -11.112  12.893  68.381  1.00  0.00    -0.262 C  
HETATM   29  C   UNL     1     -11.323  14.387  68.569  1.00  0.00    -0.307 C  
HETATM   30  O   UNL     1     -12.055  12.183  68.117  1.00  0.00    -0.447 OA 
ENDBRANCH  27  28
ENDBRANCH  26  27
ENDBRANCH  24  26
ENDBRANCH   4  24
TORSDOF 4
ENDMDL
MODEL       94
REMARK 921   NORMALIZED FREE ENERGY PREDICTED BY IDOCK:   -4.57 KCAL/MOL
REMARK 922        TOTAL FREE ENERGY PREDICTED BY IDOCK:   -5.22 KCAL/MOL
REMARK 923 INTER-LIGAND FREE ENERGY PREDICTED BY IDOCK:   -5.45 KCAL/MOL
REMARK 924 INTRA-LIGAND FREE ENERGY PREDICTED BY IDOCK:    0.23 KCAL/MOL
REMARK 927      BINDING AFFINITY PREDICTED BY RF-SCORE:    0.00 PKD
ROOT
HETATM    1  C   UNL     1      -6.799   9.181  68.728  1.00  0.00    -0.061 C  
HETATM    2  C   UNL     1      -6.254  10.352  69.307  1.00  0.00    -0.046 C  
HETATM    3  C   UNL     1      -7.648   9.994  69.733  1.00  0.00    -0.167 C  
HETATM    4  C   UNL     1      -8.350   8.068  69.367  1.00  0.00    -0.131 C  
HETATM    5  O   UNL     1     -12.509  12.624  65.004  1.00  0.00    -0.494 OA 
HETATM    6  O   UNL     1      -7.434   7.104  68.699  1.00  0.00    -0.097 OA 
HETATM    7  C   UNL     1      -7.615   8.618  70.384  1.00  0.00    -0.075 C  
HETATM    8  C   UNL     1      -6.623   8.038  71.342  1.00  0.00    -0.044 C  
HETATM    9  C   UNL     1      -9.329   9.337  70.806  1.00  0.00    -0.322 C  
HETATM   10  C   UNL     1     -11.501  12.856  65.658  1.00  0.00    -0.332 C  
HETATM   11  C   UNL     1     -10.130  12.587  65.190  1.00  0.00    -0.266 C  
HETATM   12  H   UNL     1      -7.754   6.225  68.532  1.00  0.00     0.000 HD 
HETATM   13  C   UNL     1     -10.207   9.667  69.386  1.00  0.00    -0.209 C  
HETATM   14  C   UNL     1     -11.567  13.229  67.131  1.00  0.00    -0.402 C  
HETATM   15  O   UNL     1     -11.389   9.317  69.359  1.00  0.00    -0.032 OA 
HETATM   16  C   UNL     1     -11.032   9.513  66.332  1.00  0.00     0.420 C  
HETATM   17  C   UNL     1      -9.486  10.390  68.048  1.00  0.00    -0.152 C  
HETATM   18  C   UNL     1      -8.057   9.629  67.487  1.00  0.00    -0.114 C  
HETATM   19  C   UNL     1     -10.445  10.809  66.897  1.00  0.00    -0.304 C  
HETATM   20  C   UNL     1     -11.431  11.942  67.500  1.00  0.00    -0.396 C  
HETATM   21  C   UNL     1      -7.377  10.485  66.416  1.00  0.00    -0.129 C  
HETATM   22  C   UNL     1      -8.330  10.855  65.291  1.00  0.00    -0.025 C  
HETATM   23  C   UNL     1      -9.623  11.481  65.761  1.00  0.00    -0.259 C  
ENDROOT
BRANCH   4  24
HETATM   24  C   UNL     1      -9.095   6.748  70.379  1.00  0.00    -0.153 C  
HETATM   25  O   UNL     1      -8.469   6.153  71.274  1.00  0.00    -0.123 OA 
BRANCH  24  26
HETATM   26  C   UNL     1     -10.573   6.146  70.095  1.00  0.00    -0.259 C  
BRANCH  26  27
HETATM   27  O   UNL     1     -11.366   6.106  71.345  1.00  0.00    -0.288 OA 
BRANCH  27  28
HETATM   28  C   UNL     1     -12.213   7.054  71.849  1.00  0.00    -0.327 C  
HETATM   29  C   UNL     1     -13.665   6.970  71.404  1.00  0.00    -0.307 C  
HETATM   30  O   UNL     1     -11.873   7.915  72.627  1.00  0.00    -0.353 OA 
ENDBRANCH  27  28
ENDBRANCH  26  27
ENDBRANCH  24  26
ENDBRANCH   4  24
TORSDOF 4
ENDMDL
MODEL       95
REMARK 921   NORMALIZED FREE ENERGY PREDICTED BY IDOCK:   -4.51 KCAL/MOL
REMARK 922        TOTAL FREE ENERGY PREDICTED BY IDOCK:   -5.14 KCAL/MOL
REMARK 923 INTER-LIGAND FREE ENERGY PREDICTED BY IDOCK:   -5.27 KCAL/MOL
REMARK 924 INTRA-LIGAND FREE ENERGY PREDICTED BY IDOCK:    0.13 KCAL/MOL
REMARK 927      BINDING AFFINITY PREDICTED BY RF-SCORE:    0.00 PKD
ROOT
HETATM    1  C   UNL     1     -11.356   8.861  70.081  1.00  0.00    -0.119 C  
HETATM    2  C   UNL     1     -11.484   9.850  71.086  1.00  0.00    -0.459 C  
HETATM    3  C   UNL     1     -10.080   9.475  70.705  1.00  0.00    -0.353 C  
HETATM    4  C   UNL     1      -9.762   8.443  68.924  1.00  0.00    -0.167 C  
HETATM    5  O   UNL     1      -7.904   3.626  74.441  1.00  0.00    -0.071 OA 
HETATM    6  O   UNL     1     -10.945   8.120  68.081  1.00  0.00    -0.450 OA 
HETATM    7  C   UNL     1      -9.887   9.774  69.225  1.00  0.00    -0.208 C  
HETATM    8  C   UNL     1     -10.337  10.954  68.422  1.00  0.00    -0.196 C  
HETATM    9  C   UNL     1      -8.137   9.457  69.911  1.00  0.00    -0.142 C  
HETATM   10  C   UNL     1      -8.461   4.714  74.493  1.00  0.00    -0.103 C  
HETATM   11  C   UNL     1      -9.903   4.917  74.270  1.00  0.00    -0.191 C  
HETATM   12  H   UNL     1     -10.799   7.649  67.269  1.00  0.00     0.000 HD 
HETATM   13  C   UNL     1      -8.023   7.889  70.559  1.00  0.00    -0.097 C  
HETATM   14  C   UNL     1      -7.678   6.016  74.559  1.00  0.00    -0.096 C  
HETATM   15  O   UNL     1      -7.021   7.230  70.270  1.00  0.00    -0.058 OA 
HETATM   16  C   UNL     1      -8.764   4.851  71.067  1.00  0.00    -0.143 C  
HETATM   17  C   UNL     1      -9.247   7.233  71.512  1.00  0.00    -0.150 C  
HETATM   18  C   UNL     1     -10.815   7.286  70.824  1.00  0.00    -0.260 C  
HETATM   19  C   UNL     1      -8.927   5.873  72.195  1.00  0.00    -0.143 C  
HETATM   20  C   UNL     1      -7.703   6.141  73.220  1.00  0.00    -0.100 C  
HETATM   21  C   UNL     1     -11.867   6.866  71.853  1.00  0.00    -0.351 C  
HETATM   22  C   UNL     1     -11.544   5.521  72.483  1.00  0.00    -0.272 C  
HETATM   23  C   UNL     1     -10.147   5.429  73.052  1.00  0.00    -0.201 C  
ENDROOT
BRANCH   4  24
HETATM   24  C   UNL     1      -8.710   8.690  67.456  1.00  0.00    -0.135 C  
HETATM   25  O   UNL     1      -8.327   9.813  67.084  1.00  0.00    -0.120 OA 
BRANCH  24  26
HETATM   26  C   UNL     1      -8.318   7.489  66.440  1.00  0.00    -0.126 C  
BRANCH  26  27
HETATM   27  O   UNL     1      -9.417   6.500  66.357  1.00  0.00    -0.164 OA 
BRANCH  27  28
HETATM   28  C   UNL     1      -9.512   5.275  66.958  1.00  0.00    -0.134 C  
HETATM   29  C   UNL     1      -8.656   4.164  66.370  1.00  0.00    -0.113 C  
HETATM   30  O   UNL     1     -10.208   5.050  67.921  1.00  0.00    -0.148 OA 
ENDBRANCH  27  28
ENDBRANCH  26  27
ENDBRANCH  24  26
ENDBRANCH   4  24
TORSDOF 4
ENDMDL
MODEL       96
REMARK 921   NORMALIZED FREE ENERGY PREDICTED BY IDOCK:   -4.47 KCAL/MOL
REMARK 922        TOTAL FREE ENERGY PREDICTED BY IDOCK:   -5.09 KCAL/MOL
REMARK 923 INTER-LIGAND FREE ENERGY PREDICTED BY IDOCK:   -5.76 KCAL/MOL
REMARK 924 INTRA-LIGAND FREE ENERGY PREDICTED BY IDOCK:    0.67 KCAL/MOL
REMARK 927      BINDING AFFINITY PREDICTED BY RF-SCORE:    0.00 PKD
ROOT
HETATM    1  C   UNL     1     -11.348   8.920  70.005  1.00  0.00    -0.050 C  
HETATM    2  C   UNL     1     -11.260   9.117  71.404  1.00  0.00    -0.419 C  
HETATM    3  C   UNL     1     -10.041   9.488  70.609  1.00  0.00    -0.353 C  
HETATM    4  C   UNL     1     -10.220   9.732  68.548  1.00  0.00    -0.186 C  
HETATM    5  O   UNL     1      -5.843   3.648  69.514  1.00  0.00    -0.020 OA 
HETATM    6  O   UNL     1     -11.562   9.539  67.934  1.00  0.00    -0.259 OA 
HETATM    7  C   UNL     1     -10.428  10.571  69.611  1.00  0.00    -0.257 C  
HETATM    8  C   UNL     1     -11.302  11.771  69.796  1.00  0.00    -0.245 C  
HETATM    9  C   UNL     1      -8.522  10.534  69.605  1.00  0.00     0.013 C  
HETATM   10  C   UNL     1      -6.502   4.288  70.324  1.00  0.00    -0.031 C  
HETATM   11  C   UNL     1      -7.943   4.092  70.558  1.00  0.00    -0.055 C  
HETATM   12  H   UNL     1     -11.643   9.650  66.994  1.00  0.00     0.000 HD 
HETATM   13  C   UNL     1      -7.955   9.001  69.131  1.00  0.00    -0.101 C  
HETATM   14  C   UNL     1      -5.949   5.527  71.011  1.00  0.00    -0.028 C  
HETATM   15  O   UNL     1      -7.033   8.969  68.313  1.00  0.00    -0.074 OA 
HETATM   16  C   UNL     1      -8.009   6.115  67.826  1.00  0.00    -0.106 C  
HETATM   17  C   UNL     1      -8.653   7.581  69.707  1.00  0.00    -0.140 C  
HETATM   18  C   UNL     1     -10.352   7.473  69.517  1.00  0.00    -0.216 C  
HETATM   19  C   UNL     1      -7.914   6.261  69.347  1.00  0.00    -0.109 C  
HETATM   20  C   UNL     1      -6.462   6.328  70.059  1.00  0.00    -0.043 C  
HETATM   21  C   UNL     1     -10.899   6.253  70.261  1.00  0.00    -0.366 C  
HETATM   22  C   UNL     1     -10.179   4.974  69.869  1.00  0.00    -0.340 C  
HETATM   23  C   UNL     1      -8.674   5.059  69.976  1.00  0.00    -0.119 C  
ENDROOT
BRANCH   4  24
HETATM   24  C   UNL     1      -9.802  11.049  67.360  1.00  0.00    -0.173 C  
HETATM   25  O   UNL     1      -8.746  11.703  67.425  1.00  0.00    -0.146 OA 
BRANCH  24  26
HETATM   26  C   UNL     1     -10.833  11.572  66.224  1.00  0.00    -0.282 C  
BRANCH  26  27
HETATM   27  O   UNL     1     -10.395  11.127  64.881  1.00  0.00    -0.279 OA 
BRANCH  27  28
HETATM   28  C   UNL     1     -10.427  11.816  63.700  1.00  0.00    -0.439 C  
HETATM   29  C   UNL     1     -11.680  12.632  63.426  1.00  0.00    -0.571 C  
HETATM   30  O   UNL     1      -9.520  11.822  62.899  1.00  0.00    -0.364 OA 
ENDBRANCH  27  28
ENDBRANCH  26  27
ENDBRANCH  24  26
ENDBRANCH   4  24
TORSDOF 4
ENDMDL
MODEL       97
REMARK 921   NORMALIZED FREE ENERGY PREDICTED BY IDOCK:   -4.44 KCAL/MOL
REMARK 922        TOTAL FREE ENERGY PREDICTED BY IDOCK:   -5.06 KCAL/MOL
REMARK 923 INTER-LIGAND FREE ENERGY PREDICTED BY IDOCK:   -6.47 KCAL/MOL
REMARK 924 INTRA-LIGAND FREE ENERGY PREDICTED BY IDOCK:    1.42 KCAL/MOL
REMARK 927      BINDING AFFINITY PREDICTED BY RF-SCORE:    0.00 PKD
ROOT
HETATM    1  C   UNL     1      -7.268  14.264  68.922  1.00  0.00    -0.125 C  
HETATM    2  C   UNL     1      -6.270  14.328  67.920  1.00  0.00    -0.167 C  
HETATM    3  C   UNL     1      -7.690  14.434  67.444  1.00  0.00    -0.207 C  
HETATM    4  C   UNL     1      -9.187  14.867  68.826  1.00  0.00    -0.193 C  
HETATM    5  O   UNL     1     -10.552   7.816  66.477  1.00  0.00    -0.179 OA 
HETATM    6  O   UNL     1      -8.791  15.068  70.246  1.00  0.00    -0.203 OA 
HETATM    7  C   UNL     1      -8.329  15.651  68.099  1.00  0.00    -0.146 C  
HETATM    8  C   UNL     1      -7.765  17.017  68.332  1.00  0.00    -0.230 C  
HETATM    9  C   UNL     1      -9.533  15.130  66.716  1.00  0.00    -0.260 C  
HETATM   10  C   UNL     1      -9.583   8.541  66.291  1.00  0.00    -0.236 C  
HETATM   11  C   UNL     1      -8.473   8.701  67.245  1.00  0.00    -0.115 C  
HETATM   12  H   UNL     1      -9.474  15.265  70.877  1.00  0.00     0.000 HD 
HETATM   13  C   UNL     1     -10.090  13.543  66.972  1.00  0.00    -0.244 C  
HETATM   14  C   UNL     1      -9.538   9.545  65.148  1.00  0.00    -0.270 C  
HETATM   15  O   UNL     1     -11.297  13.338  66.825  1.00  0.00    -0.304 OA 
HETATM   16  C   UNL     1     -10.748  10.871  68.541  1.00  0.00    -0.239 C  
HETATM   17  C   UNL     1      -9.054  12.309  67.461  1.00  0.00    -0.182 C  
HETATM   18  C   UNL     1      -8.116  12.652  68.853  1.00  0.00     0.212 C  
HETATM   19  C   UNL     1      -9.655  10.875  67.469  1.00  0.00    -0.171 C  
HETATM   20  C   UNL     1     -10.031  10.517  65.936  1.00  0.00    -0.313 C  
HETATM   21  C   UNL     1      -7.068  11.559  69.077  1.00  0.00    -0.115 C  
HETATM   22  C   UNL     1      -7.686  10.172  69.108  1.00  0.00    -0.112 C  
HETATM   23  C   UNL     1      -8.562   9.862  67.916  1.00  0.00    -0.125 C  
ENDROOT
BRANCH   4  24
HETATM   24  C   UNL     1     -10.504  16.120  68.956  1.00  0.00    -0.261 C  
HETATM   25  O   UNL     1     -11.701  15.823  69.117  1.00  0.00    -0.368 OA 
BRANCH  24  26
HETATM   26  C   UNL     1     -10.243  17.702  68.724  1.00  0.00    -0.373 C  
BRANCH  26  27
HETATM   27  O   UNL     1     -10.838  18.144  67.441  1.00  0.00    -0.374 OA 
BRANCH  27  28
HETATM   28  C   UNL     1     -10.266  18.885  66.444  1.00  0.00    -0.426 C  
HETATM   29  C   UNL     1      -8.760  19.079  66.525  1.00  0.00    -0.327 C  
HETATM   30  O   UNL     1     -10.883  19.358  65.518  1.00  0.00    -0.421 OA 
ENDBRANCH  27  28
ENDBRANCH  26  27
ENDBRANCH  24  26
ENDBRANCH   4  24
TORSDOF 4
ENDMDL
MODEL       98
REMARK 921   NORMALIZED FREE ENERGY PREDICTED BY IDOCK:   -4.44 KCAL/MOL
REMARK 922        TOTAL FREE ENERGY PREDICTED BY IDOCK:   -5.05 KCAL/MOL
REMARK 923 INTER-LIGAND FREE ENERGY PREDICTED BY IDOCK:   -5.95 KCAL/MOL
REMARK 924 INTRA-LIGAND FREE ENERGY PREDICTED BY IDOCK:    0.90 KCAL/MOL
REMARK 927      BINDING AFFINITY PREDICTED BY RF-SCORE:    0.00 PKD
ROOT
HETATM    1  C   UNL     1      -9.402   9.472  67.825  1.00  0.00    -0.143 C  
HETATM    2  C   UNL     1     -10.041   8.500  67.018  1.00  0.00    -0.347 C  
HETATM    3  C   UNL     1     -10.878   9.104  68.109  1.00  0.00    -0.118 C  
HETATM    4  C   UNL     1     -10.238  10.871  69.008  1.00  0.00    -0.203 C  
HETATM    5  O   UNL     1      -9.817   5.574  74.380  1.00  0.00    -0.171 OA 
HETATM    6  O   UNL     1      -8.970  11.482  68.526  1.00  0.00    -0.165 OA 
HETATM    7  C   UNL     1     -10.964  10.606  67.875  1.00  0.00    -0.351 C  
HETATM    8  C   UNL     1     -11.160  11.365  66.601  1.00  0.00    -0.333 C  
HETATM    9  C   UNL     1     -12.285  10.222  69.194  1.00  0.00     0.313 C  
HETATM   10  C   UNL     1     -10.015   5.469  73.177  1.00  0.00    -0.173 C  
HETATM   11  C   UNL     1      -8.949   5.446  72.160  1.00  0.00    -0.140 C  
HETATM   12  H   UNL     1      -8.678  12.288  68.936  1.00  0.00     0.000 HD 
HETATM   13  C   UNL     1     -11.568   9.541  70.579  1.00  0.00    -0.254 C  
HETATM   14  C   UNL     1     -11.408   5.592  72.578  1.00  0.00    -0.323 C  
HETATM   15  O   UNL     1     -11.935   9.974  71.675  1.00  0.00    -0.376 OA 
HETATM   16  C   UNL     1      -9.292   8.793  72.652  1.00  0.00     0.019 C  
HETATM   17  C   UNL     1     -10.368   8.366  70.469  1.00  0.00    -0.220 C  
HETATM   18  C   UNL     1      -9.038   8.772  69.468  1.00  0.00    -0.146 C  
HETATM   19  C   UNL     1      -9.943   7.695  71.805  1.00  0.00    -0.208 C  
HETATM   20  C   UNL     1     -11.241   6.910  72.369  1.00  0.00    -0.303 C  
HETATM   21  C   UNL     1      -8.124   7.561  69.272  1.00  0.00    -0.126 C  
HETATM   22  C   UNL     1      -7.701   6.943  70.594  1.00  0.00    -0.096 C  
HETATM   23  C   UNL     1      -8.853   6.623  71.519  1.00  0.00    -0.138 C  
ENDROOT
BRANCH   4  24
HETATM   24  C   UNL     1     -10.979  12.507  69.314  1.00  0.00    -0.080 C  
HETATM   25  O   UNL     1     -10.719  13.504  68.618  1.00  0.00    -0.245 OA 
BRANCH  24  26
HETATM   26  C   UNL     1     -11.912  12.826  70.601  1.00  0.00    -0.109 C  
BRANCH  26  27
HETATM   27  O   UNL     1     -11.836  14.263  70.954  1.00  0.00    -0.311 OA 
BRANCH  27  28
HETATM   28  C   UNL     1     -12.811  15.218  70.860  1.00  0.00    -0.449 C  
HETATM   29  C   UNL     1     -13.976  15.092  71.828  1.00  0.00    -0.627 C  
HETATM   30  O   UNL     1     -12.776  16.141  70.080  1.00  0.00    -0.131 OA 
ENDBRANCH  27  28
ENDBRANCH  26  27
ENDBRANCH  24  26
ENDBRANCH   4  24
TORSDOF 4
ENDMDL
MODEL       99
REMARK 921   NORMALIZED FREE ENERGY PREDICTED BY IDOCK:   -4.43 KCAL/MOL
REMARK 922        TOTAL FREE ENERGY PREDICTED BY IDOCK:   -5.04 KCAL/MOL
REMARK 923 INTER-LIGAND FREE ENERGY PREDICTED BY IDOCK:   -5.76 KCAL/MOL
REMARK 924 INTRA-LIGAND FREE ENERGY PREDICTED BY IDOCK:    0.72 KCAL/MOL
REMARK 927      BINDING AFFINITY PREDICTED BY RF-SCORE:    0.00 PKD
ROOT
HETATM    1  C   UNL     1      -6.935   9.883  66.974  1.00  0.00    -0.088 C  
HETATM    2  C   UNL     1      -6.456   8.612  66.573  1.00  0.00    -0.059 C  
HETATM    3  C   UNL     1      -7.937   8.827  66.449  1.00  0.00    -0.103 C  
HETATM    4  C   UNL     1      -8.682  10.771  66.511  1.00  0.00    -0.151 C  
HETATM    5  O   UNL     1     -11.252   7.399  72.765  1.00  0.00    -0.311 OA 
HETATM    6  O   UNL     1      -7.711  11.888  66.666  1.00  0.00    -0.330 OA 
HETATM    7  C   UNL     1      -8.178   9.993  65.502  1.00  0.00    -0.146 C  
HETATM    8  C   UNL     1      -7.503  10.328  64.209  1.00  0.00    -0.072 C  
HETATM    9  C   UNL     1      -9.879   9.162  65.723  1.00  0.00    -0.248 C  
HETATM   10  C   UNL     1     -10.421   7.026  71.948  1.00  0.00    -0.200 C  
HETATM   11  C   UNL     1      -9.004   7.428  71.965  1.00  0.00    -0.143 C  
HETATM   12  H   UNL     1      -8.051  12.775  66.695  1.00  0.00     0.000 HD 
HETATM   13  C   UNL     1     -10.349   9.188  67.358  1.00  0.00    -0.264 C  
HETATM   14  C   UNL     1     -10.817   6.291  70.676  1.00  0.00    -0.339 C  
HETATM   15  O   UNL     1     -11.513   9.513  67.605  1.00  0.00     0.225 OA 
HETATM   16  C   UNL     1     -10.406  10.097  70.392  1.00  0.00    -0.178 C  
HETATM   17  C   UNL     1      -9.264   8.839  68.597  1.00  0.00    -0.141 C  
HETATM   18  C   UNL     1      -7.808   9.742  68.569  1.00  0.00    -0.081 C  
HETATM   19  C   UNL     1      -9.873   8.709  70.023  1.00  0.00    -0.185 C  
HETATM   20  C   UNL     1     -10.882   7.444  69.987  1.00  0.00    -0.266 C  
HETATM   21  C   UNL     1      -6.818   9.197  69.601  1.00  0.00    -0.054 C  
HETATM   22  C   UNL     1      -7.431   9.108  70.989  1.00  0.00    -0.120 C  
HETATM   23  C   UNL     1      -8.744   8.361  71.034  1.00  0.00    -0.185 C  
ENDROOT
BRANCH   4  24
HETATM   24  C   UNL     1      -9.758  11.779  65.439  1.00  0.00    -0.217 C  
HETATM   25  O   UNL     1      -9.789  11.648  64.203  1.00  0.00    -0.254 OA 
BRANCH  24  26
HETATM   26  C   UNL     1     -10.643  13.019  65.994  1.00  0.00    -0.279 C  
BRANCH  26  27
HETATM   27  O   UNL     1     -10.548  14.176  65.074  1.00  0.00    -0.368 OA 
BRANCH  27  28
HETATM   28  C   UNL     1     -11.515  15.083  64.740  1.00  0.00    -0.403 C  
HETATM   29  C   UNL     1     -11.174  16.549  64.960  1.00  0.00    -0.091 C  
HETATM   30  O   UNL     1     -12.589  14.781  64.273  1.00  0.00    -0.706 OA 
ENDBRANCH  27  28
ENDBRANCH  26  27
ENDBRANCH  24  26
ENDBRANCH   4  24
TORSDOF 4
ENDMDL
MODEL      100
REMARK 921   NORMALIZED FREE ENERGY PREDICTED BY IDOCK:   -4.41 KCAL/MOL
REMARK 922        TOTAL FREE ENERGY PREDICTED BY IDOCK:   -5.02 KCAL/MOL
REMARK 923 INTER-LIGAND FREE ENERGY PREDICTED BY IDOCK:   -5.81 KCAL/MOL
REMARK 924 INTRA-LIGAND FREE ENERGY PREDICTED BY IDOCK:    0.78 KCAL/MOL
REMARK 927      BINDING AFFINITY PREDICTED BY RF-SCORE:    0.00 PKD
ROOT
HETATM    1  C   UNL     1     -11.209  10.398  68.552  1.00  0.00    -0.308 C  
HETATM    2  C   UNL     1     -10.829  10.147  69.892  1.00  0.00    -0.347 C  
HETATM    3  C   UNL     1      -9.857  10.944  69.071  1.00  0.00    -0.196 C  
HETATM    4  C   UNL     1     -10.512  11.805  67.291  1.00  0.00    -0.214 C  
HETATM    5  O   UNL     1      -5.496   6.522  65.285  1.00  0.00    -0.020 OA 
HETATM    6  O   UNL     1     -11.933  11.606  66.898  1.00  0.00    -0.567 OA 
HETATM    7  C   UNL     1     -10.553  12.213  68.599  1.00  0.00    -0.248 C  
HETATM    8  C   UNL     1     -11.470  13.133  69.342  1.00  0.00    -0.321 C  
HETATM    9  C   UNL     1      -8.701  12.487  68.240  1.00  0.00    -0.171 C  
HETATM   10  C   UNL     1      -6.013   6.753  66.370  1.00  0.00    -0.029 C  
HETATM   11  C   UNL     1      -7.342   6.262  66.775  1.00  0.00    -0.079 C  
HETATM   12  H   UNL     1     -12.231  11.999  66.086  1.00  0.00     0.000 HD 
HETATM   13  C   UNL     1      -8.117  11.300  67.170  1.00  0.00    -0.150 C  
HETATM   14  C   UNL     1      -5.436   7.778  67.335  1.00  0.00    -0.036 C  
HETATM   15  O   UNL     1      -7.401  11.682  66.240  1.00  0.00     0.035 OA 
HETATM   16  C   UNL     1      -8.197   9.018  64.974  1.00  0.00    -0.154 C  
HETATM   17  C   UNL     1      -8.537   9.678  67.331  1.00  0.00    -0.125 C  
HETATM   18  C   UNL     1     -10.219   9.365  67.422  1.00  0.00    -0.298 C  
HETATM   19  C   UNL     1      -7.781   8.680  66.409  1.00  0.00    -0.095 C  
HETATM   20  C   UNL     1      -6.219   8.748  66.829  1.00  0.00    -0.059 C  
HETATM   21  C   UNL     1     -10.474   7.899  67.780  1.00  0.00    -0.278 C  
HETATM   22  C   UNL     1      -9.746   6.948  66.846  1.00  0.00    -0.222 C  
HETATM   23  C   UNL     1      -8.269   7.234  66.706  1.00  0.00    -0.121 C  
ENDROOT
BRANCH   4  24
HETATM   24  C   UNL     1     -10.490  13.484  66.581  1.00  0.00    -0.274 C  
HETATM   25  O   UNL     1      -9.953  13.746  65.491  1.00  0.00    -0.292 OA 
BRANCH  24  26
HETATM   26  C   UNL     1     -11.033  14.786  67.380  1.00  0.00    -0.313 C  
BRANCH  26  27
HETATM   27  O   UNL     1     -10.065  15.902  67.272  1.00  0.00    -0.250 OA 
BRANCH  27  28
HETATM   28  C   UNL     1      -9.254  16.424  68.241  1.00  0.00    -0.207 C  
HETATM   29  C   UNL     1      -8.219  17.440  67.783  1.00  0.00    -0.216 C  
HETATM   30  O   UNL     1      -9.336  16.140  69.414  1.00  0.00    -0.252 OA 
ENDBRANCH  27  28
ENDBRANCH  26  27
ENDBRANCH  24  26
ENDBRANCH   4  24
TORSDOF 4
ENDMDL
MODEL      101
REMARK 921   NORMALIZED FREE ENERGY PREDICTED BY IDOCK:   -4.39 KCAL/MOL
REMARK 922        TOTAL FREE ENERGY PREDICTED BY IDOCK:   -5.00 KCAL/MOL
REMARK 923 INTER-LIGAND FREE ENERGY PREDICTED BY IDOCK:   -5.52 KCAL/MOL
REMARK 924 INTRA-LIGAND FREE ENERGY PREDICTED BY IDOCK:    0.52 KCAL/MOL
REMARK 927      BINDING AFFINITY PREDICTED BY RF-SCORE:    0.00 PKD
ROOT
HETATM    1  C   UNL     1      -7.148   7.361  67.578  1.00  0.00    -0.088 C  
HETATM    2  C   UNL     1      -7.053   6.014  67.154  1.00  0.00    -0.070 C  
HETATM    3  C   UNL     1      -8.440   6.526  67.420  1.00  0.00    -0.119 C  
HETATM    4  C   UNL     1      -8.749   8.582  67.542  1.00  0.00    -0.135 C  
HETATM    5  O   UNL     1     -10.072   5.898  74.481  1.00  0.00    -0.257 OA 
HETATM    6  O   UNL     1      -7.576   9.478  67.350  1.00  0.00    -0.094 OA 
HETATM    7  C   UNL     1      -8.706   7.703  66.492  1.00  0.00    -0.161 C  
HETATM    8  C   UNL     1      -8.367   7.873  65.044  1.00  0.00    -0.111 C  
HETATM    9  C   UNL     1     -10.405   7.241  67.223  1.00  0.00    -0.349 C  
HETATM   10  C   UNL     1      -9.590   5.351  73.498  1.00  0.00    -0.138 C  
HETATM   11  C   UNL     1      -8.175   5.455  73.103  1.00  0.00    -0.115 C  
HETATM   12  H   UNL     1      -7.717  10.416  67.406  1.00  0.00     0.000 HD 
HETATM   13  C   UNL     1     -10.386   7.386  68.918  1.00  0.00    -0.206 C  
HETATM   14  C   UNL     1     -10.459   4.695  72.436  1.00  0.00    -0.250 C  
HETATM   15  O   UNL     1     -11.350   7.946  69.447  1.00  0.00     0.098 OA 
HETATM   16  C   UNL     1      -9.418   8.331  71.782  1.00  0.00    -0.274 C  
HETATM   17  C   UNL     1      -9.087   6.841  69.840  1.00  0.00    -0.144 C  
HETATM   18  C   UNL     1      -7.551   7.425  69.355  1.00  0.00    -0.096 C  
HETATM   19  C   UNL     1      -9.287   6.859  71.382  1.00  0.00    -0.156 C  
HETATM   20  C   UNL     1     -10.490   5.826  71.709  1.00  0.00    -0.281 C  
HETATM   21  C   UNL     1      -6.437   6.704  70.117  1.00  0.00    -0.040 C  
HETATM   22  C   UNL     1      -6.644   6.763  71.621  1.00  0.00    -0.049 C  
HETATM   23  C   UNL     1      -8.010   6.302  72.073  1.00  0.00    -0.109 C  
ENDROOT
BRANCH   4  24
HETATM   24  C   UNL     1      -9.865   9.772  66.732  1.00  0.00    -0.208 C  
HETATM   25  O   UNL     1      -9.863   9.970  65.505  1.00  0.00    -0.268 OA 
BRANCH  24  26
HETATM   26  C   UNL     1     -10.840  10.770  67.559  1.00  0.00    -0.288 C  
BRANCH  26  27
HETATM   27  O   UNL     1     -11.445  11.774  66.652  1.00  0.00    -0.399 OA 
BRANCH  27  28
HETATM   28  C   UNL     1     -12.011  12.978  66.967  1.00  0.00    -0.347 C  
HETATM   29  C   UNL     1     -12.628  13.758  65.817  1.00  0.00    -0.525 C  
HETATM   30  O   UNL     1     -12.059  13.426  68.090  1.00  0.00    -0.335 OA 
ENDBRANCH  27  28
ENDBRANCH  26  27
ENDBRANCH  24  26
ENDBRANCH   4  24
TORSDOF 4
ENDMDL
MODEL      102
REMARK 921   NORMALIZED FREE ENERGY PREDICTED BY IDOCK:   -4.39 KCAL/MOL
REMARK 922        TOTAL FREE ENERGY PREDICTED BY IDOCK:   -5.00 KCAL/MOL
REMARK 923 INTER-LIGAND FREE ENERGY PREDICTED BY IDOCK:   -5.40 KCAL/MOL
REMARK 924 INTRA-LIGAND FREE ENERGY PREDICTED BY IDOCK:    0.40 KCAL/MOL
REMARK 927      BINDING AFFINITY PREDICTED BY RF-SCORE:    0.00 PKD
ROOT
HETATM    1  C   UNL     1      -8.193   9.096  65.533  1.00  0.00    -0.124 C  
HETATM    2  C   UNL     1      -8.980   7.988  65.135  1.00  0.00     0.162 C  
HETATM    3  C   UNL     1      -9.642   8.969  66.060  1.00  0.00    -0.342 C  
HETATM    4  C   UNL     1      -8.798  10.859  66.297  1.00  0.00    -0.179 C  
HETATM    5  O   UNL     1      -8.030   7.424  72.983  1.00  0.00    -0.097 OA 
HETATM    6  O   UNL     1      -7.565  11.175  65.526  1.00  0.00    -0.363 OA 
HETATM    7  C   UNL     1      -9.670  10.330  65.380  1.00  0.00    -0.340 C  
HETATM    8  C   UNL     1      -9.976  10.682  63.958  1.00  0.00    -0.401 C  
HETATM    9  C   UNL     1     -10.840  10.488  66.876  1.00  0.00    -0.252 C  
HETATM   10  C   UNL     1      -8.379   6.978  71.898  1.00  0.00    -0.106 C  
HETATM   11  C   UNL     1      -7.447   6.550  70.840  1.00  0.00    -0.084 C  
HETATM   12  H   UNL     1      -7.180  12.037  65.635  1.00  0.00     0.000 HD 
HETATM   13  C   UNL     1     -10.001  10.197  68.327  1.00  0.00    -0.148 C  
HETATM   14  C   UNL     1      -9.825   7.041  71.430  1.00  0.00    -0.180 C  
HETATM   15  O   UNL     1     -10.206  10.973  69.263  1.00  0.00    -0.204 OA 
HETATM   16  C   UNL     1      -7.536   9.905  70.295  1.00  0.00    -0.173 C  
HETATM   17  C   UNL     1      -8.892   8.938  68.471  1.00  0.00    -0.134 C  
HETATM   18  C   UNL     1      -7.672   8.897  67.268  1.00  0.00    -0.092 C  
HETATM   19  C   UNL     1      -8.346   8.667  69.902  1.00  0.00    -0.123 C  
HETATM   20  C   UNL     1      -9.610   8.213  70.806  1.00  0.00    -0.185 C  
HETATM   21  C   UNL     1      -6.860   7.604  67.370  1.00  0.00    -0.069 C  
HETATM   22  C   UNL     1      -6.316   7.381  68.771  1.00  0.00    -0.036 C  
HETATM   23  C   UNL     1      -7.363   7.463  69.858  1.00  0.00    -0.083 C  
ENDROOT
BRANCH   4  24
HETATM   24  C   UNL     1      -9.401  12.572  66.149  1.00  0.00    -0.134 C  
HETATM   25  O   UNL     1     -10.056  12.973  65.171  1.00  0.00    -0.279 OA 
BRANCH  24  26
HETATM   26  C   UNL     1      -9.005  13.740  67.202  1.00  0.00    -0.235 C  
BRANCH  26  27
HETATM   27  O   UNL     1      -9.989  13.797  68.308  1.00  0.00    -0.231 OA 
BRANCH  27  28
HETATM   28  C   UNL     1     -11.229  14.374  68.319  1.00  0.00    -0.275 C  
HETATM   29  C   UNL     1     -11.274  15.875  68.556  1.00  0.00    -0.362 C  
HETATM   30  O   UNL     1     -12.257  13.765  68.132  1.00  0.00    -0.331 OA 
ENDBRANCH  27  28
ENDBRANCH  26  27
ENDBRANCH  24  26
ENDBRANCH   4  24
TORSDOF 4
ENDMDL
MODEL      103
REMARK 921   NORMALIZED FREE ENERGY PREDICTED BY IDOCK:   -4.37 KCAL/MOL
REMARK 922        TOTAL FREE ENERGY PREDICTED BY IDOCK:   -4.97 KCAL/MOL
REMARK 923 INTER-LIGAND FREE ENERGY PREDICTED BY IDOCK:   -5.17 KCAL/MOL
REMARK 924 INTRA-LIGAND FREE ENERGY PREDICTED BY IDOCK:    0.19 KCAL/MOL
REMARK 927      BINDING AFFINITY PREDICTED BY RF-SCORE:    0.00 PKD
ROOT
HETATM    1  C   UNL     1     -10.761  10.667  70.161  1.00  0.00    -0.151 C  
HETATM    2  C   UNL     1     -12.170  10.748  70.057  1.00  0.00    -0.409 C  
HETATM    3  C   UNL     1     -11.510   9.672  69.243  1.00  0.00     0.091 C  
HETATM    4  C   UNL     1      -9.551   9.126  69.696  1.00  0.00    -0.176 C  
HETATM    5  O   UNL     1      -9.253  12.336  62.862  1.00  0.00     0.121 OA 
HETATM    6  O   UNL     1      -8.875   9.819  70.825  1.00  0.00    -0.347 OA 
HETATM    7  C   UNL     1     -10.769   8.737  70.189  1.00  0.00    -0.239 C  
HETATM    8  C   UNL     1     -11.194   8.187  71.515  1.00  0.00    -0.307 C  
HETATM    9  C   UNL     1     -10.805   7.834  68.511  1.00  0.00     0.012 C  
HETATM   10  C   UNL     1     -10.166  12.285  63.674  1.00  0.00    -0.403 C  
HETATM   11  C   UNL     1     -10.312  13.205  64.815  1.00  0.00    -0.369 C  
HETATM   12  H   UNL     1      -7.981   9.570  71.031  1.00  0.00     0.000 HD 
HETATM   13  C   UNL     1     -10.017   8.757  67.318  1.00  0.00    -0.220 C  
HETATM   14  C   UNL     1     -11.127  11.107  63.731  1.00  0.00    -0.157 C  
HETATM   15  O   UNL     1      -9.237   8.163  66.570  1.00  0.00    -0.165 OA 
HETATM   16  C   UNL     1      -8.100  10.957  66.086  1.00  0.00    -0.160 C  
HETATM   17  C   UNL     1     -10.243  10.420  67.192  1.00  0.00    -0.271 C  
HETATM   18  C   UNL     1      -9.989  11.304  68.637  1.00  0.00    -0.210 C  
HETATM   19  C   UNL     1      -9.617  11.103  65.942  1.00  0.00    -0.250 C  
HETATM   20  C   UNL     1     -10.365  10.483  64.647  1.00  0.00    -0.290 C  
HETATM   21  C   UNL     1     -10.427  12.760  68.461  1.00  0.00    -0.252 C  
HETATM   22  C   UNL     1      -9.778  13.409  67.249  1.00  0.00    -0.232 C  
HETATM   23  C   UNL     1      -9.942  12.623  65.969  1.00  0.00    -0.267 C  
ENDROOT
BRANCH   4  24
HETATM   24  C   UNL     1      -8.700   7.559  70.070  1.00  0.00    -0.140 C  
HETATM   25  O   UNL     1      -8.967   6.870  71.070  1.00  0.00    -0.150 OA 
BRANCH  24  26
HETATM   26  C   UNL     1      -7.431   7.019  69.217  1.00  0.00    -0.094 C  
BRANCH  26  27
HETATM   27  O   UNL     1      -6.163   7.353  69.905  1.00  0.00    -0.027 OA 
BRANCH  27  28
HETATM   28  C   UNL     1      -5.769   8.550  70.437  1.00  0.00    -0.027 C  
HETATM   29  C   UNL     1      -5.384   9.637  69.447  1.00  0.00    -0.035 C  
HETATM   30  O   UNL     1      -5.736   8.780  71.624  1.00  0.00    -0.042 OA 
ENDBRANCH  27  28
ENDBRANCH  26  27
ENDBRANCH  24  26
ENDBRANCH   4  24
TORSDOF 4
ENDMDL
MODEL      104
REMARK 921   NORMALIZED FREE ENERGY PREDICTED BY IDOCK:   -4.36 KCAL/MOL
REMARK 922        TOTAL FREE ENERGY PREDICTED BY IDOCK:   -4.95 KCAL/MOL
REMARK 923 INTER-LIGAND FREE ENERGY PREDICTED BY IDOCK:   -5.11 KCAL/MOL
REMARK 924 INTRA-LIGAND FREE ENERGY PREDICTED BY IDOCK:    0.15 KCAL/MOL
REMARK 927      BINDING AFFINITY PREDICTED BY RF-SCORE:    0.00 PKD
ROOT
HETATM    1  C   UNL     1     -10.755   7.117  68.268  1.00  0.00    -0.202 C  
HETATM    2  C   UNL     1     -10.474   6.183  69.293  1.00  0.00    -0.314 C  
HETATM    3  C   UNL     1      -9.332   7.063  68.872  1.00  0.00    -0.139 C  
HETATM    4  C   UNL     1      -9.739   8.783  67.771  1.00  0.00    -0.158 C  
HETATM    5  O   UNL     1      -5.929   4.223  63.104  1.00  0.00    -0.016 OA 
HETATM    6  O   UNL     1     -11.160   9.088  67.448  1.00  0.00    -0.415 OA 
HETATM    7  C   UNL     1      -9.725   8.513  69.114  1.00  0.00    -0.170 C  
HETATM    8  C   UNL     1     -10.441   9.127  70.276  1.00  0.00    -0.257 C  
HETATM    9  C   UNL     1      -7.849   8.547  68.779  1.00  0.00    -0.110 C  
HETATM   10  C   UNL     1      -6.413   4.004  64.206  1.00  0.00    -0.041 C  
HETATM   11  C   UNL     1      -7.826   3.659  64.437  1.00  0.00    -0.085 C  
HETATM   12  H   UNL     1     -11.345   9.872  66.945  1.00  0.00     0.000 HD 
HETATM   13  C   UNL     1      -7.507   7.928  67.231  1.00  0.00    -0.093 C  
HETATM   14  C   UNL     1      -5.654   4.301  65.491  1.00  0.00    -0.017 C  
HETATM   15  O   UNL     1      -6.702   8.555  66.538  1.00  0.00    -0.065 OA 
HETATM   16  C   UNL     1      -8.021   7.047  64.232  1.00  0.00    -0.091 C  
HETATM   17  C   UNL     1      -8.271   6.550  66.639  1.00  0.00    -0.112 C  
HETATM   18  C   UNL     1      -9.983   6.577  66.707  1.00  0.00    -0.224 C  
HETATM   19  C   UNL     1      -7.724   5.987  65.296  1.00  0.00    -0.093 C  
HETATM   20  C   UNL     1      -6.195   5.530  65.570  1.00  0.00    -0.034 C  
HETATM   21  C   UNL     1     -10.557   5.205  66.349  1.00  0.00    -0.336 C  
HETATM   22  C   UNL     1     -10.027   4.693  65.019  1.00  0.00    -0.041 C  
HETATM   23  C   UNL     1      -8.519   4.708  64.912  1.00  0.00    -0.135 C  
ENDROOT
BRANCH   4  24
HETATM   24  C   UNL     1      -9.338  10.553  67.941  1.00  0.00    -0.143 C  
HETATM   25  O   UNL     1      -9.494  11.179  69.004  1.00  0.00    -0.159 OA 
BRANCH  24  26
HETATM   26  C   UNL     1      -8.891  11.480  66.689  1.00  0.00    -0.187 C  
BRANCH  26  27
HETATM   27  O   UNL     1     -10.004  11.617  65.721  1.00  0.00    -0.221 OA 
BRANCH  27  28
HETATM   28  C   UNL     1     -11.148  12.357  65.835  1.00  0.00    -0.313 C  
HETATM   29  C   UNL     1     -11.153  13.708  65.137  1.00  0.00    -0.324 C  
HETATM   30  O   UNL     1     -12.133  11.986  66.429  1.00  0.00    -0.610 OA 
ENDBRANCH  27  28
ENDBRANCH  26  27
ENDBRANCH  24  26
ENDBRANCH   4  24
TORSDOF 4
ENDMDL
MODEL      105
REMARK 921   NORMALIZED FREE ENERGY PREDICTED BY IDOCK:   -4.29 KCAL/MOL
REMARK 922        TOTAL FREE ENERGY PREDICTED BY IDOCK:   -4.87 KCAL/MOL
REMARK 923 INTER-LIGAND FREE ENERGY PREDICTED BY IDOCK:   -5.85 KCAL/MOL
REMARK 924 INTRA-LIGAND FREE ENERGY PREDICTED BY IDOCK:    0.98 KCAL/MOL
REMARK 927      BINDING AFFINITY PREDICTED BY RF-SCORE:    0.00 PKD
ROOT
HETATM    1  C   UNL     1     -11.118  10.858  69.731  1.00  0.00    -0.328 C  
HETATM    2  C   UNL     1     -12.487  10.708  69.401  1.00  0.00     0.063 C  
HETATM    3  C   UNL     1     -11.512  10.511  68.276  1.00  0.00    -0.272 C  
HETATM    4  C   UNL     1      -9.503  10.198  68.727  1.00  0.00    -0.171 C  
HETATM    5  O   UNL     1      -9.796  16.901  65.251  1.00  0.00    -0.433 OA 
HETATM    6  O   UNL     1      -9.104  10.169  70.160  1.00  0.00    -0.377 OA 
HETATM    7  C   UNL     1     -10.584   9.360  68.637  1.00  0.00    -0.230 C  
HETATM    8  C   UNL     1     -10.898   8.044  69.276  1.00  0.00    -0.072 C  
HETATM    9  C   UNL     1     -10.284   9.689  66.784  1.00  0.00    -0.308 C  
HETATM   10  C   UNL     1     -10.695  16.185  65.672  1.00  0.00    -0.310 C  
HETATM   11  C   UNL     1     -11.149  16.163  67.073  1.00  0.00    -0.024 C  
HETATM   12  H   UNL     1      -8.187  10.026  70.366  1.00  0.00     0.000 HD 
HETATM   13  C   UNL     1      -9.732  11.280  66.540  1.00  0.00    -0.202 C  
HETATM   14  C   UNL     1     -11.286  15.061  64.835  1.00  0.00    -0.419 C  
HETATM   15  O   UNL     1      -8.780  11.436  65.770  1.00  0.00    -0.162 OA 
HETATM   16  C   UNL     1      -8.456  14.094  67.240  1.00  0.00    -0.228 C  
HETATM   17  C   UNL     1     -10.411  12.588  67.354  1.00  0.00    -0.231 C  
HETATM   18  C   UNL     1     -10.486  12.430  69.058  1.00  0.00    -0.033 C  
HETATM   19  C   UNL     1      -9.944  13.998  66.893  1.00  0.00    -0.263 C  
HETATM   20  C   UNL     1     -10.424  14.170  65.357  1.00  0.00    -0.372 C  
HETATM   21  C   UNL     1     -11.308  13.567  69.668  1.00  0.00    -0.219 C  
HETATM   22  C   UNL     1     -10.811  14.933  69.223  1.00  0.00    -0.272 C  
HETATM   23  C   UNL     1     -10.686  15.083  67.725  1.00  0.00    -0.278 C  
ENDROOT
BRANCH   4  24
HETATM   24  C   UNL     1      -8.262   8.934  68.296  1.00  0.00    -0.121 C  
HETATM   25  O   UNL     1      -7.064   9.206  68.102  1.00  0.00    -0.076 OA 
BRANCH  24  26
HETATM   26  C   UNL     1      -8.647   7.390  67.986  1.00  0.00    -0.122 C  
BRANCH  26  27
HETATM   27  O   UNL     1      -7.652   6.475  68.593  1.00  0.00    -0.093 OA 
BRANCH  27  28
HETATM   28  C   UNL     1      -7.743   5.764  69.757  1.00  0.00    -0.084 C  
HETATM   29  C   UNL     1      -9.104   5.169  70.081  1.00  0.00    -0.167 C  
HETATM   30  O   UNL     1      -6.813   5.576  70.506  1.00  0.00    -0.045 OA 
ENDBRANCH  27  28
ENDBRANCH  26  27
ENDBRANCH  24  26
ENDBRANCH   4  24
TORSDOF 4
ENDMDL
MODEL      106
REMARK 921   NORMALIZED FREE ENERGY PREDICTED BY IDOCK:   -4.06 KCAL/MOL
REMARK 922        TOTAL FREE ENERGY PREDICTED BY IDOCK:   -4.58 KCAL/MOL
REMARK 923 INTER-LIGAND FREE ENERGY PREDICTED BY IDOCK:   -4.94 KCAL/MOL
REMARK 924 INTRA-LIGAND FREE ENERGY PREDICTED BY IDOCK:    0.35 KCAL/MOL
REMARK 927      BINDING AFFINITY PREDICTED BY RF-SCORE:    0.00 PKD
ROOT
HETATM    1  C   UNL     1      -6.658  10.013  68.242  1.00  0.00    -0.055 C  
HETATM    2  C   UNL     1      -6.610   9.935  69.654  1.00  0.00    -0.056 C  
HETATM    3  C   UNL     1      -7.926   9.587  69.020  1.00  0.00    -0.092 C  
HETATM    4  C   UNL     1      -7.981   9.168  66.980  1.00  0.00    -0.102 C  
HETATM    5  O   UNL     1     -11.852  15.599  67.851  1.00  0.00    -0.205 OA 
HETATM    6  O   UNL     1      -6.702   9.218  66.221  1.00  0.00    -0.072 OA 
HETATM    7  C   UNL     1      -7.714   8.404  68.086  1.00  0.00    -0.103 C  
HETATM    8  C   UNL     1      -6.900   7.165  68.285  1.00  0.00    -0.074 C  
HETATM    9  C   UNL     1      -9.604   8.573  68.267  1.00  0.00    -0.156 C  
HETATM   10  C   UNL     1     -11.152  14.982  68.642  1.00  0.00    -0.264 C  
HETATM   11  C   UNL     1      -9.685  15.095  68.713  1.00  0.00    -0.221 C  
HETATM   12  H   UNL     1      -6.727   9.027  65.290  1.00  0.00     0.000 HD 
HETATM   13  C   UNL     1     -10.123  10.099  67.722  1.00  0.00    -0.180 C  
HETATM   14  C   UNL     1     -11.704  13.842  69.486  1.00  0.00    -0.369 C  
HETATM   15  O   UNL     1     -11.123  10.130  67.000  1.00  0.00    -0.167 OA 
HETATM   16  C   UNL     1     -10.032  12.861  66.173  1.00  0.00    -0.274 C  
HETATM   17  C   UNL     1      -9.283  11.508  68.100  1.00  0.00    -0.181 C  
HETATM   18  C   UNL     1      -7.610  11.482  67.733  1.00  0.00    -0.111 C  
HETATM   19  C   UNL     1      -9.974  12.844  67.703  1.00  0.00    -0.218 C  
HETATM   20  C   UNL     1     -11.344  12.935  68.560  1.00  0.00    -0.324 C  
HETATM   21  C   UNL     1      -6.914  12.716  68.310  1.00  0.00    -0.095 C  
HETATM   22  C   UNL     1      -7.593  14.007  67.883  1.00  0.00    -0.159 C  
HETATM   23  C   UNL     1      -9.080  14.037  68.147  1.00  0.00    -0.192 C  
ENDROOT
BRANCH   4  24
HETATM   24  C   UNL     1      -8.601   7.793  65.959  1.00  0.00    -0.151 C  
HETATM   25  O   UNL     1      -9.487   7.011  66.348  1.00  0.00    -0.175 OA 
BRANCH  24  26
HETATM   26  C   UNL     1      -7.948   7.390  64.530  1.00  0.00    -0.122 C  
BRANCH  26  27
HETATM   27  O   UNL     1      -8.369   8.346  63.479  1.00  0.00    -0.143 OA 
BRANCH  27  28
HETATM   28  C   UNL     1      -8.298   9.712  63.488  1.00  0.00    -0.172 C  
HETATM   29  C   UNL     1      -9.584  10.455  63.814  1.00  0.00    -0.366 C  
HETATM   30  O   UNL     1      -7.282  10.334  63.277  1.00  0.00    -0.139 OA 
ENDBRANCH  27  28
ENDBRANCH  26  27
ENDBRANCH  24  26
ENDBRANCH   4  24
TORSDOF 4
ENDMDL
MODEL      107
REMARK 921   NORMALIZED FREE ENERGY PREDICTED BY IDOCK:   -4.01 KCAL/MOL
REMARK 922        TOTAL FREE ENERGY PREDICTED BY IDOCK:   -4.53 KCAL/MOL
REMARK 923 INTER-LIGAND FREE ENERGY PREDICTED BY IDOCK:   -5.44 KCAL/MOL
REMARK 924 INTRA-LIGAND FREE ENERGY PREDICTED BY IDOCK:    0.91 KCAL/MOL
REMARK 927      BINDING AFFINITY PREDICTED BY RF-SCORE:    0.00 PKD
ROOT
HETATM    1  C   UNL     1      -8.495  10.242  69.686  1.00  0.00    -0.132 C  
HETATM    2  C   UNL     1      -7.083  10.239  69.584  1.00  0.00    -0.125 C  
HETATM    3  C   UNL     1      -7.836  10.371  68.292  1.00  0.00    -0.105 C  
HETATM    4  C   UNL     1      -9.850  10.899  68.350  1.00  0.00    -0.177 C  
HETATM    5  O   UNL     1      -9.666   3.813  65.732  1.00  0.00    -0.179 OA 
HETATM    6  O   UNL     1     -10.473  11.138  69.680  1.00  0.00    -0.437 OA 
HETATM    7  C   UNL     1      -8.691  11.629  68.358  1.00  0.00    -0.158 C  
HETATM    8  C   UNL     1      -8.355  12.985  68.895  1.00  0.00     0.263 C  
HETATM    9  C   UNL     1      -8.716  11.097  66.528  1.00  0.00    -0.174 C  
HETATM   10  C   UNL     1      -8.780   4.501  66.222  1.00  0.00    -0.113 C  
HETATM   11  C   UNL     1      -8.561   4.661  67.670  1.00  0.00    -0.104 C  
HETATM   12  H   UNL     1     -11.392  11.378  69.706  1.00  0.00     0.000 HD 
HETATM   13  C   UNL     1      -9.377   9.537  66.368  1.00  0.00    -0.179 C  
HETATM   14  C   UNL     1      -7.951   5.461  65.382  1.00  0.00    -0.107 C  
HETATM   15  O   UNL     1     -10.201   9.363  65.466  1.00  0.00    -0.112 OA 
HETATM   16  C   UNL     1     -11.025   6.944  67.138  1.00  0.00    -0.427 C  
HETATM   17  C   UNL     1      -8.974   8.291  67.426  1.00  0.00    -0.142 C  
HETATM   18  C   UNL     1      -9.163   8.654  69.089  1.00  0.00    -0.152 C  
HETATM   19  C   UNL     1      -9.498   6.876  67.047  1.00  0.00    -0.183 C  
HETATM   20  C   UNL     1      -8.794   6.476  65.646  1.00  0.00    -0.057 C  
HETATM   21  C   UNL     1      -8.570   7.539  69.953  1.00  0.00    -0.139 C  
HETATM   22  C   UNL     1      -9.121   6.173  69.581  1.00  0.00    -0.139 C  
HETATM   23  C   UNL     1      -9.015   5.848  68.109  1.00  0.00    -0.115 C  
ENDROOT
BRANCH   4  24
HETATM   24  C   UNL     1     -10.871  12.194  67.574  1.00  0.00    -0.243 C  
HETATM   25  O   UNL     1     -12.109  12.116  67.492  1.00  0.00    -0.534 OA 
BRANCH  24  26
HETATM   26  C   UNL     1     -10.238  13.471  66.802  1.00  0.00    -0.264 C  
BRANCH  26  27
HETATM   27  O   UNL     1     -11.035  14.690  67.075  1.00  0.00    -0.302 OA 
BRANCH  27  28
HETATM   28  C   UNL     1     -10.758  15.716  67.935  1.00  0.00    -0.294 C  
HETATM   29  C   UNL     1     -11.747  15.935  69.069  1.00  0.00    -0.377 C  
HETATM   30  O   UNL     1      -9.779  16.421  67.849  1.00  0.00    -0.230 OA 
ENDBRANCH  27  28
ENDBRANCH  26  27
ENDBRANCH  24  26
ENDBRANCH   4  24
TORSDOF 4
ENDMDL
MODEL      108
REMARK 921   NORMALIZED FREE ENERGY PREDICTED BY IDOCK:   -3.99 KCAL/MOL
REMARK 922        TOTAL FREE ENERGY PREDICTED BY IDOCK:   -4.50 KCAL/MOL
REMARK 923 INTER-LIGAND FREE ENERGY PREDICTED BY IDOCK:   -5.39 KCAL/MOL
REMARK 924 INTRA-LIGAND FREE ENERGY PREDICTED BY IDOCK:    0.90 KCAL/MOL
REMARK 927      BINDING AFFINITY PREDICTED BY RF-SCORE:    0.00 PKD
ROOT
HETATM    1  C   UNL     1     -10.130   7.199  69.035  1.00  0.00    -0.183 C  
HETATM    2  C   UNL     1     -11.403   6.712  68.652  1.00  0.00    -0.148 C  
HETATM    3  C   UNL     1     -10.500   7.145  67.533  1.00  0.00    -0.331 C  
HETATM    4  C   UNL     1      -8.466   7.383  67.915  1.00  0.00    -0.122 C  
HETATM    5  O   UNL     1     -11.091  14.308  66.414  1.00  0.00    -0.313 OA 
HETATM    6  O   UNL     1      -7.975   7.104  69.292  1.00  0.00    -0.115 OA 
HETATM    7  C   UNL     1      -9.235   6.300  67.580  1.00  0.00    -0.111 C  
HETATM    8  C   UNL     1      -9.075   4.832  67.827  1.00  0.00    -0.130 C  
HETATM    9  C   UNL     1      -9.188   7.188  65.894  1.00  0.00     0.003 C  
HETATM   10  C   UNL     1     -11.689  13.258  66.606  1.00  0.00    -0.377 C  
HETATM   11  C   UNL     1     -12.010  12.719  67.939  1.00  0.00    -0.320 C  
HETATM   12  H   UNL     1      -7.048   7.213  69.466  1.00  0.00     0.000 HD 
HETATM   13  C   UNL     1      -9.180   8.876  66.108  1.00  0.00    -0.217 C  
HETATM   14  C   UNL     1     -11.958  12.269  65.482  1.00  0.00    -0.387 C  
HETATM   15  O   UNL     1      -8.384   9.527  65.426  1.00  0.00    -0.128 OA 
HETATM   16  C   UNL     1      -8.800  11.657  67.576  1.00  0.00    -0.158 C  
HETATM   17  C   UNL     1     -10.174   9.631  67.238  1.00  0.00    -0.292 C  
HETATM   18  C   UNL     1     -10.071   9.010  68.831  1.00  0.00    -0.207 C  
HETATM   19  C   UNL     1     -10.205  11.185  67.191  1.00  0.00    -0.235 C  
HETATM   20  C   UNL     1     -10.825  11.597  65.753  1.00  0.00    -0.334 C  
HETATM   21  C   UNL     1     -11.161   9.618  69.716  1.00  0.00    -0.247 C  
HETATM   22  C   UNL     1     -11.150  11.137  69.673  1.00  0.00    -0.297 C  
HETATM   23  C   UNL     1     -11.186  11.713  68.276  1.00  0.00    -0.320 C  
ENDROOT
BRANCH   4  24
HETATM   24  C   UNL     1      -6.928   6.747  67.175  1.00  0.00    -0.074 C  
HETATM   25  O   UNL     1      -5.878   6.602  67.825  1.00  0.00    -0.021 OA 
BRANCH  24  26
HETATM   26  C   UNL     1      -6.766   6.462  65.587  1.00  0.00    -0.048 C  
BRANCH  26  27
HETATM   27  O   UNL     1      -6.450   5.034  65.346  1.00  0.00    -0.034 OA 
BRANCH  27  28
HETATM   28  C   UNL     1      -7.263   4.053  64.849  1.00  0.00    -0.067 C  
HETATM   29  C   UNL     1      -8.560   4.511  64.201  1.00  0.00    -0.132 C  
HETATM   30  O   UNL     1      -6.992   2.875  64.881  1.00  0.00    -0.047 OA 
ENDBRANCH  27  28
ENDBRANCH  26  27
ENDBRANCH  24  26
ENDBRANCH   4  24
TORSDOF 4
ENDMDL
MODEL      109
REMARK 921   NORMALIZED FREE ENERGY PREDICTED BY IDOCK:   -3.91 KCAL/MOL
REMARK 922        TOTAL FREE ENERGY PREDICTED BY IDOCK:   -4.40 KCAL/MOL
REMARK 923 INTER-LIGAND FREE ENERGY PREDICTED BY IDOCK:   -4.79 KCAL/MOL
REMARK 924 INTRA-LIGAND FREE ENERGY PREDICTED BY IDOCK:    0.39 KCAL/MOL
REMARK 927      BINDING AFFINITY PREDICTED BY RF-SCORE:    0.00 PKD
ROOT
HETATM    1  C   UNL     1      -8.494   7.292  70.790  1.00  0.00    -0.132 C  
HETATM    2  C   UNL     1      -9.408   7.723  71.781  1.00  0.00    -0.179 C  
HETATM    3  C   UNL     1     -10.009   7.293  70.474  1.00  0.00    -0.191 C  
HETATM    4  C   UNL     1      -8.850   6.176  69.152  1.00  0.00    -0.123 C  
HETATM    5  O   UNL     1     -10.018  12.815  65.738  1.00  0.00    -0.265 OA 
HETATM    6  O   UNL     1      -7.460   5.832  69.559  1.00  0.00    -0.072 OA 
HETATM    7  C   UNL     1      -9.632   5.839  70.226  1.00  0.00    -0.206 C  
HETATM    8  C   UNL     1      -9.600   4.685  71.177  1.00  0.00    -0.238 C  
HETATM    9  C   UNL     1     -10.994   6.234  68.952  1.00  0.00    -0.435 C  
HETATM   10  C   UNL     1     -10.251  12.462  66.887  1.00  0.00    -0.225 C  
HETATM   11  C   UNL     1      -9.253  12.459  67.971  1.00  0.00    -0.203 C  
HETATM   12  H   UNL     1      -6.931   5.323  68.956  1.00  0.00     0.000 HD 
HETATM   13  C   UNL     1     -10.507   7.502  67.928  1.00  0.00    -0.204 C  
HETATM   14  C   UNL     1     -11.545  11.757  67.264  1.00  0.00    -0.344 C  
HETATM   15  O   UNL     1     -10.712   7.363  66.720  1.00  0.00    -0.319 OA 
HETATM   16  C   UNL     1      -8.549   9.503  66.444  1.00  0.00    -0.143 C  
HETATM   17  C   UNL     1      -9.726   8.870  68.523  1.00  0.00    -0.172 C  
HETATM   18  C   UNL     1      -8.345   8.561  69.489  1.00  0.00    -0.118 C  
HETATM   19  C   UNL     1      -9.513  10.031  67.510  1.00  0.00    -0.169 C  
HETATM   20  C   UNL     1     -10.984  10.549  67.077  1.00  0.00    -0.247 C  
HETATM   21  C   UNL     1      -7.849   9.851  70.145  1.00  0.00    -0.186 C  
HETATM   22  C   UNL     1      -7.623  10.959  69.129  1.00  0.00    -0.133 C  
HETATM   23  C   UNL     1      -8.808  11.217  68.228  1.00  0.00    -0.155 C  
ENDROOT
BRANCH   4  24
HETATM   24  C   UNL     1      -9.049   4.588  68.281  1.00  0.00    -0.124 C  
HETATM   25  O   UNL     1     -10.155   4.163  67.901  1.00  0.00    -0.019 OA 
BRANCH  24  26
HETATM   26  C   UNL     1      -7.831   3.540  68.066  1.00  0.00    -0.068 C  
BRANCH  26  27
HETATM   27  O   UNL     1      -7.672   2.677  69.260  1.00  0.00    -0.044 OA 
BRANCH  27  28
HETATM   28  C   UNL     1      -6.651   2.658  70.170  1.00  0.00    -0.033 C  
HETATM   29  C   UNL     1      -5.267   3.001  69.643  1.00  0.00    -0.011 C  
HETATM   30  O   UNL     1      -6.801   2.411  71.344  1.00  0.00    -0.029 OA 
ENDBRANCH  27  28
ENDBRANCH  26  27
ENDBRANCH  24  26
ENDBRANCH   4  24
TORSDOF 4
ENDMDL
MODEL      110
REMARK 921   NORMALIZED FREE ENERGY PREDICTED BY IDOCK:   -3.90 KCAL/MOL
REMARK 922        TOTAL FREE ENERGY PREDICTED BY IDOCK:   -4.39 KCAL/MOL
REMARK 923 INTER-LIGAND FREE ENERGY PREDICTED BY IDOCK:   -5.17 KCAL/MOL
REMARK 924 INTRA-LIGAND FREE ENERGY PREDICTED BY IDOCK:    0.77 KCAL/MOL
REMARK 927      BINDING AFFINITY PREDICTED BY RF-SCORE:    0.00 PKD
ROOT
HETATM    1  C   UNL     1      -7.360   7.778  70.053  1.00  0.00    -0.075 C  
HETATM    2  C   UNL     1      -6.524   8.602  70.844  1.00  0.00    -0.047 C  
HETATM    3  C   UNL     1      -8.001   8.740  71.081  1.00  0.00    -0.170 C  
HETATM    4  C   UNL     1      -9.277   7.254  70.375  1.00  0.00    -0.158 C  
HETATM    5  O   UNL     1     -10.910  13.435  66.346  1.00  0.00    -0.286 OA 
HETATM    6  O   UNL     1      -8.675   6.093  69.665  1.00  0.00    -0.132 OA 
HETATM    7  C   UNL     1      -8.546   7.390  71.526  1.00  0.00    -0.120 C  
HETATM    8  C   UNL     1      -7.966   6.393  72.479  1.00  0.00    -0.102 C  
HETATM    9  C   UNL     1      -9.938   8.642  71.885  1.00  0.00    -0.392 C  
HETATM   10  C   UNL     1      -9.987  13.212  67.119  1.00  0.00    -0.236 C  
HETATM   11  C   UNL     1      -8.748  12.507  66.749  1.00  0.00    -0.147 C  
HETATM   12  H   UNL     1      -9.258   5.415  69.342  1.00  0.00     0.000 HD 
HETATM   13  C   UNL     1     -10.434   9.413  70.452  1.00  0.00    -0.256 C  
HETATM   14  C   UNL     1     -10.123  13.433  68.618  1.00  0.00    -0.162 C  
HETATM   15  O   UNL     1     -11.648   9.526  70.264  1.00  0.00    -0.245 OA 
HETATM   16  C   UNL     1     -10.825   9.881  67.343  1.00  0.00    -0.293 C  
HETATM   17  C   UNL     1      -9.325   9.952  69.306  1.00  0.00    -0.215 C  
HETATM   18  C   UNL     1      -8.193   8.780  68.778  1.00  0.00    -0.116 C  
HETATM   19  C   UNL     1      -9.904  10.807  68.143  1.00  0.00    -0.171 C  
HETATM   20  C   UNL     1     -10.502  12.156  68.808  1.00  0.00    -0.201 C  
HETATM   21  C   UNL     1      -7.112   9.429  67.910  1.00  0.00    -0.081 C  
HETATM   22  C   UNL     1      -7.706  10.235  66.766  1.00  0.00    -0.111 C  
HETATM   23  C   UNL     1      -8.747  11.241  67.198  1.00  0.00    -0.151 C  
ENDROOT
BRANCH   4  24
HETATM   24  C   UNL     1     -10.573   6.205  71.111  1.00  0.00    -0.246 C  
HETATM   25  O   UNL     1     -11.787   6.423  70.952  1.00  0.00    -0.350 OA 
BRANCH  24  26
HETATM   26  C   UNL     1     -10.250   5.001  72.148  1.00  0.00    -0.201 C  
BRANCH  26  27
HETATM   27  O   UNL     1     -10.095   3.719  71.422  1.00  0.00    -0.145 OA 
BRANCH  27  28
HETATM   28  C   UNL     1      -9.688   2.506  71.907  1.00  0.00    -0.150 C  
HETATM   29  C   UNL     1      -9.491   2.411  73.411  1.00  0.00    -0.110 C  
HETATM   30  O   UNL     1      -9.506   1.532  71.215  1.00  0.00    -0.099 OA 
ENDBRANCH  27  28
ENDBRANCH  26  27
ENDBRANCH  24  26
ENDBRANCH   4  24
TORSDOF 4
ENDMDL
MODEL      111
REMARK 921   NORMALIZED FREE ENERGY PREDICTED BY IDOCK:   -3.89 KCAL/MOL
REMARK 922        TOTAL FREE ENERGY PREDICTED BY IDOCK:   -4.38 KCAL/MOL
REMARK 923 INTER-LIGAND FREE ENERGY PREDICTED BY IDOCK:   -5.39 KCAL/MOL
REMARK 924 INTRA-LIGAND FREE ENERGY PREDICTED BY IDOCK:    1.01 KCAL/MOL
REMARK 927      BINDING AFFINITY PREDICTED BY RF-SCORE:    0.00 PKD
ROOT
HETATM    1  C   UNL     1      -6.786   8.899  69.570  1.00  0.00    -0.048 C  
HETATM    2  C   UNL     1      -6.450   9.477  70.818  1.00  0.00    -0.097 C  
HETATM    3  C   UNL     1      -7.899   9.543  70.430  1.00  0.00    -0.190 C  
HETATM    4  C   UNL     1      -8.592   8.304  68.906  1.00  0.00    -0.132 C  
HETATM    5  O   UNL     1      -9.143  15.347  66.224  1.00  0.00    -0.288 OA 
HETATM    6  O   UNL     1      -7.620   7.382  68.258  1.00  0.00    -0.109 OA 
HETATM    7  C   UNL     1      -8.417   8.123  70.253  1.00  0.00    -0.126 C  
HETATM    8  C   UNL     1      -8.166   6.904  71.084  1.00  0.00    -0.118 C  
HETATM    9  C   UNL     1      -9.970   9.228  70.281  1.00  0.00    -0.262 C  
HETATM   10  C   UNL     1      -8.598  14.924  67.235  1.00  0.00    -0.213 C  
HETATM   11  C   UNL     1      -7.243  14.348  67.267  1.00  0.00    -0.030 C  
HETATM   12  H   UNL     1      -7.936   6.817  67.562  1.00  0.00     0.000 HD 
HETATM   13  C   UNL     1      -9.923  10.359  69.011  1.00  0.00    -0.214 C  
HETATM   14  C   UNL     1      -9.361  14.727  68.537  1.00  0.00    -0.199 C  
HETATM   15  O   UNL     1     -10.957  10.518  68.358  1.00  0.00    -0.224 OA 
HETATM   16  C   UNL     1      -9.058  11.657  66.253  1.00  0.00    -0.219 C  
HETATM   17  C   UNL     1      -8.513  11.191  68.618  1.00  0.00    -0.153 C  
HETATM   18  C   UNL     1      -7.135  10.209  68.352  1.00  0.00    -0.071 C  
HETATM   19  C   UNL     1      -8.661  12.331  67.570  1.00  0.00    -0.174 C  
HETATM   20  C   UNL     1      -9.632  13.447  68.226  1.00  0.00    -0.220 C  
HETATM   21  C   UNL     1      -5.878  11.072  68.217  1.00  0.00    -0.046 C  
HETATM   22  C   UNL     1      -6.041  12.158  67.166  1.00  0.00    -0.143 C  
HETATM   23  C   UNL     1      -7.278  13.007  67.347  1.00  0.00    -0.123 C  
ENDROOT
BRANCH   4  24
HETATM   24  C   UNL     1      -9.942   7.093  68.737  1.00  0.00    -0.163 C  
HETATM   25  O   UNL     1     -10.548   6.905  67.667  1.00  0.00    -0.206 OA 
BRANCH  24  26
HETATM   26  C   UNL     1     -10.558   6.277  69.995  1.00  0.00    -0.248 C  
BRANCH  26  27
HETATM   27  O   UNL     1     -11.969   6.664  70.225  1.00  0.00    -0.387 OA 
BRANCH  27  28
HETATM   28  C   UNL     1     -12.590   6.969  71.405  1.00  0.00    -0.386 C  
HETATM   29  C   UNL     1     -14.102   7.115  71.356  1.00  0.00    -0.406 C  
HETATM   30  O   UNL     1     -12.008   7.100  72.457  1.00  0.00    -0.198 OA 
ENDBRANCH  27  28
ENDBRANCH  26  27
ENDBRANCH  24  26
ENDBRANCH   4  24
TORSDOF 4
ENDMDL
MODEL      112
REMARK 921   NORMALIZED FREE ENERGY PREDICTED BY IDOCK:   -3.87 KCAL/MOL
REMARK 922        TOTAL FREE ENERGY PREDICTED BY IDOCK:   -4.35 KCAL/MOL
REMARK 923 INTER-LIGAND FREE ENERGY PREDICTED BY IDOCK:   -4.90 KCAL/MOL
REMARK 924 INTRA-LIGAND FREE ENERGY PREDICTED BY IDOCK:    0.55 KCAL/MOL
REMARK 927      BINDING AFFINITY PREDICTED BY RF-SCORE:    0.00 PKD
ROOT
HETATM    1  C   UNL     1      -6.318   7.757  68.036  1.00  0.00    -0.050 C  
HETATM    2  C   UNL     1      -6.256   7.891  69.444  1.00  0.00    -0.034 C  
HETATM    3  C   UNL     1      -7.534   7.328  68.892  1.00  0.00    -0.101 C  
HETATM    4  C   UNL     1      -7.557   6.612  66.936  1.00  0.00    -0.095 C  
HETATM    5  O   UNL     1     -12.044  12.692  66.940  1.00  0.00    -0.490 OA 
HETATM    6  O   UNL     1      -6.293   6.675  66.153  1.00  0.00    -0.039 OA 
HETATM    7  C   UNL     1      -7.209   6.048  68.135  1.00  0.00    -0.080 C  
HETATM    8  C   UNL     1      -6.275   4.936  68.496  1.00  0.00    -0.031 C  
HETATM    9  C   UNL     1      -9.106   6.056  68.326  1.00  0.00    -0.111 C  
HETATM   10  C   UNL     1     -11.282  12.268  67.798  1.00  0.00    -0.276 C  
HETATM   11  C   UNL     1      -9.833  12.533  67.824  1.00  0.00    -0.204 C  
HETATM   12  H   UNL     1      -6.303   6.348  65.260  1.00  0.00     0.000 HD 
HETATM   13  C   UNL     1      -9.777   7.427  67.576  1.00  0.00    -0.148 C  
HETATM   14  C   UNL     1     -11.714  11.216  68.809  1.00  0.00    -0.394 C  
HETATM   15  O   UNL     1     -10.779   7.255  66.877  1.00  0.00    -0.338 OA 
HETATM   16  C   UNL     1      -9.968   9.929  65.642  1.00  0.00    -0.353 C  
HETATM   17  C   UNL     1      -9.079   8.952  67.730  1.00  0.00    -0.143 C  
HETATM   18  C   UNL     1      -7.414   9.036  67.338  1.00  0.00    -0.085 C  
HETATM   19  C   UNL     1      -9.901  10.141  67.157  1.00  0.00    -0.231 C  
HETATM   20  C   UNL     1     -11.269  10.222  68.018  1.00  0.00    -0.303 C  
HETATM   21  C   UNL     1      -6.841  10.403  67.717  1.00  0.00    -0.074 C  
HETATM   22  C   UNL     1      -7.647  11.545  67.120  1.00  0.00    -0.149 C  
HETATM   23  C   UNL     1      -9.129  11.468  67.406  1.00  0.00    -0.166 C  
ENDROOT
BRANCH   4  24
HETATM   24  C   UNL     1      -8.042   5.048  66.137  1.00  0.00    -0.108 C  
HETATM   25  O   UNL     1      -7.787   3.934  66.627  1.00  0.00    -0.088 OA 
BRANCH  24  26
HETATM   26  C   UNL     1      -8.708   4.981  64.660  1.00  0.00    -0.141 C  
BRANCH  26  27
HETATM   27  O   UNL     1      -9.951   4.177  64.687  1.00  0.00    -0.182 OA 
BRANCH  27  28
HETATM   28  C   UNL     1     -10.253   3.047  63.977  1.00  0.00    -0.148 C  
HETATM   29  C   UNL     1      -9.087   2.139  63.621  1.00  0.00    -0.096 C  
HETATM   30  O   UNL     1     -11.376   2.738  63.650  1.00  0.00    -0.237 OA 
ENDBRANCH  27  28
ENDBRANCH  26  27
ENDBRANCH  24  26
ENDBRANCH   4  24
TORSDOF 4
ENDMDL
MODEL      113
REMARK 921   NORMALIZED FREE ENERGY PREDICTED BY IDOCK:   -3.75 KCAL/MOL
REMARK 922        TOTAL FREE ENERGY PREDICTED BY IDOCK:   -4.21 KCAL/MOL
REMARK 923 INTER-LIGAND FREE ENERGY PREDICTED BY IDOCK:   -5.57 KCAL/MOL
REMARK 924 INTRA-LIGAND FREE ENERGY PREDICTED BY IDOCK:    1.36 KCAL/MOL
REMARK 927      BINDING AFFINITY PREDICTED BY RF-SCORE:    0.00 PKD
ROOT
HETATM    1  C   UNL     1      -6.036  16.452  67.721  1.00  0.00    -0.152 C  
HETATM    2  C   UNL     1      -5.402  16.251  66.471  1.00  0.00     0.745 C  
HETATM    3  C   UNL     1      -6.621  17.128  66.458  1.00  0.00    -0.277 C  
HETATM    4  C   UNL     1      -7.322  17.906  68.259  1.00  0.00    -0.249 C  
HETATM    5  O   UNL     1     -12.651  13.099  65.893  1.00  0.00    -0.433 OA 
HETATM    6  O   UNL     1      -6.578  17.569  69.503  1.00  0.00    -0.239 OA 
HETATM    7  C   UNL     1      -6.366  18.321  67.369  1.00  0.00    -0.186 C  
HETATM    8  C   UNL     1      -5.136  19.158  67.525  1.00  0.00    -0.165 C  
HETATM    9  C   UNL     1      -7.934  18.765  66.380  1.00  0.00    -0.300 C  
HETATM   10  C   UNL     1     -11.516  13.291  65.478  1.00  0.00    -0.311 C  
HETATM   11  C   UNL     1     -10.307  12.682  66.060  1.00  0.00    -0.287 C  
HETATM   12  H   UNL     1      -6.898  17.924  70.324  1.00  0.00     0.000 HD 
HETATM   13  C   UNL     1      -9.166  17.628  66.669  1.00  0.00    -0.271 C  
HETATM   14  C   UNL     1     -11.205  14.375  64.458  1.00  0.00    -0.314 C  
HETATM   15  O   UNL     1     -10.300  18.065  66.879  1.00  0.00    -0.350 OA 
HETATM   16  C   UNL     1     -10.760  15.326  68.150  1.00  0.00    -0.257 C  
HETATM   17  C   UNL     1      -8.851  15.975  66.723  1.00  0.00    -0.288 C  
HETATM   18  C   UNL     1      -7.593  15.505  67.787  1.00  0.00    -0.162 C  
HETATM   19  C   UNL     1     -10.094  15.043  66.800  1.00  0.00    -0.257 C  
HETATM   20  C   UNL     1     -10.929  15.262  65.431  1.00  0.00    -0.380 C  
HETATM   21  C   UNL     1      -7.252  14.026  67.596  1.00  0.00    -0.190 C  
HETATM   22  C   UNL     1      -8.480  13.138  67.705  1.00  0.00    -0.185 C  
HETATM   23  C   UNL     1      -9.626  13.561  66.815  1.00  0.00    -0.268 C  
ENDROOT
BRANCH   4  24
HETATM   24  C   UNL     1      -7.723  19.571  68.879  1.00  0.00    -0.334 C  
HETATM   25  O   UNL     1      -8.872  19.903  69.221  1.00  0.00    -0.050 OA 
BRANCH  24  26
HETATM   26  C   UNL     1      -6.653  20.789  68.894  1.00  0.00     0.059 C  
BRANCH  26  27
HETATM   27  O   UNL     1      -5.521  20.474  69.797  1.00  0.00    -0.285 OA 
BRANCH  27  28
HETATM   28  C   UNL     1      -5.549  20.197  71.135  1.00  0.00    -0.314 C  
HETATM   29  C   UNL     1      -5.142  21.327  72.069  1.00  0.00     0.230 C  
HETATM   30  O   UNL     1      -5.892  19.133  71.596  1.00  0.00    -0.101 OA 
ENDBRANCH  27  28
ENDBRANCH  26  27
ENDBRANCH  24  26
ENDBRANCH   4  24
TORSDOF 4
ENDMDL
MODEL      114
REMARK 921   NORMALIZED FREE ENERGY PREDICTED BY IDOCK:   -3.56 KCAL/MOL
REMARK 922        TOTAL FREE ENERGY PREDICTED BY IDOCK:   -3.97 KCAL/MOL
REMARK 923 INTER-LIGAND FREE ENERGY PREDICTED BY IDOCK:   -4.87 KCAL/MOL
REMARK 924 INTRA-LIGAND FREE ENERGY PREDICTED BY IDOCK:    0.89 KCAL/MOL
REMARK 927      BINDING AFFINITY PREDICTED BY RF-SCORE:    0.00 PKD
ROOT
HETATM    1  C   UNL     1      -6.461  10.338  68.810  1.00  0.00    -0.051 C  
HETATM    2  C   UNL     1      -6.442  10.696  70.180  1.00  0.00    -0.152 C  
HETATM    3  C   UNL     1      -7.683  10.002  69.696  1.00  0.00    -0.158 C  
HETATM    4  C   UNL     1      -7.626   8.986  67.879  1.00  0.00    -0.093 C  
HETATM    5  O   UNL     1     -12.328  14.806  66.822  1.00  0.00    -0.144 OA 
HETATM    6  O   UNL     1      -6.344   8.975  67.123  1.00  0.00    -0.058 OA 
HETATM    7  C   UNL     1      -7.292   8.632  69.160  1.00  0.00    -0.076 C  
HETATM    8  C   UNL     1      -6.329   7.629  69.712  1.00  0.00    -0.031 C  
HETATM    9  C   UNL     1      -9.192   8.594  69.306  1.00  0.00    -0.150 C  
HETATM   10  C   UNL     1     -11.575  14.554  67.753  1.00  0.00    -0.365 C  
HETATM   11  C   UNL     1     -10.138  14.878  67.767  1.00  0.00    -0.234 C  
HETATM   12  H   UNL     1      -6.319   8.512  66.294  1.00  0.00     0.000 HD 
HETATM   13  C   UNL     1      -9.892   9.803  68.334  1.00  0.00    -0.152 C  
HETATM   14  C   UNL     1     -11.996  13.658  68.908  1.00  0.00    -0.392 C  
HETATM   15  O   UNL     1     -10.866   9.482  67.649  1.00  0.00    -0.279 OA 
HETATM   16  C   UNL     1     -10.119  11.958  66.023  1.00  0.00    -0.261 C  
HETATM   17  C   UNL     1      -9.254  11.359  68.259  1.00  0.00    -0.183 C  
HETATM   18  C   UNL     1      -7.582  11.447  67.894  1.00  0.00    -0.108 C  
HETATM   19  C   UNL     1     -10.102  12.409  67.487  1.00  0.00    -0.205 C  
HETATM   20  C   UNL     1     -11.495  12.571  68.294  1.00  0.00    -0.355 C  
HETATM   21  C   UNL     1      -7.070  12.879  68.064  1.00  0.00    -0.111 C  
HETATM   22  C   UNL     1      -7.899  13.879  67.276  1.00  0.00    -0.134 C  
HETATM   23  C   UNL     1      -9.384  13.788  67.539  1.00  0.00    -0.222 C  
ENDROOT
BRANCH   4  24
HETATM   24  C   UNL     1      -8.033   7.297  67.328  1.00  0.00    -0.111 C  
HETATM   25  O   UNL     1      -7.558   6.794  66.294  1.00  0.00    -0.082 OA 
BRANCH  24  26
HETATM   26  C   UNL     1      -9.152   6.378  68.055  1.00  0.00    -0.113 C  
BRANCH  26  27
HETATM   27  O   UNL     1      -8.647   4.998  68.245  1.00  0.00    -0.102 OA 
BRANCH  27  28
HETATM   28  C   UNL     1      -9.277   3.814  67.976  1.00  0.00    -0.167 C  
HETATM   29  C   UNL     1      -9.403   2.837  69.135  1.00  0.00    -0.206 C  
HETATM   30  O   UNL     1      -9.742   3.528  66.897  1.00  0.00    -0.173 OA 
ENDBRANCH  27  28
ENDBRANCH  26  27
ENDBRANCH  24  26
ENDBRANCH   4  24
TORSDOF 4
ENDMDL
MODEL      115
REMARK 921   NORMALIZED FREE ENERGY PREDICTED BY IDOCK:   -3.56 KCAL/MOL
REMARK 922        TOTAL FREE ENERGY PREDICTED BY IDOCK:   -3.97 KCAL/MOL
REMARK 923 INTER-LIGAND FREE ENERGY PREDICTED BY IDOCK:   -4.66 KCAL/MOL
REMARK 924 INTRA-LIGAND FREE ENERGY PREDICTED BY IDOCK:    0.69 KCAL/MOL
REMARK 927      BINDING AFFINITY PREDICTED BY RF-SCORE:    0.00 PKD
ROOT
HETATM    1  C   UNL     1      -8.001   8.790  69.914  1.00  0.00    -0.106 C  
HETATM    2  C   UNL     1      -8.903   9.164  70.938  1.00  0.00    -0.292 C  
HETATM    3  C   UNL     1      -9.522   8.636  69.676  1.00  0.00    -0.162 C  
HETATM    4  C   UNL     1      -8.325   7.592  68.328  1.00  0.00    -0.125 C  
HETATM    5  O   UNL     1     -10.296  13.976  64.797  1.00  0.00    -0.423 OA 
HETATM    6  O   UNL     1      -6.890   7.397  68.672  1.00  0.00    -0.067 OA 
HETATM    7  C   UNL     1      -9.018   7.217  69.449  1.00  0.00    -0.139 C  
HETATM    8  C   UNL     1      -8.828   6.103  70.429  1.00  0.00    -0.149 C  
HETATM    9  C   UNL     1     -10.472   7.439  68.236  1.00  0.00    -0.231 C  
HETATM   10  C   UNL     1     -10.438  13.639  65.965  1.00  0.00    -0.300 C  
HETATM   11  C   UNL     1      -9.393  13.767  66.996  1.00  0.00    -0.250 C  
HETATM   12  H   UNL     1      -6.344   6.921  68.056  1.00  0.00     0.000 HD 
HETATM   13  C   UNL     1     -10.160   8.714  67.154  1.00  0.00    -0.261 C  
HETATM   14  C   UNL     1     -11.638  12.827  66.428  1.00  0.00    -0.435 C  
HETATM   15  O   UNL     1     -10.409   8.517  65.962  1.00  0.00     0.069 OA 
HETATM   16  C   UNL     1      -8.480  10.844  65.518  1.00  0.00    -0.115 C  
HETATM   17  C   UNL     1      -9.488  10.169  67.670  1.00  0.00    -0.166 C  
HETATM   18  C   UNL     1      -8.039  10.025  68.573  1.00  0.00    -0.103 C  
HETATM   19  C   UNL     1      -9.438  11.312  66.616  1.00  0.00    -0.204 C  
HETATM   20  C   UNL     1     -10.972  11.672  66.245  1.00  0.00    -0.338 C  
HETATM   21  C   UNL     1      -7.639  11.377  69.167  1.00  0.00    -0.038 C  
HETATM   22  C   UNL     1      -7.571  12.467  68.110  1.00  0.00    -0.127 C  
HETATM   23  C   UNL     1      -8.817  12.582  67.264  1.00  0.00    -0.195 C  
ENDROOT
BRANCH   4  24
HETATM   24  C   UNL     1      -8.411   5.965  67.512  1.00  0.00    -0.103 C  
HETATM   25  O   UNL     1      -9.391   5.208  67.623  1.00  0.00    -0.115 OA 
BRANCH  24  26
HETATM   26  C   UNL     1      -7.165   5.317  66.703  1.00  0.00    -0.077 C  
BRANCH  26  27
HETATM   27  O   UNL     1      -7.481   3.930  66.288  1.00  0.00    -0.081 OA 
BRANCH  27  28
HETATM   28  C   UNL     1      -6.930   2.760  66.732  1.00  0.00    -0.049 C  
HETATM   29  C   UNL     1      -7.440   2.234  68.065  1.00  0.00    -0.055 C  
HETATM   30  O   UNL     1      -6.097   2.132  66.120  1.00  0.00    -0.022 OA 
ENDBRANCH  27  28
ENDBRANCH  26  27
ENDBRANCH  24  26
ENDBRANCH   4  24
TORSDOF 4
ENDMDL
MODEL      116
REMARK 921   NORMALIZED FREE ENERGY PREDICTED BY IDOCK:   -3.53 KCAL/MOL
REMARK 922        TOTAL FREE ENERGY PREDICTED BY IDOCK:   -3.93 KCAL/MOL
REMARK 923 INTER-LIGAND FREE ENERGY PREDICTED BY IDOCK:   -4.19 KCAL/MOL
REMARK 924 INTRA-LIGAND FREE ENERGY PREDICTED BY IDOCK:    0.26 KCAL/MOL
REMARK 927      BINDING AFFINITY PREDICTED BY RF-SCORE:    0.00 PKD
ROOT
HETATM    1  C   UNL     1     -10.892   6.688  68.271  1.00  0.00    -0.322 C  
HETATM    2  C   UNL     1     -10.720   5.727  69.297  1.00  0.00    -0.386 C  
HETATM    3  C   UNL     1      -9.533   6.601  69.007  1.00  0.00    -0.131 C  
HETATM    4  C   UNL     1      -9.814   8.351  67.913  1.00  0.00    -0.170 C  
HETATM    5  O   UNL     1      -5.628   3.844  63.523  1.00  0.00    -0.012 OA 
HETATM    6  O   UNL     1     -11.194   8.681  67.463  1.00  0.00    -0.370 OA 
HETATM    7  C   UNL     1      -9.932   8.050  69.245  1.00  0.00    -0.191 C  
HETATM    8  C   UNL     1     -10.748   8.648  70.347  1.00  0.00    -0.248 C  
HETATM    9  C   UNL     1      -8.032   8.066  69.090  1.00  0.00    -0.114 C  
HETATM   10  C   UNL     1      -6.217   3.608  64.569  1.00  0.00    -0.023 C  
HETATM   11  C   UNL     1      -7.650   3.276  64.657  1.00  0.00    -0.077 C  
HETATM   12  H   UNL     1     -11.322   9.480  66.964  1.00  0.00     0.000 HD 
HETATM   13  C   UNL     1      -7.551   7.478  67.568  1.00  0.00    -0.113 C  
HETATM   14  C   UNL     1      -5.581   3.866  65.927  1.00  0.00    -0.018 C  
HETATM   15  O   UNL     1      -6.676   8.110  66.969  1.00  0.00    -0.062 OA 
HETATM   16  C   UNL     1      -7.786   6.671  64.513  1.00  0.00    -0.112 C  
HETATM   17  C   UNL     1      -8.270   6.123  66.874  1.00  0.00    -0.106 C  
HETATM   18  C   UNL     1      -9.980   6.172  66.779  1.00  0.00    -0.218 C  
HETATM   19  C   UNL     1      -7.604   5.584  65.576  1.00  0.00    -0.079 C  
HETATM   20  C   UNL     1      -6.114   5.099  65.983  1.00  0.00    -0.030 C  
HETATM   21  C   UNL     1     -10.533   4.816  66.336  1.00  0.00    -0.283 C  
HETATM   22  C   UNL     1      -9.884   4.327  65.051  1.00  0.00    -0.198 C  
HETATM   23  C   UNL     1      -8.373   4.324  65.088  1.00  0.00    -0.114 C  
ENDROOT
BRANCH   4  24
HETATM   24  C   UNL     1      -9.411  10.110  68.162  1.00  0.00    -0.142 C  
HETATM   25  O   UNL     1      -9.819  10.763  69.139  1.00  0.00    -0.209 OA 
BRANCH  24  26
HETATM   26  C   UNL     1      -8.619  10.998  67.061  1.00  0.00    -0.140 C  
BRANCH  26  27
HETATM   27  O   UNL     1      -7.450  11.667  67.677  1.00  0.00    -0.103 OA 
BRANCH  27  28
HETATM   28  C   UNL     1      -6.161  11.219  67.771  1.00  0.00    -0.048 C  
HETATM   29  C   UNL     1      -5.307  11.347  66.519  1.00  0.00    -0.132 C  
HETATM   30  O   UNL     1      -5.679  10.761  68.781  1.00  0.00    -0.041 OA 
ENDBRANCH  27  28
ENDBRANCH  26  27
ENDBRANCH  24  26
ENDBRANCH   4  24
TORSDOF 4
ENDMDL
MODEL      117
REMARK 921   NORMALIZED FREE ENERGY PREDICTED BY IDOCK:   -3.50 KCAL/MOL
REMARK 922        TOTAL FREE ENERGY PREDICTED BY IDOCK:   -3.90 KCAL/MOL
REMARK 923 INTER-LIGAND FREE ENERGY PREDICTED BY IDOCK:   -4.62 KCAL/MOL
REMARK 924 INTRA-LIGAND FREE ENERGY PREDICTED BY IDOCK:    0.72 KCAL/MOL
REMARK 927      BINDING AFFINITY PREDICTED BY RF-SCORE:    0.00 PKD
ROOT
HETATM    1  C   UNL     1      -7.395  11.056  68.285  1.00  0.00    -0.088 C  
HETATM    2  C   UNL     1      -8.149  11.092  69.482  1.00  0.00     0.179 C  
HETATM    3  C   UNL     1      -8.772  10.351  68.333  1.00  0.00    -0.129 C  
HETATM    4  C   UNL     1      -7.571   9.794  66.725  1.00  0.00    -0.095 C  
HETATM    5  O   UNL     1     -12.378  14.947  63.999  1.00  0.00    -0.713 OA 
HETATM    6  O   UNL     1      -6.125  10.144  66.778  1.00  0.00    -0.057 OA 
HETATM    7  C   UNL     1      -7.844   9.212  67.935  1.00  0.00    -0.100 C  
HETATM    8  C   UNL     1      -7.073   8.262  68.797  1.00  0.00    -0.071 C  
HETATM    9  C   UNL     1      -9.489   8.863  67.037  1.00  0.00    -0.215 C  
HETATM   10  C   UNL     1     -12.154  14.603  65.152  1.00  0.00    -0.308 C  
HETATM   11  C   UNL     1     -11.045  15.123  65.970  1.00  0.00    -0.312 C  
HETATM   12  H   UNL     1      -5.577   9.890  66.044  1.00  0.00     0.000 HD 
HETATM   13  C   UNL     1      -9.881  10.145  65.989  1.00  0.00    -0.246 C  
HETATM   14  C   UNL     1     -12.861  13.416  65.789  1.00  0.00    -0.245 C  
HETATM   15  O   UNL     1     -10.273   9.848  64.857  1.00  0.00    -0.176 OA 
HETATM   16  C   UNL     1      -9.447  12.711  64.183  1.00  0.00     0.481 C  
HETATM   17  C   UNL     1      -9.694  11.754  66.448  1.00  0.00    -0.234 C  
HETATM   18  C   UNL     1      -8.143  12.166  67.047  1.00  0.00    -0.154 C  
HETATM   19  C   UNL     1     -10.271  12.816  65.469  1.00  0.00    -0.293 C  
HETATM   20  C   UNL     1     -11.872  12.583  65.418  1.00  0.00    -0.479 C  
HETATM   21  C   UNL     1      -8.151  13.582  67.628  1.00  0.00    -0.180 C  
HETATM   22  C   UNL     1      -8.693  14.602  66.641  1.00  0.00    -0.197 C  
HETATM   23  C   UNL     1     -10.038  14.237  66.056  1.00  0.00    -0.333 C  
ENDROOT
BRANCH   4  24
HETATM   24  C   UNL     1      -7.222   8.234  65.851  1.00  0.00    -0.072 C  
HETATM   25  O   UNL     1      -7.275   8.130  64.613  1.00  0.00    -0.077 OA 
BRANCH  24  26
HETATM   26  C   UNL     1      -6.962   6.831  66.621  1.00  0.00    -0.066 C  
BRANCH  26  27
HETATM   27  O   UNL     1      -7.810   5.760  66.048  1.00  0.00    -0.097 OA 
BRANCH  27  28
HETATM   28  C   UNL     1      -8.599   4.854  66.701  1.00  0.00    -0.109 C  
HETATM   29  C   UNL     1      -9.301   5.348  67.956  1.00  0.00    -0.127 C  
HETATM   30  O   UNL     1      -8.775   3.719  66.323  1.00  0.00    -0.111 OA 
ENDBRANCH  27  28
ENDBRANCH  26  27
ENDBRANCH  24  26
ENDBRANCH   4  24
TORSDOF 4
ENDMDL
MODEL      118
REMARK 921   NORMALIZED FREE ENERGY PREDICTED BY IDOCK:   -3.49 KCAL/MOL
REMARK 922        TOTAL FREE ENERGY PREDICTED BY IDOCK:   -3.88 KCAL/MOL
REMARK 923 INTER-LIGAND FREE ENERGY PREDICTED BY IDOCK:   -4.41 KCAL/MOL
REMARK 924 INTRA-LIGAND FREE ENERGY PREDICTED BY IDOCK:    0.53 KCAL/MOL
REMARK 927      BINDING AFFINITY PREDICTED BY RF-SCORE:    0.00 PKD
ROOT
HETATM    1  C   UNL     1      -9.883  10.101  64.530  1.00  0.00    -0.334 C  
HETATM    2  C   UNL     1      -9.784  10.949  63.400  1.00  0.00    -0.392 C  
HETATM    3  C   UNL     1      -8.504  10.683  64.138  1.00  0.00    -0.063 C  
HETATM    4  C   UNL     1      -8.421   9.082  65.469  1.00  0.00    -0.144 C  
HETATM    5  O   UNL     1      -7.771  15.303  69.709  1.00  0.00    -0.204 OA 
HETATM    6  O   UNL     1      -9.641   8.246  65.634  1.00  0.00    -0.437 OA 
HETATM    7  C   UNL     1      -8.235   9.185  64.115  1.00  0.00    -0.162 C  
HETATM    8  C   UNL     1      -8.394   8.203  62.996  1.00  0.00    -0.040 C  
HETATM    9  C   UNL     1      -6.612   9.980  64.718  1.00  0.00    -0.127 C  
HETATM   10  C   UNL     1      -8.061  15.176  68.527  1.00  0.00    -0.145 C  
HETATM   11  C   UNL     1      -9.415  14.867  68.034  1.00  0.00    -0.198 C  
HETATM   12  H   UNL     1      -9.603   7.516  66.241  1.00  0.00     0.000 HD 
HETATM   13  C   UNL     1      -6.870  10.851  66.157  1.00  0.00    -0.100 C  
HETATM   14  C   UNL     1      -6.997  15.087  67.443  1.00  0.00    -0.184 C  
HETATM   15  O   UNL     1      -6.046  10.700  67.063  1.00  0.00    -0.057 OA 
HETATM   16  C   UNL     1      -8.300  11.756  68.835  1.00  0.00     0.073 C  
HETATM   17  C   UNL     1      -8.219  11.835  66.366  1.00  0.00    -0.006 C  
HETATM   18  C   UNL     1      -9.727  11.083  66.058  1.00  0.00    -0.265 C  
HETATM   19  C   UNL     1      -8.229  12.719  67.646  1.00  0.00    -0.175 C  
HETATM   20  C   UNL     1      -6.983  13.744  67.516  1.00  0.00    -0.161 C  
HETATM   21  C   UNL     1     -10.856  12.117  66.069  1.00  0.00    -0.318 C  
HETATM   22  C   UNL     1     -10.858  12.946  67.343  1.00  0.00    -0.272 C  
HETATM   23  C   UNL     1      -9.525  13.579  67.668  1.00  0.00    -0.222 C  
ENDROOT
BRANCH   4  24
HETATM   24  C   UNL     1      -7.331   7.639  65.689  1.00  0.00    -0.073 C  
HETATM   25  O   UNL     1      -6.499   7.287  64.835  1.00  0.00    -0.037 OA 
BRANCH  24  26
HETATM   26  C   UNL     1      -7.462   6.618  66.942  1.00  0.00    -0.087 C  
BRANCH  26  27
HETATM   27  O   UNL     1      -6.618   7.071  68.072  1.00  0.00    -0.051 OA 
BRANCH  27  28
HETATM   28  C   UNL     1      -6.960   7.873  69.126  1.00  0.00    -0.057 C  
HETATM   29  C   UNL     1      -8.207   7.476  69.900  1.00  0.00    -0.131 C  
HETATM   30  O   UNL     1      -6.322   8.840  69.471  1.00  0.00    -0.042 OA 
ENDBRANCH  27  28
ENDBRANCH  26  27
ENDBRANCH  24  26
ENDBRANCH   4  24
TORSDOF 4
ENDMDL
MODEL      119
REMARK 921   NORMALIZED FREE ENERGY PREDICTED BY IDOCK:   -3.48 KCAL/MOL
REMARK 922        TOTAL FREE ENERGY PREDICTED BY IDOCK:   -3.87 KCAL/MOL
REMARK 923 INTER-LIGAND FREE ENERGY PREDICTED BY IDOCK:   -4.25 KCAL/MOL
REMARK 924 INTRA-LIGAND FREE ENERGY PREDICTED BY IDOCK:    0.37 KCAL/MOL
REMARK 927      BINDING AFFINITY PREDICTED BY RF-SCORE:    0.00 PKD
ROOT
HETATM    1  C   UNL     1     -10.650   9.578  69.132  1.00  0.00    -0.237 C  
HETATM    2  C   UNL     1     -10.182  10.163  70.332  1.00  0.00    -0.116 C  
HETATM    3  C   UNL     1      -9.126   9.679  69.379  1.00  0.00    -0.194 C  
HETATM    4  C   UNL     1      -9.657   9.285  67.404  1.00  0.00    -0.150 C  
HETATM    5  O   UNL     1      -7.827   2.596  70.403  1.00  0.00    -0.043 OA 
HETATM    6  O   UNL     1     -11.073   9.509  67.002  1.00  0.00    -0.185 OA 
HETATM    7  C   UNL     1      -9.286  10.428  68.064  1.00  0.00    -0.142 C  
HETATM    8  C   UNL     1      -9.572  11.876  67.817  1.00  0.00    -0.190 C  
HETATM    9  C   UNL     1      -7.592   9.562  67.951  1.00  0.00    -0.087 C  
HETATM   10  C   UNL     1      -7.993   3.685  70.936  1.00  0.00    -0.057 C  
HETATM   11  C   UNL     1      -9.308   4.227  71.320  1.00  0.00    -0.214 C  
HETATM   12  H   UNL     1     -11.315   9.329  66.101  1.00  0.00     0.000 HD 
HETATM   13  C   UNL     1      -7.772   7.875  68.083  1.00  0.00    -0.125 C  
HETATM   14  C   UNL     1      -6.871   4.707  71.045  1.00  0.00    -0.036 C  
HETATM   15  O   UNL     1      -7.141   7.176  67.286  1.00  0.00    -0.079 OA 
HETATM   16  C   UNL     1      -9.211   5.053  68.022  1.00  0.00    -0.139 C  
HETATM   17  C   UNL     1      -8.809   7.180  69.213  1.00  0.00    -0.136 C  
HETATM   18  C   UNL     1     -10.417   7.770  69.189  1.00  0.00    -0.219 C  
HETATM   19  C   UNL     1      -8.729   5.634  69.355  1.00  0.00    -0.109 C  
HETATM   20  C   UNL     1      -7.241   5.289  69.890  1.00  0.00    -0.063 C  
HETATM   21  C   UNL     1     -11.204   7.232  70.386  1.00  0.00    -0.302 C  
HETATM   22  C   UNL     1     -11.133   5.717  70.482  1.00  0.00    -0.280 C  
HETATM   23  C   UNL     1      -9.726   5.165  70.453  1.00  0.00    -0.270 C  
ENDROOT
BRANCH   4  24
HETATM   24  C   UNL     1      -9.049   9.816  65.771  1.00  0.00    -0.177 C  
HETATM   25  O   UNL     1      -9.085  11.000  65.391  1.00  0.00    -0.198 OA 
BRANCH  24  26
HETATM   26  C   UNL     1      -8.552   8.773  64.633  1.00  0.00    -0.113 C  
BRANCH  26  27
HETATM   27  O   UNL     1      -7.378   9.314  63.910  1.00  0.00    -0.098 OA 
BRANCH  27  28
HETATM   28  C   UNL     1      -6.092   9.453  64.353  1.00  0.00    -0.078 C  
HETATM   29  C   UNL     1      -5.278  10.575  63.728  1.00  0.00    -0.163 C  
HETATM   30  O   UNL     1      -5.596   8.758  65.209  1.00  0.00    -0.045 OA 
ENDBRANCH  27  28
ENDBRANCH  26  27
ENDBRANCH  24  26
ENDBRANCH   4  24
TORSDOF 4
ENDMDL
MODEL      120
REMARK 921   NORMALIZED FREE ENERGY PREDICTED BY IDOCK:   -3.38 KCAL/MOL
REMARK 922        TOTAL FREE ENERGY PREDICTED BY IDOCK:   -3.75 KCAL/MOL
REMARK 923 INTER-LIGAND FREE ENERGY PREDICTED BY IDOCK:   -4.17 KCAL/MOL
REMARK 924 INTRA-LIGAND FREE ENERGY PREDICTED BY IDOCK:    0.42 KCAL/MOL
REMARK 927      BINDING AFFINITY PREDICTED BY RF-SCORE:    0.00 PKD
ROOT
HETATM    1  C   UNL     1      -9.680  14.234  66.374  1.00  0.00    -0.315 C  
HETATM    2  C   UNL     1     -10.936  13.755  66.817  1.00  0.00    -0.307 C  
HETATM    3  C   UNL     1      -9.963  14.146  67.893  1.00  0.00    -0.231 C  
HETATM    4  C   UNL     1      -8.322  15.324  67.386  1.00  0.00    -0.181 C  
HETATM    5  O   UNL     1      -5.482   8.617  69.401  1.00  0.00    -0.034 OA 
HETATM    6  O   UNL     1      -8.176  15.748  65.967  1.00  0.00    -0.247 OA 
HETATM    7  C   UNL     1      -9.618  15.618  67.719  1.00  0.00    -0.209 C  
HETATM    8  C   UNL     1     -10.508  16.775  67.390  1.00  0.00    -0.310 C  
HETATM    9  C   UNL     1      -8.950  15.141  69.439  1.00  0.00    -0.176 C  
HETATM   10  C   UNL     1      -6.639   8.960  69.198  1.00  0.00    -0.047 C  
HETATM   11  C   UNL     1      -7.263   9.024  67.865  1.00  0.00    -0.080 C  
HETATM   12  H   UNL     1      -7.427  16.285  65.736  1.00  0.00     0.000 HD 
HETATM   13  C   UNL     1      -7.794  13.900  69.309  1.00  0.00     0.254 C  
HETATM   14  C   UNL     1      -7.493   9.590  70.288  1.00  0.00    -0.148 C  
HETATM   15  O   UNL     1      -6.757  14.023  69.966  1.00  0.00    -0.072 OA 
HETATM   16  C   UNL     1      -5.640  12.011  67.957  1.00  0.00    -0.052 C  
HETATM   17  C   UNL     1      -8.021  12.581  68.287  1.00  0.00    -0.153 C  
HETATM   18  C   UNL     1      -8.396  12.972  66.662  1.00  0.00     0.159 C  
HETATM   19  C   UNL     1      -6.982  11.431  68.413  1.00  0.00    -0.075 C  
HETATM   20  C   UNL     1      -7.130  10.828  69.907  1.00  0.00    -0.099 C  
HETATM   21  C   UNL     1      -8.790  11.715  65.884  1.00  0.00    -0.057 C  
HETATM   22  C   UNL     1      -7.743  10.619  66.001  1.00  0.00    -0.151 C  
HETATM   23  C   UNL     1      -7.355  10.290  67.424  1.00  0.00    -0.093 C  
ENDROOT
BRANCH   4  24
HETATM   24  C   UNL     1      -7.622  16.895  67.988  1.00  0.00    -0.179 C  
HETATM   25  O   UNL     1      -8.328  17.831  68.401  1.00  0.00    -0.279 OA 
BRANCH  24  26
HETATM   26  C   UNL     1      -6.043  17.250  67.895  1.00  0.00    -0.140 C  
BRANCH  26  27
HETATM   27  O   UNL     1      -5.730  17.886  66.593  1.00  0.00    -0.138 OA 
BRANCH  27  28
HETATM   28  C   UNL     1      -6.468  18.797  65.889  1.00  0.00    -0.235 C  
HETATM   29  C   UNL     1      -6.002  20.242  65.957  1.00  0.00    -0.205 C  
HETATM   30  O   UNL     1      -7.431  18.508  65.217  1.00  0.00    -0.366 OA 
ENDBRANCH  27  28
ENDBRANCH  26  27
ENDBRANCH  24  26
ENDBRANCH   4  24
TORSDOF 4
ENDMDL
MODEL      121
REMARK 921   NORMALIZED FREE ENERGY PREDICTED BY IDOCK:   -3.32 KCAL/MOL
REMARK 922        TOTAL FREE ENERGY PREDICTED BY IDOCK:   -3.68 KCAL/MOL
REMARK 923 INTER-LIGAND FREE ENERGY PREDICTED BY IDOCK:   -4.11 KCAL/MOL
REMARK 924 INTRA-LIGAND FREE ENERGY PREDICTED BY IDOCK:    0.43 KCAL/MOL
REMARK 927      BINDING AFFINITY PREDICTED BY RF-SCORE:    0.00 PKD
ROOT
HETATM    1  C   UNL     1      -7.379   9.785  65.776  1.00  0.00    -0.105 C  
HETATM    2  C   UNL     1      -6.412  10.785  65.513  1.00  0.00    -0.005 C  
HETATM    3  C   UNL     1      -7.213  10.958  66.771  1.00  0.00    -0.134 C  
HETATM    4  C   UNL     1      -8.275   9.331  67.521  1.00  0.00    -0.114 C  
HETATM    5  O   UNL     1     -13.490  14.346  65.340  1.00  0.00    -0.485 OA 
HETATM    6  O   UNL     1      -8.192   8.041  66.783  1.00  0.00    -0.108 OA 
HETATM    7  C   UNL     1      -6.978   9.748  67.664  1.00  0.00    -0.086 C  
HETATM    8  C   UNL     1      -5.708   9.015  67.964  1.00  0.00    -0.038 C  
HETATM    9  C   UNL     1      -7.847  11.033  68.772  1.00  0.00    -0.138 C  
HETATM   10  C   UNL     1     -12.281  14.327  65.152  1.00  0.00    -0.421 C  
HETATM   11  C   UNL     1     -11.622  13.568  64.074  1.00  0.00    -0.394 C  
HETATM   12  H   UNL     1      -8.677   7.299  67.125  1.00  0.00     0.000 HD 
HETATM   13  C   UNL     1      -9.376  11.431  68.139  1.00  0.00    -0.181 C  
HETATM   14  C   UNL     1     -11.300  14.898  66.165  1.00  0.00    -0.307 C  
HETATM   15  O   UNL     1     -10.319  11.482  68.933  1.00  0.00    -0.209 OA 
HETATM   16  C   UNL     1     -12.019  11.137  66.418  1.00  0.00     1.258 C  
HETATM   17  C   UNL     1      -9.613  11.693  66.493  1.00  0.00    -0.226 C  
HETATM   18  C   UNL     1      -9.051  10.442  65.466  1.00  0.00    -0.208 C  
HETATM   19  C   UNL     1     -11.010  12.238  66.081  1.00  0.00    -0.328 C  
HETATM   20  C   UNL     1     -11.160  13.700  66.760  1.00  0.00    -0.315 C  
HETATM   21  C   UNL     1      -9.121  10.878  64.001  1.00  0.00    -0.163 C  
HETATM   22  C   UNL     1     -10.504  11.378  63.620  1.00  0.00    -0.472 C  
HETATM   23  C   UNL     1     -11.047  12.446  64.541  1.00  0.00    -0.360 C  
ENDROOT
BRANCH   4  24
HETATM   24  C   UNL     1      -8.365   8.474  69.126  1.00  0.00    -0.120 C  
HETATM   25  O   UNL     1      -7.768   8.879  70.140  1.00  0.00    -0.069 OA 
BRANCH  24  26
HETATM   26  C   UNL     1      -9.102   7.043  69.323  1.00  0.00    -0.137 C  
BRANCH  26  27
HETATM   27  O   UNL     1      -8.373   5.979  68.593  1.00  0.00    -0.112 OA 
BRANCH  27  28
HETATM   28  C   UNL     1      -7.188   5.379  68.919  1.00  0.00    -0.066 C  
HETATM   29  C   UNL     1      -6.014   5.650  67.992  1.00  0.00    -0.017 C  
HETATM   30  O   UNL     1      -7.033   4.681  69.894  1.00  0.00    -0.046 OA 
ENDBRANCH  27  28
ENDBRANCH  26  27
ENDBRANCH  24  26
ENDBRANCH   4  24
TORSDOF 4
ENDMDL
MODEL      122
REMARK 921   NORMALIZED FREE ENERGY PREDICTED BY IDOCK:   -3.28 KCAL/MOL
REMARK 922        TOTAL FREE ENERGY PREDICTED BY IDOCK:   -3.63 KCAL/MOL
REMARK 923 INTER-LIGAND FREE ENERGY PREDICTED BY IDOCK:   -4.00 KCAL/MOL
REMARK 924 INTRA-LIGAND FREE ENERGY PREDICTED BY IDOCK:    0.37 KCAL/MOL
REMARK 927      BINDING AFFINITY PREDICTED BY RF-SCORE:    0.00 PKD
ROOT
HETATM    1  C   UNL     1      -9.918   6.388  68.573  1.00  0.00    -0.155 C  
HETATM    2  C   UNL     1     -11.086   6.071  67.839  1.00  0.00    -0.220 C  
HETATM    3  C   UNL     1      -9.914   6.557  67.035  1.00  0.00    -0.216 C  
HETATM    4  C   UNL     1      -8.024   6.559  67.911  1.00  0.00    -0.109 C  
HETATM    5  O   UNL     1      -9.794  13.828  66.854  1.00  0.00    -0.250 OA 
HETATM    6  O   UNL     1      -7.900   6.064  69.309  1.00  0.00    -0.099 OA 
HETATM    7  C   UNL     1      -8.750   5.601  67.253  1.00  0.00    -0.107 C  
HETATM    8  C   UNL     1      -8.742   4.106  67.316  1.00  0.00    -0.113 C  
HETATM    9  C   UNL     1      -8.242   6.686  65.771  1.00  0.00    -0.135 C  
HETATM   10  C   UNL     1     -10.481  12.821  66.748  1.00  0.00    -0.241 C  
HETATM   11  C   UNL     1     -11.148  12.151  67.877  1.00  0.00    -0.295 C  
HETATM   12  H   UNL     1      -7.038   6.065  69.709  1.00  0.00     0.000 HD 
HETATM   13  C   UNL     1      -8.187   8.326  66.221  1.00  0.00    -0.112 C  
HETATM   14  C   UNL     1     -10.526  12.010  65.461  1.00  0.00    -0.307 C  
HETATM   15  O   UNL     1      -7.212   8.982  65.846  1.00  0.00    -0.090 OA 
HETATM   16  C   UNL     1      -8.015  10.854  68.123  1.00  0.00    -0.117 C  
HETATM   17  C   UNL     1      -9.380   9.020  67.186  1.00  0.00    -0.184 C  
HETATM   18  C   UNL     1      -9.705   8.197  68.652  1.00  0.00    -0.158 C  
HETATM   19  C   UNL     1      -9.309  10.564  67.357  1.00  0.00    -0.158 C  
HETATM   20  C   UNL     1      -9.534  11.209  65.890  1.00  0.00    -0.241 C  
HETATM   21  C   UNL     1     -10.940   8.786  69.337  1.00  0.00    -0.046 C  
HETATM   22  C   UNL     1     -10.830  10.291  69.517  1.00  0.00    -0.292 C  
HETATM   23  C   UNL     1     -10.491  11.039  68.248  1.00  0.00    -0.212 C  
ENDROOT
BRANCH   4  24
HETATM   24  C   UNL     1      -6.392   5.882  67.466  1.00  0.00    -0.041 C  
HETATM   25  O   UNL     1      -6.037   5.701  66.288  1.00  0.00    -0.030 OA 
BRANCH  24  26
HETATM   26  C   UNL     1      -5.337   5.327  68.565  1.00  0.00    -0.007 C  
BRANCH  26  27
HETATM   27  O   UNL     1      -5.710   3.960  68.998  1.00  0.00    -0.020 OA 
BRANCH  27  28
HETATM   28  C   UNL     1      -5.799   3.462  70.268  1.00  0.00    -0.018 C  
HETATM   29  C   UNL     1      -5.454   4.420  71.397  1.00  0.00    -0.011 C  
HETATM   30  O   UNL     1      -6.150   2.333  70.525  1.00  0.00    -0.018 OA 
ENDBRANCH  27  28
ENDBRANCH  26  27
ENDBRANCH  24  26
ENDBRANCH   4  24
TORSDOF 4
ENDMDL
MODEL      123
REMARK 921   NORMALIZED FREE ENERGY PREDICTED BY IDOCK:   -2.71 KCAL/MOL
REMARK 922        TOTAL FREE ENERGY PREDICTED BY IDOCK:   -2.92 KCAL/MOL
REMARK 923 INTER-LIGAND FREE ENERGY PREDICTED BY IDOCK:   -3.99 KCAL/MOL
REMARK 924 INTRA-LIGAND FREE ENERGY PREDICTED BY IDOCK:    1.07 KCAL/MOL
REMARK 927      BINDING AFFINITY PREDICTED BY RF-SCORE:    0.00 PKD
ROOT
HETATM    1  C   UNL     1     -11.261  12.989  63.922  1.00  0.00    -0.434 C  
HETATM    2  C   UNL     1     -12.199  12.167  63.253  1.00  0.00    -0.533 C  
HETATM    3  C   UNL     1     -11.852  11.763  64.657  1.00  0.00    -0.203 C  
HETATM    4  C   UNL     1     -10.909  13.144  65.899  1.00  0.00    -0.273 C  
HETATM    5  O   UNL     1      -5.842   7.664  64.714  1.00  0.00    -0.037 OA 
HETATM    6  O   UNL     1     -10.619  14.496  65.349  1.00  0.00    -0.322 OA 
HETATM    7  C   UNL     1     -12.223  12.904  65.593  1.00  0.00    -0.519 C  
HETATM    8  C   UNL     1     -13.437  13.779  65.599  1.00  0.00     0.772 C  
HETATM    9  C   UNL     1     -11.884  11.410  66.727  1.00  0.00     0.337 C  
HETATM   10  C   UNL     1      -6.923   7.874  64.180  1.00  0.00    -0.069 C  
HETATM   11  C   UNL     1      -7.128   8.817  63.067  1.00  0.00    -0.089 C  
HETATM   12  H   UNL     1     -10.189  15.126  65.915  1.00  0.00     0.000 HD 
HETATM   13  C   UNL     1     -10.287  10.859  66.530  1.00  0.00    -0.247 C  
HETATM   14  C   UNL     1      -8.226   7.355  64.770  1.00  0.00    -0.060 C  
HETATM   15  O   UNL     1      -9.648  10.600  67.553  1.00  0.00    -0.159 OA 
HETATM   16  C   UNL     1      -7.223  10.935  65.725  1.00  0.00     0.014 C  
HETATM   17  C   UNL     1      -9.578  10.723  65.008  1.00  0.00    -0.305 C  
HETATM   18  C   UNL     1      -9.655  12.132  64.037  1.00  0.00     0.005 C  
HETATM   19  C   UNL     1      -8.189  10.025  64.960  1.00  0.00    -0.148 C  
HETATM   20  C   UNL     1      -8.415   8.499  65.451  1.00  0.00    -0.190 C  
HETATM   21  C   UNL     1      -9.180  11.831  62.615  1.00  0.00     0.330 C  
HETATM   22  C   UNL     1      -7.808  11.177  62.597  1.00  0.00     0.096 C  
HETATM   23  C   UNL     1      -7.696   9.960  63.487  1.00  0.00    -0.143 C  
ENDROOT
BRANCH   4  24
HETATM   24  C   UNL     1     -11.232  13.824  67.558  1.00  0.00    -0.294 C  
HETATM   25  O   UNL     1     -11.983  13.268  68.379  1.00  0.00    -0.340 OA 
BRANCH  24  26
HETATM   26  C   UNL     1     -10.690  15.275  68.038  1.00  0.00    -0.268 C  
BRANCH  26  27
HETATM   27  O   UNL     1     -10.777  15.400  69.511  1.00  0.00    -0.234 OA 
BRANCH  27  28
HETATM   28  C   UNL     1     -11.852  15.763  70.275  1.00  0.00    -0.350 C  
HETATM   29  C   UNL     1     -11.546  16.503  71.567  1.00  0.00    -0.167 C  
HETATM   30  O   UNL     1     -13.001  15.547  69.966  1.00  0.00    -0.159 OA 
ENDBRANCH  27  28
ENDBRANCH  26  27
ENDBRANCH  24  26
ENDBRANCH   4  24
TORSDOF 4
ENDMDL
MODEL      124
REMARK 921   NORMALIZED FREE ENERGY PREDICTED BY IDOCK:   -2.31 KCAL/MOL
REMARK 922        TOTAL FREE ENERGY PREDICTED BY IDOCK:   -2.42 KCAL/MOL
REMARK 923 INTER-LIGAND FREE ENERGY PREDICTED BY IDOCK:   -3.11 KCAL/MOL
REMARK 924 INTRA-LIGAND FREE ENERGY PREDICTED BY IDOCK:    0.69 KCAL/MOL
REMARK 927      BINDING AFFINITY PREDICTED BY RF-SCORE:    0.00 PKD
ROOT
HETATM    1  C   UNL     1      -8.602  11.197  66.335  1.00  0.00    -0.172 C  
HETATM    2  C   UNL     1      -7.550  12.133  66.480  1.00  0.00     0.268 C  
HETATM    3  C   UNL     1      -7.974  11.419  67.732  1.00  0.00    -0.119 C  
HETATM    4  C   UNL     1      -9.122   9.689  67.564  1.00  0.00    -0.130 C  
HETATM    5  O   UNL     1     -13.618  14.823  70.811  1.00  0.00    -0.301 OA 
HETATM    6  O   UNL     1      -9.475   9.213  66.200  1.00  0.00    -0.204 OA 
HETATM    7  C   UNL     1      -7.773   9.924  67.526  1.00  0.00    -0.091 C  
HETATM    8  C   UNL     1      -6.638   9.193  66.881  1.00  0.00    -0.068 C  
HETATM    9  C   UNL     1      -8.079  10.142  69.395  1.00  0.00    -0.163 C  
HETATM   10  C   UNL     1     -12.518  14.949  70.289  1.00  0.00    -0.336 C  
HETATM   11  C   UNL     1     -12.301  15.103  68.840  1.00  0.00    -0.021 C  
HETATM   12  H   UNL     1     -10.000   8.424  66.124  1.00  0.00     0.000 HD 
HETATM   13  C   UNL     1      -9.606  10.839  69.674  1.00  0.00     0.175 C  
HETATM   14  C   UNL     1     -11.229  14.719  71.064  1.00  0.00    -0.118 C  
HETATM   15  O   UNL     1     -10.301  10.339  70.562  1.00  0.00    -0.155 OA 
HETATM   16  C   UNL     1     -12.591  11.724  69.088  1.00  0.00     0.505 C  
HETATM   17  C   UNL     1     -10.177  12.122  68.745  1.00  0.00    -0.133 C  
HETATM   18  C   UNL     1     -10.137  11.873  67.051  1.00  0.00    -0.226 C  
HETATM   19  C   UNL     1     -11.497  12.785  69.232  1.00  0.00    -0.349 C  
HETATM   20  C   UNL     1     -11.188  13.429  70.685  1.00  0.00     0.976 C  
HETATM   21  C   UNL     1     -10.471  13.168  66.309  1.00  0.00    -0.291 C  
HETATM   22  C   UNL     1     -11.779  13.778  66.785  1.00  0.00    -0.420 C  
HETATM   23  C   UNL     1     -11.863  13.961  68.283  1.00  0.00    -0.412 C  
ENDROOT
BRANCH   4  24
HETATM   24  C   UNL     1      -8.989   7.983  68.189  1.00  0.00    -0.135 C  
HETATM   25  O   UNL     1      -7.900   7.456  68.481  1.00  0.00    -0.117 OA 
BRANCH  24  26
HETATM   26  C   UNL     1     -10.254   6.972  68.272  1.00  0.00    -0.182 C  
BRANCH  26  27
HETATM   27  O   UNL     1     -11.007   7.185  69.530  1.00  0.00    -0.238 OA 
BRANCH  27  28
HETATM   28  C   UNL     1     -10.720   6.724  70.785  1.00  0.00    -0.233 C  
HETATM   29  C   UNL     1      -9.518   7.347  71.477  1.00  0.00    -0.162 C  
HETATM   30  O   UNL     1     -11.374   5.885  71.359  1.00  0.00    -0.261 OA 
ENDBRANCH  27  28
ENDBRANCH  26  27
ENDBRANCH  24  26
ENDBRANCH   4  24
TORSDOF 4
ENDMDL
MODEL      125
REMARK 921   NORMALIZED FREE ENERGY PREDICTED BY IDOCK:   -2.28 KCAL/MOL
REMARK 922        TOTAL FREE ENERGY PREDICTED BY IDOCK:   -2.39 KCAL/MOL
REMARK 923 INTER-LIGAND FREE ENERGY PREDICTED BY IDOCK:   -3.37 KCAL/MOL
REMARK 924 INTRA-LIGAND FREE ENERGY PREDICTED BY IDOCK:    0.99 KCAL/MOL
REMARK 927      BINDING AFFINITY PREDICTED BY RF-SCORE:    0.00 PKD
ROOT
HETATM    1  C   UNL     1     -12.841  10.635  70.732  1.00  0.00    -0.439 C  
HETATM    2  C   UNL     1     -12.322  11.222  71.910  1.00  0.00     0.262 C  
HETATM    3  C   UNL     1     -11.308  10.727  70.920  1.00  0.00     0.060 C  
HETATM    4  C   UNL     1     -11.919  10.327  68.969  1.00  0.00     0.189 C  
HETATM    5  O   UNL     1     -10.019   3.639  71.927  1.00  0.00    -0.171 OA 
HETATM    6  O   UNL     1     -13.347  10.559  68.621  1.00  0.00     2.107 OA 
HETATM    7  C   UNL     1     -11.514  11.470  69.607  1.00  0.00    -0.373 C  
HETATM    8  C   UNL     1     -11.800  12.919  69.365  1.00  0.00    -0.371 C  
HETATM    9  C   UNL     1      -9.831  10.591  69.433  1.00  0.00    -0.205 C  
HETATM   10  C   UNL     1     -10.157   4.732  72.461  1.00  0.00    -0.181 C  
HETATM   11  C   UNL     1     -11.452   5.286  72.892  1.00  0.00    -0.339 C  
HETATM   12  H   UNL     1     -13.625  10.376  67.730  1.00  0.00     0.000 HD 
HETATM   13  C   UNL     1     -10.018   8.907  69.580  1.00  0.00    -0.191 C  
HETATM   14  C   UNL     1      -9.024   5.746  72.520  1.00  0.00    -0.133 C  
HETATM   15  O   UNL     1      -9.423   8.199  68.763  1.00  0.00    -0.147 OA 
HETATM   16  C   UNL     1     -11.478   6.095  69.590  1.00  0.00    -0.332 C  
HETATM   17  C   UNL     1     -11.015   8.225  70.754  1.00  0.00    -0.266 C  
HETATM   18  C   UNL     1     -12.618   8.826  70.789  1.00  0.00     0.128 C  
HETATM   19  C   UNL     1     -10.940   6.678  70.900  1.00  0.00    -0.315 C  
HETATM   20  C   UNL     1      -9.435   6.325  71.378  1.00  0.00    -0.167 C  
HETATM   21  C   UNL     1     -13.363   8.299  72.018  1.00  0.00    -0.336 C  
HETATM   22  C   UNL     1     -13.298   6.785  72.119  1.00  0.00     0.029 C  
HETATM   23  C   UNL     1     -11.897   6.222  72.038  1.00  0.00    -0.370 C  
ENDROOT
BRANCH   4  24
HETATM   24  C   UNL     1     -11.370  10.846  67.310  1.00  0.00    -0.151 C  
HETATM   25  O   UNL     1     -10.424  10.302  66.713  1.00  0.00    -0.234 OA 
BRANCH  24  26
HETATM   26  C   UNL     1     -11.970  12.146  66.549  1.00  0.00    -0.117 C  
BRANCH  26  27
HETATM   27  O   UNL     1     -10.891  13.115  66.248  1.00  0.00    -0.277 OA 
BRANCH  27  28
HETATM   28  C   UNL     1     -10.976  14.313  65.593  1.00  0.00    -0.309 C  
HETATM   29  C   UNL     1     -12.272  14.583  64.845  1.00  0.00    -0.409 C  
HETATM   30  O   UNL     1     -10.103  15.149  65.602  1.00  0.00    -0.312 OA 
ENDBRANCH  27  28
ENDBRANCH  26  27
ENDBRANCH  24  26
ENDBRANCH   4  24
TORSDOF 4
ENDMDL
MODEL      126
REMARK 921   NORMALIZED FREE ENERGY PREDICTED BY IDOCK:   -1.97 KCAL/MOL
REMARK 922        TOTAL FREE ENERGY PREDICTED BY IDOCK:   -2.01 KCAL/MOL
REMARK 923 INTER-LIGAND FREE ENERGY PREDICTED BY IDOCK:   -2.97 KCAL/MOL
REMARK 924 INTRA-LIGAND FREE ENERGY PREDICTED BY IDOCK:    0.96 KCAL/MOL
REMARK 927      BINDING AFFINITY PREDICTED BY RF-SCORE:    0.00 PKD
ROOT
HETATM    1  C   UNL     1     -10.157   7.099  69.029  1.00  0.00    -0.183 C  
HETATM    2  C   UNL     1     -11.432   6.671  68.589  1.00  0.00    -0.011 C  
HETATM    3  C   UNL     1     -10.681   7.575  67.654  1.00  0.00    -0.266 C  
HETATM    4  C   UNL     1      -8.636   7.846  67.941  1.00  0.00    -0.125 C  
HETATM    5  O   UNL     1     -11.812  14.546  69.396  1.00  0.00    -0.290 OA 
HETATM    6  O   UNL     1      -7.985   7.121  69.065  1.00  0.00    -0.116 OA 
HETATM    7  C   UNL     1      -9.370   6.898  67.278  1.00  0.00    -0.152 C  
HETATM    8  C   UNL     1      -9.098   5.467  66.934  1.00  0.00    -0.115 C  
HETATM    9  C   UNL     1      -9.556   8.352  66.060  1.00  0.00    -0.196 C  
HETATM   10  C   UNL     1     -12.323  13.448  69.219  1.00  0.00    -0.045 C  
HETATM   11  C   UNL     1     -12.468  12.422  70.266  1.00  0.00    -0.152 C  
HETATM   12  H   UNL     1      -7.052   7.245  69.197  1.00  0.00     0.000 HD 
HETATM   13  C   UNL     1      -9.626   9.830  66.898  1.00  0.00    -0.180 C  
HETATM   14  C   UNL     1     -12.652  12.930  67.827  1.00  0.00     0.920 C  
HETATM   15  O   UNL     1      -8.947  10.762  66.458  1.00  0.00    -0.150 OA 
HETATM   16  C   UNL     1      -9.257  11.884  69.282  1.00  0.00     0.649 C  
HETATM   17  C   UNL     1     -10.536  10.010  68.304  1.00  0.00    -0.264 C  
HETATM   18  C   UNL     1     -10.227   8.851  69.527  1.00  0.00    -0.204 C  
HETATM   19  C   UNL     1     -10.665  11.458  68.855  1.00  0.00    -0.248 C  
HETATM   20  C   UNL     1     -11.458  12.316  67.734  1.00  0.00    -0.392 C  
HETATM   21  C   UNL     1     -11.250   8.978  70.658  1.00  0.00    -0.318 C  
HETATM   22  C   UNL     1     -11.334  10.397  71.196  1.00  0.00    -0.102 C  
HETATM   23  C   UNL     1     -11.554  11.446  70.131  1.00  0.00    -0.368 C  
ENDROOT
BRANCH   4  24
HETATM   24  C   UNL     1      -7.150   7.682  66.899  1.00  0.00    -0.084 C  
HETATM   25  O   UNL     1      -5.999   7.647  67.368  1.00  0.00    -0.044 OA 
BRANCH  24  26
HETATM   26  C   UNL     1      -7.201   7.718  65.279  1.00  0.00    -0.068 C  
BRANCH  26  27
HETATM   27  O   UNL     1      -6.156   8.623  64.747  1.00  0.00    -0.063 OA 
BRANCH  27  28
HETATM   28  C   UNL     1      -6.309   9.815  64.093  1.00  0.00    -0.118 C  
HETATM   29  C   UNL     1      -7.724  10.179  63.672  1.00  0.00    -0.142 C  
HETATM   30  O   UNL     1      -5.400  10.577  63.862  1.00  0.00    -0.142 OA 
ENDBRANCH  27  28
ENDBRANCH  26  27
ENDBRANCH  24  26
ENDBRANCH   4  24
TORSDOF 4
ENDMDL
MODEL      127
REMARK 921   NORMALIZED FREE ENERGY PREDICTED BY IDOCK:   -1.90 KCAL/MOL
REMARK 922        TOTAL FREE ENERGY PREDICTED BY IDOCK:   -1.92 KCAL/MOL
REMARK 923 INTER-LIGAND FREE ENERGY PREDICTED BY IDOCK:   -2.98 KCAL/MOL
REMARK 924 INTRA-LIGAND FREE ENERGY PREDICTED BY IDOCK:    1.06 KCAL/MOL
REMARK 927      BINDING AFFINITY PREDICTED BY RF-SCORE:    0.00 PKD
ROOT
HETATM    1  C   UNL     1      -9.162   9.925  65.729  1.00  0.00    -0.228 C  
HETATM    2  C   UNL     1     -10.533   9.640  65.523  1.00  0.00     0.400 C  
HETATM    3  C   UNL     1      -9.941   9.135  66.807  1.00  0.00    -0.322 C  
HETATM    4  C   UNL     1      -8.121   9.916  67.452  1.00  0.00    -0.113 C  
HETATM    5  O   UNL     1      -6.760   2.675  65.773  1.00  0.00    -0.040 OA 
HETATM    6  O   UNL     1      -7.472  10.962  66.616  1.00  0.00    -0.126 OA 
HETATM    7  C   UNL     1      -9.420  10.326  67.599  1.00  0.00    -0.169 C  
HETATM    8  C   UNL     1     -10.036  11.673  67.816  1.00  0.00    -0.191 C  
HETATM    9  C   UNL     1      -9.410   8.863  68.820  1.00  0.00    -0.137 C  
HETATM   10  C   UNL     1      -7.747   3.367  65.559  1.00  0.00    -0.081 C  
HETATM   11  C   UNL     1      -7.883   4.282  64.412  1.00  0.00    -0.085 C  
HETATM   12  H   UNL     1      -6.642  11.318  66.910  1.00  0.00     0.000 HD 
HETATM   13  C   UNL     1      -8.399   7.617  68.253  1.00  0.00    -0.125 C  
HETATM   14  C   UNL     1      -8.851   3.536  66.591  1.00  0.00    -0.139 C  
HETATM   15  O   UNL     1      -7.633   7.097  69.068  1.00  0.00    -0.096 OA 
HETATM   16  C   UNL     1      -6.107   6.220  66.570  1.00  0.00    -0.029 C  
HETATM   17  C   UNL     1      -8.398   7.144  66.637  1.00  0.00    -0.114 C  
HETATM   18  C   UNL     1      -8.173   8.410  65.505  1.00  0.00    -0.140 C  
HETATM   19  C   UNL     1      -7.573   5.870  66.298  1.00  0.00    -0.094 C  
HETATM   20  C   UNL     1      -8.266   4.640  67.089  1.00  0.00    -0.105 C  
HETATM   21  C   UNL     1      -8.403   7.904  64.080  1.00  0.00     0.063 C  
HETATM   22  C   UNL     1      -7.563   6.677  63.767  1.00  0.00    -0.104 C  
HETATM   23  C   UNL     1      -7.703   5.563  64.779  1.00  0.00    -0.092 C  
ENDROOT
BRANCH   4  24
HETATM   24  C   UNL     1      -7.515  10.686  68.988  1.00  0.00    -0.117 C  
HETATM   25  O   UNL     1      -7.714  10.193  70.112  1.00  0.00    -0.165 OA 
BRANCH  24  26
HETATM   26  C   UNL     1      -6.805  12.143  69.024  1.00  0.00    -0.098 C  
BRANCH  26  27
HETATM   27  O   UNL     1      -7.446  13.058  68.051  1.00  0.00    -0.106 OA 
BRANCH  27  28
HETATM   28  C   UNL     1      -7.133  14.358  67.766  1.00  0.00    -0.176 C  
HETATM   29  C   UNL     1      -5.963  14.956  68.532  1.00  0.00    -0.095 C  
HETATM   30  O   UNL     1      -7.713  15.025  66.940  1.00  0.00    -0.152 OA 
ENDBRANCH  27  28
ENDBRANCH  26  27
ENDBRANCH  24  26
ENDBRANCH   4  24
TORSDOF 4
ENDMDL
MODEL      128
REMARK 921   NORMALIZED FREE ENERGY PREDICTED BY IDOCK:   -1.77 KCAL/MOL
REMARK 922        TOTAL FREE ENERGY PREDICTED BY IDOCK:   -1.77 KCAL/MOL
REMARK 923 INTER-LIGAND FREE ENERGY PREDICTED BY IDOCK:   -2.56 KCAL/MOL
REMARK 924 INTRA-LIGAND FREE ENERGY PREDICTED BY IDOCK:    0.79 KCAL/MOL
REMARK 927      BINDING AFFINITY PREDICTED BY RF-SCORE:    0.00 PKD
ROOT
HETATM    1  C   UNL     1     -10.900   9.878  70.241  1.00  0.00    -0.367 C  
HETATM    2  C   UNL     1     -12.251  10.173  69.936  1.00  0.00    -0.050 C  
HETATM    3  C   UNL     1     -11.648   9.010  69.201  1.00  0.00     0.676 C  
HETATM    4  C   UNL     1      -9.882   8.171  69.919  1.00  0.00    -0.186 C  
HETATM    5  O   UNL     1      -8.102  11.306  63.279  1.00  0.00     0.286 OA 
HETATM    6  O   UNL     1      -9.282   8.751  71.151  1.00  0.00    -0.192 OA 
HETATM    7  C   UNL     1     -11.204   7.972  70.222  1.00  0.00    -0.192 C  
HETATM    8  C   UNL     1     -11.896   7.491  71.458  1.00  0.00    -0.324 C  
HETATM    9  C   UNL     1     -11.129   7.087  68.535  1.00  0.00    -0.071 C  
HETATM   10  C   UNL     1      -9.123  11.394  63.949  1.00  0.00     0.085 C  
HETATM   11  C   UNL     1      -9.294  12.324  65.078  1.00  0.00     0.259 C  
HETATM   12  H   UNL     1      -8.476   8.368  71.478  1.00  0.00     0.000 HD 
HETATM   13  C   UNL     1     -10.044   7.880  67.491  1.00  0.00    -0.213 C  
HETATM   14  C   UNL     1     -10.248  10.376  63.838  1.00  0.00    -0.050 C  
HETATM   15  O   UNL     1      -9.261   7.175  66.850  1.00  0.00    -0.136 OA 
HETATM   16  C   UNL     1      -7.657   9.763  66.602  1.00  0.00    -0.098 C  
HETATM   17  C   UNL     1      -9.996   9.559  67.373  1.00  0.00    -0.241 C  
HETATM   18  C   UNL     1      -9.826  10.392  68.860  1.00  0.00    -0.206 C  
HETATM   19  C   UNL     1      -9.097  10.139  66.243  1.00  0.00    -0.180 C  
HETATM   20  C   UNL     1      -9.731   9.642  64.840  1.00  0.00    -0.174 C  
HETATM   21  C   UNL     1     -10.009  11.897  68.657  1.00  0.00    -0.163 C  
HETATM   22  C   UNL     1      -9.099  12.441  67.568  1.00  0.00    -0.185 C  
HETATM   23  C   UNL     1      -9.189  11.691  66.259  1.00  0.00    -0.225 C  
ENDROOT
BRANCH   4  24
HETATM   24  C   UNL     1      -9.341   6.492  70.376  1.00  0.00    -0.162 C  
HETATM   25  O   UNL     1      -9.134   6.148  71.554  1.00  0.00    -0.143 OA 
BRANCH  24  26
HETATM   26  C   UNL     1      -8.944   5.364  69.281  1.00  0.00    -0.104 C  
BRANCH  26  27
HETATM   27  O   UNL     1      -7.472   5.269  69.144  1.00  0.00    -0.067 OA 
BRANCH  27  28
HETATM   28  C   UNL     1      -6.719   5.259  68.002  1.00  0.00    -0.055 C  
HETATM   29  C   UNL     1      -7.138   4.273  66.923  1.00  0.00    -0.067 C  
HETATM   30  O   UNL     1      -5.778   5.994  67.810  1.00  0.00    -0.011 OA 
ENDBRANCH  27  28
ENDBRANCH  26  27
ENDBRANCH  24  26
ENDBRANCH   4  24
TORSDOF 4
ENDMDL
MODEL      129
REMARK 921   NORMALIZED FREE ENERGY PREDICTED BY IDOCK:   -1.44 KCAL/MOL
REMARK 922        TOTAL FREE ENERGY PREDICTED BY IDOCK:   -1.36 KCAL/MOL
REMARK 923 INTER-LIGAND FREE ENERGY PREDICTED BY IDOCK:   -4.00 KCAL/MOL
REMARK 924 INTRA-LIGAND FREE ENERGY PREDICTED BY IDOCK:    2.64 KCAL/MOL
REMARK 927      BINDING AFFINITY PREDICTED BY RF-SCORE:    0.00 PKD
ROOT
HETATM    1  C   UNL     1      -9.911  14.735  65.295  1.00  0.00    -0.235 C  
HETATM    2  C   UNL     1     -11.229  14.816  64.785  1.00  0.00    -0.392 C  
HETATM    3  C   UNL     1     -11.062  15.155  66.239  1.00  0.00    -0.309 C  
HETATM    4  C   UNL     1      -9.155  15.570  66.964  1.00  0.00    -0.230 C  
HETATM    5  O   UNL     1     -11.252   9.119  70.295  1.00  0.00    -0.245 OA 
HETATM    6  O   UNL     1      -8.017  15.525  66.006  1.00  0.00     0.013 OA 
HETATM    7  C   UNL     1     -10.111  16.337  66.352  1.00  0.00    -0.318 C  
HETATM    8  C   UNL     1     -10.030  17.582  65.525  1.00  0.00     0.245 C  
HETATM    9  C   UNL     1     -10.904  16.158  68.076  1.00  0.00    -0.333 C  
HETATM   10  C   UNL     1     -11.768   9.742  69.377  1.00  0.00     0.226 C  
HETATM   11  C   UNL     1     -11.352   9.637  67.968  1.00  0.00     0.186 C  
HETATM   12  H   UNL     1      -7.146  15.714  66.338  1.00  0.00     0.000 HD 
HETATM   13  C   UNL     1     -10.560  14.629  68.737  1.00  0.00    -0.248 C  
HETATM   14  C   UNL     1     -12.746  10.880  69.627  1.00  0.00     0.076 C  
HETATM   15  O   UNL     1     -10.208  14.591  69.919  1.00  0.00     0.090 OA 
HETATM   16  C   UNL     1      -9.068  11.864  69.144  1.00  0.00     0.453 C  
HETATM   17  C   UNL     1     -10.641  13.225  67.811  1.00  0.00    -0.249 C  
HETATM   18  C   UNL     1      -9.743  13.259  66.353  1.00  0.00    -0.279 C  
HETATM   19  C   UNL     1     -10.494  11.885  68.586  1.00  0.00    -0.231 C  
HETATM   20  C   UNL     1     -11.754  11.788  69.597  1.00  0.00    -0.413 C  
HETATM   21  C   UNL     1     -10.059  12.030  65.498  1.00  0.00    -0.281 C  
HETATM   22  C   UNL     1      -9.879  10.735  66.272  1.00  0.00    -0.262 C  
HETATM   23  C   UNL     1     -10.619  10.698  67.589  1.00  0.00    -0.288 C  
ENDROOT
BRANCH   4  24
HETATM   24  C   UNL     1      -8.394  16.940  67.894  1.00  0.00    -0.198 C  
HETATM   25  O   UNL     1      -8.228  16.906  69.126  1.00  0.00    -0.193 OA 
BRANCH  24  26
HETATM   26  C   UNL     1      -8.014  18.362  67.216  1.00  0.00    -0.236 C  
BRANCH  26  27
HETATM   27  O   UNL     1      -9.210  19.233  67.131  1.00  0.00    -0.291 OA 
BRANCH  27  28
HETATM   28  C   UNL     1     -10.134  19.511  68.099  1.00  0.00    -0.429 C  
HETATM   29  C   UNL     1     -11.508  19.949  67.618  1.00  0.00     0.777 C  
HETATM   30  O   UNL     1      -9.919  19.406  69.285  1.00  0.00    -0.404 OA 
ENDBRANCH  27  28
ENDBRANCH  26  27
ENDBRANCH  24  26
ENDBRANCH   4  24
TORSDOF 4
ENDMDL
MODEL      130
REMARK 921   NORMALIZED FREE ENERGY PREDICTED BY IDOCK:   -1.26 KCAL/MOL
REMARK 922        TOTAL FREE ENERGY PREDICTED BY IDOCK:   -1.14 KCAL/MOL
REMARK 923 INTER-LIGAND FREE ENERGY PREDICTED BY IDOCK:   -1.71 KCAL/MOL
REMARK 924 INTRA-LIGAND FREE ENERGY PREDICTED BY IDOCK:    0.58 KCAL/MOL
REMARK 927      BINDING AFFINITY PREDICTED BY RF-SCORE:    0.00 PKD
ROOT
HETATM    1  C   UNL     1      -5.770  14.032  67.870  1.00  0.00    -0.116 C  
HETATM    2  C   UNL     1      -5.244  14.343  69.147  1.00  0.00    -0.078 C  
HETATM    3  C   UNL     1      -6.636  13.779  69.127  1.00  0.00    -0.112 C  
HETATM    4  C   UNL     1      -7.309  12.820  67.404  1.00  0.00    -0.134 C  
HETATM    5  O   UNL     1     -11.509  19.069  68.041  1.00  0.00     0.428 OA 
HETATM    6  O   UNL     1      -6.375  12.718  66.250  1.00  0.00     0.471 OA 
HETATM    7  C   UNL     1      -6.587  12.397  68.490  1.00  0.00    -0.073 C  
HETATM    8  C   UNL     1      -5.591  11.295  68.674  1.00  0.00    -0.042 C  
HETATM    9  C   UNL     1      -8.313  12.525  69.288  1.00  0.00     0.804 C  
HETATM   10  C   UNL     1     -10.508  18.721  68.652  1.00  0.00    -0.061 C  
HETATM   11  C   UNL     1      -9.131  18.914  68.166  1.00  0.00    -0.351 C  
HETATM   12  H   UNL     1      -6.683  12.281  65.464  1.00  0.00     0.000 HD 
HETATM   13  C   UNL     1      -9.187  13.822  68.618  1.00  0.00    -0.069 C  
HETATM   14  C   UNL     1     -10.586  17.830  69.883  1.00  0.00     0.834 C  
HETATM   15  O   UNL     1     -10.365  13.612  68.315  1.00  0.00    -0.237 OA 
HETATM   16  C   UNL     1      -9.995  16.062  66.528  1.00  0.00    -0.293 C  
HETATM   17  C   UNL     1      -8.470  15.316  68.324  1.00  0.00    -0.154 C  
HETATM   18  C   UNL     1      -7.028  15.265  67.400  1.00  0.00    -0.212 C  
HETATM   19  C   UNL     1      -9.429  16.463  67.893  1.00  0.00    -0.223 C  
HETATM   20  C   UNL     1     -10.434  16.722  69.135  1.00  0.00    -0.343 C  
HETATM   21  C   UNL     1      -6.355  16.639  67.378  1.00  0.00    -0.200 C  
HETATM   22  C   UNL     1      -7.307  17.735  66.927  1.00  0.00    -0.229 C  
HETATM   23  C   UNL     1      -8.610  17.769  67.691  1.00  0.00    -0.230 C  
ENDROOT
BRANCH   4  24
HETATM   24  C   UNL     1      -8.040  11.193  67.031  1.00  0.00    -0.148 C  
HETATM   25  O   UNL     1      -8.890  10.654  67.762  1.00  0.00    -0.131 OA 
BRANCH  24  26
HETATM   26  C   UNL     1      -7.534  10.259  65.807  1.00  0.00    -0.144 C  
BRANCH  26  27
HETATM   27  O   UNL     1      -8.260  10.599  64.561  1.00  0.00    -0.118 OA 
BRANCH  27  28
HETATM   28  C   UNL     1      -8.249   9.944  63.360  1.00  0.00    -0.161 C  
HETATM   29  C   UNL     1      -9.309  10.359  62.353  1.00  0.00    -0.294 C  
HETATM   30  O   UNL     1      -7.443   9.091  63.066  1.00  0.00    -0.099 OA 
ENDBRANCH  27  28
ENDBRANCH  26  27
ENDBRANCH  24  26
ENDBRANCH   4  24
TORSDOF 4
ENDMDL
MODEL      131
REMARK 921   NORMALIZED FREE ENERGY PREDICTED BY IDOCK:   -1.09 KCAL/MOL
REMARK 922        TOTAL FREE ENERGY PREDICTED BY IDOCK:   -0.92 KCAL/MOL
REMARK 923 INTER-LIGAND FREE ENERGY PREDICTED BY IDOCK:   -1.70 KCAL/MOL
REMARK 924 INTRA-LIGAND FREE ENERGY PREDICTED BY IDOCK:    0.78 KCAL/MOL
REMARK 927      BINDING AFFINITY PREDICTED BY RF-SCORE:    0.00 PKD
ROOT
HETATM    1  C   UNL     1      -9.905  16.232  69.764  1.00  0.00     0.015 C  
HETATM    2  C   UNL     1     -10.269  17.423  69.092  1.00  0.00    -0.273 C  
HETATM    3  C   UNL     1     -11.375  16.435  69.328  1.00  0.00    -0.225 C  
HETATM    4  C   UNL     1     -11.089  14.918  70.726  1.00  0.00    -0.120 C  
HETATM    5  O   UNL     1     -11.520  11.464  64.019  1.00  0.00    -0.318 OA 
HETATM    6  O   UNL     1      -9.793  14.873  71.455  1.00  0.00     0.869 OA 
HETATM    7  C   UNL     1     -11.515  16.217  70.828  1.00  0.00    -0.408 C  
HETATM    8  C   UNL     1     -11.471  17.210  71.946  1.00  0.00     0.994 C  
HETATM    9  C   UNL     1     -13.071  15.433  70.055  1.00  0.00     0.126 C  
HETATM   10  C   UNL     1     -11.430  12.653  64.294  1.00  0.00    -0.363 C  
HETATM   11  C   UNL     1     -10.161  13.342  64.587  1.00  0.00    -0.256 C  
HETATM   12  H   UNL     1      -9.662  14.181  72.092  1.00  0.00     0.000 HD 
HETATM   13  C   UNL     1     -12.642  14.190  68.976  1.00  0.00     0.321 C  
HETATM   14  C   UNL     1     -12.654  13.503  64.600  1.00  0.00    -0.303 C  
HETATM   15  O   UNL     1     -13.280  13.136  69.046  1.00  0.00     1.735 OA 
HETATM   16  C   UNL     1     -10.851  11.958  67.616  1.00  0.00    -0.271 C  
HETATM   17  C   UNL     1     -11.366  14.359  67.891  1.00  0.00    -0.322 C  
HETATM   18  C   UNL     1      -9.875  14.840  68.586  1.00  0.00    -0.225 C  
HETATM   19  C   UNL     1     -11.209  13.227  66.836  1.00  0.00    -0.332 C  
HETATM   20  C   UNL     1     -12.541  13.257  65.917  1.00  0.00    -0.349 C  
HETATM   21  C   UNL     1      -8.854  15.169  67.495  1.00  0.00    -0.190 C  
HETATM   22  C   UNL     1      -8.701  14.034  66.496  1.00  0.00     0.048 C  
HETATM   23  C   UNL     1     -10.007  13.554  65.905  1.00  0.00    -0.295 C  
ENDROOT
BRANCH   4  24
HETATM   24  C   UNL     1     -11.998  14.318  72.187  1.00  0.00     0.179 C  
HETATM   25  O   UNL     1     -11.600  14.504  73.350  1.00  0.00     0.187 OA 
BRANCH  24  26
HETATM   26  C   UNL     1     -13.309  13.370  72.082  1.00  0.00    -0.520 C  
BRANCH  26  27
HETATM   27  O   UNL     1     -12.969  11.972  72.435  1.00  0.00    -0.200 OA 
BRANCH  27  28
HETATM   28  C   UNL     1     -12.682  10.927  71.601  1.00  0.00    -0.393 C  
HETATM   29  C   UNL     1     -13.534   9.678  71.762  1.00  0.00    -0.477 C  
HETATM   30  O   UNL     1     -11.821  10.959  70.753  1.00  0.00    -0.333 OA 
ENDBRANCH  27  28
ENDBRANCH  26  27
ENDBRANCH  24  26
ENDBRANCH   4  24
TORSDOF 4
ENDMDL
MODEL      132
REMARK 921   NORMALIZED FREE ENERGY PREDICTED BY IDOCK:    0.48 KCAL/MOL
REMARK 922        TOTAL FREE ENERGY PREDICTED BY IDOCK:    1.02 KCAL/MOL
REMARK 923 INTER-LIGAND FREE ENERGY PREDICTED BY IDOCK:    0.63 KCAL/MOL
REMARK 924 INTRA-LIGAND FREE ENERGY PREDICTED BY IDOCK:    0.39 KCAL/MOL
REMARK 927      BINDING AFFINITY PREDICTED BY RF-SCORE:    0.00 PKD
ROOT
HETATM    1  C   UNL     1      -6.134   9.654  65.155  1.00  0.00    -0.076 C  
HETATM    2  C   UNL     1      -5.413  10.695  65.787  1.00  0.00    -0.121 C  
HETATM    3  C   UNL     1      -6.604  10.169  66.536  1.00  0.00    -0.077 C  
HETATM    4  C   UNL     1      -7.419   8.337  65.973  1.00  0.00    -0.077 C  
HETATM    5  O   UNL     1     -12.675  13.508  64.320  1.00  0.00    -0.645 OA 
HETATM    6  O   UNL     1      -6.780   7.603  64.848  1.00  0.00    -0.049 OA 
HETATM    7  C   UNL     1      -6.388   8.687  66.806  1.00  0.00    -0.059 C  
HETATM    8  C   UNL     1      -5.152   7.965  67.242  1.00  0.00    -0.027 C  
HETATM    9  C   UNL     1      -7.865   9.191  67.901  1.00  0.00    -0.100 C  
HETATM   10  C   UNL     1     -11.507  13.645  64.659  1.00  0.00    -0.365 C  
HETATM   11  C   UNL     1     -10.362  13.568  63.735  1.00  0.00     0.850 C  
HETATM   12  H   UNL     1      -7.153   6.767  64.591  1.00  0.00     0.000 HD 
HETATM   13  C   UNL     1      -9.144   9.781  66.946  1.00  0.00    -0.142 C  
HETATM   14  C   UNL     1     -11.092  13.672  66.122  1.00  0.00    -0.299 C  
HETATM   15  O   UNL     1     -10.279   9.377  67.212  1.00  0.00    -0.212 OA 
HETATM   16  C   UNL     1     -10.905  10.269  64.358  1.00  0.00     1.165 C  
HETATM   17  C   UNL     1      -8.876  10.827  65.654  1.00  0.00    -0.202 C  
HETATM   18  C   UNL     1      -7.715  10.296  64.512  1.00  0.00    -0.107 C  
HETATM   19  C   UNL     1     -10.145  11.437  64.994  1.00  0.00    -0.323 C  
HETATM   20  C   UNL     1     -10.868  12.346  66.121  1.00  0.00    -0.308 C  
HETATM   21  C   UNL     1      -7.398  11.408  63.510  1.00  0.00     1.533 C  
HETATM   22  C   UNL     1      -8.654  11.965  62.860  1.00  0.00     0.965 C  
HETATM   23  C   UNL     1      -9.718  12.393  63.844  1.00  0.00    -0.011 C  
ENDROOT
BRANCH   4  24
HETATM   24  C   UNL     1      -7.824   6.783  66.834  1.00  0.00    -0.108 C  
HETATM   25  O   UNL     1      -7.189   6.376  67.823  1.00  0.00    -0.082 OA 
BRANCH  24  26
HETATM   26  C   UNL     1      -8.939   5.739  66.292  1.00  0.00    -0.146 C  
BRANCH  26  27
HETATM   27  O   UNL     1      -8.472   5.078  65.051  1.00  0.00    -0.133 OA 
BRANCH  27  28
HETATM   28  C   UNL     1      -7.866   3.861  64.908  1.00  0.00    -0.085 C  
HETATM   29  C   UNL     1      -6.420   3.876  64.438  1.00  0.00    -0.041 C  
HETATM   30  O   UNL     1      -8.406   2.807  65.152  1.00  0.00    -0.090 OA 
ENDBRANCH  27  28
ENDBRANCH  26  27
ENDBRANCH  24  26
ENDBRANCH   4  24
TORSDOF 4
ENDMDL
MODEL      133
REMARK 921   NORMALIZED FREE ENERGY PREDICTED BY IDOCK:    0.58 KCAL/MOL
REMARK 922        TOTAL FREE ENERGY PREDICTED BY IDOCK:    1.14 KCAL/MOL
REMARK 923 INTER-LIGAND FREE ENERGY PREDICTED BY IDOCK:    0.01 KCAL/MOL
REMARK 924 INTRA-LIGAND FREE ENERGY PREDICTED BY IDOCK:    1.12 KCAL/MOL
REMARK 927      BINDING AFFINITY PREDICTED BY RF-SCORE:    0.00 PKD
ROOT
HETATM    1  C   UNL     1     -11.136  14.711  66.874  1.00  0.00    -0.333 C  
HETATM    2  C   UNL     1     -10.087  13.891  66.395  1.00  0.00    -0.298 C  
HETATM    3  C   UNL     1      -9.838  14.582  67.705  1.00  0.00    -0.223 C  
HETATM    4  C   UNL     1     -11.455  15.379  68.747  1.00  0.00    -0.341 C  
HETATM    5  O   UNL     1      -7.292  21.304  66.590  1.00  0.00    -0.145 OA 
HETATM    6  O   UNL     1     -12.813  15.225  68.156  1.00  0.00     0.409 OA 
HETATM    7  C   UNL     1     -10.897  14.128  68.699  1.00  0.00    -0.268 C  
HETATM    8  C   UNL     1     -11.458  12.762  68.940  1.00  0.00    -0.352 C  
HETATM    9  C   UNL     1      -9.577  15.024  69.741  1.00  0.00     0.022 C  
HETATM   10  C   UNL     1      -7.215  20.124  66.274  1.00  0.00    -0.281 C  
HETATM   11  C   UNL     1      -8.034  19.493  65.225  1.00  0.00     0.715 C  
HETATM   12  H   UNL     1     -13.551  15.589  68.632  1.00  0.00     0.000 HD 
HETATM   13  C   UNL     1      -9.413  16.641  69.238  1.00  0.00    -0.127 C  
HETATM   14  C   UNL     1      -6.427  19.120  67.102  1.00  0.00    -0.192 C  
HETATM   15  O   UNL     1      -9.357  17.503  70.118  1.00  0.00     1.430 OA 
HETATM   16  C   UNL     1     -10.181  19.389  67.860  1.00  0.00    -0.530 C  
HETATM   17  C   UNL     1      -9.384  17.063  67.608  1.00  0.00    -0.241 C  
HETATM   18  C   UNL     1     -10.692  16.468  66.675  1.00  0.00    -0.150 C  
HETATM   19  C   UNL     1      -9.035  18.546  67.292  1.00  0.00    -0.275 C  
HETATM   20  C   UNL     1      -7.522  18.792  67.811  1.00  0.00    -0.245 C  
HETATM   21  C   UNL     1     -10.452  16.727  65.187  1.00  0.00    -0.070 C  
HETATM   22  C   UNL     1     -10.142  18.187  64.904  1.00  0.00     2.425 C  
HETATM   23  C   UNL     1      -9.026  18.754  65.751  1.00  0.00     0.426 C  
ENDROOT
BRANCH   4  24
HETATM   24  C   UNL     1     -12.110  15.217  70.440  1.00  0.00    -0.348 C  
HETATM   25  O   UNL     1     -11.389  15.292  71.450  1.00  0.00    -0.352 OA 
BRANCH  24  26
HETATM   26  C   UNL     1     -13.649  14.816  70.756  1.00  0.00    -0.120 C  
BRANCH  26  27
HETATM   27  O   UNL     1     -13.758  13.368  71.050  1.00  0.00     0.118 OA 
BRANCH  27  28
HETATM   28  C   UNL     1     -13.088  12.635  71.991  1.00  0.00    -0.366 C  
HETATM   29  C   UNL     1     -12.817  11.179  71.647  1.00  0.00    -0.524 C  
HETATM   30  O   UNL     1     -12.696  13.087  73.042  1.00  0.00     0.254 OA 
ENDBRANCH  27  28
ENDBRANCH  26  27
ENDBRANCH  24  26
ENDBRANCH   4  24
TORSDOF 4
ENDMDL
MODEL      134
REMARK 921   NORMALIZED FREE ENERGY PREDICTED BY IDOCK:    2.31 KCAL/MOL
REMARK 922        TOTAL FREE ENERGY PREDICTED BY IDOCK:    3.28 KCAL/MOL
REMARK 923 INTER-LIGAND FREE ENERGY PREDICTED BY IDOCK:    2.17 KCAL/MOL
REMARK 924 INTRA-LIGAND FREE ENERGY PREDICTED BY IDOCK:    1.11 KCAL/MOL
REMARK 927      BINDING AFFINITY PREDICTED BY RF-SCORE:    0.00 PKD
ROOT
HETATM    1  C   UNL     1     -11.128  14.268  70.054  1.00  0.00    -0.075 C  
HETATM    2  C   UNL     1     -10.395  14.051  71.245  1.00  0.00     3.722 C  
HETATM    3  C   UNL     1      -9.696  14.841  70.176  1.00  0.00     0.512 C  
HETATM    4  C   UNL     1     -10.825  15.654  68.626  1.00  0.00    -0.273 C  
HETATM    5  O   UNL     1      -6.453  10.385  65.428  1.00  0.00    -0.117 OA 
HETATM    6  O   UNL     1     -12.296  15.430  68.638  1.00  0.00    -0.564 OA 
HETATM    7  C   UNL     1     -10.516  16.091  69.887  1.00  0.00    -0.287 C  
HETATM    8  C   UNL     1     -11.212  17.017  70.835  1.00  0.00     0.762 C  
HETATM    9  C   UNL     1      -8.836  16.378  69.033  1.00  0.00    -0.240 C  
HETATM   10  C   UNL     1      -6.660  10.634  66.608  1.00  0.00    -0.101 C  
HETATM   11  C   UNL     1      -7.821  10.138  67.368  1.00  0.00    -0.102 C  
HETATM   12  H   UNL     1     -12.810  15.801  67.931  1.00  0.00     0.000 HD 
HETATM   13  C   UNL     1      -8.544  15.174  67.867  1.00  0.00    -0.153 C  
HETATM   14  C   UNL     1      -5.860  11.687  67.360  1.00  0.00    -0.092 C  
HETATM   15  O   UNL     1      -8.115  15.543  66.771  1.00  0.00    -0.232 OA 
HETATM   16  C   UNL     1      -9.180  12.843  65.818  1.00  0.00     0.219 C  
HETATM   17  C   UNL     1      -8.877  13.551  68.166  1.00  0.00    -0.179 C  
HETATM   18  C   UNL     1     -10.466  13.221  68.717  1.00  0.00    -0.187 C  
HETATM   19  C   UNL     1      -8.383  12.542  67.091  1.00  0.00    -0.179 C  
HETATM   20  C   UNL     1      -6.767  12.637  67.069  1.00  0.00     0.122 C  
HETATM   21  C   UNL     1     -10.589  11.761  69.158  1.00  0.00    -0.109 C  
HETATM   22  C   UNL     1     -10.126  10.797  68.078  1.00  0.00    -0.198 C  
HETATM   23  C   UNL     1      -8.747  11.097  67.536  1.00  0.00    -0.129 C  
ENDROOT
BRANCH   4  24
HETATM   24  C   UNL     1     -11.025  17.317  67.906  1.00  0.00    -0.179 C  
HETATM   25  O   UNL     1     -11.840  17.563  66.999  1.00  0.00     1.459 OA 
BRANCH  24  26
HETATM   26  C   UNL     1     -10.061  18.563  68.284  1.00  0.00    -0.390 C  
BRANCH  26  27
HETATM   27  O   UNL     1      -9.104  18.831  67.185  1.00  0.00    -0.276 OA 
BRANCH  27  28
HETATM   28  C   UNL     1      -8.856  20.009  66.536  1.00  0.00    -0.337 C  
HETATM   29  C   UNL     1      -7.641  20.037  65.623  1.00  0.00    -0.231 C  
HETATM   30  O   UNL     1      -9.554  20.992  66.637  1.00  0.00     0.004 OA 
ENDBRANCH  27  28
ENDBRANCH  26  27
ENDBRANCH  24  26
ENDBRANCH   4  24
TORSDOF 4
ENDMDL
MODEL      135
REMARK 921   NORMALIZED FREE ENERGY PREDICTED BY IDOCK:    2.47 KCAL/MOL
REMARK 922        TOTAL FREE ENERGY PREDICTED BY IDOCK:    3.47 KCAL/MOL
REMARK 923 INTER-LIGAND FREE ENERGY PREDICTED BY IDOCK:    2.86 KCAL/MOL
REMARK 924 INTRA-LIGAND FREE ENERGY PREDICTED BY IDOCK:    0.60 KCAL/MOL
REMARK 927      BINDING AFFINITY PREDICTED BY RF-SCORE:    0.00 PKD
ROOT
HETATM    1  C   UNL     1     -11.679  13.923  69.806  1.00  0.00    -0.372 C  
HETATM    2  C   UNL     1     -12.935  14.512  69.522  1.00  0.00     0.565 C  
HETATM    3  C   UNL     1     -12.806  13.049  69.205  1.00  0.00     1.052 C  
HETATM    4  C   UNL     1     -11.227  11.974  70.036  1.00  0.00     0.175 C  
HETATM    5  O   UNL     1      -9.909  12.123  62.597  1.00  0.00     0.072 OA 
HETATM    6  O   UNL     1     -10.282  12.697  70.929  1.00  0.00     4.217 OA 
HETATM    7  C   UNL     1     -12.477  12.305  70.491  1.00  0.00    -0.272 C  
HETATM    8  C   UNL     1     -13.037  12.482  71.868  1.00  0.00    -0.473 C  
HETATM    9  C   UNL     1     -12.946  10.954  69.230  1.00  0.00     1.064 C  
HETATM   10  C   UNL     1     -10.730  12.732  63.269  1.00  0.00     0.178 C  
HETATM   11  C   UNL     1     -10.442  13.977  64.002  1.00  0.00     0.756 C  
HETATM   12  H   UNL     1      -9.562  12.206  71.308  1.00  0.00     0.000 HD 
HETATM   13  C   UNL     1     -11.897  10.995  67.892  1.00  0.00    -0.002 C  
HETATM   14  C   UNL     1     -12.087  12.136  63.616  1.00  0.00    -0.648 C  
HETATM   15  O   UNL     1     -11.459   9.916  67.485  1.00  0.00    -0.071 OA 
HETATM   16  C   UNL     1      -9.296  11.655  66.207  1.00  0.00    -0.228 C  
HETATM   17  C   UNL     1     -11.426  12.446  67.179  1.00  0.00    -0.423 C  
HETATM   18  C   UNL     1     -10.775  13.610  68.254  1.00  0.00    -0.266 C  
HETATM   19  C   UNL     1     -10.625  12.327  65.851  1.00  0.00    -0.290 C  
HETATM   20  C   UNL     1     -11.612  11.635  64.770  1.00  0.00    -0.170 C  
HETATM   21  C   UNL     1     -10.585  14.951  67.542  1.00  0.00    -0.266 C  
HETATM   22  C   UNL     1      -9.775  14.810  66.264  1.00  0.00    -0.326 C  
HETATM   23  C   UNL     1     -10.297  13.751  65.319  1.00  0.00    -0.378 C  
ENDROOT
BRANCH   4  24
HETATM   24  C   UNL     1     -11.078  10.446  71.018  1.00  0.00     0.120 C  
HETATM   25  O   UNL     1     -11.860  10.162  71.943  1.00  0.00    -0.170 OA 
BRANCH  24  26
HETATM   26  C   UNL     1      -9.836   9.416  70.864  1.00  0.00    -0.268 C  
BRANCH  26  27
HETATM   27  O   UNL     1     -10.307   8.016  70.967  1.00  0.00    -0.200 OA 
BRANCH  27  28
HETATM   28  C   UNL     1      -9.928   7.051  71.859  1.00  0.00    -0.167 C  
HETATM   29  C   UNL     1      -8.705   6.228  71.488  1.00  0.00    -0.134 C  
HETATM   30  O   UNL     1     -10.493   6.846  72.909  1.00  0.00    -0.210 OA 
ENDBRANCH  27  28
ENDBRANCH  26  27
ENDBRANCH  24  26
ENDBRANCH   4  24
TORSDOF 4
ENDMDL
MODEL      136
REMARK 921   NORMALIZED FREE ENERGY PREDICTED BY IDOCK:    4.20 KCAL/MOL
REMARK 922        TOTAL FREE ENERGY PREDICTED BY IDOCK:    5.60 KCAL/MOL
REMARK 923 INTER-LIGAND FREE ENERGY PREDICTED BY IDOCK:    4.17 KCAL/MOL
REMARK 924 INTRA-LIGAND FREE ENERGY PREDICTED BY IDOCK:    1.43 KCAL/MOL
REMARK 927      BINDING AFFINITY PREDICTED BY RF-SCORE:    0.00 PKD
ROOT
HETATM    1  C   UNL     1      -8.992  13.947  64.861  1.00  0.00     2.549 C  
HETATM    2  C   UNL     1     -10.225  13.959  64.165  1.00  0.00     0.667 C  
HETATM    3  C   UNL     1     -10.291  13.575  65.615  1.00  0.00    -0.303 C  
HETATM    4  C   UNL     1      -8.669  14.011  66.847  1.00  0.00    -0.164 C  
HETATM    5  O   UNL     1      -8.949   6.471  66.426  1.00  0.00    -0.140 OA 
HETATM    6  O   UNL     1      -7.498  14.703  66.244  1.00  0.00     0.483 OA 
HETATM    7  C   UNL     1      -9.761  14.735  66.446  1.00  0.00    -0.311 C  
HETATM    8  C   UNL     1      -9.999  16.204  66.296  1.00  0.00    -0.336 C  
HETATM    9  C   UNL     1     -10.600  13.561  67.692  1.00  0.00    -0.246 C  
HETATM   10  C   UNL     1      -9.555   7.324  65.790  1.00  0.00     0.436 C  
HETATM   11  C   UNL     1      -9.012   8.018  64.609  1.00  0.00     0.513 C  
HETATM   12  H   UNL     1      -6.758  14.901  66.807  1.00  0.00     0.000 HD 
HETATM   13  C   UNL     1      -9.858  12.030  67.664  1.00  0.00    -0.189 C  
HETATM   14  C   UNL     1     -10.852   7.935  66.298  1.00  0.00     1.311 C  
HETATM   15  O   UNL     1      -9.610  11.503  68.751  1.00  0.00    -0.181 OA 
HETATM   16  C   UNL     1      -7.627   9.847  67.120  1.00  0.00    -0.092 C  
HETATM   17  C   UNL     1      -9.428  11.280  66.219  1.00  0.00    -0.227 C  
HETATM   18  C   UNL     1      -8.467  12.227  65.163  1.00  0.00     1.565 C  
HETATM   19  C   UNL     1      -8.940   9.808  66.331  1.00  0.00    -0.176 C  
HETATM   20  C   UNL     1     -10.188   8.943  66.891  1.00  0.00    -0.347 C  
HETATM   21  C   UNL     1      -8.319  11.536  63.806  1.00  0.00     0.896 C  
HETATM   22  C   UNL     1      -7.813  10.109  63.944  1.00  0.00    -0.149 C  
HETATM   23  C   UNL     1      -8.612   9.265  64.911  1.00  0.00    -0.204 C  
ENDROOT
BRANCH   4  24
HETATM   24  C   UNL     1      -8.446  14.887  68.430  1.00  0.00    -0.153 C  
HETATM   25  O   UNL     1      -9.362  15.518  68.985  1.00  0.00    -0.201 OA 
BRANCH  24  26
HETATM   26  C   UNL     1      -7.006  15.037  69.159  1.00  0.00    -0.139 C  
BRANCH  26  27
HETATM   27  O   UNL     1      -6.170  16.039  68.457  1.00  0.00    -0.107 OA 
BRANCH  27  28
HETATM   28  C   UNL     1      -6.459  17.347  68.178  1.00  0.00    -0.168 C  
HETATM   29  C   UNL     1      -7.437  17.596  67.041  1.00  0.00    -0.226 C  
HETATM   30  O   UNL     1      -6.002  18.283  68.792  1.00  0.00    -0.189 OA 
ENDBRANCH  27  28
ENDBRANCH  26  27
ENDBRANCH  24  26
ENDBRANCH   4  24
TORSDOF 4
ENDMDL
MODEL      137
REMARK 921   NORMALIZED FREE ENERGY PREDICTED BY IDOCK:    7.28 KCAL/MOL
REMARK 922        TOTAL FREE ENERGY PREDICTED BY IDOCK:    9.41 KCAL/MOL
REMARK 923 INTER-LIGAND FREE ENERGY PREDICTED BY IDOCK:    7.17 KCAL/MOL
REMARK 924 INTRA-LIGAND FREE ENERGY PREDICTED BY IDOCK:    2.24 KCAL/MOL
REMARK 927      BINDING AFFINITY PREDICTED BY RF-SCORE:    0.00 PKD
ROOT
HETATM    1  C   UNL     1      -9.881  14.000  65.112  1.00  0.00    -0.138 C  
HETATM    2  C   UNL     1      -8.599  14.243  64.563  1.00  0.00     6.641 C  
HETATM    3  C   UNL     1      -8.678  14.205  66.063  1.00  0.00     0.685 C  
HETATM    4  C   UNL     1     -10.357  13.362  66.962  1.00  0.00    -0.247 C  
HETATM    5  O   UNL     1     -10.593  20.716  68.679  1.00  0.00     0.029 OA 
HETATM    6  O   UNL     1     -11.423  12.814  66.079  1.00  0.00    -0.315 OA 
HETATM    7  C   UNL     1      -9.187  12.833  66.483  1.00  0.00    -0.190 C  
HETATM    8  C   UNL     1      -8.831  11.479  65.955  1.00  0.00    -0.144 C  
HETATM    9  C   UNL     1      -8.538  13.645  68.082  1.00  0.00    -0.176 C  
HETATM   10  C   UNL     1      -9.878  20.108  67.894  1.00  0.00    -0.389 C  
HETATM   11  C   UNL     1     -10.272  19.752  66.520  1.00  0.00    -0.606 C  
HETATM   12  H   UNL     1     -12.189  12.430  66.490  1.00  0.00     0.000 HD 
HETATM   13  C   UNL     1      -9.384  15.084  68.408  1.00  0.00    -0.193 C  
HETATM   14  C   UNL     1      -8.584  19.440  68.336  1.00  0.00    -0.397 C  
HETATM   15  O   UNL     1      -9.757  15.269  69.569  1.00  0.00    -0.238 OA 
HETATM   16  C   UNL     1     -11.717  17.223  68.276  1.00  0.00     1.034 C  
HETATM   17  C   UNL     1      -9.751  16.191  67.193  1.00  0.00    -0.236 C  
HETATM   18  C   UNL     1     -10.552  15.537  65.827  1.00  0.00    -0.370 C  
HETATM   19  C   UNL     1     -10.352  17.546  67.661  1.00  0.00    -0.360 C  
HETATM   20  C   UNL     1      -9.219  18.276  68.558  1.00  0.00    -0.335 C  
HETATM   21  C   UNL     1     -10.642  16.577  64.708  1.00  0.00     0.110 C  
HETATM   22  C   UNL     1     -11.259  17.880  65.187  1.00  0.00     1.039 C  
HETATM   23  C   UNL     1     -10.604  18.453  66.423  1.00  0.00    -0.342 C  
ENDROOT
BRANCH   4  24
HETATM   24  C   UNL     1     -10.642  12.064  68.209  1.00  0.00    -0.212 C  
HETATM   25  O   UNL     1     -11.275  11.022  67.963  1.00  0.00    -0.262 OA 
BRANCH  24  26
HETATM   26  C   UNL     1     -10.225  12.231  69.766  1.00  0.00     1.302 C  
BRANCH  26  27
HETATM   27  O   UNL     1     -11.399  12.628  70.578  1.00  0.00     0.331 OA 
BRANCH  27  28
HETATM   28  C   UNL     1     -12.558  13.227  70.168  1.00  0.00    -0.044 C  
HETATM   29  C   UNL     1     -12.409  14.490  69.334  1.00  0.00    -0.213 C  
HETATM   30  O   UNL     1     -13.661  12.797  70.412  1.00  0.00     1.401 OA 
ENDBRANCH  27  28
ENDBRANCH  26  27
ENDBRANCH  24  26
ENDBRANCH   4  24
TORSDOF 4
ENDMDL
MODEL      138
REMARK 921   NORMALIZED FREE ENERGY PREDICTED BY IDOCK:   11.40 KCAL/MOL
REMARK 922        TOTAL FREE ENERGY PREDICTED BY IDOCK:   14.49 KCAL/MOL
REMARK 923 INTER-LIGAND FREE ENERGY PREDICTED BY IDOCK:   13.80 KCAL/MOL
REMARK 924 INTRA-LIGAND FREE ENERGY PREDICTED BY IDOCK:    0.69 KCAL/MOL
REMARK 927      BINDING AFFINITY PREDICTED BY RF-SCORE:    0.00 PKD
ROOT
HETATM    1  C   UNL     1     -10.320  15.314  69.608  1.00  0.00    -0.271 C  
HETATM    2  C   UNL     1     -10.994  16.554  69.721  1.00  0.00    -0.292 C  
HETATM    3  C   UNL     1     -11.863  15.351  69.496  1.00  0.00    -0.370 C  
HETATM    4  C   UNL     1     -11.064  13.455  69.825  1.00  0.00     0.128 C  
HETATM    5  O   UNL     1     -12.364  13.866  62.393  1.00  0.00     0.545 OA 
HETATM    6  O   UNL     1      -9.652  13.361  70.284  1.00  0.00     2.176 OA 
HETATM    7  C   UNL     1     -11.650  14.380  70.649  1.00  0.00    -0.243 C  
HETATM    8  C   UNL     1     -11.523  14.651  72.115  1.00  0.00     0.205 C  
HETATM    9  C   UNL     1     -13.197  13.746  69.733  1.00  0.00     1.154 C  
HETATM   10  C   UNL     1     -12.400  14.736  63.253  1.00  0.00     1.307 C  
HETATM   11  C   UNL     1     -11.217  15.464  63.744  1.00  0.00     1.076 C  
HETATM   12  H   UNL     1      -9.287  12.497  70.434  1.00  0.00     0.000 HD 
HETATM   13  C   UNL     1     -12.821  13.361  68.119  1.00  0.00     1.568 C  
HETATM   14  C   UNL     1     -13.647  14.994  64.085  1.00  0.00     2.995 C  
HETATM   15  O   UNL     1     -13.263  12.299  67.675  1.00  0.00     3.075 OA 
HETATM   16  C   UNL     1     -11.039  12.624  65.606  1.00  0.00    -0.327 C  
HETATM   17  C   UNL     1     -11.841  14.354  67.177  1.00  0.00    -0.437 C  
HETATM   18  C   UNL     1     -10.328  14.760  67.871  1.00  0.00    -0.240 C  
HETATM   19  C   UNL     1     -11.740  13.984  65.670  1.00  0.00    -0.356 C  
HETATM   20  C   UNL     1     -13.224  14.153  65.046  1.00  0.00     0.265 C  
HETATM   21  C   UNL     1      -9.621  15.827  67.033  1.00  0.00    -0.236 C  
HETATM   22  C   UNL     1      -9.511  15.426  65.572  1.00  0.00    -0.160 C  
HETATM   23  C   UNL     1     -10.824  15.012  64.947  1.00  0.00    -0.430 C  
ENDROOT
BRANCH   4  24
HETATM   24  C   UNL     1     -11.544  12.003  70.815  1.00  0.00     0.646 C  
HETATM   25  O   UNL     1     -12.432  12.046  71.685  1.00  0.00    -0.152 OA 
BRANCH  24  26
HETATM   26  C   UNL     1     -10.755  10.589  70.747  1.00  0.00     0.438 C  
BRANCH  26  27
HETATM   27  O   UNL     1      -9.292  10.806  70.829  1.00  0.00     1.628 OA 
BRANCH  27  28
HETATM   28  C   UNL     1      -8.369  10.796  69.819  1.00  0.00     0.362 C  
HETATM   29  C   UNL     1      -6.948  10.421  70.205  1.00  0.00    -0.104 C  
HETATM   30  O   UNL     1      -8.632  11.044  68.665  1.00  0.00    -0.147 OA 
ENDBRANCH  27  28
ENDBRANCH  26  27
ENDBRANCH  24  26
ENDBRANCH   4  24
TORSDOF 4
ENDMDL
MODEL      139
REMARK 921   NORMALIZED FREE ENERGY PREDICTED BY IDOCK:   13.14 KCAL/MOL
REMARK 922        TOTAL FREE ENERGY PREDICTED BY IDOCK:   16.63 KCAL/MOL
REMARK 923 INTER-LIGAND FREE ENERGY PREDICTED BY IDOCK:   13.40 KCAL/MOL
REMARK 924 INTRA-LIGAND FREE ENERGY PREDICTED BY IDOCK:    3.23 KCAL/MOL
REMARK 927      BINDING AFFINITY PREDICTED BY RF-SCORE:    0.00 PKD
ROOT
HETATM    1  C   UNL     1      -6.752  16.355  67.210  1.00  0.00    -0.221 C  
HETATM    2  C   UNL     1      -6.123  16.749  66.004  1.00  0.00     0.862 C  
HETATM    3  C   UNL     1      -7.568  16.352  65.895  1.00  0.00     0.723 C  
HETATM    4  C   UNL     1      -8.719  16.256  67.628  1.00  0.00    -0.182 C  
HETATM    5  O   UNL     1      -8.177   9.144  65.134  1.00  0.00    -0.129 OA 
HETATM    6  O   UNL     1      -8.067  16.596  68.922  1.00  0.00    -0.234 OA 
HETATM    7  C   UNL     1      -8.390  17.280  66.779  1.00  0.00    -0.276 C  
HETATM    8  C   UNL     1      -8.280  18.759  66.975  1.00  0.00    -0.271 C  
HETATM    9  C   UNL     1      -9.658  16.361  65.691  1.00  0.00    -0.111 C  
HETATM   10  C   UNL     1      -7.591  10.157  64.776  1.00  0.00    -0.139 C  
HETATM   11  C   UNL     1      -6.395  10.701  65.443  1.00  0.00    -0.052 C  
HETATM   12  H   UNL     1      -8.593  16.551  69.712  1.00  0.00     0.000 HD 
HETATM   13  C   UNL     1      -9.562  14.682  65.950  1.00  0.00    -0.268 C  
HETATM   14  C   UNL     1      -8.178  11.102  63.739  1.00  0.00     0.475 C  
HETATM   15  O   UNL     1     -10.625  14.070  66.083  1.00  0.00    -0.283 OA 
HETATM   16  C   UNL     1      -8.860  11.963  67.416  1.00  0.00    -0.171 C  
HETATM   17  C   UNL     1      -8.083  13.888  66.075  1.00  0.00     2.061 C  
HETATM   18  C   UNL     1      -6.995  14.548  67.221  1.00  0.00     0.055 C  
HETATM   19  C   UNL     1      -8.143  12.334  66.115  1.00  0.00     0.579 C  
HETATM   20  C   UNL     1      -8.753  11.852  64.696  1.00  0.00     0.927 C  
HETATM   21  C   UNL     1      -5.620  13.888  67.098  1.00  0.00     0.827 C  
HETATM   22  C   UNL     1      -5.705  12.372  67.170  1.00  0.00    -0.063 C  
HETATM   23  C   UNL     1      -6.698  11.766  66.205  1.00  0.00     0.559 C  
ENDROOT
BRANCH   4  24
HETATM   24  C   UNL     1     -10.303  16.976  68.171  1.00  0.00    -0.347 C  
HETATM   25  O   UNL     1     -10.947  16.533  69.138  1.00  0.00    -0.312 OA 
BRANCH  24  26
HETATM   26  C   UNL     1     -11.066  18.148  67.350  1.00  0.00     0.112 C  
BRANCH  26  27
HETATM   27  O   UNL     1     -11.017  19.424  68.102  1.00  0.00    -0.142 OA 
BRANCH  27  28
HETATM   28  C   UNL     1     -11.078  19.621  69.454  1.00  0.00     2.111 C  
HETATM   29  C   UNL     1     -11.703  18.504  70.274  1.00  0.00     6.972 C  
HETATM   30  O   UNL     1     -10.649  20.605  70.010  1.00  0.00     0.342 OA 
ENDBRANCH  27  28
ENDBRANCH  26  27
ENDBRANCH  24  26
ENDBRANCH   4  24
TORSDOF 4
ENDMDL
MODEL      140
REMARK 921   NORMALIZED FREE ENERGY PREDICTED BY IDOCK:   15.23 KCAL/MOL
REMARK 922        TOTAL FREE ENERGY PREDICTED BY IDOCK:   19.21 KCAL/MOL
REMARK 923 INTER-LIGAND FREE ENERGY PREDICTED BY IDOCK:   18.03 KCAL/MOL
REMARK 924 INTRA-LIGAND FREE ENERGY PREDICTED BY IDOCK:    1.18 KCAL/MOL
REMARK 927      BINDING AFFINITY PREDICTED BY RF-SCORE:    0.00 PKD
ROOT
HETATM    1  C   UNL     1      -8.674  16.686  65.643  1.00  0.00     0.396 C  
HETATM    2  C   UNL     1      -7.361  17.215  65.673  1.00  0.00     0.616 C  
HETATM    3  C   UNL     1      -7.840  16.570  66.941  1.00  0.00    -0.263 C  
HETATM    4  C   UNL     1      -9.509  15.326  66.870  1.00  0.00    -0.234 C  
HETATM    5  O   UNL     1     -11.607  21.330  70.950  1.00  0.00     5.502 OA 
HETATM    6  O   UNL     1     -10.166  15.110  65.553  1.00  0.00    -0.322 OA 
HETATM    7  C   UNL     1      -8.174  15.115  66.646  1.00  0.00    -0.083 C  
HETATM    8  C   UNL     1      -7.435  14.116  65.812  1.00  0.00     5.450 C  
HETATM    9  C   UNL     1      -8.157  15.255  68.547  1.00  0.00    -0.143 C  
HETATM   10  C   UNL     1     -10.602  21.139  70.280  1.00  0.00     2.442 C  
HETATM   11  C   UNL     1     -10.527  21.342  68.822  1.00  0.00     1.211 C  
HETATM   12  H   UNL     1     -10.928  14.543  65.521  1.00  0.00     0.000 HD 
HETATM   13  C   UNL     1      -9.319  16.380  69.074  1.00  0.00    -0.248 C  
HETATM   14  C   UNL     1      -9.377  20.439  70.848  1.00  0.00     1.860 C  
HETATM   15  O   UNL     1     -10.025  16.056  70.033  1.00  0.00    -0.172 OA 
HETATM   16  C   UNL     1     -11.889  18.229  68.968  1.00  0.00     4.353 C  
HETATM   17  C   UNL     1      -9.542  17.855  68.294  1.00  0.00    -0.312 C  
HETATM   18  C   UNL     1      -9.796  17.756  66.603  1.00  0.00    -0.322 C  
HETATM   19  C   UNL     1     -10.496  18.863  68.995  1.00  0.00     0.153 C  
HETATM   20  C   UNL     1      -9.814  19.243  70.413  1.00  0.00     1.179 C  
HETATM   21  C   UNL     1      -9.771  19.150  65.972  1.00  0.00    -0.254 C  
HETATM   22  C   UNL     1     -10.733  20.105  66.659  1.00  0.00    -0.235 C  
HETATM   23  C   UNL     1     -10.565  20.173  68.159  1.00  0.00    -0.255 C  
ENDROOT
BRANCH   4  24
HETATM   24  C   UNL     1      -9.873  13.620  67.396  1.00  0.00    -0.234 C  
HETATM   25  O   UNL     1      -9.164  12.999  68.208  1.00  0.00    -0.207 OA 
BRANCH  24  26
HETATM   26  C   UNL     1     -11.058  12.728  66.740  1.00  0.00    -0.277 C  
BRANCH  26  27
HETATM   27  O   UNL     1     -11.951  13.577  65.918  1.00  0.00    -0.363 OA 
BRANCH  27  28
HETATM   28  C   UNL     1     -12.411  13.355  64.649  1.00  0.00    -0.382 C  
HETATM   29  C   UNL     1     -12.132  11.981  64.059  1.00  0.00    -0.506 C  
HETATM   30  O   UNL     1     -13.029  14.170  64.004  1.00  0.00    -0.320 OA 
ENDBRANCH  27  28
ENDBRANCH  26  27
ENDBRANCH  24  26
ENDBRANCH   4  24
TORSDOF 4
ENDMDL
MODEL      141
REMARK 921   NORMALIZED FREE ENERGY PREDICTED BY IDOCK:   16.83 KCAL/MOL
REMARK 922        TOTAL FREE ENERGY PREDICTED BY IDOCK:   21.19 KCAL/MOL
REMARK 923 INTER-LIGAND FREE ENERGY PREDICTED BY IDOCK:   10.98 KCAL/MOL
REMARK 924 INTRA-LIGAND FREE ENERGY PREDICTED BY IDOCK:   10.21 KCAL/MOL
REMARK 927      BINDING AFFINITY PREDICTED BY RF-SCORE:    0.00 PKD
ROOT
HETATM    1  C   UNL     1     -12.826  15.018  68.108  1.00  0.00     1.547 C  
HETATM    2  C   UNL     1     -12.514  13.680  67.768  1.00  0.00     0.224 C  
HETATM    3  C   UNL     1     -11.650  14.310  68.822  1.00  0.00    -0.357 C  
HETATM    4  C   UNL     1     -12.312  16.047  69.761  1.00  0.00     0.113 C  
HETATM    5  O   UNL     1      -6.234  18.077  65.757  1.00  0.00    -0.227 OA 
HETATM    6  O   UNL     1     -13.633  16.600  69.358  1.00  0.00     2.212 OA 
HETATM    7  C   UNL     1     -12.535  14.715  69.992  1.00  0.00    -0.333 C  
HETATM    8  C   UNL     1     -13.668  13.976  70.634  1.00  0.00     0.431 C  
HETATM    9  C   UNL     1     -10.747  14.854  70.639  1.00  0.00     0.031 C  
HETATM   10  C   UNL     1      -6.872  17.032  65.756  1.00  0.00     0.587 C  
HETATM   11  C   UNL     1      -8.110  16.818  64.988  1.00  0.00     3.967 C  
HETATM   12  H   UNL     1     -13.935  17.393  69.786  1.00  0.00     0.000 HD 
HETATM   13  C   UNL     1      -9.863  15.977  69.716  1.00  0.00    -0.126 C  
HETATM   14  C   UNL     1      -6.580  15.912  66.743  1.00  0.00     0.300 C  
HETATM   15  O   UNL     1      -9.161  16.784  70.331  1.00  0.00     1.750 OA 
HETATM   16  C   UNL     1      -9.330  18.396  67.742  1.00  0.00    -0.283 C  
HETATM   17  C   UNL     1      -9.977  16.030  68.037  1.00  0.00    -0.229 C  
HETATM   18  C   UNL     1     -11.570  16.144  67.417  1.00  0.00     0.312 C  
HETATM   19  C   UNL     1      -8.972  16.970  67.313  1.00  0.00    -0.224 C  
HETATM   20  C   UNL     1      -7.491  16.390  67.610  1.00  0.00    -0.153 C  
HETATM   21  C   UNL     1     -11.568  15.968  65.896  1.00  0.00     0.594 C  
HETATM   22  C   UNL     1     -10.598  16.919  65.213  1.00  0.00    -0.137 C  
HETATM   23  C   UNL     1      -9.197  16.878  65.777  1.00  0.00     0.036 C  
ENDROOT
BRANCH   4  24
HETATM   24  C   UNL     1     -12.555  16.571  71.489  1.00  0.00     1.062 C  
HETATM   25  O   UNL     1     -11.623  16.972  72.208  1.00  0.00    -0.072 OA 
BRANCH  24  26
HETATM   26  C   UNL     1     -13.969  16.416  72.268  1.00  0.00     1.283 C  
BRANCH  26  27
HETATM   27  O   UNL     1     -14.384  14.994  72.312  1.00  0.00    -0.492 OA 
BRANCH  27  28
HETATM   28  C   UNL     1     -13.627  13.892  72.602  1.00  0.00    -0.517 C  
HETATM   29  C   UNL     1     -12.234  14.154  73.154  1.00  0.00     0.179 C  
HETATM   30  O   UNL     1     -14.013  12.755  72.463  1.00  0.00    -0.499 OA 
ENDBRANCH  27  28
ENDBRANCH  26  27
ENDBRANCH  24  26
ENDBRANCH   4  24
TORSDOF 4
ENDMDL
MODEL      142
REMARK 921   NORMALIZED FREE ENERGY PREDICTED BY IDOCK:   18.26 KCAL/MOL
REMARK 922        TOTAL FREE ENERGY PREDICTED BY IDOCK:   22.95 KCAL/MOL
REMARK 923 INTER-LIGAND FREE ENERGY PREDICTED BY IDOCK:   22.69 KCAL/MOL
REMARK 924 INTRA-LIGAND FREE ENERGY PREDICTED BY IDOCK:    0.26 KCAL/MOL
REMARK 927      BINDING AFFINITY PREDICTED BY RF-SCORE:    0.00 PKD
ROOT
HETATM    1  C   UNL     1      -8.277  18.652  70.867  1.00  0.00     4.844 C  
HETATM    2  C   UNL     1      -7.496  17.918  71.792  1.00  0.00     8.350 C  
HETATM    3  C   UNL     1      -7.139  17.744  70.343  1.00  0.00     1.927 C  
HETATM    4  C   UNL     1      -7.848  19.129  68.958  1.00  0.00    -0.259 C  
HETATM    5  O   UNL     1     -11.305  12.619  67.294  1.00  0.00    -0.281 OA 
HETATM    6  O   UNL     1      -8.680  20.256  69.459  1.00  0.00     0.495 OA 
HETATM    7  C   UNL     1      -6.749  19.102  69.777  1.00  0.00    -0.138 C  
HETATM    8  C   UNL     1      -5.913  20.185  70.382  1.00  0.00    -0.389 C  
HETATM    9  C   UNL     1      -6.200  17.830  68.467  1.00  0.00    -0.184 C  
HETATM   10  C   UNL     1     -10.622  12.930  68.261  1.00  0.00    -0.246 C  
HETATM   11  C   UNL     1     -11.132  13.650  69.440  1.00  0.00    -0.193 C  
HETATM   12  H   UNL     1      -9.004  20.887  68.827  1.00  0.00     0.000 HD 
HETATM   13  C   UNL     1      -7.535  16.941  67.900  1.00  0.00    -0.169 C  
HETATM   14  C   UNL     1      -9.105  12.813  68.243  1.00  0.00    -0.180 C  
HETATM   15  O   UNL     1      -7.623  16.770  66.681  1.00  0.00    -0.217 OA 
HETATM   16  C   UNL     1     -10.566  16.236  67.305  1.00  0.00    -0.298 C  
HETATM   17  C   UNL     1      -8.722  16.361  68.944  1.00  0.00    -0.253 C  
HETATM   18  C   UNL     1      -9.413  17.532  69.986  1.00  0.00     1.541 C  
HETATM   19  C   UNL     1      -9.775  15.403  68.319  1.00  0.00    -0.209 C  
HETATM   20  C   UNL     1      -8.976  14.085  67.827  1.00  0.00    -0.186 C  
HETATM   21  C   UNL     1     -10.313  16.861  71.027  1.00  0.00     2.010 C  
HETATM   22  C   UNL     1     -11.350  15.955  70.385  1.00  0.00    -0.399 C  
HETATM   23  C   UNL     1     -10.773  14.945  69.420  1.00  0.00    -0.264 C  
ENDROOT
BRANCH   4  24
HETATM   24  C   UNL     1      -7.090  20.180  67.677  1.00  0.00    -0.282 C  
HETATM   25  O   UNL     1      -6.222  21.033  67.934  1.00  0.00    -0.317 OA 
BRANCH  24  26
HETATM   26  C   UNL     1      -7.591  20.192  66.136  1.00  0.00    -0.266 C  
BRANCH  26  27
HETATM   27  O   UNL     1      -9.027  19.836  66.054  1.00  0.00    -0.364 OA 
BRANCH  27  28
HETATM   28  C   UNL     1      -9.697  19.216  65.036  1.00  0.00     2.383 C  
HETATM   29  C   UNL     1     -10.783  20.026  64.346  1.00  0.00     3.147 C  
HETATM   30  O   UNL     1      -9.455  18.093  64.657  1.00  0.00     3.087 OA 
ENDBRANCH  27  28
ENDBRANCH  26  27
ENDBRANCH  24  26
ENDBRANCH   4  24
TORSDOF 4
ENDMDL
MODEL      143
REMARK 921   NORMALIZED FREE ENERGY PREDICTED BY IDOCK:   22.00 KCAL/MOL
REMARK 922        TOTAL FREE ENERGY PREDICTED BY IDOCK:   27.57 KCAL/MOL
REMARK 923 INTER-LIGAND FREE ENERGY PREDICTED BY IDOCK:   26.47 KCAL/MOL
REMARK 924 INTRA-LIGAND FREE ENERGY PREDICTED BY IDOCK:    1.10 KCAL/MOL
REMARK 927      BINDING AFFINITY PREDICTED BY RF-SCORE:    0.00 PKD
ROOT
HETATM    1  C   UNL     1      -7.737  13.539  66.999  1.00  0.00     0.153 C  
HETATM    2  C   UNL     1      -6.751  12.861  67.755  1.00  0.00    -0.141 C  
HETATM    3  C   UNL     1      -7.800  11.998  67.115  1.00  0.00    -0.168 C  
HETATM    4  C   UNL     1      -8.971  12.800  65.590  1.00  0.00     0.600 C  
HETATM    5  O   UNL     1     -13.689  11.577  71.365  1.00  0.00     0.313 OA 
HETATM    6  O   UNL     1      -8.717  14.207  65.180  1.00  0.00     1.378 OA 
HETATM    7  C   UNL     1      -7.738  12.202  65.608  1.00  0.00     1.691 C  
HETATM    8  C   UNL     1      -6.549  12.313  64.707  1.00  0.00     6.115 C  
HETATM    9  C   UNL     1      -8.839  10.667  65.866  1.00  0.00    -0.187 C  
HETATM   10  C   UNL     1     -12.467  11.529  71.316  1.00  0.00    -0.293 C  
HETATM   11  C   UNL     1     -11.587  12.705  71.437  1.00  0.00     2.004 C  
HETATM   12  H   UNL     1      -9.252  14.573  64.484  1.00  0.00     0.000 HD 
HETATM   13  C   UNL     1     -10.207  11.061  66.797  1.00  0.00    -0.229 C  
HETATM   14  C   UNL     1     -11.727  10.273  70.882  1.00  0.00    -0.472 C  
HETATM   15  O   UNL     1     -11.296  10.628  66.411  1.00  0.00    -0.014 OA 
HETATM   16  C   UNL     1     -12.428  12.873  68.147  1.00  0.00     0.512 C  
HETATM   17  C   UNL     1     -10.099  12.048  68.157  1.00  0.00    -0.200 C  
HETATM   18  C   UNL     1      -9.317  13.552  67.909  1.00  0.00    -0.215 C  
HETATM   19  C   UNL     1     -11.387  12.166  69.020  1.00  0.00    -0.329 C  
HETATM   20  C   UNL     1     -11.697  10.688  69.603  1.00  0.00    -0.368 C  
HETATM   21  C   UNL     1      -9.086  14.264  69.243  1.00  0.00     0.265 C  
HETATM   22  C   UNL     1     -10.367  14.391  70.052  1.00  0.00     0.411 C  
HETATM   23  C   UNL     1     -11.105  13.086  70.242  1.00  0.00     0.774 C  
ENDROOT
BRANCH   4  24
HETATM   24  C   UNL     1      -9.381  12.314  63.883  1.00  0.00     0.424 C  
HETATM   25  O   UNL     1      -9.264  13.088  62.916  1.00  0.00     2.692 OA 
BRANCH  24  26
HETATM   26  C   UNL     1     -10.068  10.894  63.510  1.00  0.00    -0.347 C  
BRANCH  26  27
HETATM   27  O   UNL     1     -11.320  11.107  62.747  1.00  0.00     0.431 OA 
BRANCH  27  28
HETATM   28  C   UNL     1     -12.613  10.950  63.165  1.00  0.00     2.452 C  
HETATM   29  C   UNL     1     -13.678  11.680  62.362  1.00  0.00     3.569 C  
HETATM   30  O   UNL     1     -12.937  10.259  64.103  1.00  0.00     5.653 OA 
ENDBRANCH  27  28
ENDBRANCH  26  27
ENDBRANCH  24  26
ENDBRANCH   4  24
TORSDOF 4
ENDMDL
MODEL      144
REMARK 921   NORMALIZED FREE ENERGY PREDICTED BY IDOCK:   22.22 KCAL/MOL
REMARK 922        TOTAL FREE ENERGY PREDICTED BY IDOCK:   27.83 KCAL/MOL
REMARK 923 INTER-LIGAND FREE ENERGY PREDICTED BY IDOCK:   26.77 KCAL/MOL
REMARK 924 INTRA-LIGAND FREE ENERGY PREDICTED BY IDOCK:    1.07 KCAL/MOL
REMARK 927      BINDING AFFINITY PREDICTED BY RF-SCORE:    0.00 PKD
ROOT
HETATM    1  C   UNL     1     -10.698  15.605  68.184  1.00  0.00    -0.287 C  
HETATM    2  C   UNL     1     -11.751  15.348  69.093  1.00  0.00    -0.364 C  
HETATM    3  C   UNL     1     -10.670  16.270  69.580  1.00  0.00    -0.338 C  
HETATM    4  C   UNL     1      -9.370  17.119  68.192  1.00  0.00    -0.264 C  
HETATM    5  O   UNL     1      -5.140  12.456  72.370  1.00  0.00    -0.359 OA 
HETATM    6  O   UNL     1      -9.567  16.788  66.755  1.00  0.00    -0.231 OA 
HETATM    7  C   UNL     1     -10.611  17.475  68.653  1.00  0.00    -0.288 C  
HETATM    8  C   UNL     1     -11.724  18.270  68.046  1.00  0.00     1.865 C  
HETATM    9  C   UNL     1      -9.561  17.952  70.170  1.00  0.00     1.769 C  
HETATM   10  C   UNL     1      -6.355  12.595  72.321  1.00  0.00     3.619 C  
HETATM   11  C   UNL     1      -7.221  11.956  71.315  1.00  0.00     5.424 C  
HETATM   12  H   UNL     1      -8.973  17.175  66.122  1.00  0.00     0.000 HD 
HETATM   13  C   UNL     1      -8.262  16.870  70.364  1.00  0.00     3.149 C  
HETATM   14  C   UNL     1      -7.080  13.640  73.155  1.00  0.00     5.225 C  
HETATM   15  O   UNL     1      -7.155  17.355  70.607  1.00  0.00     1.947 OA 
HETATM   16  C   UNL     1      -6.122  14.668  69.583  1.00  0.00    -0.121 C  
HETATM   17  C   UNL     1      -8.459  15.208  70.178  1.00  0.00     0.589 C  
HETATM   18  C   UNL     1      -9.193  14.719  68.709  1.00  0.00    -0.196 C  
HETATM   19  C   UNL     1      -7.240  14.326  70.573  1.00  0.00     0.799 C  
HETATM   20  C   UNL     1      -7.002  14.541  72.159  1.00  0.00     2.575 C  
HETATM   21  C   UNL     1      -9.515  13.224  68.741  1.00  0.00     0.084 C  
HETATM   22  C   UNL     1      -8.300  12.385  69.101  1.00  0.00     0.556 C  
HETATM   23  C   UNL     1      -7.601  12.828  70.366  1.00  0.00     3.219 C  
ENDROOT
BRANCH   4  24
HETATM   24  C   UNL     1      -8.837  18.814  67.788  1.00  0.00    -0.290 C  
HETATM   25  O   UNL     1      -9.528  19.593  67.108  1.00  0.00    -0.312 OA 
BRANCH  24  26
HETATM   26  C   UNL     1      -7.365  19.386  68.154  1.00  0.00    -0.295 C  
BRANCH  26  27
HETATM   27  O   UNL     1      -6.401  19.066  67.076  1.00  0.00    -0.186 OA 
BRANCH  27  28
HETATM   28  C   UNL     1      -6.630  18.948  65.733  1.00  0.00    -0.252 C  
HETATM   29  C   UNL     1      -5.745  17.967  64.979  1.00  0.00     0.042 C  
HETATM   30  O   UNL     1      -7.493  19.554  65.141  1.00  0.00    -0.313 OA 
ENDBRANCH  27  28
ENDBRANCH  26  27
ENDBRANCH  24  26
ENDBRANCH   4  24
TORSDOF 4
ENDMDL
MODEL      145
REMARK 921   NORMALIZED FREE ENERGY PREDICTED BY IDOCK:   23.73 KCAL/MOL
REMARK 922        TOTAL FREE ENERGY PREDICTED BY IDOCK:   29.71 KCAL/MOL
REMARK 923 INTER-LIGAND FREE ENERGY PREDICTED BY IDOCK:   28.77 KCAL/MOL
REMARK 924 INTRA-LIGAND FREE ENERGY PREDICTED BY IDOCK:    0.93 KCAL/MOL
REMARK 927      BINDING AFFINITY PREDICTED BY RF-SCORE:    0.00 PKD
ROOT
HETATM    1  C   UNL     1      -9.049  17.599  65.894  1.00  0.00     0.087 C  
HETATM    2  C   UNL     1      -9.735  18.358  64.915  1.00  0.00     3.231 C  
HETATM    3  C   UNL     1     -10.581  17.784  66.016  1.00  0.00    -0.229 C  
HETATM    4  C   UNL     1      -9.650  17.107  67.752  1.00  0.00    -0.256 C  
HETATM    5  O   UNL     1     -12.522  10.954  64.435  1.00  0.00     1.483 OA 
HETATM    6  O   UNL     1      -8.169  17.226  67.844  1.00  0.00    -0.209 OA 
HETATM    7  C   UNL     1     -10.086  18.340  67.344  1.00  0.00    -0.364 C  
HETATM    8  C   UNL     1      -9.660  19.730  67.698  1.00  0.00    -0.470 C  
HETATM    9  C   UNL     1     -11.764  17.523  67.731  1.00  0.00     1.281 C  
HETATM   10  C   UNL     1     -12.410  12.100  64.020  1.00  0.00    -0.451 C  
HETATM   11  C   UNL     1     -11.181  12.646  63.417  1.00  0.00    -0.404 C  
HETATM   12  H   UNL     1      -7.745  16.916  68.636  1.00  0.00     0.000 HD 
HETATM   13  C   UNL     1     -11.724  15.865  67.351  1.00  0.00     0.300 C  
HETATM   14  C   UNL     1     -13.461  13.163  64.300  1.00  0.00     1.389 C  
HETATM   15  O   UNL     1     -12.205  15.085  68.177  1.00  0.00    -0.142 OA 
HETATM   16  C   UNL     1     -10.489  13.016  66.726  1.00  0.00    -0.264 C  
HETATM   17  C   UNL     1     -11.011  15.298  65.935  1.00  0.00    -0.325 C  
HETATM   18  C   UNL     1      -9.404  15.825  65.664  1.00  0.00    -0.202 C  
HETATM   19  C   UNL     1     -11.218  13.789  65.622  1.00  0.00    -0.306 C  
HETATM   20  C   UNL     1     -12.807  13.570  65.403  1.00  0.00    -0.420 C  
HETATM   21  C   UNL     1      -8.938  15.430  64.262  1.00  0.00     7.197 C  
HETATM   22  C   UNL     1      -9.125  13.946  63.995  1.00  0.00     5.206 C  
HETATM   23  C   UNL     1     -10.522  13.442  64.276  1.00  0.00    -0.325 C  
ENDROOT
BRANCH   4  24
HETATM   24  C   UNL     1      -9.845  17.429  69.534  1.00  0.00     0.170 C  
HETATM   25  O   UNL     1     -10.604  16.762  70.260  1.00  0.00    -0.077 OA 
BRANCH  24  26
HETATM   26  C   UNL     1      -9.164  18.696  70.281  1.00  0.00     2.177 C  
BRANCH  26  27
HETATM   27  O   UNL     1     -10.137  19.349  71.188  1.00  0.00     1.584 OA 
BRANCH  27  28
HETATM   28  C   UNL     1      -9.893  20.102  72.303  1.00  0.00     3.080 C  
HETATM   29  C   UNL     1     -10.578  19.656  73.585  1.00  0.00     4.512 C  
HETATM   30  O   UNL     1      -9.161  21.064  72.318  1.00  0.00     1.518 OA 
ENDBRANCH  27  28
ENDBRANCH  26  27
ENDBRANCH  24  26
ENDBRANCH   4  24
TORSDOF 4
ENDMDL
MODEL      146
REMARK 921   NORMALIZED FREE ENERGY PREDICTED BY IDOCK:   44.63 KCAL/MOL
REMARK 922        TOTAL FREE ENERGY PREDICTED BY IDOCK:   55.49 KCAL/MOL
REMARK 923 INTER-LIGAND FREE ENERGY PREDICTED BY IDOCK:   49.74 KCAL/MOL
REMARK 924 INTRA-LIGAND FREE ENERGY PREDICTED BY IDOCK:    5.75 KCAL/MOL
REMARK 927      BINDING AFFINITY PREDICTED BY RF-SCORE:    0.00 PKD
ROOT
HETATM    1  C   UNL     1     -10.519  15.181  71.750  1.00  0.00     1.096 C  
HETATM    2  C   UNL     1     -11.934  15.231  71.759  1.00  0.00    -0.453 C  
HETATM    3  C   UNL     1     -11.311  14.370  70.698  1.00  0.00    -0.080 C  
HETATM    4  C   UNL     1      -9.315  13.811  70.897  1.00  0.00     5.894 C  
HETATM    5  O   UNL     1      -9.574  18.365  64.872  1.00  0.00     1.722 OA 
HETATM    6  O   UNL     1      -8.573  14.281  72.098  1.00  0.00     4.878 OA 
HETATM    7  C   UNL     1     -10.486  13.287  71.379  1.00  0.00     6.428 C  
HETATM    8  C   UNL     1     -10.802  12.462  72.586  1.00  0.00    12.340 C  
HETATM    9  C   UNL     1     -10.624  12.747  69.556  1.00  0.00     0.392 C  
HETATM   10  C   UNL     1     -10.426  18.116  65.715  1.00  0.00    -0.207 C  
HETATM   11  C   UNL     1     -10.508  18.776  67.030  1.00  0.00    -0.474 C  
HETATM   12  H   UNL     1      -7.662  14.026  72.189  1.00  0.00     0.000 HD 
HETATM   13  C   UNL     1      -9.942  13.922  68.531  1.00  0.00    -0.221 C  
HETATM   14  C   UNL     1     -11.355  16.918  65.590  1.00  0.00     0.632 C  
HETATM   15  O   UNL     1      -9.206  13.522  67.625  1.00  0.00    -0.196 OA 
HETATM   16  C   UNL     1      -8.164  16.394  67.657  1.00  0.00    -0.166 C  
HETATM   17  C   UNL     1     -10.211  15.567  68.767  1.00  0.00    -0.212 C  
HETATM   18  C   UNL     1      -9.872  16.144  70.344  1.00  0.00     0.837 C  
HETATM   19  C   UNL     1      -9.691  16.513  67.647  1.00  0.00    -0.239 C  
HETATM   20  C   UNL     1     -10.517  16.146  66.304  1.00  0.00    -0.321 C  
HETATM   21  C   UNL     1     -10.352  17.588  70.503  1.00  0.00     1.531 C  
HETATM   22  C   UNL     1      -9.805  18.495  69.412  1.00  0.00     0.049 C  
HETATM   23  C   UNL     1     -10.044  17.983  68.010  1.00  0.00    -0.370 C  
ENDROOT
BRANCH   4  24
HETATM   24  C   UNL     1      -8.406  12.232  70.881  1.00  0.00     8.703 C  
HETATM   25  O   UNL     1      -8.818  11.224  70.280  1.00  0.00     1.685 OA 
BRANCH  24  26
HETATM   26  C   UNL     1      -7.073  11.972  71.767  1.00  0.00     7.096 C  
BRANCH  26  27
HETATM   27  O   UNL     1      -6.255  10.891  71.170  1.00  0.00    -0.340 OA 
BRANCH  27  28
HETATM   28  C   UNL     1      -6.504  10.154  70.045  1.00  0.00    -0.106 C  
HETATM   29  C   UNL     1      -7.621  10.653  69.143  1.00  0.00    -0.131 C  
HETATM   30  O   UNL     1      -5.878   9.167  69.735  1.00  0.00    -0.032 OA 
ENDBRANCH  27  28
ENDBRANCH  26  27
ENDBRANCH  24  26
ENDBRANCH   4  24
TORSDOF 4
ENDMDL
MODEL      147
REMARK 921   NORMALIZED FREE ENERGY PREDICTED BY IDOCK:   50.41 KCAL/MOL
REMARK 922        TOTAL FREE ENERGY PREDICTED BY IDOCK:   62.62 KCAL/MOL
REMARK 923 INTER-LIGAND FREE ENERGY PREDICTED BY IDOCK:   61.94 KCAL/MOL
REMARK 924 INTRA-LIGAND FREE ENERGY PREDICTED BY IDOCK:    0.68 KCAL/MOL
REMARK 927      BINDING AFFINITY PREDICTED BY RF-SCORE:    0.00 PKD
ROOT
HETATM    1  C   UNL     1      -8.282  17.754  64.170  1.00  0.00    10.277 C  
HETATM    2  C   UNL     1      -7.704  18.970  63.733  1.00  0.00     7.379 C  
HETATM    3  C   UNL     1      -7.172  18.414  65.022  1.00  0.00     1.113 C  
HETATM    4  C   UNL     1      -7.557  16.422  65.494  1.00  0.00     2.311 C  
HETATM    5  O   UNL     1     -11.339  20.504  70.607  1.00  0.00     3.020 OA 
HETATM    6  O   UNL     1      -8.342  15.612  64.525  1.00  0.00     4.547 OA 
HETATM    7  C   UNL     1      -6.586  17.036  64.747  1.00  0.00     4.758 C  
HETATM    8  C   UNL     1      -5.744  16.567  63.602  1.00  0.00    10.697 C  
HETATM    9  C   UNL     1      -5.984  17.503  66.494  1.00  0.00    -0.240 C  
HETATM   10  C   UNL     1     -10.766  20.850  69.582  1.00  0.00     1.184 C  
HETATM   11  C   UNL     1     -11.364  20.783  68.237  1.00  0.00     2.162 C  
HETATM   12  H   UNL     1      -8.518  14.703  64.740  1.00  0.00     0.000 HD 
HETATM   13  C   UNL     1      -7.305  17.754  67.536  1.00  0.00    -0.198 C  
HETATM   14  C   UNL     1      -9.278  21.166  69.559  1.00  0.00     2.834 C  
HETATM   15  O   UNL     1      -7.243  17.248  68.659  1.00  0.00    -0.210 OA 
HETATM   16  C   UNL     1     -10.279  17.582  68.614  1.00  0.00    -0.373 C  
HETATM   17  C   UNL     1      -8.670  18.609  67.044  1.00  0.00    -0.285 C  
HETATM   18  C   UNL     1      -9.387  18.066  65.586  1.00  0.00     0.591 C  
HETATM   19  C   UNL     1      -9.713  18.929  68.153  1.00  0.00    -0.396 C  
HETATM   20  C   UNL     1      -8.978  19.899  69.220  1.00  0.00     0.190 C  
HETATM   21  C   UNL     1     -10.476  19.037  65.128  1.00  0.00     0.912 C  
HETATM   22  C   UNL     1     -11.496  19.309  66.222  1.00  0.00     0.854 C  
HETATM   23  C   UNL     1     -10.888  19.739  67.536  1.00  0.00    -0.406 C  
ENDROOT
BRANCH   4  24
HETATM   24  C   UNL     1      -6.540  14.984  65.960  1.00  0.00     5.265 C  
HETATM   25  O   UNL     1      -5.296  15.015  65.975  1.00  0.00     3.691 OA 
BRANCH  24  26
HETATM   26  C   UNL     1      -7.166  13.516  66.247  1.00  0.00     2.969 C  
BRANCH  26  27
HETATM   27  O   UNL     1      -8.251  13.602  67.252  1.00  0.00    -0.175 OA 
BRANCH  27  28
HETATM   28  C   UNL     1      -8.951  12.586  67.843  1.00  0.00    -0.188 C  
HETATM   29  C   UNL     1      -8.404  11.182  67.642  1.00  0.00    -0.122 C  
HETATM   30  O   UNL     1      -9.942  12.754  68.515  1.00  0.00    -0.222 OA 
ENDBRANCH  27  28
ENDBRANCH  26  27
ENDBRANCH  24  26
ENDBRANCH   4  24
TORSDOF 4
ENDMDL
MODEL      148
REMARK 921   NORMALIZED FREE ENERGY PREDICTED BY IDOCK:   58.67 KCAL/MOL
REMARK 922        TOTAL FREE ENERGY PREDICTED BY IDOCK:   72.82 KCAL/MOL
REMARK 923 INTER-LIGAND FREE ENERGY PREDICTED BY IDOCK:   72.28 KCAL/MOL
REMARK 924 INTRA-LIGAND FREE ENERGY PREDICTED BY IDOCK:    0.54 KCAL/MOL
REMARK 927      BINDING AFFINITY PREDICTED BY RF-SCORE:    0.00 PKD
ROOT
HETATM    1  C   UNL     1     -13.296  11.093  72.133  1.00  0.00    -0.270 C  
HETATM    2  C   UNL     1     -13.095   9.899  72.867  1.00  0.00     0.765 C  
HETATM    3  C   UNL     1     -11.855  10.656  72.487  1.00  0.00     2.940 C  
HETATM    4  C   UNL     1     -12.033  12.639  71.876  1.00  0.00     1.705 C  
HETATM    5  O   UNL     1      -9.713   8.823  65.781  1.00  0.00    -0.204 OA 
HETATM    6  O   UNL     1     -13.392  13.244  71.848  1.00  0.00    -0.418 OA 
HETATM    7  C   UNL     1     -11.928  12.044  73.106  1.00  0.00     7.587 C  
HETATM    8  C   UNL     1     -12.381  12.459  74.471  1.00  0.00    15.406 C  
HETATM    9  C   UNL     1     -10.129  11.852  72.507  1.00  0.00    17.764 C  
HETATM   10  C   UNL     1     -10.109   8.419  66.866  1.00  0.00    -0.294 C  
HETATM   11  C   UNL     1     -11.530   8.264  67.225  1.00  0.00     1.660 C  
HETATM   12  H   UNL     1     -13.473  14.149  71.570  1.00  0.00     0.000 HD 
HETATM   13  C   UNL     1     -10.082  11.590  70.827  1.00  0.00     4.305 C  
HETATM   14  C   UNL     1      -9.173   8.257  68.055  1.00  0.00    -0.142 C  
HETATM   15  O   UNL     1      -9.249  12.229  70.179  1.00  0.00     3.017 OA 
HETATM   16  C   UNL     1     -11.077  11.581  67.819  1.00  0.00    -0.319 C  
HETATM   17  C   UNL     1     -11.161  10.548  70.062  1.00  0.00    -0.376 C  
HETATM   18  C   UNL     1     -12.816  10.839  70.392  1.00  0.00    -0.285 C  
HETATM   19  C   UNL     1     -10.881  10.256  68.560  1.00  0.00    -0.281 C  
HETATM   20  C   UNL     1      -9.452   9.499  68.489  1.00  0.00    -0.146 C  
HETATM   21  C   UNL     1     -13.683   9.713  69.825  1.00  0.00     2.285 C  
HETATM   22  C   UNL     1     -13.409   9.468  68.350  1.00  0.00     9.470 C  
HETATM   23  C   UNL     1     -11.949   9.261  68.022  1.00  0.00     2.908 C  
ENDROOT
BRANCH   4  24
HETATM   24  C   UNL     1     -11.277  14.220  72.378  1.00  0.00     1.931 C  
HETATM   25  O   UNL     1     -10.127  14.297  72.845  1.00  0.00     4.567 OA 
BRANCH  24  26
HETATM   26  C   UNL     1     -12.091  15.621  72.394  1.00  0.00    -0.459 C  
BRANCH  26  27
HETATM   27  O   UNL     1     -12.093  16.236  71.046  1.00  0.00    -0.295 OA 
BRANCH  27  28
HETATM   28  C   UNL     1     -11.398  15.854  69.932  1.00  0.00    -0.348 C  
HETATM   29  C   UNL     1     -12.210  15.658  68.662  1.00  0.00     0.090 C  
HETATM   30  O   UNL     1     -10.200  15.691  69.909  1.00  0.00    -0.281 OA 
ENDBRANCH  27  28
ENDBRANCH  26  27
ENDBRANCH  24  26
ENDBRANCH   4  24
TORSDOF 4
ENDMDL
