MODEL        1
REMARK 921   NORMALIZED FREE ENERGY PREDICTED BY IDOCK:   -7.00 KCAL/MOL
REMARK 922        TOTAL FREE ENERGY PREDICTED BY IDOCK:  -10.55 KCAL/MOL
REMARK 923 INTER-LIGAND FREE ENERGY PREDICTED BY IDOCK:  -10.69 KCAL/MOL
REMARK 924 INTRA-LIGAND FREE ENERGY PREDICTED BY IDOCK:    0.13 KCAL/MOL
REMARK 927      BINDING AFFINITY PREDICTED BY RF-SCORE:    0.00 PKD
ROOT
HETATM    1  C   UNL     1     -11.916  12.933  68.342  1.00  0.00    -0.289 C  
HETATM    2  C   UNL     1     -11.899  12.815  69.756  1.00  0.00    -0.380 C  
HETATM    3  C   UNL     1     -10.714  13.409  69.070  1.00  0.00    -0.160 C  
HETATM    4  C   UNL     1     -10.933  14.064  67.101  1.00  0.00    -0.296 C  
HETATM    5  C   UNL     1      -8.344  10.653  65.713  1.00  0.00    -0.162 C  
HETATM    6  C   UNL     1      -8.411  10.515  67.238  1.00  0.00    -0.122 C  
HETATM    7  C   UNL     1     -11.064  14.670  68.330  1.00  0.00    -0.283 C  
HETATM    8  C   UNL     1      -7.040  10.473  68.048  1.00  0.00    -0.086 C  
HETATM    9  C   UNL     1     -11.998  15.787  68.739  1.00  0.00    -0.226 C  
HETATM   10  C   UNL     1      -9.154  14.646  68.345  1.00  0.00    -0.192 C  
HETATM   11  O   UNL     1      -6.268   7.914  67.044  1.00  0.00    -0.051 OA 
HETATM   12  C   UNL     1      -6.595   9.494  68.854  1.00  0.00    -0.047 C  
HETATM   13  C   UNL     1      -7.023   8.393  67.879  1.00  0.00    -0.078 C  
HETATM   14  C   UNL     1      -8.464   8.119  67.931  1.00  0.00    -0.132 C  
HETATM   15  C   UNL     1      -8.545  13.255  67.556  1.00  0.00    -0.200 C  
HETATM   16  C   UNL     1      -9.169   9.192  67.531  1.00  0.00    -0.144 C  
HETATM   17  C   UNL     1     -10.654   9.122  67.305  1.00  0.00    -0.303 C  
HETATM   18  C   UNL     1      -9.192  11.732  67.838  1.00  0.00    -0.181 C  
HETATM   19  O   UNL     1      -8.589  13.577  66.156  1.00  0.00    -0.214 OA 
HETATM   20  C   UNL     1     -11.402  10.261  67.977  1.00  0.00    -0.219 C  
HETATM   21  C   UNL     1     -10.841  11.634  67.596  1.00  0.00    -0.273 C  
HETATM   22  H   UNL     1      -8.252  12.805  65.718  1.00  0.00     0.000 HD 
ENDROOT
BRANCH   4  23
HETATM   23  C   UNL     1     -10.431  15.625  66.260  1.00  0.00    -0.306 C  
HETATM   24  O   UNL     1      -9.979  15.628  65.096  1.00  0.00    -0.357 OA 
BRANCH  23  25
HETATM   25  C   UNL     1     -10.408  17.106  66.910  1.00  0.00    -0.308 C  
BRANCH  25  26
HETATM   26  O   UNL     1     -10.115  18.169  65.828  1.00  0.00    -0.563 OA 
BRANCH  26  27
HETATM   27  C   UNL     1     -10.420  19.505  66.006  1.00  0.00    -0.516 C  
HETATM   28  O   UNL     1     -11.054  20.153  65.182  1.00  0.00    -0.227 OA 
BRANCH  27  29
HETATM   29  C   UNL     1      -9.896  20.129  67.338  1.00  0.00    -0.573 C  
HETATM   30  C   UNL     1      -8.362  20.317  67.387  1.00  0.00    -0.396 C  
ENDBRANCH  27  29
ENDBRANCH  26  27
ENDBRANCH  25  26
ENDBRANCH  23  25
ENDBRANCH   4  23
BRANCH   4  31
HETATM   31  O   UNL     1     -12.411  14.160  66.458  1.00  0.00    -0.447 OA 
BRANCH  31  32
HETATM   32  C   UNL     1     -12.756  13.902  65.143  1.00  0.00    -0.398 C  
HETATM   33  O   UNL     1     -12.722  14.712  64.231  1.00  0.00    -0.679 OA 
BRANCH  32  34
HETATM   34  O   UNL     1     -12.930  12.553  64.930  1.00  0.00    -0.821 OA 
BRANCH  34  35
HETATM   35  C   UNL     1     -12.473  12.138  63.619  1.00  0.00    -0.549 C  
HETATM   36  C   UNL     1     -11.052  11.593  63.593  1.00  0.00    -0.506 C  
ENDBRANCH  34  35
ENDBRANCH  32  34
ENDBRANCH  31  32
ENDBRANCH   4  31
TORSDOF 9
ENDMDL
MODEL        2
REMARK 921   NORMALIZED FREE ENERGY PREDICTED BY IDOCK:   -6.96 KCAL/MOL
REMARK 922        TOTAL FREE ENERGY PREDICTED BY IDOCK:  -10.49 KCAL/MOL
REMARK 923 INTER-LIGAND FREE ENERGY PREDICTED BY IDOCK:  -10.21 KCAL/MOL
REMARK 924 INTRA-LIGAND FREE ENERGY PREDICTED BY IDOCK:   -0.28 KCAL/MOL
REMARK 927      BINDING AFFINITY PREDICTED BY RF-SCORE:    0.00 PKD
ROOT
HETATM    1  C   UNL     1     -11.478  14.570  68.229  1.00  0.00    -0.336 C  
HETATM    2  C   UNL     1     -11.872  14.399  69.581  1.00  0.00    -0.372 C  
HETATM    3  C   UNL     1     -10.427  14.614  69.275  1.00  0.00    -0.218 C  
HETATM    4  C   UNL     1      -9.913  15.378  67.402  1.00  0.00    -0.229 C  
HETATM    5  C   UNL     1      -8.178  11.377  66.283  1.00  0.00    -0.088 C  
HETATM    6  C   UNL     1      -8.684  11.211  67.720  1.00  0.00    -0.132 C  
HETATM    7  C   UNL     1     -10.180  15.948  68.626  1.00  0.00    -0.223 C  
HETATM    8  C   UNL     1      -7.652  10.707  68.826  1.00  0.00    -0.109 C  
HETATM    9  C   UNL     1     -10.815  17.286  68.927  1.00  0.00    -0.100 C  
HETATM   10  C   UNL     1      -8.438  15.321  69.096  1.00  0.00    -0.234 C  
HETATM   11  O   UNL     1      -7.433   8.075  67.741  1.00  0.00    -0.090 OA 
HETATM   12  C   UNL     1      -7.746   9.609  69.594  1.00  0.00    -0.124 C  
HETATM   13  C   UNL     1      -8.206   8.737  68.422  1.00  0.00    -0.118 C  
HETATM   14  C   UNL     1      -9.624   8.931  68.093  1.00  0.00    -0.161 C  
HETATM   15  C   UNL     1      -8.081  13.839  68.318  1.00  0.00    -0.150 C  
HETATM   16  C   UNL     1      -9.848  10.185  67.665  1.00  0.00    -0.201 C  
HETATM   17  C   UNL     1     -11.172  10.597  67.083  1.00  0.00    -0.177 C  
HETATM   18  C   UNL     1      -9.200  12.589  68.254  1.00  0.00    -0.186 C  
HETATM   19  O   UNL     1      -7.656  14.210  66.996  1.00  0.00    -0.344 OA 
HETATM   20  C   UNL     1     -11.700  11.888  67.685  1.00  0.00    -0.346 C  
HETATM   21  C   UNL     1     -10.678  13.026  67.614  1.00  0.00    -0.239 C  
HETATM   22  H   UNL     1      -7.458  13.388  66.564  1.00  0.00     0.000 HD 
ENDROOT
BRANCH   4  23
HETATM   23  C   UNL     1      -8.769  16.730  66.895  1.00  0.00    -0.216 C  
HETATM   24  O   UNL     1      -8.270  16.775  65.752  1.00  0.00    -0.398 OA 
BRANCH  23  25
HETATM   25  C   UNL     1      -8.201  17.916  67.838  1.00  0.00    -0.246 C  
BRANCH  25  26
HETATM   26  O   UNL     1      -7.465  18.977  66.991  1.00  0.00    -0.216 OA 
BRANCH  26  27
HETATM   27  C   UNL     1      -7.830  20.309  66.998  1.00  0.00    -0.329 C  
HETATM   28  O   UNL     1      -7.017  21.218  66.878  1.00  0.00    -0.406 OA 
BRANCH  27  29
HETATM   29  C   UNL     1      -9.359  20.573  67.169  1.00  0.00    -0.513 C  
HETATM   30  C   UNL     1     -10.231  19.995  66.030  1.00  0.00    -0.568 C  
ENDBRANCH  27  29
ENDBRANCH  26  27
ENDBRANCH  25  26
ENDBRANCH  23  25
ENDBRANCH   4  23
BRANCH   4  31
HETATM   31  O   UNL     1     -11.071  15.960  66.439  1.00  0.00    -0.182 OA 
BRANCH  31  32
HETATM   32  C   UNL     1     -11.146  15.823  65.064  1.00  0.00    -0.370 C  
HETATM   33  O   UNL     1     -11.288  16.738  64.269  1.00  0.00    -1.170 OA 
BRANCH  32  34
HETATM   34  O   UNL     1     -10.812  14.547  64.672  1.00  0.00    -0.391 OA 
BRANCH  34  35
HETATM   35  C   UNL     1     -11.971  13.767  64.285  1.00  0.00    -0.443 C  
HETATM   36  C   UNL     1     -11.640  12.408  63.685  1.00  0.00    -0.580 C  
ENDBRANCH  34  35
ENDBRANCH  32  34
ENDBRANCH  31  32
ENDBRANCH   4  31
TORSDOF 9
ENDMDL
MODEL        3
REMARK 921   NORMALIZED FREE ENERGY PREDICTED BY IDOCK:   -6.37 KCAL/MOL
REMARK 922        TOTAL FREE ENERGY PREDICTED BY IDOCK:   -9.58 KCAL/MOL
REMARK 923 INTER-LIGAND FREE ENERGY PREDICTED BY IDOCK:   -9.96 KCAL/MOL
REMARK 924 INTRA-LIGAND FREE ENERGY PREDICTED BY IDOCK:    0.38 KCAL/MOL
REMARK 927      BINDING AFFINITY PREDICTED BY RF-SCORE:    0.00 PKD
ROOT
HETATM    1  C   UNL     1     -10.901  12.933  64.611  1.00  0.00    -0.365 C  
HETATM    2  C   UNL     1     -12.060  12.351  64.036  1.00  0.00    -0.563 C  
HETATM    3  C   UNL     1     -11.883  12.287  65.516  1.00  0.00    -0.420 C  
HETATM    4  C   UNL     1     -10.495  13.567  66.405  1.00  0.00    -0.287 C  
HETATM    5  C   UNL     1      -7.848  10.031  67.282  1.00  0.00    -0.102 C  
HETATM    6  C   UNL     1      -9.085   9.449  66.589  1.00  0.00    -0.181 C  
HETATM    7  C   UNL     1     -11.842  13.655  66.139  1.00  0.00    -0.424 C  
HETATM    8  C   UNL     1      -9.896   8.301  67.342  1.00  0.00    -0.246 C  
HETATM    9  C   UNL     1     -12.660  14.881  65.802  1.00  0.00     0.277 C  
HETATM   10  C   UNL     1     -12.030  12.466  67.622  1.00  0.00    -0.249 C  
HETATM   11  O   UNL     1      -7.828   6.352  67.066  1.00  0.00    -0.102 OA 
HETATM   12  C   UNL     1     -10.144   7.055  66.908  1.00  0.00    -0.296 C  
HETATM   13  C   UNL     1      -8.712   6.867  66.395  1.00  0.00    -0.142 C  
HETATM   14  C   UNL     1      -8.479   7.534  65.109  1.00  0.00    -0.043 C  
HETATM   15  C   UNL     1     -10.715  11.374  67.713  1.00  0.00    -0.211 C  
HETATM   16  C   UNL     1      -8.602   8.867  65.233  1.00  0.00    -0.209 C  
HETATM   17  C   UNL     1      -8.227   9.803  64.117  1.00  0.00    -0.158 C  
HETATM   18  C   UNL     1     -10.133  10.587  66.349  1.00  0.00    -0.285 C  
HETATM   19  O   UNL     1      -9.667  12.113  68.361  1.00  0.00    -0.209 OA 
HETATM   20  C   UNL     1      -9.301  10.840  63.837  1.00  0.00    -0.284 C  
HETATM   21  C   UNL     1      -9.714  11.608  65.096  1.00  0.00    -0.245 C  
HETATM   22  H   UNL     1      -8.938  11.507  68.411  1.00  0.00     0.000 HD 
ENDROOT
BRANCH   4  23
HETATM   23  C   UNL     1     -10.599  14.662  67.883  1.00  0.00    -0.244 C  
HETATM   24  O   UNL     1      -9.666  14.744  68.708  1.00  0.00    -0.214 OA 
BRANCH  23  25
HETATM   25  C   UNL     1     -11.880  15.536  68.346  1.00  0.00    -0.224 C  
BRANCH  25  26
HETATM   26  O   UNL     1     -11.903  15.692  69.882  1.00  0.00    -0.327 OA 
BRANCH  26  27
HETATM   27  C   UNL     1     -12.856  15.077  70.671  1.00  0.00    -0.363 C  
HETATM   28  O   UNL     1     -13.861  15.657  71.067  1.00  0.00    -0.567 OA 
BRANCH  27  29
HETATM   29  C   UNL     1     -12.560  13.585  71.020  1.00  0.00    -0.438 C  
HETATM   30  C   UNL     1     -13.490  12.994  72.106  1.00  0.00    -0.638 C  
ENDBRANCH  27  29
ENDBRANCH  26  27
ENDBRANCH  25  26
ENDBRANCH  23  25
ENDBRANCH   4  23
BRANCH   4  31
HETATM   31  O   UNL     1      -9.844  14.759  65.532  1.00  0.00    -0.342 OA 
BRANCH  31  32
HETATM   32  C   UNL     1      -9.123  15.837  66.016  1.00  0.00    -0.326 C  
HETATM   33  O   UNL     1      -7.971  15.793  66.418  1.00  0.00    -0.214 OA 
BRANCH  32  34
HETATM   34  O   UNL     1      -9.781  17.021  65.780  1.00  0.00    -0.522 OA 
BRANCH  34  35
HETATM   35  C   UNL     1      -9.350  18.080  66.672  1.00  0.00    -0.291 C  
HETATM   36  C   UNL     1     -10.478  18.953  67.201  1.00  0.00    -0.509 C  
ENDBRANCH  34  35
ENDBRANCH  32  34
ENDBRANCH  31  32
ENDBRANCH   4  31
TORSDOF 9
ENDMDL
MODEL        4
REMARK 921   NORMALIZED FREE ENERGY PREDICTED BY IDOCK:   -6.35 KCAL/MOL
REMARK 922        TOTAL FREE ENERGY PREDICTED BY IDOCK:   -9.55 KCAL/MOL
REMARK 923 INTER-LIGAND FREE ENERGY PREDICTED BY IDOCK:  -10.15 KCAL/MOL
REMARK 924 INTRA-LIGAND FREE ENERGY PREDICTED BY IDOCK:    0.60 KCAL/MOL
REMARK 927      BINDING AFFINITY PREDICTED BY RF-SCORE:    0.00 PKD
ROOT
HETATM    1  C   UNL     1     -11.151  12.764  64.078  1.00  0.00    -0.458 C  
HETATM    2  C   UNL     1     -12.261  12.025  63.592  1.00  0.00    -0.642 C  
HETATM    3  C   UNL     1     -11.870  11.875  65.024  1.00  0.00    -0.213 C  
HETATM    4  C   UNL     1     -10.614  13.315  65.865  1.00  0.00    -0.281 C  
HETATM    5  C   UNL     1      -7.296  10.277  66.032  1.00  0.00    -0.129 C  
HETATM    6  C   UNL     1      -8.497   9.532  65.440  1.00  0.00    -0.157 C  
HETATM    7  C   UNL     1     -11.980  13.172  65.778  1.00  0.00    -0.473 C  
HETATM    8  C   UNL     1      -8.982   8.196  66.162  1.00  0.00    -0.218 C  
HETATM    9  C   UNL     1     -13.039  14.247  65.674  1.00  0.00    -0.045 C  
HETATM   10  C   UNL     1     -11.749  11.853  67.139  1.00  0.00    -0.311 C  
HETATM   11  O   UNL     1      -6.666   6.696  65.431  1.00  0.00    -0.048 OA 
HETATM   12  C   UNL     1      -9.068   6.965  65.634  1.00  0.00     0.097 C  
HETATM   13  C   UNL     1      -7.712   7.089  64.932  1.00  0.00    -0.114 C  
HETATM   14  C   UNL     1      -7.781   7.890  63.704  1.00  0.00    -0.136 C  
HETATM   15  C   UNL     1     -10.264  11.022  66.952  1.00  0.00    -0.222 C  
HETATM   16  C   UNL     1      -8.116   9.162  63.981  1.00  0.00    -0.151 C  
HETATM   17  C   UNL     1      -8.070  10.238  62.932  1.00  0.00    -0.156 C  
HETATM   18  C   UNL     1      -9.751  10.470  65.452  1.00  0.00    -0.315 C  
HETATM   19  O   UNL     1      -9.281  11.888  67.540  1.00  0.00    -0.170 OA 
HETATM   20  C   UNL     1      -9.337  11.076  62.897  1.00  0.00    -0.380 C  
HETATM   21  C   UNL     1      -9.696  11.649  64.271  1.00  0.00    -0.196 C  
HETATM   22  H   UNL     1      -8.457  11.428  67.436  1.00  0.00     0.000 HD 
ENDROOT
BRANCH   4  23
HETATM   23  C   UNL     1     -10.700  14.249  67.451  1.00  0.00    -0.282 C  
HETATM   24  O   UNL     1      -9.720  14.329  68.221  1.00  0.00    -0.209 OA 
BRANCH  23  25
HETATM   25  C   UNL     1     -12.009  14.963  68.080  1.00  0.00    -0.185 C  
BRANCH  25  26
HETATM   26  O   UNL     1     -12.255  14.469  69.522  1.00  0.00    -0.308 OA 
BRANCH  26  27
HETATM   27  C   UNL     1     -12.365  15.339  70.590  1.00  0.00    -0.377 C  
HETATM   28  O   UNL     1     -11.469  16.114  70.905  1.00  0.00    -0.403 OA 
BRANCH  27  29
HETATM   29  C   UNL     1     -13.716  15.263  71.367  1.00  0.00    -0.602 C  
HETATM   30  C   UNL     1     -13.606  15.634  72.864  1.00  0.00    -0.658 C  
ENDBRANCH  27  29
ENDBRANCH  26  27
ENDBRANCH  25  26
ENDBRANCH  23  25
ENDBRANCH   4  23
BRANCH   4  31
HETATM   31  O   UNL     1     -10.310  14.675  65.048  1.00  0.00    -0.403 OA 
BRANCH  31  32
HETATM   32  C   UNL     1      -9.703  15.816  65.543  1.00  0.00    -0.220 C  
HETATM   33  O   UNL     1      -8.538  15.899  65.898  1.00  0.00    -0.237 OA 
BRANCH  32  34
HETATM   34  O   UNL     1     -10.507  16.919  65.377  1.00  0.00    -0.609 OA 
BRANCH  34  35
HETATM   35  C   UNL     1     -10.305  17.912  66.413  1.00  0.00    -0.365 C  
HETATM   36  C   UNL     1     -10.574  19.343  65.972  1.00  0.00    -0.573 C  
ENDBRANCH  34  35
ENDBRANCH  32  34
ENDBRANCH  31  32
ENDBRANCH   4  31
TORSDOF 9
ENDMDL
MODEL        5
REMARK 921   NORMALIZED FREE ENERGY PREDICTED BY IDOCK:   -6.31 KCAL/MOL
REMARK 922        TOTAL FREE ENERGY PREDICTED BY IDOCK:   -9.50 KCAL/MOL
REMARK 923 INTER-LIGAND FREE ENERGY PREDICTED BY IDOCK:   -9.62 KCAL/MOL
REMARK 924 INTRA-LIGAND FREE ENERGY PREDICTED BY IDOCK:    0.12 KCAL/MOL
REMARK 927      BINDING AFFINITY PREDICTED BY RF-SCORE:    0.00 PKD
ROOT
HETATM    1  C   UNL     1     -11.494  11.921  67.193  1.00  0.00    -0.386 C  
HETATM    2  C   UNL     1     -11.659  12.060  65.790  1.00  0.00    -0.353 C  
HETATM    3  C   UNL     1     -10.281  11.894  66.338  1.00  0.00    -0.240 C  
HETATM    4  C   UNL     1     -10.069  11.173  68.285  1.00  0.00    -0.185 C  
HETATM    5  C   UNL     1      -8.655  15.240  69.602  1.00  0.00    -0.104 C  
HETATM    6  C   UNL     1      -8.917  15.370  68.097  1.00  0.00    -0.176 C  
HETATM    7  C   UNL     1     -10.110  10.577  67.045  1.00  0.00    -0.259 C  
HETATM    8  C   UNL     1      -7.728  15.888  67.171  1.00  0.00    -0.247 C  
HETATM    9  C   UNL     1     -10.649   9.216  66.667  1.00  0.00    -0.157 C  
HETATM   10  C   UNL     1      -8.332  11.249  66.861  1.00  0.00    -0.155 C  
HETATM   11  O   UNL     1      -7.767  18.541  68.226  1.00  0.00    -0.274 OA 
HETATM   12  C   UNL     1      -7.722  16.972  66.377  1.00  0.00    -0.350 C  
HETATM   13  C   UNL     1      -8.396  17.847  67.438  1.00  0.00    -0.224 C  
HETATM   14  C   UNL     1      -9.843  17.615  67.528  1.00  0.00    -0.299 C  
HETATM   15  C   UNL     1      -8.151  12.752  67.660  1.00  0.00    -0.175 C  
HETATM   16  C   UNL     1     -10.102  16.361  67.936  1.00  0.00    -0.250 C  
HETATM   17  C   UNL     1     -11.493  15.918  68.297  1.00  0.00    -0.320 C  
HETATM   18  C   UNL     1      -9.298  13.969  67.511  1.00  0.00    -0.209 C  
HETATM   19  O   UNL     1      -7.944  12.414  69.041  1.00  0.00    -0.335 OA 
HETATM   20  C   UNL     1     -11.877  14.603  67.639  1.00  0.00    -0.366 C  
HETATM   21  C   UNL     1     -10.851  13.497  67.903  1.00  0.00    -0.262 C  
HETATM   22  H   UNL     1      -7.845  13.247  69.484  1.00  0.00     0.000 HD 
ENDROOT
BRANCH   4  23
HETATM   23  C   UNL     1      -8.989   9.863  69.003  1.00  0.00    -0.160 C  
HETATM   24  O   UNL     1      -8.196  10.103  69.937  1.00  0.00    -0.177 OA 
BRANCH  23  25
HETATM   25  C   UNL     1      -8.849   8.338  68.482  1.00  0.00    -0.137 C  
BRANCH  25  26
HETATM   26  O   UNL     1      -9.488   7.359  69.492  1.00  0.00    -0.156 OA 
BRANCH  26  27
HETATM   27  C   UNL     1     -10.630   6.639  69.198  1.00  0.00    -0.244 C  
HETATM   28  O   UNL     1     -10.789   6.061  68.128  1.00  0.00    -0.275 OA 
BRANCH  27  29
HETATM   29  C   UNL     1     -11.704   6.613  70.330  1.00  0.00    -0.432 C  
HETATM   30  C   UNL     1     -11.173   6.113  71.693  1.00  0.00    -0.342 C  
ENDBRANCH  27  29
ENDBRANCH  26  27
ENDBRANCH  25  26
ENDBRANCH  23  25
ENDBRANCH   4  23
BRANCH   4  31
HETATM   31  O   UNL     1     -11.356  10.570  69.052  1.00  0.00    -0.249 OA 
BRANCH  31  32
HETATM   32  C   UNL     1     -11.638  10.681  70.402  1.00  0.00    -0.351 C  
HETATM   33  O   UNL     1     -11.312   9.878  71.261  1.00  0.00    -0.368 OA 
BRANCH  32  34
HETATM   34  O   UNL     1     -12.138  11.927  70.705  1.00  0.00    -0.373 OA 
BRANCH  34  35
HETATM   35  C   UNL     1     -13.103  11.887  71.785  1.00  0.00    -0.360 C  
HETATM   36  C   UNL     1     -13.459  13.251  72.359  1.00  0.00    -0.670 C  
ENDBRANCH  34  35
ENDBRANCH  32  34
ENDBRANCH  31  32
ENDBRANCH   4  31
TORSDOF 9
ENDMDL
MODEL        6
REMARK 921   NORMALIZED FREE ENERGY PREDICTED BY IDOCK:   -6.23 KCAL/MOL
REMARK 922        TOTAL FREE ENERGY PREDICTED BY IDOCK:   -9.37 KCAL/MOL
REMARK 923 INTER-LIGAND FREE ENERGY PREDICTED BY IDOCK:   -9.19 KCAL/MOL
REMARK 924 INTRA-LIGAND FREE ENERGY PREDICTED BY IDOCK:   -0.18 KCAL/MOL
REMARK 927      BINDING AFFINITY PREDICTED BY RF-SCORE:    0.00 PKD
ROOT
HETATM    1  C   UNL     1     -11.400  11.721  67.038  1.00  0.00    -0.387 C  
HETATM    2  C   UNL     1     -11.505  11.840  65.628  1.00  0.00    -0.249 C  
HETATM    3  C   UNL     1     -10.148  11.743  66.242  1.00  0.00    -0.248 C  
HETATM    4  C   UNL     1      -9.994  11.050  68.205  1.00  0.00    -0.177 C  
HETATM    5  C   UNL     1      -8.837  15.191  69.540  1.00  0.00    -0.125 C  
HETATM    6  C   UNL     1      -9.033  15.295  68.024  1.00  0.00    -0.171 C  
HETATM    7  C   UNL     1      -9.949  10.443  66.971  1.00  0.00    -0.252 C  
HETATM    8  C   UNL     1      -7.827  15.861  67.149  1.00  0.00    -0.249 C  
HETATM    9  C   UNL     1     -10.406   9.054  66.583  1.00  0.00    -0.289 C  
HETATM   10  C   UNL     1      -8.198  11.196  66.863  1.00  0.00    -0.149 C  
HETATM   11  O   UNL     1      -8.040  18.518  68.171  1.00  0.00    -0.273 OA 
HETATM   12  C   UNL     1      -7.834  16.937  66.344  1.00  0.00    -0.348 C  
HETATM   13  C   UNL     1      -8.598  17.789  67.363  1.00  0.00    -0.231 C  
HETATM   14  C   UNL     1     -10.035  17.490  67.388  1.00  0.00    -0.315 C  
HETATM   15  C   UNL     1      -8.125  12.713  67.652  1.00  0.00    -0.173 C  
HETATM   16  C   UNL     1     -10.253  16.228  67.797  1.00  0.00    -0.270 C  
HETATM   17  C   UNL     1     -11.638  15.723  68.097  1.00  0.00    -0.259 C  
HETATM   18  C   UNL     1      -9.320  13.873  67.436  1.00  0.00    -0.228 C  
HETATM   19  O   UNL     1      -7.968  12.397  69.045  1.00  0.00    -0.335 OA 
HETATM   20  C   UNL     1     -11.928  14.386  67.437  1.00  0.00    -0.407 C  
HETATM   21  C   UNL     1     -10.865  13.332  67.760  1.00  0.00    -0.268 C  
HETATM   22  H   UNL     1      -7.929  13.238  69.483  1.00  0.00     0.000 HD 
ENDROOT
BRANCH   4  23
HETATM   23  C   UNL     1      -8.890   9.800  68.986  1.00  0.00    -0.153 C  
HETATM   24  O   UNL     1      -8.411   9.967  70.127  1.00  0.00    -0.191 OA 
BRANCH  23  25
HETATM   25  C   UNL     1      -8.334   8.443  68.301  1.00  0.00    -0.131 C  
BRANCH  25  26
HETATM   26  O   UNL     1      -8.593   7.228  69.218  1.00  0.00    -0.135 OA 
BRANCH  26  27
HETATM   27  C   UNL     1      -9.406   6.178  68.837  1.00  0.00    -0.124 C  
HETATM   28  O   UNL     1      -8.967   5.150  68.335  1.00  0.00    -0.104 OA 
BRANCH  27  29
HETATM   29  C   UNL     1     -10.930   6.397  69.095  1.00  0.00    -0.416 C  
HETATM   30  C   UNL     1     -11.363   6.161  70.561  1.00  0.00    -0.381 C  
ENDBRANCH  27  29
ENDBRANCH  26  27
ENDBRANCH  25  26
ENDBRANCH  23  25
ENDBRANCH   4  23
BRANCH   4  31
HETATM   31  O   UNL     1     -11.287  10.395  68.917  1.00  0.00    -0.249 OA 
BRANCH  31  32
HETATM   32  C   UNL     1     -11.736  10.645  70.202  1.00  0.00    -0.332 C  
HETATM   33  O   UNL     1     -11.986  11.747  70.661  1.00  0.00    -0.350 OA 
BRANCH  32  34
HETATM   34  O   UNL     1     -12.088   9.478  70.840  1.00  0.00    -0.291 OA 
BRANCH  34  35
HETATM   35  C   UNL     1     -13.273   9.634  71.662  1.00  0.00    -0.411 C  
HETATM   36  C   UNL     1     -14.198   8.427  71.663  1.00  0.00    -0.516 C  
ENDBRANCH  34  35
ENDBRANCH  32  34
ENDBRANCH  31  32
ENDBRANCH   4  31
TORSDOF 9
ENDMDL
MODEL        7
REMARK 921   NORMALIZED FREE ENERGY PREDICTED BY IDOCK:   -6.22 KCAL/MOL
REMARK 922        TOTAL FREE ENERGY PREDICTED BY IDOCK:   -9.36 KCAL/MOL
REMARK 923 INTER-LIGAND FREE ENERGY PREDICTED BY IDOCK:   -9.40 KCAL/MOL
REMARK 924 INTRA-LIGAND FREE ENERGY PREDICTED BY IDOCK:    0.04 KCAL/MOL
REMARK 927      BINDING AFFINITY PREDICTED BY RF-SCORE:    0.00 PKD
ROOT
HETATM    1  C   UNL     1     -11.546  11.168  68.166  1.00  0.00    -0.350 C  
HETATM    2  C   UNL     1     -11.523  10.750  69.522  1.00  0.00    -0.365 C  
HETATM    3  C   UNL     1     -10.402  11.592  69.010  1.00  0.00    -0.143 C  
HETATM    4  C   UNL     1     -10.678  12.631  67.222  1.00  0.00    -0.237 C  
HETATM    5  C   UNL     1      -7.749   9.870  65.204  1.00  0.00    -0.131 C  
HETATM    6  C   UNL     1      -7.809   9.401  66.662  1.00  0.00    -0.104 C  
HETATM    7  C   UNL     1     -10.875  12.942  68.547  1.00  0.00    -0.283 C  
HETATM    8  C   UNL     1      -6.443   9.320  67.480  1.00  0.00    -0.063 C  
HETATM    9  C   UNL     1     -11.920  13.847  69.161  1.00  0.00    -0.404 C  
HETATM   10  C   UNL     1      -8.973  13.103  68.608  1.00  0.00     0.048 C  
HETATM   11  O   UNL     1      -5.411   7.127  65.972  1.00  0.00    -0.026 OA 
HETATM   12  C   UNL     1      -5.905   8.240  68.070  1.00  0.00    -0.042 C  
HETATM   13  C   UNL     1      -6.215   7.338  66.871  1.00  0.00    -0.043 C  
HETATM   14  C   UNL     1      -7.621   6.919  66.825  1.00  0.00    -0.090 C  
HETATM   15  C   UNL     1      -8.222  11.982  67.555  1.00  0.00    -0.159 C  
HETATM   16  C   UNL     1      -8.429   7.978  66.646  1.00  0.00    -0.133 C  
HETATM   17  C   UNL     1      -9.898   7.813  66.371  1.00  0.00    -0.198 C  
HETATM   18  C   UNL     1      -8.712  10.377  67.488  1.00  0.00    -0.125 C  
HETATM   19  O   UNL     1      -8.293  12.591  66.256  1.00  0.00    -0.389 OA 
HETATM   20  C   UNL     1     -10.761   8.701  67.252  1.00  0.00    -0.209 C  
HETATM   21  C   UNL     1     -10.341  10.172  67.187  1.00  0.00    -0.295 C  
HETATM   22  H   UNL     1      -7.877  11.969  65.672  1.00  0.00     0.000 HD 
ENDROOT
BRANCH   4  23
HETATM   23  C   UNL     1     -10.334  14.377  66.746  1.00  0.00    -0.273 C  
HETATM   24  O   UNL     1      -9.917  14.680  65.609  1.00  0.00    -0.324 OA 
BRANCH  23  25
HETATM   25  C   UNL     1     -10.416  15.673  67.712  1.00  0.00    -0.273 C  
BRANCH  25  26
HETATM   26  O   UNL     1     -10.729  16.943  66.890  1.00  0.00    -0.253 OA 
BRANCH  26  27
HETATM   27  C   UNL     1     -10.495  18.213  67.380  1.00  0.00    -0.399 C  
HETATM   28  O   UNL     1     -10.401  18.453  68.578  1.00  0.00    -0.365 OA 
BRANCH  27  29
HETATM   29  C   UNL     1     -10.357  19.324  66.292  1.00  0.00    -0.566 C  
HETATM   30  C   UNL     1      -8.952  19.967  66.220  1.00  0.00    -0.383 C  
ENDBRANCH  27  29
ENDBRANCH  26  27
ENDBRANCH  25  26
ENDBRANCH  23  25
ENDBRANCH   4  23
BRANCH   4  31
HETATM   31  O   UNL     1     -12.155  12.717  66.575  1.00  0.00    -0.525 OA 
BRANCH  31  32
HETATM   32  C   UNL     1     -12.461  12.889  65.237  1.00  0.00    -0.493 C  
HETATM   33  O   UNL     1     -12.935  13.900  64.744  1.00  0.00    -0.686 OA 
BRANCH  32  34
HETATM   34  O   UNL     1     -11.954  11.862  64.475  1.00  0.00    -0.287 OA 
BRANCH  34  35
HETATM   35  C   UNL     1     -11.195  12.340  63.337  1.00  0.00    -0.420 C  
HETATM   36  C   UNL     1      -9.895  11.588  63.089  1.00  0.00    -0.413 C  
ENDBRANCH  34  35
ENDBRANCH  32  34
ENDBRANCH  31  32
ENDBRANCH   4  31
TORSDOF 9
ENDMDL
MODEL        8
REMARK 921   NORMALIZED FREE ENERGY PREDICTED BY IDOCK:   -6.21 KCAL/MOL
REMARK 922        TOTAL FREE ENERGY PREDICTED BY IDOCK:   -9.34 KCAL/MOL
REMARK 923 INTER-LIGAND FREE ENERGY PREDICTED BY IDOCK:   -9.43 KCAL/MOL
REMARK 924 INTRA-LIGAND FREE ENERGY PREDICTED BY IDOCK:    0.09 KCAL/MOL
REMARK 927      BINDING AFFINITY PREDICTED BY RF-SCORE:    0.00 PKD
ROOT
HETATM    1  C   UNL     1      -8.741  14.437  68.994  1.00  0.00     0.014 C  
HETATM    2  C   UNL     1      -7.497  13.827  68.688  1.00  0.00    -0.116 C  
HETATM    3  C   UNL     1      -8.041  14.857  67.755  1.00  0.00    -0.162 C  
HETATM    4  C   UNL     1      -9.560  16.113  68.442  1.00  0.00    -0.209 C  
HETATM    5  C   UNL     1     -12.470  14.032  65.708  1.00  0.00    -0.523 C  
HETATM    6  C   UNL     1     -11.121  13.348  65.459  1.00  0.00    -0.296 C  
HETATM    7  C   UNL     1      -8.187  16.199  68.419  1.00  0.00    -0.172 C  
HETATM    8  C   UNL     1     -10.567  13.301  63.965  1.00  0.00    -0.217 C  
HETATM    9  C   UNL     1      -7.266  16.879  69.407  1.00  0.00    -0.087 C  
HETATM   10  C   UNL     1      -8.420  16.564  66.559  1.00  0.00    -0.328 C  
HETATM   11  O   UNL     1     -12.570  11.487  63.044  1.00  0.00    -0.263 OA 
HETATM   12  C   UNL     1     -10.264  12.213  63.238  1.00  0.00    -0.341 C  
HETATM   13  C   UNL     1     -11.527  11.470  63.684  1.00  0.00    -0.278 C  
HETATM   14  C   UNL     1     -11.407  10.906  65.034  1.00  0.00     0.394 C  
HETATM   15  C   UNL     1      -9.755  15.704  65.920  1.00  0.00    -0.353 C  
HETATM   16  C   UNL     1     -11.270  11.882  65.949  1.00  0.00    -0.373 C  
HETATM   17  C   UNL     1     -11.318  11.594  67.424  1.00  0.00    -0.367 C  
HETATM   18  C   UNL     1     -10.005  14.082  66.276  1.00  0.00    -0.317 C  
HETATM   19  O   UNL     1     -10.904  16.487  66.279  1.00  0.00    -0.189 OA 
HETATM   20  C   UNL     1     -10.171  12.238  68.183  1.00  0.00    -0.212 C  
HETATM   21  C   UNL     1     -10.059  13.740  67.909  1.00  0.00    -0.246 C  
HETATM   22  H   UNL     1     -11.645  16.010  65.925  1.00  0.00     0.000 HD 
ENDROOT
BRANCH   4  23
HETATM   23  C   UNL     1      -9.789  17.938  68.340  1.00  0.00    -0.355 C  
HETATM   24  O   UNL     1     -10.844  18.445  67.907  1.00  0.00    -0.356 OA 
BRANCH  23  25
HETATM   25  C   UNL     1      -8.682  19.069  68.678  1.00  0.00    -0.352 C  
BRANCH  25  26
HETATM   26  O   UNL     1      -8.761  20.226  67.659  1.00  0.00    -0.320 OA 
BRANCH  26  27
HETATM   27  C   UNL     1      -7.906  20.316  66.578  1.00  0.00    -0.238 C  
HETATM   28  O   UNL     1      -8.162  19.814  65.489  1.00  0.00    -0.333 OA 
BRANCH  27  29
HETATM   29  C   UNL     1      -6.585  21.105  66.844  1.00  0.00    -0.386 C  
HETATM   30  C   UNL     1      -5.416  20.228  67.349  1.00  0.00    -0.192 C  
ENDBRANCH  27  29
ENDBRANCH  26  27
ENDBRANCH  25  26
ENDBRANCH  23  25
ENDBRANCH   4  23
BRANCH   4  31
HETATM   31  O   UNL     1      -9.927  16.126  70.014  1.00  0.00    -0.111 OA 
BRANCH  31  32
HETATM   32  C   UNL     1     -11.188  15.988  70.568  1.00  0.00    -0.378 C  
HETATM   33  O   UNL     1     -12.223  15.837  69.940  1.00  0.00    -0.352 OA 
BRANCH  32  34
HETATM   34  O   UNL     1     -11.116  15.813  71.931  1.00  0.00    -0.212 OA 
BRANCH  34  35
HETATM   35  C   UNL     1     -12.423  15.657  72.538  1.00  0.00    -0.428 C  
HETATM   36  C   UNL     1     -12.428  15.780  74.055  1.00  0.00    -0.775 C  
ENDBRANCH  34  35
ENDBRANCH  32  34
ENDBRANCH  31  32
ENDBRANCH   4  31
TORSDOF 9
ENDMDL
MODEL        9
REMARK 921   NORMALIZED FREE ENERGY PREDICTED BY IDOCK:   -6.19 KCAL/MOL
REMARK 922        TOTAL FREE ENERGY PREDICTED BY IDOCK:   -9.31 KCAL/MOL
REMARK 923 INTER-LIGAND FREE ENERGY PREDICTED BY IDOCK:   -9.66 KCAL/MOL
REMARK 924 INTRA-LIGAND FREE ENERGY PREDICTED BY IDOCK:    0.35 KCAL/MOL
REMARK 927      BINDING AFFINITY PREDICTED BY RF-SCORE:    0.00 PKD
ROOT
HETATM    1  C   UNL     1     -10.119  12.278  65.179  1.00  0.00    -0.284 C  
HETATM    2  C   UNL     1     -10.909  11.298  64.524  1.00  0.00    -0.354 C  
HETATM    3  C   UNL     1     -11.131  11.544  65.979  1.00  0.00    -0.289 C  
HETATM    4  C   UNL     1     -10.376  13.302  66.814  1.00  0.00    -0.257 C  
HETATM    5  C   UNL     1      -7.316  10.880  69.059  1.00  0.00    -0.113 C  
HETATM    6  C   UNL     1      -8.146   9.857  68.276  1.00  0.00    -0.104 C  
HETATM    7  C   UNL     1     -11.582  12.953  66.251  1.00  0.00    -0.424 C  
HETATM    8  C   UNL     1      -8.839   8.674  69.089  1.00  0.00    -0.137 C  
HETATM    9  C   UNL     1     -12.541  13.815  65.461  1.00  0.00    -0.551 C  
HETATM   10  C   UNL     1     -11.882  12.035  67.898  1.00  0.00    -0.320 C  
HETATM   11  O   UNL     1      -6.377   7.382  69.740  1.00  0.00    -0.030 OA 
HETATM   12  C   UNL     1      -8.661   7.353  68.923  1.00  0.00    -0.129 C  
HETATM   13  C   UNL     1      -7.141   7.497  68.791  1.00  0.00    -0.080 C  
HETATM   14  C   UNL     1      -6.730   7.971  67.464  1.00  0.00    -0.069 C  
HETATM   15  C   UNL     1     -10.424  11.399  68.529  1.00  0.00    -0.203 C  
HETATM   16  C   UNL     1      -7.191   9.213  67.235  1.00  0.00    -0.083 C  
HETATM   17  C   UNL     1      -6.757  10.009  66.036  1.00  0.00    -0.100 C  
HETATM   18  C   UNL     1      -9.325  10.588  67.551  1.00  0.00    -0.162 C  
HETATM   19  O   UNL     1      -9.794  12.507  69.191  1.00  0.00    -0.388 OA 
HETATM   20  C   UNL     1      -7.926  10.630  65.291  1.00  0.00    -0.060 C  
HETATM   21  C   UNL     1      -8.833  11.453  66.211  1.00  0.00    -0.196 C  
HETATM   22  H   UNL     1      -8.985  12.154  69.541  1.00  0.00     0.000 HD 
ENDROOT
BRANCH   4  23
HETATM   23  C   UNL     1     -11.131  14.560  67.928  1.00  0.00    -0.279 C  
HETATM   24  O   UNL     1     -12.143  15.210  67.595  1.00  0.00    -0.137 OA 
BRANCH  23  25
HETATM   25  C   UNL     1     -10.559  15.044  69.363  1.00  0.00    -0.256 C  
BRANCH  25  26
HETATM   26  O   UNL     1     -11.469  14.543  70.506  1.00  0.00    -0.259 OA 
BRANCH  26  27
HETATM   27  C   UNL     1     -12.364  15.375  71.152  1.00  0.00    -0.385 C  
HETATM   28  O   UNL     1     -13.502  15.568  70.740  1.00  0.00    -0.475 OA 
BRANCH  27  29
HETATM   29  C   UNL     1     -11.818  16.050  72.449  1.00  0.00    -0.639 C  
HETATM   30  C   UNL     1     -12.275  15.364  73.758  1.00  0.00    -0.714 C  
ENDBRANCH  27  29
ENDBRANCH  26  27
ENDBRANCH  25  26
ENDBRANCH  23  25
ENDBRANCH   4  23
BRANCH   4  31
HETATM   31  O   UNL     1      -9.810  14.461  65.842  1.00  0.00    -0.305 OA 
BRANCH  31  32
HETATM   32  C   UNL     1      -9.118  15.595  66.228  1.00  0.00    -0.341 C  
HETATM   33  O   UNL     1      -8.068  15.605  66.849  1.00  0.00    -0.218 OA 
BRANCH  32  34
HETATM   34  O   UNL     1      -9.636  16.721  65.630  1.00  0.00    -0.527 OA 
BRANCH  34  35
HETATM   35  C   UNL     1      -9.880  17.789  66.579  1.00  0.00    -0.329 C  
HETATM   36  C   UNL     1     -10.318  19.102  65.947  1.00  0.00    -0.463 C  
ENDBRANCH  34  35
ENDBRANCH  32  34
ENDBRANCH  31  32
ENDBRANCH   4  31
TORSDOF 9
ENDMDL
MODEL       10
REMARK 921   NORMALIZED FREE ENERGY PREDICTED BY IDOCK:   -6.10 KCAL/MOL
REMARK 922        TOTAL FREE ENERGY PREDICTED BY IDOCK:   -9.18 KCAL/MOL
REMARK 923 INTER-LIGAND FREE ENERGY PREDICTED BY IDOCK:   -8.91 KCAL/MOL
REMARK 924 INTRA-LIGAND FREE ENERGY PREDICTED BY IDOCK:   -0.26 KCAL/MOL
REMARK 927      BINDING AFFINITY PREDICTED BY RF-SCORE:    0.00 PKD
ROOT
HETATM    1  C   UNL     1      -8.894  10.883  66.173  1.00  0.00    -0.195 C  
HETATM    2  C   UNL     1      -9.497  10.108  65.149  1.00  0.00    -0.319 C  
HETATM    3  C   UNL     1     -10.356  10.643  66.246  1.00  0.00    -0.296 C  
HETATM    4  C   UNL     1      -9.603  12.187  67.432  1.00  0.00    -0.177 C  
HETATM    5  C   UNL     1      -9.285   9.326  70.894  1.00  0.00    -0.300 C  
HETATM    6  C   UNL     1      -9.867   8.502  69.740  1.00  0.00    -0.186 C  
HETATM    7  C   UNL     1     -10.355  12.147  66.280  1.00  0.00    -0.250 C  
HETATM    8  C   UNL     1     -11.247   7.743  69.982  1.00  0.00    -0.126 C  
HETATM    9  C   UNL     1     -10.373  13.126  65.128  1.00  0.00    -0.326 C  
HETATM   10  C   UNL     1     -11.785  11.648  67.445  1.00  0.00    -0.278 C  
HETATM   11  O   UNL     1     -10.148   5.869  71.834  1.00  0.00    -0.179 OA 
HETATM   12  C   UNL     1     -11.484   6.424  69.888  1.00  0.00    -0.483 C  
HETATM   13  C   UNL     1     -10.191   6.062  70.626  1.00  0.00    -0.205 C  
HETATM   14  C   UNL     1      -9.003   6.162  69.771  1.00  0.00    -0.138 C  
HETATM   15  C   UNL     1     -11.218  10.698  68.751  1.00  0.00    -0.279 C  
HETATM   16  C   UNL     1      -8.802   7.431  69.378  1.00  0.00    -0.137 C  
HETATM   17  C   UNL     1      -7.550   7.846  68.655  1.00  0.00    -0.101 C  
HETATM   18  C   UNL     1     -10.135   9.437  68.514  1.00  0.00    -0.208 C  
HETATM   19  O   UNL     1     -10.697  11.646  69.697  1.00  0.00    -0.450 OA 
HETATM   20  C   UNL     1      -7.839   8.673  67.413  1.00  0.00    -0.098 C  
HETATM   21  C   UNL     1      -8.740   9.876  67.709  1.00  0.00    -0.129 C  
HETATM   22  H   UNL     1     -10.383  11.119  70.421  1.00  0.00     0.000 HD 
ENDROOT
BRANCH   4  23
HETATM   23  C   UNL     1     -10.338  13.780  67.991  1.00  0.00    -0.246 C  
HETATM   24  O   UNL     1     -10.182  14.204  69.155  1.00  0.00    -0.173 OA 
BRANCH  23  25
HETATM   25  C   UNL     1     -11.317  14.743  67.135  1.00  0.00    -0.356 C  
BRANCH  25  26
HETATM   26  O   UNL     1     -10.773  16.188  67.113  1.00  0.00    -0.310 OA 
BRANCH  26  27
HETATM   27  C   UNL     1     -10.625  16.902  65.939  1.00  0.00    -0.233 C  
HETATM   28  O   UNL     1     -10.736  16.384  64.833  1.00  0.00    -0.675 OA 
BRANCH  27  29
HETATM   29  C   UNL     1     -10.305  18.418  66.124  1.00  0.00    -0.431 C  
HETATM   30  C   UNL     1     -10.721  18.988  67.501  1.00  0.00    -0.532 C  
ENDBRANCH  27  29
ENDBRANCH  26  27
ENDBRANCH  25  26
ENDBRANCH  23  25
ENDBRANCH   4  23
BRANCH   4  31
HETATM   31  O   UNL     1      -8.244  12.937  66.986  1.00  0.00    -0.163 OA 
BRANCH  31  32
HETATM   32  C   UNL     1      -7.237  13.384  67.822  1.00  0.00    -0.154 C  
HETATM   33  O   UNL     1      -6.872  12.831  68.847  1.00  0.00    -0.093 OA 
BRANCH  32  34
HETATM   34  O   UNL     1      -6.530  14.413  67.244  1.00  0.00    -0.295 OA 
BRANCH  34  35
HETATM   35  C   UNL     1      -7.308  15.633  67.151  1.00  0.00    -0.212 C  
HETATM   36  C   UNL     1      -7.474  16.373  68.470  1.00  0.00    -0.181 C  
ENDBRANCH  34  35
ENDBRANCH  32  34
ENDBRANCH  31  32
ENDBRANCH   4  31
TORSDOF 9
ENDMDL
MODEL       11
REMARK 921   NORMALIZED FREE ENERGY PREDICTED BY IDOCK:   -6.09 KCAL/MOL
REMARK 922        TOTAL FREE ENERGY PREDICTED BY IDOCK:   -9.16 KCAL/MOL
REMARK 923 INTER-LIGAND FREE ENERGY PREDICTED BY IDOCK:   -9.27 KCAL/MOL
REMARK 924 INTRA-LIGAND FREE ENERGY PREDICTED BY IDOCK:    0.10 KCAL/MOL
REMARK 927      BINDING AFFINITY PREDICTED BY RF-SCORE:    0.00 PKD
ROOT
HETATM    1  C   UNL     1     -11.411  11.865  67.057  1.00  0.00    -0.392 C  
HETATM    2  C   UNL     1     -11.457  11.914  65.640  1.00  0.00    -0.314 C  
HETATM    3  C   UNL     1     -10.128  11.820  66.313  1.00  0.00    -0.248 C  
HETATM    4  C   UNL     1     -10.069  11.225  68.313  1.00  0.00    -0.188 C  
HETATM    5  C   UNL     1      -8.871  15.403  69.487  1.00  0.00    -0.217 C  
HETATM    6  C   UNL     1      -9.004  15.434  67.960  1.00  0.00    -0.171 C  
HETATM    7  C   UNL     1      -9.989  10.555  67.114  1.00  0.00    -0.234 C  
HETATM    8  C   UNL     1      -7.751  15.930  67.108  1.00  0.00    -0.247 C  
HETATM    9  C   UNL     1     -10.461   9.158  66.777  1.00  0.00    -0.266 C  
HETATM   10  C   UNL     1      -8.217  11.265  67.040  1.00  0.00    -0.151 C  
HETATM   11  O   UNL     1      -7.944  18.639  67.987  1.00  0.00    -0.260 OA 
HETATM   12  C   UNL     1      -7.702  16.963  66.251  1.00  0.00    -0.332 C  
HETATM   13  C   UNL     1      -8.486  17.881  67.193  1.00  0.00    -0.233 C  
HETATM   14  C   UNL     1      -9.929  17.614  67.174  1.00  0.00    -0.316 C  
HETATM   15  C   UNL     1      -8.142  12.818  67.755  1.00  0.00    -0.168 C  
HETATM   16  C   UNL     1     -10.193  16.380  67.637  1.00  0.00    -0.272 C  
HETATM   17  C   UNL     1     -11.599  15.919  67.904  1.00  0.00    -0.109 C  
HETATM   18  C   UNL     1      -9.300  13.990  67.433  1.00  0.00    -0.220 C  
HETATM   19  O   UNL     1      -8.048  12.570  69.167  1.00  0.00    -0.320 OA 
HETATM   20  C   UNL     1     -11.894  14.557  67.300  1.00  0.00    -0.419 C  
HETATM   21  C   UNL     1     -10.869  13.498  67.719  1.00  0.00    -0.267 C  
HETATM   22  H   UNL     1      -8.007  13.432  69.564  1.00  0.00     0.000 HD 
ENDROOT
BRANCH   4  23
HETATM   23  C   UNL     1      -9.026   9.993  69.200  1.00  0.00    -0.169 C  
HETATM   24  O   UNL     1      -8.082   9.402  68.636  1.00  0.00    -0.101 OA 
BRANCH  23  25
HETATM   25  C   UNL     1      -9.241   9.460  70.713  1.00  0.00    -0.213 C  
BRANCH  25  26
HETATM   26  O   UNL     1      -9.740   7.998  70.706  1.00  0.00    -0.165 OA 
BRANCH  26  27
HETATM   27  C   UNL     1     -10.853   7.597  71.421  1.00  0.00    -0.225 C  
HETATM   28  O   UNL     1     -11.036   7.913  72.591  1.00  0.00    -0.329 OA 
BRANCH  27  29
HETATM   29  C   UNL     1     -11.861   6.709  70.627  1.00  0.00    -0.443 C  
HETATM   30  C   UNL     1     -11.332   6.221  69.258  1.00  0.00    -0.411 C  
ENDBRANCH  27  29
ENDBRANCH  26  27
ENDBRANCH  25  26
ENDBRANCH  23  25
ENDBRANCH   4  23
BRANCH   4  31
HETATM   31  O   UNL     1     -11.404  10.634  69.003  1.00  0.00    -0.247 OA 
BRANCH  31  32
HETATM   32  C   UNL     1     -12.038  11.128  70.129  1.00  0.00    -0.362 C  
HETATM   33  O   UNL     1     -12.687  10.465  70.923  1.00  0.00    -0.337 OA 
BRANCH  32  34
HETATM   34  O   UNL     1     -11.662  12.427  70.382  1.00  0.00    -0.234 OA 
BRANCH  34  35
HETATM   35  C   UNL     1     -12.695  13.177  71.069  1.00  0.00    -0.277 C  
HETATM   36  C   UNL     1     -12.336  14.630  71.344  1.00  0.00    -0.411 C  
ENDBRANCH  34  35
ENDBRANCH  32  34
ENDBRANCH  31  32
ENDBRANCH   4  31
TORSDOF 9
ENDMDL
MODEL       12
REMARK 921   NORMALIZED FREE ENERGY PREDICTED BY IDOCK:   -6.07 KCAL/MOL
REMARK 922        TOTAL FREE ENERGY PREDICTED BY IDOCK:   -9.13 KCAL/MOL
REMARK 923 INTER-LIGAND FREE ENERGY PREDICTED BY IDOCK:   -9.08 KCAL/MOL
REMARK 924 INTRA-LIGAND FREE ENERGY PREDICTED BY IDOCK:   -0.05 KCAL/MOL
REMARK 927      BINDING AFFINITY PREDICTED BY RF-SCORE:    0.00 PKD
ROOT
HETATM    1  C   UNL     1     -10.438  13.351  68.944  1.00  0.00    -0.135 C  
HETATM    2  C   UNL     1     -11.537  13.771  69.738  1.00  0.00    -0.324 C  
HETATM    3  C   UNL     1     -11.629  13.907  68.255  1.00  0.00    -0.372 C  
HETATM    4  C   UNL     1     -10.283  12.832  67.076  1.00  0.00    -0.241 C  
HETATM    5  C   UNL     1      -8.236  16.684  65.959  1.00  0.00    -0.146 C  
HETATM    6  C   UNL     1      -9.390  17.091  66.881  1.00  0.00    -0.263 C  
HETATM    7  C   UNL     1     -11.545  12.576  67.560  1.00  0.00    -0.424 C  
HETATM    8  C   UNL     1     -10.442  18.160  66.340  1.00  0.00    -0.364 C  
HETATM    9  C   UNL     1     -12.152  11.251  67.964  1.00  0.00     0.053 C  
HETATM   10  C   UNL     1     -12.119  13.785  66.197  1.00  0.00    -0.477 C  
HETATM   11  O   UNL     1      -8.585  20.330  66.368  1.00  0.00    -0.256 OA 
HETATM   12  C   UNL     1     -10.747  19.353  66.877  1.00  0.00    -0.570 C  
HETATM   13  C   UNL     1      -9.277  19.691  67.150  1.00  0.00    -0.332 C  
HETATM   14  C   UNL     1      -8.751  19.012  68.340  1.00  0.00    -0.381 C  
HETATM   15  C   UNL     1     -10.969  15.027  65.946  1.00  0.00    -0.343 C  
HETATM   16  C   UNL     1      -8.746  17.679  68.166  1.00  0.00    -0.265 C  
HETATM   17  C   UNL     1      -8.082  16.756  69.150  1.00  0.00    -0.109 C  
HETATM   18  C   UNL     1     -10.249  15.830  67.232  1.00  0.00    -0.268 C  
HETATM   19  O   UNL     1      -9.975  14.440  65.090  1.00  0.00    -0.500 OA 
HETATM   20  C   UNL     1      -8.970  15.590  69.551  1.00  0.00    -0.244 C  
HETATM   21  C   UNL     1      -9.508  14.823  68.339  1.00  0.00    -0.213 C  
HETATM   22  H   UNL     1      -9.336  15.129  64.951  1.00  0.00     0.000 HD 
ENDROOT
BRANCH   4  23
HETATM   23  C   UNL     1     -10.522  11.784  65.579  1.00  0.00    -0.267 C  
HETATM   24  O   UNL     1     -11.441  12.002  64.763  1.00  0.00    -0.322 OA 
BRANCH  23  25
HETATM   25  C   UNL     1      -9.689  10.451  65.194  1.00  0.00    -0.291 C  
BRANCH  25  26
HETATM   26  O   UNL     1     -10.275   9.218  65.916  1.00  0.00    -0.245 OA 
BRANCH  26  27
HETATM   27  C   UNL     1      -9.477   8.198  66.399  1.00  0.00    -0.218 C  
HETATM   28  O   UNL     1      -8.252   8.250  66.374  1.00  0.00    -0.102 OA 
BRANCH  27  29
HETATM   29  C   UNL     1     -10.251   6.974  66.981  1.00  0.00    -0.330 C  
HETATM   30  C   UNL     1     -10.607   7.107  68.480  1.00  0.00    -0.219 C  
ENDBRANCH  27  29
ENDBRANCH  26  27
ENDBRANCH  25  26
ENDBRANCH  23  25
ENDBRANCH   4  23
BRANCH   4  31
HETATM   31  O   UNL     1      -9.363  11.695  67.760  1.00  0.00    -0.169 OA 
BRANCH  31  32
HETATM   32  C   UNL     1      -7.981  11.632  67.741  1.00  0.00    -0.131 C  
HETATM   33  O   UNL     1      -7.245  12.418  67.167  1.00  0.00    -0.141 OA 
BRANCH  32  34
HETATM   34  O   UNL     1      -7.514  10.702  68.641  1.00  0.00    -0.086 OA 
BRANCH  34  35
HETATM   35  C   UNL     1      -8.586  10.033  69.351  1.00  0.00    -0.175 C  
HETATM   36  C   UNL     1      -8.148   9.318  70.620  1.00  0.00    -0.207 C  
ENDBRANCH  34  35
ENDBRANCH  32  34
ENDBRANCH  31  32
ENDBRANCH   4  31
TORSDOF 9
ENDMDL
MODEL       13
REMARK 921   NORMALIZED FREE ENERGY PREDICTED BY IDOCK:   -6.04 KCAL/MOL
REMARK 922        TOTAL FREE ENERGY PREDICTED BY IDOCK:   -9.08 KCAL/MOL
REMARK 923 INTER-LIGAND FREE ENERGY PREDICTED BY IDOCK:   -9.58 KCAL/MOL
REMARK 924 INTRA-LIGAND FREE ENERGY PREDICTED BY IDOCK:    0.50 KCAL/MOL
REMARK 927      BINDING AFFINITY PREDICTED BY RF-SCORE:    0.00 PKD
ROOT
HETATM    1  C   UNL     1     -11.341  12.004  66.884  1.00  0.00    -0.400 C  
HETATM    2  C   UNL     1     -11.317  12.039  65.466  1.00  0.00    -0.381 C  
HETATM    3  C   UNL     1     -10.024  11.941  66.205  1.00  0.00    -0.254 C  
HETATM    4  C   UNL     1     -10.069  11.364  68.210  1.00  0.00    -0.196 C  
HETATM    5  C   UNL     1      -8.893  15.543  69.403  1.00  0.00    -0.257 C  
HETATM    6  C   UNL     1      -8.950  15.561  67.871  1.00  0.00    -0.173 C  
HETATM    7  C   UNL     1      -9.936  10.682  67.023  1.00  0.00    -0.243 C  
HETATM    8  C   UNL     1      -7.652  16.037  67.077  1.00  0.00    -0.265 C  
HETATM    9  C   UNL     1     -10.403   9.286  66.677  1.00  0.00    -0.292 C  
HETATM   10  C   UNL     1      -8.156  11.376  67.030  1.00  0.00    -0.157 C  
HETATM   11  O   UNL     1      -7.863  18.757  67.920  1.00  0.00    -0.253 OA 
HETATM   12  C   UNL     1      -7.550  17.061  66.214  1.00  0.00    -0.340 C  
HETATM   13  C   UNL     1      -8.372  17.995  67.108  1.00  0.00    -0.233 C  
HETATM   14  C   UNL     1      -9.815  17.740  67.020  1.00  0.00    -0.309 C  
HETATM   15  C   UNL     1      -8.102  12.936  67.734  1.00  0.00    -0.166 C  
HETATM   16  C   UNL     1     -10.112  16.513  67.481  1.00  0.00    -0.267 C  
HETATM   17  C   UNL     1     -11.534  16.068  67.682  1.00  0.00    -0.016 C  
HETATM   18  C   UNL     1      -9.232  14.114  67.343  1.00  0.00    -0.204 C  
HETATM   19  O   UNL     1      -8.081  12.700  69.151  1.00  0.00    -0.313 OA 
HETATM   20  C   UNL     1     -11.811  14.702  67.077  1.00  0.00    -0.358 C  
HETATM   21  C   UNL     1     -10.818  13.639  67.556  1.00  0.00    -0.275 C  
HETATM   22  H   UNL     1      -8.051  13.565  69.541  1.00  0.00     0.000 HD 
ENDROOT
BRANCH   4  23
HETATM   23  C   UNL     1      -9.082  10.132  69.160  1.00  0.00    -0.183 C  
HETATM   24  O   UNL     1      -7.913  10.369  69.527  1.00  0.00    -0.155 OA 
BRANCH  23  25
HETATM   25  C   UNL     1      -9.528   8.623  69.535  1.00  0.00    -0.162 C  
BRANCH  25  26
HETATM   26  O   UNL     1     -10.300   8.602  70.872  1.00  0.00    -0.194 OA 
BRANCH  26  27
HETATM   27  C   UNL     1      -9.690   8.278  72.069  1.00  0.00    -0.252 C  
HETATM   28  O   UNL     1      -8.634   8.784  72.431  1.00  0.00    -0.395 OA 
BRANCH  27  29
HETATM   29  C   UNL     1     -10.448   7.220  72.931  1.00  0.00    -0.326 C  
HETATM   30  C   UNL     1     -11.236   6.179  72.103  1.00  0.00    -0.335 C  
ENDBRANCH  27  29
ENDBRANCH  26  27
ENDBRANCH  25  26
ENDBRANCH  23  25
ENDBRANCH   4  23
BRANCH   4  31
HETATM   31  O   UNL     1     -11.441  10.791  68.839  1.00  0.00    -0.262 OA 
BRANCH  31  32
HETATM   32  C   UNL     1     -12.070  11.235  69.989  1.00  0.00    -0.348 C  
HETATM   33  O   UNL     1     -11.953  12.349  70.474  1.00  0.00    -0.330 OA 
BRANCH  32  34
HETATM   34  O   UNL     1     -13.031  10.343  70.406  1.00  0.00    -0.303 OA 
BRANCH  34  35
HETATM   35  C   UNL     1     -13.175  10.321  71.848  1.00  0.00    -0.445 C  
HETATM   36  C   UNL     1     -13.667   8.995  72.409  1.00  0.00    -0.539 C  
ENDBRANCH  34  35
ENDBRANCH  32  34
ENDBRANCH  31  32
ENDBRANCH   4  31
TORSDOF 9
ENDMDL
MODEL       14
REMARK 921   NORMALIZED FREE ENERGY PREDICTED BY IDOCK:   -6.01 KCAL/MOL
REMARK 922        TOTAL FREE ENERGY PREDICTED BY IDOCK:   -9.04 KCAL/MOL
REMARK 923 INTER-LIGAND FREE ENERGY PREDICTED BY IDOCK:   -8.97 KCAL/MOL
REMARK 924 INTRA-LIGAND FREE ENERGY PREDICTED BY IDOCK:   -0.07 KCAL/MOL
REMARK 927      BINDING AFFINITY PREDICTED BY RF-SCORE:    0.00 PKD
ROOT
HETATM    1  C   UNL     1      -7.326   9.698  66.390  1.00  0.00    -0.094 C  
HETATM    2  C   UNL     1      -6.312  10.371  65.660  1.00  0.00    -0.126 C  
HETATM    3  C   UNL     1      -6.908  11.045  66.850  1.00  0.00    -0.121 C  
HETATM    4  C   UNL     1      -7.986   9.886  68.211  1.00  0.00    -0.100 C  
HETATM    5  C   UNL     1     -11.785  11.882  66.851  1.00  0.00    -0.291 C  
HETATM    6  C   UNL     1     -10.669  12.533  66.027  1.00  0.00    -0.292 C  
HETATM    7  C   UNL     1      -6.668  10.271  68.117  1.00  0.00    -0.058 C  
HETATM    8  C   UNL     1     -10.529  14.120  66.075  1.00  0.00    -0.308 C  
HETATM    9  C   UNL     1      -5.430   9.520  68.554  1.00  0.00    -0.040 C  
HETATM   10  C   UNL     1      -7.307  11.968  68.715  1.00  0.00    -0.098 C  
HETATM   11  O   UNL     1     -12.959  14.600  64.656  1.00  0.00    -0.486 OA 
HETATM   12  C   UNL     1     -10.596  14.980  65.045  1.00  0.00    -0.437 C  
HETATM   13  C   UNL     1     -11.804  14.267  64.430  1.00  0.00    -0.426 C  
HETATM   14  C   UNL     1     -11.433  13.044  63.708  1.00  0.00    -0.486 C  
HETATM   15  C   UNL     1      -8.879  12.285  68.115  1.00  0.00    -0.187 C  
HETATM   16  C   UNL     1     -10.916  12.131  64.548  1.00  0.00    -0.361 C  
HETATM   17  C   UNL     1     -10.631  10.722  64.106  1.00  0.00    -0.203 C  
HETATM   18  C   UNL     1      -9.281  11.995  66.511  1.00  0.00    -0.216 C  
HETATM   19  O   UNL     1      -9.761  11.575  68.999  1.00  0.00    -0.394 OA 
HETATM   20  C   UNL     1      -9.242  10.254  64.503  1.00  0.00    -0.295 C  
HETATM   21  C   UNL     1      -8.969  10.437  65.999  1.00  0.00    -0.178 C  
HETATM   22  H   UNL     1     -10.632  11.750  68.666  1.00  0.00     0.000 HD 
ENDROOT
BRANCH   4  23
HETATM   23  C   UNL     1      -7.944   9.788  70.050  1.00  0.00    -0.184 C  
HETATM   24  O   UNL     1      -6.971  10.209  70.709  1.00  0.00    -0.329 OA 
BRANCH  23  25
HETATM   25  C   UNL     1      -9.049   9.089  71.003  1.00  0.00    -0.257 C  
BRANCH  25  26
HETATM   26  O   UNL     1     -10.459   9.222  70.387  1.00  0.00    -0.211 OA 
BRANCH  26  27
HETATM   27  C   UNL     1     -11.532   9.719  71.103  1.00  0.00    -0.398 C  
HETATM   28  O   UNL     1     -11.963  10.855  70.943  1.00  0.00    -0.328 OA 
BRANCH  27  29
HETATM   29  C   UNL     1     -12.157   8.724  72.130  1.00  0.00    -0.441 C  
HETATM   30  C   UNL     1     -13.669   8.937  72.376  1.00  0.00    -0.512 C  
ENDBRANCH  27  29
ENDBRANCH  26  27
ENDBRANCH  25  26
ENDBRANCH  23  25
ENDBRANCH   4  23
BRANCH   4  31
HETATM   31  O   UNL     1      -7.933   8.276  68.096  1.00  0.00    -0.119 OA 
BRANCH  31  32
HETATM   32  C   UNL     1      -9.016   7.417  68.038  1.00  0.00    -0.132 C  
HETATM   33  O   UNL     1      -9.896   7.446  67.193  1.00  0.00    -0.163 OA 
BRANCH  32  34
HETATM   34  O   UNL     1      -8.870   6.372  68.920  1.00  0.00    -0.125 OA 
BRANCH  34  35
HETATM   35  C   UNL     1     -10.057   5.544  68.997  1.00  0.00    -0.205 C  
HETATM   36  C   UNL     1     -10.910   5.785  70.234  1.00  0.00    -0.373 C  
ENDBRANCH  34  35
ENDBRANCH  32  34
ENDBRANCH  31  32
ENDBRANCH   4  31
TORSDOF 9
ENDMDL
MODEL       15
REMARK 921   NORMALIZED FREE ENERGY PREDICTED BY IDOCK:   -6.00 KCAL/MOL
REMARK 922        TOTAL FREE ENERGY PREDICTED BY IDOCK:   -9.02 KCAL/MOL
REMARK 923 INTER-LIGAND FREE ENERGY PREDICTED BY IDOCK:   -9.28 KCAL/MOL
REMARK 924 INTRA-LIGAND FREE ENERGY PREDICTED BY IDOCK:    0.26 KCAL/MOL
REMARK 927      BINDING AFFINITY PREDICTED BY RF-SCORE:    0.00 PKD
ROOT
HETATM    1  C   UNL     1     -10.534  13.013  64.933  1.00  0.00    -0.358 C  
HETATM    2  C   UNL     1     -11.652  12.532  64.204  1.00  0.00    -0.457 C  
HETATM    3  C   UNL     1     -11.696  12.493  65.695  1.00  0.00    -0.473 C  
HETATM    4  C   UNL     1     -10.327  13.655  66.758  1.00  0.00    -0.268 C  
HETATM    5  C   UNL     1      -8.204   9.904  68.059  1.00  0.00    -0.113 C  
HETATM    6  C   UNL     1      -9.382   9.426  67.203  1.00  0.00    -0.172 C  
HETATM    7  C   UNL     1     -11.606  13.868  66.298  1.00  0.00    -0.378 C  
HETATM    8  C   UNL     1     -10.404   8.386  67.846  1.00  0.00    -0.279 C  
HETATM    9  C   UNL     1     -12.240  15.158  65.828  1.00  0.00     0.359 C  
HETATM   10  C   UNL     1     -12.124  12.746  67.755  1.00  0.00    -0.191 C  
HETATM   11  O   UNL     1      -8.525   6.236  67.901  1.00  0.00    -0.117 OA 
HETATM   12  C   UNL     1     -10.712   7.158  67.398  1.00  0.00    -0.368 C  
HETATM   13  C   UNL     1      -9.248   6.816  67.102  1.00  0.00    -0.134 C  
HETATM   14  C   UNL     1      -8.767   7.420  65.854  1.00  0.00    -0.161 C  
HETATM   15  C   UNL     1     -10.953  11.534  68.051  1.00  0.00    -0.231 C  
HETATM   16  C   UNL     1      -8.771   8.761  65.939  1.00  0.00    -0.198 C  
HETATM   17  C   UNL     1      -8.148   9.623  64.876  1.00  0.00    -0.133 C  
HETATM   18  C   UNL     1     -10.264  10.654  66.797  1.00  0.00    -0.284 C  
HETATM   19  O   UNL     1      -9.939  12.184  68.834  1.00  0.00    -0.405 OA 
HETATM   20  C   UNL     1      -9.061  10.752  64.429  1.00  0.00    -0.217 C  
HETATM   21  C   UNL     1      -9.570  11.593  65.604  1.00  0.00    -0.252 C  
HETATM   22  H   UNL     1      -9.289  11.512  68.997  1.00  0.00     0.000 HD 
ENDROOT
BRANCH   4  23
HETATM   23  C   UNL     1     -10.530  14.798  68.189  1.00  0.00    -0.239 C  
HETATM   24  O   UNL     1     -10.014  14.558  69.301  1.00  0.00    -0.159 OA 
BRANCH  23  25
HETATM   25  C   UNL     1     -11.440  16.135  68.233  1.00  0.00    -0.259 C  
BRANCH  25  26
HETATM   26  O   UNL     1     -10.762  17.224  69.093  1.00  0.00    -0.284 OA 
BRANCH  26  27
HETATM   27  C   UNL     1     -10.073  18.283  68.532  1.00  0.00    -0.398 C  
HETATM   28  O   UNL     1      -8.892  18.506  68.776  1.00  0.00    -0.312 OA 
BRANCH  27  29
HETATM   29  C   UNL     1     -10.909  19.175  67.562  1.00  0.00    -0.512 C  
HETATM   30  C   UNL     1     -10.476  19.075  66.080  1.00  0.00    -0.541 C  
ENDBRANCH  27  29
ENDBRANCH  26  27
ENDBRANCH  25  26
ENDBRANCH  23  25
ENDBRANCH   4  23
BRANCH   4  31
HETATM   31  O   UNL     1      -9.441  14.753  65.972  1.00  0.00    -0.297 OA 
BRANCH  31  32
HETATM   32  C   UNL     1      -8.378  15.476  66.485  1.00  0.00    -0.199 C  
HETATM   33  O   UNL     1      -7.474  15.018  67.165  1.00  0.00    -0.200 OA 
BRANCH  32  34
HETATM   34  O   UNL     1      -8.334  16.742  65.949  1.00  0.00    -0.463 OA 
BRANCH  34  35
HETATM   35  C   UNL     1      -7.073  17.408  66.208  1.00  0.00    -0.295 C  
HETATM   36  C   UNL     1      -7.011  18.848  65.719  1.00  0.00    -0.296 C  
ENDBRANCH  34  35
ENDBRANCH  32  34
ENDBRANCH  31  32
ENDBRANCH   4  31
TORSDOF 9
ENDMDL
MODEL       16
REMARK 921   NORMALIZED FREE ENERGY PREDICTED BY IDOCK:   -6.00 KCAL/MOL
REMARK 922        TOTAL FREE ENERGY PREDICTED BY IDOCK:   -9.02 KCAL/MOL
REMARK 923 INTER-LIGAND FREE ENERGY PREDICTED BY IDOCK:   -8.96 KCAL/MOL
REMARK 924 INTRA-LIGAND FREE ENERGY PREDICTED BY IDOCK:   -0.06 KCAL/MOL
REMARK 927      BINDING AFFINITY PREDICTED BY RF-SCORE:    0.00 PKD
ROOT
HETATM    1  C   UNL     1     -10.464  13.374  68.815  1.00  0.00    -0.203 C  
HETATM    2  C   UNL     1     -11.643  13.765  69.502  1.00  0.00    -0.355 C  
HETATM    3  C   UNL     1     -11.604  13.886  68.015  1.00  0.00    -0.368 C  
HETATM    4  C   UNL     1     -10.123  12.846  66.974  1.00  0.00    -0.245 C  
HETATM    5  C   UNL     1      -8.106  16.753  66.006  1.00  0.00    -0.144 C  
HETATM    6  C   UNL     1      -9.351  17.130  66.815  1.00  0.00    -0.268 C  
HETATM    7  C   UNL     1     -11.415  12.552  67.345  1.00  0.00    -0.404 C  
HETATM    8  C   UNL     1     -10.382  18.160  66.169  1.00  0.00    -0.394 C  
HETATM    9  C   UNL     1     -12.014  11.212  67.706  1.00  0.00     0.083 C  
HETATM   10  C   UNL     1     -11.901  13.731  65.923  1.00  0.00    -0.405 C  
HETATM   11  O   UNL     1      -8.606  20.388  66.342  1.00  0.00    -0.190 OA 
HETATM   12  C   UNL     1     -10.772  19.346  66.663  1.00  0.00    -0.529 C  
HETATM   13  C   UNL     1      -9.346  19.734  67.065  1.00  0.00    -0.355 C  
HETATM   14  C   UNL     1      -8.909  19.082  68.305  1.00  0.00    -0.370 C  
HETATM   15  C   UNL     1     -10.772  15.008  65.763  1.00  0.00    -0.342 C  
HETATM   16  C   UNL     1      -8.846  17.748  68.147  1.00  0.00    -0.267 C  
HETATM   17  C   UNL     1      -8.245  16.855  69.197  1.00  0.00    -0.066 C  
HETATM   18  C   UNL     1     -10.198  15.844  67.101  1.00  0.00    -0.278 C  
HETATM   19  O   UNL     1      -9.686  14.447  65.008  1.00  0.00    -0.509 OA 
HETATM   20  C   UNL     1      -9.129  15.665  69.528  1.00  0.00    -0.240 C  
HETATM   21  C   UNL     1      -9.530  14.871  68.281  1.00  0.00    -0.210 C  
HETATM   22  H   UNL     1      -9.060  15.155  64.920  1.00  0.00     0.000 HD 
ENDROOT
BRANCH   4  23
HETATM   23  C   UNL     1     -10.191  11.778  65.474  1.00  0.00    -0.252 C  
HETATM   24  O   UNL     1     -11.037  11.961  64.575  1.00  0.00    -0.304 OA 
BRANCH  23  25
HETATM   25  C   UNL     1      -9.287  10.468  65.182  1.00  0.00    -0.216 C  
BRANCH  25  26
HETATM   26  O   UNL     1     -10.022   9.189  65.639  1.00  0.00    -0.232 OA 
BRANCH  26  27
HETATM   27  C   UNL     1      -9.519   8.363  66.626  1.00  0.00    -0.205 C  
HETATM   28  O   UNL     1      -8.326   8.095  66.718  1.00  0.00    -0.111 OA 
BRANCH  27  29
HETATM   29  C   UNL     1     -10.583   7.795  67.617  1.00  0.00    -0.283 C  
HETATM   30  C   UNL     1     -10.901   6.296  67.410  1.00  0.00    -0.448 C  
ENDBRANCH  27  29
ENDBRANCH  26  27
ENDBRANCH  25  26
ENDBRANCH  23  25
ENDBRANCH   4  23
BRANCH   4  31
HETATM   31  O   UNL     1      -9.233  11.745  67.752  1.00  0.00    -0.170 OA 
BRANCH  31  32
HETATM   32  C   UNL     1      -7.916  11.882  68.152  1.00  0.00    -0.151 C  
HETATM   33  O   UNL     1      -7.404  11.317  69.104  1.00  0.00    -0.119 OA 
BRANCH  32  34
HETATM   34  O   UNL     1      -7.179  12.563  67.211  1.00  0.00    -0.147 OA 
BRANCH  34  35
HETATM   35  C   UNL     1      -5.840  12.870  67.674  1.00  0.00    -0.136 C  
HETATM   36  C   UNL     1      -5.660  14.296  68.172  1.00  0.00    -0.124 C  
ENDBRANCH  34  35
ENDBRANCH  32  34
ENDBRANCH  31  32
ENDBRANCH   4  31
TORSDOF 9
ENDMDL
MODEL       17
REMARK 921   NORMALIZED FREE ENERGY PREDICTED BY IDOCK:   -5.95 KCAL/MOL
REMARK 922        TOTAL FREE ENERGY PREDICTED BY IDOCK:   -8.94 KCAL/MOL
REMARK 923 INTER-LIGAND FREE ENERGY PREDICTED BY IDOCK:   -8.59 KCAL/MOL
REMARK 924 INTRA-LIGAND FREE ENERGY PREDICTED BY IDOCK:   -0.34 KCAL/MOL
REMARK 927      BINDING AFFINITY PREDICTED BY RF-SCORE:    0.00 PKD
ROOT
HETATM    1  C   UNL     1      -8.315  11.408  68.898  1.00  0.00    -0.042 C  
HETATM    2  C   UNL     1      -6.901  11.370  68.795  1.00  0.00    -0.082 C  
HETATM    3  C   UNL     1      -7.719  11.040  67.591  1.00  0.00    -0.112 C  
HETATM    4  C   UNL     1      -9.730  11.596  67.576  1.00  0.00    -0.177 C  
HETATM    5  C   UNL     1     -10.896   7.259  67.902  1.00  0.00    -0.184 C  
HETATM    6  C   UNL     1      -9.364   7.264  67.862  1.00  0.00    -0.131 C  
HETATM    7  C   UNL     1      -8.569  12.200  67.151  1.00  0.00    -0.185 C  
HETATM    8  C   UNL     1      -8.640   6.393  66.741  1.00  0.00    -0.113 C  
HETATM    9  C   UNL     1      -8.227  13.672  67.116  1.00  0.00    -0.123 C  
HETATM   10  C   UNL     1      -8.669  10.963  65.699  1.00  0.00    -0.190 C  
HETATM   11  O   UNL     1      -9.406   3.889  67.879  1.00  0.00    -0.151 OA 
HETATM   12  C   UNL     1      -7.761   5.393  66.923  1.00  0.00    -0.100 C  
HETATM   13  C   UNL     1      -8.582   4.776  68.059  1.00  0.00    -0.102 C  
HETATM   14  C   UNL     1      -8.412   5.487  69.332  1.00  0.00    -0.105 C  
HETATM   15  C   UNL     1      -9.338   9.470  66.200  1.00  0.00    -0.198 C  
HETATM   16  C   UNL     1      -8.882   6.744  69.243  1.00  0.00    -0.137 C  
HETATM   17  C   UNL     1      -9.008   7.628  70.453  1.00  0.00    -0.152 C  
HETATM   18  C   UNL     1      -8.853   8.725  67.624  1.00  0.00    -0.138 C  
HETATM   19  O   UNL     1     -10.759   9.683  66.195  1.00  0.00    -0.002 OA 
HETATM   20  C   UNL     1      -8.418   9.011  70.231  1.00  0.00    -0.180 C  
HETATM   21  C   UNL     1      -8.981   9.691  68.980  1.00  0.00    -0.148 C  
HETATM   22  H   UNL     1     -11.130   8.855  66.473  1.00  0.00     0.000 HD 
ENDROOT
BRANCH   4  23
HETATM   23  C   UNL     1     -10.766  12.437  66.305  1.00  0.00    -0.256 C  
HETATM   24  O   UNL     1     -11.956  12.115  66.109  1.00  0.00    -0.593 OA 
BRANCH  23  25
HETATM   25  C   UNL     1     -10.276  13.569  65.258  1.00  0.00    -0.306 C  
BRANCH  25  26
HETATM   26  O   UNL     1     -11.413  14.574  64.975  1.00  0.00    -0.350 OA 
BRANCH  26  27
HETATM   27  C   UNL     1     -11.187  15.934  64.878  1.00  0.00    -0.337 C  
HETATM   28  O   UNL     1     -11.604  16.608  63.943  1.00  0.00    -1.204 OA 
BRANCH  27  29
HETATM   29  C   UNL     1     -10.361  16.551  66.050  1.00  0.00    -0.358 C  
HETATM   30  C   UNL     1     -10.369  18.097  66.083  1.00  0.00    -0.394 C  
ENDBRANCH  27  29
ENDBRANCH  26  27
ENDBRANCH  25  26
ENDBRANCH  23  25
ENDBRANCH   4  23
BRANCH   4  31
HETATM   31  O   UNL     1     -10.288  12.584  68.725  1.00  0.00    -0.204 OA 
BRANCH  31  32
HETATM   32  C   UNL     1     -11.574  12.614  69.233  1.00  0.00    -0.318 C  
HETATM   33  O   UNL     1     -12.265  13.613  69.350  1.00  0.00    -0.324 OA 
BRANCH  32  34
HETATM   34  O   UNL     1     -12.079  11.343  69.384  1.00  0.00    -0.315 OA 
BRANCH  34  35
HETATM   35  C   UNL     1     -12.492  11.071  70.747  1.00  0.00    -0.396 C  
HETATM   36  C   UNL     1     -11.881   9.813  71.348  1.00  0.00    -0.488 C  
ENDBRANCH  34  35
ENDBRANCH  32  34
ENDBRANCH  31  32
ENDBRANCH   4  31
TORSDOF 9
ENDMDL
MODEL       18
REMARK 921   NORMALIZED FREE ENERGY PREDICTED BY IDOCK:   -5.93 KCAL/MOL
REMARK 922        TOTAL FREE ENERGY PREDICTED BY IDOCK:   -8.92 KCAL/MOL
REMARK 923 INTER-LIGAND FREE ENERGY PREDICTED BY IDOCK:   -8.79 KCAL/MOL
REMARK 924 INTRA-LIGAND FREE ENERGY PREDICTED BY IDOCK:   -0.13 KCAL/MOL
REMARK 927      BINDING AFFINITY PREDICTED BY RF-SCORE:    0.00 PKD
ROOT
HETATM    1  C   UNL     1      -8.929  10.709  66.048  1.00  0.00    -0.189 C  
HETATM    2  C   UNL     1      -9.590   9.913  65.078  1.00  0.00    -0.364 C  
HETATM    3  C   UNL     1     -10.400  10.547  66.160  1.00  0.00    -0.276 C  
HETATM    4  C   UNL     1      -9.547  12.109  67.249  1.00  0.00    -0.185 C  
HETATM    5  C   UNL     1      -9.301   9.420  70.851  1.00  0.00    -0.263 C  
HETATM    6  C   UNL     1      -9.946   8.567  69.753  1.00  0.00    -0.191 C  
HETATM    7  C   UNL     1     -10.324  12.048  66.115  1.00  0.00    -0.257 C  
HETATM    8  C   UNL     1     -11.357   7.892  70.059  1.00  0.00    -0.034 C  
HETATM    9  C   UNL     1     -10.317  12.966  64.913  1.00  0.00    -0.329 C  
HETATM   10  C   UNL     1     -11.752  11.683  67.329  1.00  0.00    -0.255 C  
HETATM   11  O   UNL     1     -10.314   6.063  71.987  1.00  0.00    -0.195 OA 
HETATM   12  C   UNL     1     -11.660   6.584  70.038  1.00  0.00    -0.455 C  
HETATM   13  C   UNL     1     -10.372   6.196  70.772  1.00  0.00    -0.213 C  
HETATM   14  C   UNL     1      -9.198   6.191  69.892  1.00  0.00    -0.156 C  
HETATM   15  C   UNL     1     -11.207  10.775  68.673  1.00  0.00    -0.274 C  
HETATM   16  C   UNL     1      -8.943   7.427  69.429  1.00  0.00    -0.139 C  
HETATM   17  C   UNL     1      -7.687   7.741  68.663  1.00  0.00    -0.118 C  
HETATM   18  C   UNL     1     -10.192   9.450  68.484  1.00  0.00    -0.223 C  
HETATM   19  O   UNL     1     -10.621  11.742  69.559  1.00  0.00    -0.444 OA 
HETATM   20  C   UNL     1      -7.960   8.515  67.385  1.00  0.00    -0.102 C  
HETATM   21  C   UNL     1      -8.794   9.776  67.632  1.00  0.00    -0.127 C  
HETATM   22  H   UNL     1     -10.318  11.239  70.304  1.00  0.00     0.000 HD 
ENDROOT
BRANCH   4  23
HETATM   23  C   UNL     1     -10.191  13.765  67.737  1.00  0.00    -0.241 C  
HETATM   24  O   UNL     1     -10.083  14.195  68.904  1.00  0.00    -0.220 OA 
BRANCH  23  25
HETATM   25  C   UNL     1     -11.031  14.786  66.803  1.00  0.00    -0.327 C  
BRANCH  25  26
HETATM   26  O   UNL     1     -10.126  15.934  66.305  1.00  0.00    -0.266 OA 
BRANCH  26  27
HETATM   27  C   UNL     1     -10.641  17.112  65.800  1.00  0.00    -0.195 C  
HETATM   28  O   UNL     1     -11.160  17.185  64.692  1.00  0.00    -1.036 OA 
BRANCH  27  29
HETATM   29  C   UNL     1     -10.515  18.348  66.746  1.00  0.00    -0.415 C  
HETATM   30  C   UNL     1      -9.839  19.576  66.093  1.00  0.00    -0.490 C  
ENDBRANCH  27  29
ENDBRANCH  26  27
ENDBRANCH  25  26
ENDBRANCH  23  25
ENDBRANCH   4  23
BRANCH   4  31
HETATM   31  O   UNL     1      -8.163  12.767  66.740  1.00  0.00    -0.081 OA 
BRANCH  31  32
HETATM   32  C   UNL     1      -7.080  13.119  67.526  1.00  0.00    -0.150 C  
HETATM   33  O   UNL     1      -6.289  14.016  67.280  1.00  0.00    -0.295 OA 
BRANCH  32  34
HETATM   34  O   UNL     1      -7.124  12.485  68.747  1.00  0.00    -0.094 OA 
BRANCH  34  35
HETATM   35  C   UNL     1      -5.921  11.724  69.018  1.00  0.00    -0.061 C  
HETATM   36  C   UNL     1      -6.001  10.844  70.257  1.00  0.00    -0.130 C  
ENDBRANCH  34  35
ENDBRANCH  32  34
ENDBRANCH  31  32
ENDBRANCH   4  31
TORSDOF 9
ENDMDL
MODEL       19
REMARK 921   NORMALIZED FREE ENERGY PREDICTED BY IDOCK:   -5.91 KCAL/MOL
REMARK 922        TOTAL FREE ENERGY PREDICTED BY IDOCK:   -8.89 KCAL/MOL
REMARK 923 INTER-LIGAND FREE ENERGY PREDICTED BY IDOCK:   -8.87 KCAL/MOL
REMARK 924 INTRA-LIGAND FREE ENERGY PREDICTED BY IDOCK:   -0.02 KCAL/MOL
REMARK 927      BINDING AFFINITY PREDICTED BY RF-SCORE:    0.00 PKD
ROOT
HETATM    1  C   UNL     1      -8.448  10.348  69.370  1.00  0.00    -0.145 C  
HETATM    2  C   UNL     1      -7.035  10.368  69.247  1.00  0.00    -0.080 C  
HETATM    3  C   UNL     1      -7.865  10.426  68.008  1.00  0.00    -0.104 C  
HETATM    4  C   UNL     1      -9.883  10.923  68.189  1.00  0.00    -0.175 C  
HETATM    5  C   UNL     1     -10.987   6.691  67.123  1.00  0.00    -0.478 C  
HETATM    6  C   UNL     1      -9.456   6.734  67.074  1.00  0.00    -0.175 C  
HETATM    7  C   UNL     1      -8.736  11.651  67.970  1.00  0.00    -0.157 C  
HETATM    8  C   UNL     1      -8.735   6.279  65.727  1.00  0.00    -0.145 C  
HETATM    9  C   UNL     1      -8.415  13.063  68.404  1.00  0.00    -0.118 C  
HETATM   10  C   UNL     1      -8.840  10.942  66.199  1.00  0.00    -0.195 C  
HETATM   11  O   UNL     1      -9.452   3.530  66.012  1.00  0.00    -0.172 OA 
HETATM   12  C   UNL     1      -7.841   5.288  65.571  1.00  0.00    -0.093 C  
HETATM   13  C   UNL     1      -8.638   4.327  66.459  1.00  0.00    -0.112 C  
HETATM   14  C   UNL     1      -8.460   4.597  67.890  1.00  0.00    -0.103 C  
HETATM   15  C   UNL     1      -9.482   9.355  66.204  1.00  0.00    -0.226 C  
HETATM   16  C   UNL     1      -8.948   5.808  68.212  1.00  0.00    -0.115 C  
HETATM   17  C   UNL     1      -9.068   6.257  69.642  1.00  0.00    -0.142 C  
HETATM   18  C   UNL     1      -8.968   8.203  67.310  1.00  0.00    -0.149 C  
HETATM   19  O   UNL     1     -10.906   9.535  66.279  1.00  0.00     0.079 OA 
HETATM   20  C   UNL     1      -8.500   7.648  69.868  1.00  0.00    -0.137 C  
HETATM   21  C   UNL     1      -9.089   8.683  68.905  1.00  0.00    -0.145 C  
HETATM   22  H   UNL     1     -11.262   8.655  66.282  1.00  0.00     0.000 HD 
ENDROOT
BRANCH   4  23
HETATM   23  C   UNL     1     -10.948  12.108  67.264  1.00  0.00    -0.260 C  
HETATM   24  O   UNL     1     -12.152  11.872  67.036  1.00  0.00    -0.600 OA 
BRANCH  23  25
HETATM   25  C   UNL     1     -10.472  13.489  66.566  1.00  0.00    -0.284 C  
BRANCH  25  26
HETATM   26  O   UNL     1     -11.674  14.212  65.920  1.00  0.00    -0.343 OA 
BRANCH  26  27
HETATM   27  C   UNL     1     -11.913  14.174  64.560  1.00  0.00    -0.458 C  
HETATM   28  O   UNL     1     -12.538  15.050  63.973  1.00  0.00    -0.817 OA 
BRANCH  27  29
HETATM   29  C   UNL     1     -11.325  12.930  63.822  1.00  0.00    -0.490 C  
HETATM   30  C   UNL     1     -12.378  11.858  63.454  1.00  0.00    -0.577 C  
ENDBRANCH  27  29
ENDBRANCH  26  27
ENDBRANCH  25  26
ENDBRANCH  23  25
ENDBRANCH   4  23
BRANCH   4  31
HETATM   31  O   UNL     1     -10.438  11.483  69.599  1.00  0.00     0.038 OA 
BRANCH  31  32
HETATM   32  C   UNL     1     -11.668  11.206  70.170  1.00  0.00    -0.353 C  
HETATM   33  O   UNL     1     -12.055  10.100  70.512  1.00  0.00    -0.283 OA 
BRANCH  32  34
HETATM   34  O   UNL     1     -12.325  12.362  70.520  1.00  0.00    -0.330 OA 
BRANCH  34  35
HETATM   35  C   UNL     1     -13.024  12.240  71.784  1.00  0.00    -0.325 C  
HETATM   36  C   UNL     1     -13.729  13.510  72.237  1.00  0.00    -0.700 C  
ENDBRANCH  34  35
ENDBRANCH  32  34
ENDBRANCH  31  32
ENDBRANCH   4  31
TORSDOF 9
ENDMDL
MODEL       20
REMARK 921   NORMALIZED FREE ENERGY PREDICTED BY IDOCK:   -5.90 KCAL/MOL
REMARK 922        TOTAL FREE ENERGY PREDICTED BY IDOCK:   -8.87 KCAL/MOL
REMARK 923 INTER-LIGAND FREE ENERGY PREDICTED BY IDOCK:   -8.83 KCAL/MOL
REMARK 924 INTRA-LIGAND FREE ENERGY PREDICTED BY IDOCK:   -0.04 KCAL/MOL
REMARK 927      BINDING AFFINITY PREDICTED BY RF-SCORE:    0.00 PKD
ROOT
HETATM    1  C   UNL     1      -7.933  13.668  67.410  1.00  0.00    -0.177 C  
HETATM    2  C   UNL     1      -7.127  13.788  68.572  1.00  0.00    -0.106 C  
HETATM    3  C   UNL     1      -8.600  13.994  68.695  1.00  0.00    -0.100 C  
HETATM    4  C   UNL     1      -9.828  13.315  67.151  1.00  0.00    -0.237 C  
HETATM    5  C   UNL     1     -10.679  17.583  65.996  1.00  0.00    -0.116 C  
HETATM    6  C   UNL     1      -9.746  17.670  67.209  1.00  0.00    -0.284 C  
HETATM    7  C   UNL     1      -9.375  12.760  68.325  1.00  0.00    -0.194 C  
HETATM    8  C   UNL     1     -10.232  18.517  68.470  1.00  0.00    -0.389 C  
HETATM    9  C   UNL     1      -9.062  11.312  68.627  1.00  0.00    -0.153 C  
HETATM   10  C   UNL     1     -10.666  13.899  69.153  1.00  0.00    -0.175 C  
HETATM   11  O   UNL     1     -10.047  21.032  67.131  1.00  0.00    -0.169 OA 
HETATM   12  C   UNL     1      -9.624  19.578  69.026  1.00  0.00    -0.419 C  
HETATM   13  C   UNL     1      -9.314  20.210  67.665  1.00  0.00    -0.365 C  
HETATM   14  C   UNL     1      -8.163  19.587  67.000  1.00  0.00    -0.308 C  
HETATM   15  C   UNL     1     -10.827  15.375  68.301  1.00  0.00    -0.269 C  
HETATM   16  C   UNL     1      -8.420  18.301  66.705  1.00  0.00    -0.272 C  
HETATM   17  C   UNL     1      -7.488  17.485  65.853  1.00  0.00    -0.162 C  
HETATM   18  C   UNL     1      -9.484  16.232  67.771  1.00  0.00    -0.221 C  
HETATM   19  O   UNL     1     -11.706  15.075  67.206  1.00  0.00    -0.330 OA 
HETATM   20  C   UNL     1      -7.171  16.130  66.464  1.00  0.00     0.044 C  
HETATM   21  C   UNL     1      -8.434  15.343  66.825  1.00  0.00    -0.307 C  
HETATM   22  H   UNL     1     -11.794  15.893  66.733  1.00  0.00     0.000 HD 
ENDROOT
BRANCH   4  23
HETATM   23  C   UNL     1     -11.390  12.337  67.159  1.00  0.00    -0.335 C  
HETATM   24  O   UNL     1     -12.425  12.747  66.594  1.00  0.00    -0.373 OA 
BRANCH  23  25
HETATM   25  C   UNL     1     -11.651  10.946  67.942  1.00  0.00    -0.188 C  
BRANCH  25  26
HETATM   26  O   UNL     1     -12.505  11.187  69.206  1.00  0.00    -0.377 OA 
BRANCH  26  27
HETATM   27  C   UNL     1     -12.262  10.529  70.396  1.00  0.00    -0.328 C  
HETATM   28  O   UNL     1     -11.411   9.654  70.506  1.00  0.00    -0.260 OA 
BRANCH  27  29
HETATM   29  C   UNL     1     -13.151  10.985  71.596  1.00  0.00    -0.543 C  
HETATM   30  C   UNL     1     -13.160  12.514  71.830  1.00  0.00    -0.473 C  
ENDBRANCH  27  29
ENDBRANCH  26  27
ENDBRANCH  25  26
ENDBRANCH  23  25
ENDBRANCH   4  23
BRANCH   4  31
HETATM   31  O   UNL     1      -9.206  12.365  66.003  1.00  0.00    -0.173 OA 
BRANCH  31  32
HETATM   32  C   UNL     1      -9.719  12.161  64.734  1.00  0.00    -0.050 C  
HETATM   33  O   UNL     1     -10.287  13.003  64.057  1.00  0.00    -0.419 OA 
BRANCH  32  34
HETATM   34  O   UNL     1      -9.314  10.950  64.223  1.00  0.00    -0.213 OA 
BRANCH  34  35
HETATM   35  C   UNL     1      -9.793   9.830  65.008  1.00  0.00    -0.173 C  
HETATM   36  C   UNL     1      -8.694   8.941  65.570  1.00  0.00    -0.215 C  
ENDBRANCH  34  35
ENDBRANCH  32  34
ENDBRANCH  31  32
ENDBRANCH   4  31
TORSDOF 9
ENDMDL
MODEL       21
REMARK 921   NORMALIZED FREE ENERGY PREDICTED BY IDOCK:   -5.87 KCAL/MOL
REMARK 922        TOTAL FREE ENERGY PREDICTED BY IDOCK:   -8.83 KCAL/MOL
REMARK 923 INTER-LIGAND FREE ENERGY PREDICTED BY IDOCK:   -8.40 KCAL/MOL
REMARK 924 INTRA-LIGAND FREE ENERGY PREDICTED BY IDOCK:   -0.43 KCAL/MOL
REMARK 927      BINDING AFFINITY PREDICTED BY RF-SCORE:    0.00 PKD
ROOT
HETATM    1  C   UNL     1      -8.448   9.572  66.552  1.00  0.00    -0.130 C  
HETATM    2  C   UNL     1      -9.032   8.612  65.686  1.00  0.00    -0.231 C  
HETATM    3  C   UNL     1      -9.928   9.482  66.505  1.00  0.00    -0.329 C  
HETATM    4  C   UNL     1      -9.124  11.210  67.355  1.00  0.00    -0.142 C  
HETATM    5  C   UNL     1      -9.459   9.321  71.428  1.00  0.00    -0.180 C  
HETATM    6  C   UNL     1     -10.016   8.279  70.452  1.00  0.00    -0.196 C  
HETATM    7  C   UNL     1      -9.763  10.938  66.167  1.00  0.00    -0.252 C  
HETATM    8  C   UNL     1     -11.489   7.725  70.705  1.00  0.00    -0.285 C  
HETATM    9  C   UNL     1      -9.562  11.586  64.816  1.00  0.00    -0.198 C  
HETATM   10  C   UNL     1     -11.344  10.877  67.237  1.00  0.00    -0.230 C  
HETATM   11  O   UNL     1     -10.787   6.306  73.081  1.00  0.00    -0.251 OA 
HETATM   12  C   UNL     1     -11.861   6.451  70.911  1.00  0.00    -0.317 C  
HETATM   13  C   UNL     1     -10.693   6.185  71.867  1.00  0.00    -0.232 C  
HETATM   14  C   UNL     1      -9.424   5.962  71.163  1.00  0.00    -0.183 C  
HETATM   15  C   UNL     1     -11.014  10.251  68.796  1.00  0.00    -0.243 C  
HETATM   16  C   UNL     1      -9.047   7.066  70.496  1.00  0.00    -0.156 C  
HETATM   17  C   UNL     1      -7.694   7.175  69.850  1.00  0.00    -0.108 C  
HETATM   18  C   UNL     1     -10.060   8.886  69.010  1.00  0.00    -0.205 C  
HETATM   19  O   UNL     1     -10.484  11.363  69.535  1.00  0.00    -0.434 OA 
HETATM   20  C   UNL     1      -7.769   7.676  68.417  1.00  0.00    -0.119 C  
HETATM   21  C   UNL     1      -8.554   8.985  68.296  1.00  0.00    -0.130 C  
HETATM   22  H   UNL     1     -10.301  11.016  70.399  1.00  0.00     0.000 HD 
ENDROOT
BRANCH   4  23
HETATM   23  C   UNL     1      -9.728  12.950  67.412  1.00  0.00    -0.201 C  
HETATM   24  O   UNL     1     -10.006  13.514  68.490  1.00  0.00    -0.234 OA 
BRANCH  23  25
HETATM   25  C   UNL     1     -10.063  13.895  66.142  1.00  0.00    -0.308 C  
BRANCH  25  26
HETATM   26  O   UNL     1     -11.569  14.230  66.098  1.00  0.00    -0.349 OA 
BRANCH  26  27
HETATM   27  C   UNL     1     -12.310  14.143  64.934  1.00  0.00    -0.430 C  
HETATM   28  O   UNL     1     -12.418  15.077  64.148  1.00  0.00    -0.756 OA 
BRANCH  27  29
HETATM   29  C   UNL     1     -12.999  12.763  64.693  1.00  0.00    -0.231 C  
HETATM   30  C   UNL     1     -12.737  12.163  63.292  1.00  0.00    -0.417 C  
ENDBRANCH  27  29
ENDBRANCH  26  27
ENDBRANCH  25  26
ENDBRANCH  23  25
ENDBRANCH   4  23
BRANCH   4  31
HETATM   31  O   UNL     1      -7.654  11.705  66.906  1.00  0.00    -0.150 OA 
BRANCH  31  32
HETATM   32  C   UNL     1      -6.745  12.401  67.683  1.00  0.00    -0.132 C  
HETATM   33  O   UNL     1      -5.956  13.235  67.270  1.00  0.00    -0.341 OA 
BRANCH  32  34
HETATM   34  O   UNL     1      -6.988  12.210  69.023  1.00  0.00    -0.103 OA 
BRANCH  34  35
HETATM   35  C   UNL     1      -5.788  11.864  69.759  1.00  0.00    -0.120 C  
HETATM   36  C   UNL     1      -5.744  10.423  70.246  1.00  0.00    -0.074 C  
ENDBRANCH  34  35
ENDBRANCH  32  34
ENDBRANCH  31  32
ENDBRANCH   4  31
TORSDOF 9
ENDMDL
MODEL       22
REMARK 921   NORMALIZED FREE ENERGY PREDICTED BY IDOCK:   -5.87 KCAL/MOL
REMARK 922        TOTAL FREE ENERGY PREDICTED BY IDOCK:   -8.82 KCAL/MOL
REMARK 923 INTER-LIGAND FREE ENERGY PREDICTED BY IDOCK:   -8.71 KCAL/MOL
REMARK 924 INTRA-LIGAND FREE ENERGY PREDICTED BY IDOCK:   -0.11 KCAL/MOL
REMARK 927      BINDING AFFINITY PREDICTED BY RF-SCORE:    0.00 PKD
ROOT
HETATM    1  C   UNL     1      -8.926  10.667  66.180  1.00  0.00    -0.184 C  
HETATM    2  C   UNL     1      -9.603   9.894  65.201  1.00  0.00    -0.367 C  
HETATM    3  C   UNL     1     -10.382  10.442  66.349  1.00  0.00    -0.278 C  
HETATM    4  C   UNL     1      -9.536  11.981  67.477  1.00  0.00    -0.177 C  
HETATM    5  C   UNL     1      -9.023   9.128  70.922  1.00  0.00    -0.298 C  
HETATM    6  C   UNL     1      -9.687   8.307  69.812  1.00  0.00    -0.180 C  
HETATM    7  C   UNL     1     -10.363  11.946  66.378  1.00  0.00    -0.252 C  
HETATM    8  C   UNL     1     -11.057   7.563  70.147  1.00  0.00    -0.246 C  
HETATM    9  C   UNL     1     -10.446  12.922  65.226  1.00  0.00    -0.312 C  
HETATM   10  C   UNL     1     -11.718  11.467  67.635  1.00  0.00    -0.246 C  
HETATM   11  O   UNL     1      -9.858   5.684  71.930  1.00  0.00    -0.162 OA 
HETATM   12  C   UNL     1     -11.313   6.247  70.073  1.00  0.00    -0.486 C  
HETATM   13  C   UNL     1      -9.979   5.874  70.727  1.00  0.00    -0.189 C  
HETATM   14  C   UNL     1      -8.848   5.958  69.796  1.00  0.00    -0.129 C  
HETATM   15  C   UNL     1     -11.077  10.515  68.905  1.00  0.00    -0.261 C  
HETATM   16  C   UNL     1      -8.660   7.224  69.385  1.00  0.00    -0.134 C  
HETATM   17  C   UNL     1      -7.454   7.623  68.580  1.00  0.00    -0.104 C  
HETATM   18  C   UNL     1     -10.026   9.241  68.603  1.00  0.00    -0.193 C  
HETATM   19  O   UNL     1     -10.486  11.459  69.812  1.00  0.00    -0.427 OA 
HETATM   20  C   UNL     1      -7.815   8.449  67.357  1.00  0.00    -0.099 C  
HETATM   21  C   UNL     1      -8.682   9.662  67.706  1.00  0.00    -0.122 C  
HETATM   22  H   UNL     1     -10.130  10.931  70.516  1.00  0.00     0.000 HD 
ENDROOT
BRANCH   4  23
HETATM   23  C   UNL     1     -10.216  13.585  68.078  1.00  0.00    -0.243 C  
HETATM   24  O   UNL     1      -9.521  14.391  68.730  1.00  0.00    -0.205 OA 
BRANCH  23  25
HETATM   25  C   UNL     1     -11.747  14.093  67.944  1.00  0.00    -0.367 C  
BRANCH  25  26
HETATM   26  O   UNL     1     -12.130  14.980  69.149  1.00  0.00    -0.288 OA 
BRANCH  26  27
HETATM   27  C   UNL     1     -12.567  14.447  70.346  1.00  0.00    -0.345 C  
HETATM   28  O   UNL     1     -12.486  13.252  70.606  1.00  0.00    -0.339 OA 
BRANCH  27  29
HETATM   29  C   UNL     1     -13.171  15.482  71.347  1.00  0.00    -0.587 C  
HETATM   30  C   UNL     1     -13.638  14.866  72.687  1.00  0.00    -0.563 C  
ENDBRANCH  27  29
ENDBRANCH  26  27
ENDBRANCH  25  26
ENDBRANCH  23  25
ENDBRANCH   4  23
BRANCH   4  31
HETATM   31  O   UNL     1      -8.202  12.716  66.941  1.00  0.00    -0.145 OA 
BRANCH  31  32
HETATM   32  C   UNL     1      -7.073  13.018  67.681  1.00  0.00    -0.156 C  
HETATM   33  O   UNL     1      -6.238  13.858  67.385  1.00  0.00    -0.335 OA 
BRANCH  32  34
HETATM   34  O   UNL     1      -7.114  12.417  68.918  1.00  0.00    -0.101 OA 
BRANCH  34  35
HETATM   35  C   UNL     1      -5.881  11.725  69.237  1.00  0.00    -0.070 C  
HETATM   36  C   UNL     1      -6.036  10.603  70.253  1.00  0.00    -0.123 C  
ENDBRANCH  34  35
ENDBRANCH  32  34
ENDBRANCH  31  32
ENDBRANCH   4  31
TORSDOF 9
ENDMDL
MODEL       23
REMARK 921   NORMALIZED FREE ENERGY PREDICTED BY IDOCK:   -5.85 KCAL/MOL
REMARK 922        TOTAL FREE ENERGY PREDICTED BY IDOCK:   -8.80 KCAL/MOL
REMARK 923 INTER-LIGAND FREE ENERGY PREDICTED BY IDOCK:   -9.03 KCAL/MOL
REMARK 924 INTRA-LIGAND FREE ENERGY PREDICTED BY IDOCK:    0.23 KCAL/MOL
REMARK 927      BINDING AFFINITY PREDICTED BY RF-SCORE:    0.00 PKD
ROOT
HETATM    1  C   UNL     1      -8.461   9.802  70.299  1.00  0.00    -0.163 C  
HETATM    2  C   UNL     1      -7.107   9.446  70.529  1.00  0.00    -0.113 C  
HETATM    3  C   UNL     1      -7.890   8.679  69.515  1.00  0.00    -0.095 C  
HETATM    4  C   UNL     1      -9.667   9.508  68.801  1.00  0.00    -0.159 C  
HETATM    5  C   UNL     1     -11.990   6.352  71.018  1.00  0.00    -0.265 C  
HETATM    6  C   UNL     1     -10.517   6.045  71.303  1.00  0.00    -0.283 C  
HETATM    7  C   UNL     1      -8.356   9.553  68.384  1.00  0.00    -0.118 C  
HETATM    8  C   UNL     1      -9.974   4.587  70.956  1.00  0.00    -0.257 C  
HETATM    9  C   UNL     1      -7.625  10.676  67.683  1.00  0.00    -0.092 C  
HETATM   10  C   UNL     1      -8.678   7.773  67.770  1.00  0.00    -0.123 C  
HETATM   11  O   UNL     1     -11.476   3.296  73.012  1.00  0.00     0.058 OA 
HETATM   12  C   UNL     1      -9.417   3.699  71.796  1.00  0.00    -0.210 C  
HETATM   13  C   UNL     1     -10.459   3.964  72.888  1.00  0.00    -0.168 C  
HETATM   14  C   UNL     1     -10.199   5.203  73.630  1.00  0.00    -0.237 C  
HETATM   15  C   UNL     1      -9.765   6.948  68.803  1.00  0.00    -0.137 C  
HETATM   16  C   UNL     1     -10.301   6.274  72.823  1.00  0.00    -0.216 C  
HETATM   17  C   UNL     1     -10.272   7.677  73.364  1.00  0.00    -0.375 C  
HETATM   18  C   UNL     1      -9.611   7.016  70.474  1.00  0.00    -0.169 C  
HETATM   19  O   UNL     1     -11.069   7.389  68.394  1.00  0.00    -0.439 OA 
HETATM   20  C   UNL     1      -9.314   8.578  72.604  1.00  0.00    -0.284 C  
HETATM   21  C   UNL     1      -9.573   8.565  71.095  1.00  0.00    -0.248 C  
HETATM   22  H   UNL     1     -11.672   6.932  68.967  1.00  0.00     0.000 HD 
ENDROOT
BRANCH   4  23
HETATM   23  C   UNL     1     -10.335   9.706  67.095  1.00  0.00    -0.254 C  
HETATM   24  O   UNL     1     -10.860   8.756  66.480  1.00  0.00     0.010 OA 
BRANCH  23  25
HETATM   25  C   UNL     1     -10.243  11.033  66.173  1.00  0.00    -0.247 C  
BRANCH  25  26
HETATM   26  O   UNL     1     -11.616  11.736  66.097  1.00  0.00    -0.418 OA 
BRANCH  26  27
HETATM   27  C   UNL     1     -12.014  12.458  64.988  1.00  0.00    -0.402 C  
HETATM   28  O   UNL     1     -13.175  12.481  64.596  1.00  0.00    -0.848 OA 
BRANCH  27  29
HETATM   29  C   UNL     1     -10.873  13.244  64.268  1.00  0.00    -0.414 C  
HETATM   30  C   UNL     1     -10.498  14.580  64.953  1.00  0.00    -0.435 C  
ENDBRANCH  27  29
ENDBRANCH  26  27
ENDBRANCH  25  26
ENDBRANCH  23  25
ENDBRANCH   4  23
BRANCH   4  31
HETATM   31  O   UNL     1     -10.020  11.045  69.148  1.00  0.00    -0.195 OA 
BRANCH  31  32
HETATM   32  C   UNL     1     -11.262  11.547  69.496  1.00  0.00    -0.236 C  
HETATM   33  O   UNL     1     -11.638  12.693  69.309  1.00  0.00    -0.285 OA 
BRANCH  32  34
HETATM   34  O   UNL     1     -12.117  10.539  69.876  1.00  0.00    -0.283 OA 
BRANCH  34  35
HETATM   35  C   UNL     1     -12.596  10.704  71.235  1.00  0.00    -0.427 C  
HETATM   36  C   UNL     1     -13.340   9.497  71.788  1.00  0.00    -0.501 C  
ENDBRANCH  34  35
ENDBRANCH  32  34
ENDBRANCH  31  32
ENDBRANCH   4  31
TORSDOF 9
ENDMDL
MODEL       24
REMARK 921   NORMALIZED FREE ENERGY PREDICTED BY IDOCK:   -5.75 KCAL/MOL
REMARK 922        TOTAL FREE ENERGY PREDICTED BY IDOCK:   -8.64 KCAL/MOL
REMARK 923 INTER-LIGAND FREE ENERGY PREDICTED BY IDOCK:   -8.62 KCAL/MOL
REMARK 924 INTRA-LIGAND FREE ENERGY PREDICTED BY IDOCK:   -0.01 KCAL/MOL
REMARK 927      BINDING AFFINITY PREDICTED BY RF-SCORE:    0.00 PKD
ROOT
HETATM    1  C   UNL     1      -8.460  10.476  69.612  1.00  0.00     0.013 C  
HETATM    2  C   UNL     1      -7.048  10.339  69.581  1.00  0.00    -0.125 C  
HETATM    3  C   UNL     1      -7.852   9.754  68.467  1.00  0.00    -0.081 C  
HETATM    4  C   UNL     1      -9.825  10.391  68.227  1.00  0.00    -0.154 C  
HETATM    5  C   UNL     1     -11.262   6.351  69.598  1.00  0.00    -0.483 C  
HETATM    6  C   UNL     1      -9.732   6.266  69.622  1.00  0.00    -0.175 C  
HETATM    7  C   UNL     1      -8.618  10.805  67.712  1.00  0.00    -0.127 C  
HETATM    8  C   UNL     1      -9.032   5.099  68.792  1.00  0.00    -0.120 C  
HETATM    9  C   UNL     1      -8.186  12.199  67.317  1.00  0.00    -0.180 C  
HETATM   10  C   UNL     1      -8.753   9.244  66.619  1.00  0.00    -0.139 C  
HETATM   11  O   UNL     1      -9.980   3.015  70.497  1.00  0.00     0.011 OA 
HETATM   12  C   UNL     1      -8.222   4.135  69.258  1.00  0.00    -0.074 C  
HETATM   13  C   UNL     1      -9.109   3.874  70.479  1.00  0.00    -0.116 C  
HETATM   14  C   UNL     1      -8.931   4.879  71.535  1.00  0.00    -0.160 C  
HETATM   15  C   UNL     1      -9.527   7.967  67.456  1.00  0.00    -0.145 C  
HETATM   16  C   UNL     1      -9.320   6.093  71.110  1.00  0.00    -0.175 C  
HETATM   17  C   UNL     1      -9.424   7.263  72.048  1.00  0.00    -0.151 C  
HETATM   18  C   UNL     1      -9.126   7.588  69.042  1.00  0.00    -0.140 C  
HETATM   19  O   UNL     1     -10.931   8.245  67.337  1.00  0.00    -0.496 OA 
HETATM   20  C   UNL     1      -8.745   8.510  71.506  1.00  0.00    -0.246 C  
HETATM   21  C   UNL     1      -9.231   8.875  70.100  1.00  0.00    -0.195 C  
HETATM   22  H   UNL     1     -11.360   7.537  67.802  1.00  0.00     0.000 HD 
ENDROOT
BRANCH   4  23
HETATM   23  C   UNL     1     -10.772  10.931  66.742  1.00  0.00    -0.252 C  
HETATM   24  O   UNL     1     -10.602  10.402  65.625  1.00  0.00    -0.157 OA 
BRANCH  23  25
HETATM   25  C   UNL     1     -11.817  12.165  66.662  1.00  0.00    -0.237 C  
BRANCH  25  26
HETATM   26  O   UNL     1     -12.371  12.313  65.228  1.00  0.00    -0.555 OA 
BRANCH  26  27
HETATM   27  C   UNL     1     -11.898  13.270  64.351  1.00  0.00    -0.399 C  
HETATM   28  O   UNL     1     -12.420  13.485  63.262  1.00  0.00    -0.763 OA 
BRANCH  27  29
HETATM   29  C   UNL     1     -10.649  14.062  64.849  1.00  0.00    -0.442 C  
HETATM   30  C   UNL     1     -10.904  15.572  65.070  1.00  0.00    -0.468 C  
ENDBRANCH  27  29
ENDBRANCH  26  27
ENDBRANCH  25  26
ENDBRANCH  23  25
ENDBRANCH   4  23
BRANCH   4  31
HETATM   31  O   UNL     1     -10.352  11.669  69.063  1.00  0.00    -0.185 OA 
BRANCH  31  32
HETATM   32  C   UNL     1     -11.524  11.750  69.794  1.00  0.00    -0.245 C  
HETATM   33  O   UNL     1     -12.128  12.779  70.048  1.00  0.00    -0.328 OA 
BRANCH  32  34
HETATM   34  O   UNL     1     -12.060  10.502  70.013  1.00  0.00    -0.287 OA 
BRANCH  34  35
HETATM   35  C   UNL     1     -12.441  10.299  71.397  1.00  0.00    -0.424 C  
HETATM   36  C   UNL     1     -12.846   8.872  71.734  1.00  0.00    -0.419 C  
ENDBRANCH  34  35
ENDBRANCH  32  34
ENDBRANCH  31  32
ENDBRANCH   4  31
TORSDOF 9
ENDMDL
MODEL       25
REMARK 921   NORMALIZED FREE ENERGY PREDICTED BY IDOCK:   -5.71 KCAL/MOL
REMARK 922        TOTAL FREE ENERGY PREDICTED BY IDOCK:   -8.58 KCAL/MOL
REMARK 923 INTER-LIGAND FREE ENERGY PREDICTED BY IDOCK:   -8.43 KCAL/MOL
REMARK 924 INTRA-LIGAND FREE ENERGY PREDICTED BY IDOCK:   -0.15 KCAL/MOL
REMARK 927      BINDING AFFINITY PREDICTED BY RF-SCORE:    0.00 PKD
ROOT
HETATM    1  C   UNL     1     -10.199  12.402  65.416  1.00  0.00    -0.302 C  
HETATM    2  C   UNL     1     -11.167  11.922  64.496  1.00  0.00    -0.380 C  
HETATM    3  C   UNL     1     -11.486  11.895  65.954  1.00  0.00    -0.340 C  
HETATM    4  C   UNL     1     -10.327  13.057  67.243  1.00  0.00    -0.238 C  
HETATM    5  C   UNL     1      -8.508   9.303  68.937  1.00  0.00    -0.129 C  
HETATM    6  C   UNL     1      -9.511   8.826  67.882  1.00  0.00    -0.160 C  
HETATM    7  C   UNL     1     -11.498  13.274  66.554  1.00  0.00    -0.372 C  
HETATM    8  C   UNL     1     -10.642   7.797  68.333  1.00  0.00    -0.157 C  
HETATM    9  C   UNL     1     -12.024  14.564  65.967  1.00  0.00    -0.319 C  
HETATM   10  C   UNL     1     -12.283  12.167  67.898  1.00  0.00     0.250 C  
HETATM   11  O   UNL     1      -8.823   5.636  68.747  1.00  0.00    -0.109 OA 
HETATM   12  C   UNL     1     -10.872   6.567  67.844  1.00  0.00    -0.383 C  
HETATM   13  C   UNL     1      -9.381   6.214  67.824  1.00  0.00    -0.109 C  
HETATM   14  C   UNL     1      -8.674   6.805  66.682  1.00  0.00    -0.128 C  
HETATM   15  C   UNL     1     -11.196  10.950  68.412  1.00  0.00    -0.285 C  
HETATM   16  C   UNL     1      -8.684   8.148  66.757  1.00  0.00    -0.145 C  
HETATM   17  C   UNL     1      -7.869   8.997  65.821  1.00  0.00    -0.098 C  
HETATM   18  C   UNL     1     -10.295  10.056  67.313  1.00  0.00    -0.293 C  
HETATM   19  O   UNL     1     -10.339  11.600  69.364  1.00  0.00    -0.431 OA 
HETATM   20  C   UNL     1      -8.675  10.128  65.206  1.00  0.00    -0.180 C  
HETATM   21  C   UNL     1      -9.385  10.981  66.262  1.00  0.00    -0.206 C  
HETATM   22  H   UNL     1      -9.735  10.925  69.649  1.00  0.00     0.000 HD 
ENDROOT
BRANCH   4  23
HETATM   23  C   UNL     1     -10.781  14.212  68.605  1.00  0.00    -0.254 C  
HETATM   24  O   UNL     1     -10.063  14.351  69.617  1.00  0.00     0.058 OA 
BRANCH  23  25
HETATM   25  C   UNL     1     -12.145  15.075  68.721  1.00  0.00    -0.180 C  
BRANCH  25  26
HETATM   26  O   UNL     1     -12.153  15.903  70.025  1.00  0.00    -0.336 OA 
BRANCH  26  27
HETATM   27  C   UNL     1     -12.908  15.541  71.124  1.00  0.00    -0.489 C  
HETATM   28  O   UNL     1     -14.133  15.495  71.097  1.00  0.00    -0.537 OA 
BRANCH  27  29
HETATM   29  C   UNL     1     -12.086  15.193  72.404  1.00  0.00    -0.478 C  
HETATM   30  C   UNL     1     -12.438  16.059  73.636  1.00  0.00    -0.700 C  
ENDBRANCH  27  29
ENDBRANCH  26  27
ENDBRANCH  25  26
ENDBRANCH  23  25
ENDBRANCH   4  23
BRANCH   4  31
HETATM   31  O   UNL     1      -9.303  14.143  66.627  1.00  0.00    -0.272 OA 
BRANCH  31  32
HETATM   32  C   UNL     1      -8.044  14.457  67.109  1.00  0.00    -0.145 C  
HETATM   33  O   UNL     1      -7.510  15.552  67.031  1.00  0.00    -0.215 OA 
BRANCH  32  34
HETATM   34  O   UNL     1      -7.547  13.445  67.897  1.00  0.00    -0.119 OA 
BRANCH  34  35
HETATM   35  C   UNL     1      -6.176  13.109  67.566  1.00  0.00    -0.122 C  
HETATM   36  C   UNL     1      -5.960  11.650  67.194  1.00  0.00    -0.127 C  
ENDBRANCH  34  35
ENDBRANCH  32  34
ENDBRANCH  31  32
ENDBRANCH   4  31
TORSDOF 9
ENDMDL
MODEL       26
REMARK 921   NORMALIZED FREE ENERGY PREDICTED BY IDOCK:   -5.64 KCAL/MOL
REMARK 922        TOTAL FREE ENERGY PREDICTED BY IDOCK:   -8.48 KCAL/MOL
REMARK 923 INTER-LIGAND FREE ENERGY PREDICTED BY IDOCK:   -8.71 KCAL/MOL
REMARK 924 INTRA-LIGAND FREE ENERGY PREDICTED BY IDOCK:    0.23 KCAL/MOL
REMARK 927      BINDING AFFINITY PREDICTED BY RF-SCORE:    0.00 PKD
ROOT
HETATM    1  C   UNL     1      -8.910  10.676  66.220  1.00  0.00    -0.172 C  
HETATM    2  C   UNL     1      -9.608   9.930  65.236  1.00  0.00    -0.361 C  
HETATM    3  C   UNL     1     -10.370  10.479  66.395  1.00  0.00    -0.283 C  
HETATM    4  C   UNL     1      -9.487  11.986  67.537  1.00  0.00    -0.178 C  
HETATM    5  C   UNL     1      -9.012   9.081  70.943  1.00  0.00    -0.300 C  
HETATM    6  C   UNL     1      -9.699   8.287  69.827  1.00  0.00    -0.180 C  
HETATM    7  C   UNL     1     -10.320  11.982  66.442  1.00  0.00    -0.246 C  
HETATM    8  C   UNL     1     -11.082   7.567  70.161  1.00  0.00    -0.246 C  
HETATM    9  C   UNL     1     -10.390  12.973  65.303  1.00  0.00    -0.318 C  
HETATM   10  C   UNL     1     -11.678  11.514  67.702  1.00  0.00    -0.283 C  
HETATM   11  O   UNL     1      -9.911   5.641  71.913  1.00  0.00    -0.162 OA 
HETATM   12  C   UNL     1     -11.365   6.257  70.072  1.00  0.00    -0.486 C  
HETATM   13  C   UNL     1     -10.035   5.849  70.713  1.00  0.00    -0.189 C  
HETATM   14  C   UNL     1      -8.908   5.922  69.776  1.00  0.00    -0.129 C  
HETATM   15  C   UNL     1     -11.049  10.534  68.956  1.00  0.00    -0.249 C  
HETATM   16  C   UNL     1      -8.696   7.189  69.381  1.00  0.00    -0.134 C  
HETATM   17  C   UNL     1      -7.487   7.574  68.573  1.00  0.00    -0.108 C  
HETATM   18  C   UNL     1     -10.025   9.243  68.631  1.00  0.00    -0.193 C  
HETATM   19  O   UNL     1     -10.433  11.455  69.871  1.00  0.00    -0.382 OA 
HETATM   20  C   UNL     1      -7.838   8.422  67.363  1.00  0.00    -0.099 C  
HETATM   21  C   UNL     1      -8.678   9.648  67.732  1.00  0.00    -0.122 C  
HETATM   22  H   UNL     1     -10.084  10.911  70.566  1.00  0.00     0.000 HD 
ENDROOT
BRANCH   4  23
HETATM   23  C   UNL     1     -10.131  13.596  68.162  1.00  0.00    -0.245 C  
HETATM   24  O   UNL     1      -9.408  14.391  68.797  1.00  0.00    -0.200 OA 
BRANCH  23  25
HETATM   25  C   UNL     1     -11.658  14.123  68.073  1.00  0.00    -0.334 C  
BRANCH  25  26
HETATM   26  O   UNL     1     -12.002  14.998  69.297  1.00  0.00    -0.307 OA 
BRANCH  26  27
HETATM   27  C   UNL     1     -12.393  14.454  70.506  1.00  0.00    -0.345 C  
HETATM   28  O   UNL     1     -12.299  13.257  70.753  1.00  0.00    -0.360 OA 
BRANCH  27  29
HETATM   29  C   UNL     1     -12.965  15.478  71.536  1.00  0.00    -0.545 C  
HETATM   30  C   UNL     1     -13.382  14.850  72.886  1.00  0.00    -0.576 C  
ENDBRANCH  27  29
ENDBRANCH  26  27
ENDBRANCH  25  26
ENDBRANCH  23  25
ENDBRANCH   4  23
BRANCH   4  31
HETATM   31  O   UNL     1      -8.141  12.701  67.002  1.00  0.00    -0.162 OA 
BRANCH  31  32
HETATM   32  C   UNL     1      -7.047  13.074  67.763  1.00  0.00    -0.139 C  
HETATM   33  O   UNL     1      -6.579  12.433  68.690  1.00  0.00    -0.067 OA 
BRANCH  32  34
HETATM   34  O   UNL     1      -6.399  14.152  67.206  1.00  0.00    -0.295 OA 
BRANCH  34  35
HETATM   35  C   UNL     1      -6.140  15.201  68.173  1.00  0.00    -0.135 C  
HETATM   36  C   UNL     1      -5.962  16.584  67.565  1.00  0.00    -0.176 C  
ENDBRANCH  34  35
ENDBRANCH  32  34
ENDBRANCH  31  32
ENDBRANCH   4  31
TORSDOF 9
ENDMDL
MODEL       27
REMARK 921   NORMALIZED FREE ENERGY PREDICTED BY IDOCK:   -5.61 KCAL/MOL
REMARK 922        TOTAL FREE ENERGY PREDICTED BY IDOCK:   -8.43 KCAL/MOL
REMARK 923 INTER-LIGAND FREE ENERGY PREDICTED BY IDOCK:   -8.38 KCAL/MOL
REMARK 924 INTRA-LIGAND FREE ENERGY PREDICTED BY IDOCK:   -0.05 KCAL/MOL
REMARK 927      BINDING AFFINITY PREDICTED BY RF-SCORE:    0.00 PKD
ROOT
HETATM    1  C   UNL     1     -11.301  14.897  68.351  1.00  0.00    -0.320 C  
HETATM    2  C   UNL     1     -11.721  14.707  69.693  1.00  0.00    -0.358 C  
HETATM    3  C   UNL     1     -10.259  14.742  69.395  1.00  0.00    -0.141 C  
HETATM    4  C   UNL     1      -9.638  15.532  67.566  1.00  0.00    -0.212 C  
HETATM    5  C   UNL     1      -8.452  11.402  66.222  1.00  0.00    -0.138 C  
HETATM    6  C   UNL     1      -8.983  11.226  67.649  1.00  0.00    -0.142 C  
HETATM    7  C   UNL     1      -9.831  16.064  68.820  1.00  0.00    -0.223 C  
HETATM    8  C   UNL     1      -8.033  10.527  68.722  1.00  0.00    -0.127 C  
HETATM    9  C   UNL     1     -10.282  17.457  69.197  1.00  0.00    -0.273 C  
HETATM   10  C   UNL     1      -8.192  15.183  69.250  1.00  0.00    -0.216 C  
HETATM   11  O   UNL     1      -8.167   7.954  67.493  1.00  0.00    -0.121 OA 
HETATM   12  C   UNL     1      -8.278   9.411  69.428  1.00  0.00    -0.119 C  
HETATM   13  C   UNL     1      -8.847   8.675  68.211  1.00  0.00    -0.142 C  
HETATM   14  C   UNL     1     -10.224   9.076  67.898  1.00  0.00    -0.272 C  
HETATM   15  C   UNL     1      -8.034  13.712  68.390  1.00  0.00    -0.147 C  
HETATM   16  C   UNL     1     -10.275  10.371  67.541  1.00  0.00    -0.251 C  
HETATM   17  C   UNL     1     -11.528  10.989  66.986  1.00  0.00    -0.031 C  
HETATM   18  C   UNL     1      -9.311  12.630  68.260  1.00  0.00    -0.195 C  
HETATM   19  O   UNL     1      -7.557  14.095  67.090  1.00  0.00    -0.332 OA 
HETATM   20  C   UNL     1     -11.880  12.304  67.660  1.00  0.00    -0.334 C  
HETATM   21  C   UNL     1     -10.714  13.297  67.650  1.00  0.00    -0.250 C  
HETATM   22  H   UNL     1      -7.470  13.279  66.612  1.00  0.00     0.000 HD 
ENDROOT
BRANCH   4  23
HETATM   23  C   UNL     1      -8.319  16.743  67.132  1.00  0.00    -0.183 C  
HETATM   24  O   UNL     1      -7.580  16.583  66.138  1.00  0.00    -0.216 OA 
BRANCH  23  25
HETATM   25  C   UNL     1      -7.891  18.049  67.986  1.00  0.00    -0.256 C  
BRANCH  25  26
HETATM   26  O   UNL     1      -6.851  18.887  67.210  1.00  0.00    -0.205 OA 
BRANCH  26  27
HETATM   27  C   UNL     1      -7.157  20.118  66.663  1.00  0.00    -0.245 C  
HETATM   28  O   UNL     1      -7.747  20.991  67.290  1.00  0.00    -0.313 OA 
BRANCH  27  29
HETATM   29  C   UNL     1      -6.695  20.317  65.186  1.00  0.00    -0.337 C  
HETATM   30  C   UNL     1      -5.850  19.149  64.625  1.00  0.00    -0.319 C  
ENDBRANCH  27  29
ENDBRANCH  26  27
ENDBRANCH  25  26
ENDBRANCH  23  25
ENDBRANCH   4  23
BRANCH   4  31
HETATM   31  O   UNL     1     -10.703  16.317  66.639  1.00  0.00    -0.291 OA 
BRANCH  31  32
HETATM   32  C   UNL     1     -10.691  16.400  65.258  1.00  0.00    -0.295 C  
HETATM   33  O   UNL     1     -10.613  15.451  64.494  1.00  0.00    -0.238 OA 
BRANCH  32  34
HETATM   34  O   UNL     1     -11.007  17.669  64.834  1.00  0.00    -0.886 OA 
BRANCH  34  35
HETATM   35  C   UNL     1     -10.776  18.668  65.859  1.00  0.00    -0.227 C  
HETATM   36  C   UNL     1     -10.807  20.103  65.354  1.00  0.00    -0.025 C  
ENDBRANCH  34  35
ENDBRANCH  32  34
ENDBRANCH  31  32
ENDBRANCH   4  31
TORSDOF 9
ENDMDL
MODEL       28
REMARK 921   NORMALIZED FREE ENERGY PREDICTED BY IDOCK:   -5.58 KCAL/MOL
REMARK 922        TOTAL FREE ENERGY PREDICTED BY IDOCK:   -8.39 KCAL/MOL
REMARK 923 INTER-LIGAND FREE ENERGY PREDICTED BY IDOCK:   -8.58 KCAL/MOL
REMARK 924 INTRA-LIGAND FREE ENERGY PREDICTED BY IDOCK:    0.20 KCAL/MOL
REMARK 927      BINDING AFFINITY PREDICTED BY RF-SCORE:    0.00 PKD
ROOT
HETATM    1  C   UNL     1      -8.535  10.669  69.557  1.00  0.00     0.008 C  
HETATM    2  C   UNL     1      -7.120  10.577  69.602  1.00  0.00    -0.141 C  
HETATM    3  C   UNL     1      -7.846   9.944  68.462  1.00  0.00    -0.081 C  
HETATM    4  C   UNL     1      -9.822  10.512  68.107  1.00  0.00    -0.153 C  
HETATM    5  C   UNL     1     -11.202   6.456  69.492  1.00  0.00    -0.477 C  
HETATM    6  C   UNL     1      -9.673   6.421  69.597  1.00  0.00    -0.170 C  
HETATM    7  C   UNL     1      -8.603  10.953  67.644  1.00  0.00    -0.124 C  
HETATM    8  C   UNL     1      -8.895   5.260  68.830  1.00  0.00    -0.102 C  
HETATM    9  C   UNL     1      -8.195  12.352  67.241  1.00  0.00    -0.184 C  
HETATM   10  C   UNL     1      -8.633   9.366  66.582  1.00  0.00    -0.138 C  
HETATM   11  O   UNL     1      -9.865   3.183  70.531  1.00  0.00    -0.111 OA 
HETATM   12  C   UNL     1      -8.080   4.333  69.359  1.00  0.00    -0.062 C  
HETATM   13  C   UNL     1      -9.021   4.069  70.539  1.00  0.00    -0.097 C  
HETATM   14  C   UNL     1      -8.930   5.101  71.579  1.00  0.00    -0.154 C  
HETATM   15  C   UNL     1      -9.408   8.082  67.406  1.00  0.00    -0.145 C  
HETATM   16  C   UNL     1      -9.334   6.293  71.107  1.00  0.00    -0.169 C  
HETATM   17  C   UNL     1      -9.523   7.478  72.012  1.00  0.00    -0.174 C  
HETATM   18  C   UNL     1      -9.080   7.749  69.019  1.00  0.00    -0.144 C  
HETATM   19  O   UNL     1     -10.813   8.312  67.209  1.00  0.00    -0.471 OA 
HETATM   20  C   UNL     1      -8.857   8.735  71.478  1.00  0.00    -0.295 C  
HETATM   21  C   UNL     1      -9.280   9.054  70.041  1.00  0.00    -0.193 C  
HETATM   22  H   UNL     1     -11.243   7.600  67.667  1.00  0.00     0.000 HD 
ENDROOT
BRANCH   4  23
HETATM   23  C   UNL     1     -10.708  10.989  66.563  1.00  0.00    -0.241 C  
HETATM   24  O   UNL     1     -10.471  10.434  65.470  1.00  0.00    -0.227 OA 
BRANCH  23  25
HETATM   25  C   UNL     1     -11.774  12.195  66.398  1.00  0.00    -0.324 C  
BRANCH  25  26
HETATM   26  O   UNL     1     -12.120  12.413  64.908  1.00  0.00    -0.404 OA 
BRANCH  26  27
HETATM   27  C   UNL     1     -11.934  13.629  64.279  1.00  0.00    -0.445 C  
HETATM   28  O   UNL     1     -12.617  13.992  63.328  1.00  0.00    -0.801 OA 
BRANCH  27  29
HETATM   29  C   UNL     1     -10.788  14.509  64.869  1.00  0.00    -0.436 C  
HETATM   30  C   UNL     1     -11.040  16.031  64.759  1.00  0.00    -0.378 C  
ENDBRANCH  27  29
ENDBRANCH  26  27
ENDBRANCH  25  26
ENDBRANCH  23  25
ENDBRANCH   4  23
BRANCH   4  31
HETATM   31  O   UNL     1     -10.432  11.788  68.885  1.00  0.00    -0.207 OA 
BRANCH  31  32
HETATM   32  C   UNL     1     -11.677  11.873  69.482  1.00  0.00    -0.345 C  
HETATM   33  O   UNL     1     -12.403  10.926  69.740  1.00  0.00    -0.330 OA 
BRANCH  32  34
HETATM   34  O   UNL     1     -11.912  13.139  69.965  1.00  0.00    -0.328 OA 
BRANCH  34  35
HETATM   35  C   UNL     1     -11.002  14.121  69.408  1.00  0.00    -0.179 C  
HETATM   36  C   UNL     1     -11.650  15.454  69.067  1.00  0.00    -0.361 C  
ENDBRANCH  34  35
ENDBRANCH  32  34
ENDBRANCH  31  32
ENDBRANCH   4  31
TORSDOF 9
ENDMDL
MODEL       29
REMARK 921   NORMALIZED FREE ENERGY PREDICTED BY IDOCK:   -5.54 KCAL/MOL
REMARK 922        TOTAL FREE ENERGY PREDICTED BY IDOCK:   -8.31 KCAL/MOL
REMARK 923 INTER-LIGAND FREE ENERGY PREDICTED BY IDOCK:   -8.38 KCAL/MOL
REMARK 924 INTRA-LIGAND FREE ENERGY PREDICTED BY IDOCK:    0.07 KCAL/MOL
REMARK 927      BINDING AFFINITY PREDICTED BY RF-SCORE:    0.00 PKD
ROOT
HETATM    1  C   UNL     1     -10.330  13.491  68.613  1.00  0.00    -0.220 C  
HETATM    2  C   UNL     1     -11.487  13.796  69.376  1.00  0.00    -0.341 C  
HETATM    3  C   UNL     1     -11.500  14.072  67.909  1.00  0.00    -0.347 C  
HETATM    4  C   UNL     1     -10.050  13.161  66.716  1.00  0.00    -0.253 C  
HETATM    5  C   UNL     1      -8.092  17.167  66.094  1.00  0.00    -0.283 C  
HETATM    6  C   UNL     1      -9.311  17.446  66.981  1.00  0.00    -0.265 C  
HETATM    7  C   UNL     1     -11.327  12.818  67.098  1.00  0.00    -0.365 C  
HETATM    8  C   UNL     1     -10.370  18.527  66.481  1.00  0.00    -0.447 C  
HETATM    9  C   UNL     1     -11.904  11.441  67.337  1.00  0.00    -0.038 C  
HETATM   10  C   UNL     1     -11.869  14.134  65.824  1.00  0.00    -0.385 C  
HETATM   11  O   UNL     1      -8.603  20.743  66.827  1.00  0.00    -0.101 OA 
HETATM   12  C   UNL     1     -10.750  19.652  67.110  1.00  0.00    -0.587 C  
HETATM   13  C   UNL     1      -9.313  20.009  67.501  1.00  0.00    -0.367 C  
HETATM   14  C   UNL     1      -8.829  19.235  68.651  1.00  0.00    -0.415 C  
HETATM   15  C   UNL     1     -10.754  15.431  65.761  1.00  0.00    -0.351 C  
HETATM   16  C   UNL     1      -8.763  17.926  68.352  1.00  0.00    -0.296 C  
HETATM   17  C   UNL     1      -8.120  16.934  69.282  1.00  0.00     0.037 C  
HETATM   18  C   UNL     1     -10.139  16.129  67.158  1.00  0.00    -0.269 C  
HETATM   19  O   UNL     1      -9.692  14.963  64.914  1.00  0.00    -0.326 OA 
HETATM   20  C   UNL     1      -8.985  15.707  69.516  1.00  0.00    -0.231 C  
HETATM   21  C   UNL     1      -9.424  15.044  68.207  1.00  0.00    -0.196 C  
HETATM   22  H   UNL     1      -9.073  15.683  64.880  1.00  0.00     0.000 HD 
ENDROOT
BRANCH   4  23
HETATM   23  C   UNL     1     -10.164  12.255  65.115  1.00  0.00    -0.279 C  
HETATM   24  O   UNL     1      -9.870  12.799  64.030  1.00  0.00    -0.223 OA 
BRANCH  23  25
HETATM   25  C   UNL     1     -10.727  10.755  64.895  1.00  0.00    -0.096 C  
BRANCH  25  26
HETATM   26  O   UNL     1      -9.561   9.755  64.737  1.00  0.00    -0.293 OA 
BRANCH  26  27
HETATM   27  C   UNL     1      -8.810   9.675  63.580  1.00  0.00    -0.232 C  
HETATM   28  O   UNL     1      -9.318   9.570  62.469  1.00  0.00    -0.227 OA 
BRANCH  27  29
HETATM   29  C   UNL     1      -7.264   9.730  63.791  1.00  0.00    -0.120 C  
HETATM   30  C   UNL     1      -6.467  10.115  62.523  1.00  0.00    -0.125 C  
ENDBRANCH  27  29
ENDBRANCH  26  27
ENDBRANCH  25  26
ENDBRANCH  23  25
ENDBRANCH   4  23
BRANCH   4  31
HETATM   31  O   UNL     1      -9.127  11.994  67.343  1.00  0.00    -0.168 OA 
BRANCH  31  32
HETATM   32  C   UNL     1      -7.776  11.800  67.116  1.00  0.00    -0.162 C  
HETATM   33  O   UNL     1      -6.946  12.686  66.991  1.00  0.00    -0.076 OA 
BRANCH  32  34
HETATM   34  O   UNL     1      -7.430  10.478  67.276  1.00  0.00    -0.092 OA 
BRANCH  34  35
HETATM   35  C   UNL     1      -8.417   9.736  68.034  1.00  0.00    -0.118 C  
HETATM   36  C   UNL     1      -8.360   8.228  67.833  1.00  0.00    -0.128 C  
ENDBRANCH  34  35
ENDBRANCH  32  34
ENDBRANCH  31  32
ENDBRANCH   4  31
TORSDOF 9
ENDMDL
MODEL       30
REMARK 921   NORMALIZED FREE ENERGY PREDICTED BY IDOCK:   -5.52 KCAL/MOL
REMARK 922        TOTAL FREE ENERGY PREDICTED BY IDOCK:   -8.28 KCAL/MOL
REMARK 923 INTER-LIGAND FREE ENERGY PREDICTED BY IDOCK:   -8.29 KCAL/MOL
REMARK 924 INTRA-LIGAND FREE ENERGY PREDICTED BY IDOCK:    0.01 KCAL/MOL
REMARK 927      BINDING AFFINITY PREDICTED BY RF-SCORE:    0.00 PKD
ROOT
HETATM    1  C   UNL     1     -11.408  11.853  66.815  1.00  0.00    -0.393 C  
HETATM    2  C   UNL     1     -11.390  11.940  65.399  1.00  0.00    -0.334 C  
HETATM    3  C   UNL     1     -10.095  11.795  66.126  1.00  0.00    -0.255 C  
HETATM    4  C   UNL     1     -10.140  11.145  68.109  1.00  0.00    -0.179 C  
HETATM    5  C   UNL     1      -8.893  15.259  69.449  1.00  0.00    -0.220 C  
HETATM    6  C   UNL     1      -8.957  15.334  67.920  1.00  0.00    -0.170 C  
HETATM    7  C   UNL     1     -10.023  10.505  66.897  1.00  0.00    -0.246 C  
HETATM    8  C   UNL     1      -7.656  15.819  67.137  1.00  0.00    -0.259 C  
HETATM    9  C   UNL     1     -10.514   9.131  66.502  1.00  0.00    -0.197 C  
HETATM   10  C   UNL     1      -8.233  11.171  66.920  1.00  0.00    -0.149 C  
HETATM   11  O   UNL     1      -7.821  18.508  68.081  1.00  0.00    -0.272 OA 
HETATM   12  C   UNL     1      -7.543  16.873  66.312  1.00  0.00    -0.312 C  
HETATM   13  C   UNL     1      -8.345  17.786  67.244  1.00  0.00    -0.220 C  
HETATM   14  C   UNL     1      -9.792  17.556  67.155  1.00  0.00    -0.297 C  
HETATM   15  C   UNL     1      -8.151  12.703  67.681  1.00  0.00    -0.173 C  
HETATM   16  C   UNL     1     -10.107  16.318  67.571  1.00  0.00    -0.258 C  
HETATM   17  C   UNL     1     -11.535  15.887  67.764  1.00  0.00    -0.128 C  
HETATM   18  C   UNL     1      -9.265  13.912  67.340  1.00  0.00    -0.224 C  
HETATM   19  O   UNL     1      -8.126  12.414  69.088  1.00  0.00    -0.329 OA 
HETATM   20  C   UNL     1     -11.835  14.549  67.110  1.00  0.00    -0.412 C  
HETATM   21  C   UNL     1     -10.857  13.453  67.544  1.00  0.00    -0.276 C  
HETATM   22  H   UNL     1      -8.082  13.264  69.510  1.00  0.00     0.000 HD 
ENDROOT
BRANCH   4  23
HETATM   23  C   UNL     1      -9.168   9.864  69.007  1.00  0.00    -0.168 C  
HETATM   24  O   UNL     1      -8.492  10.141  70.020  1.00  0.00    -0.160 OA 
BRANCH  23  25
HETATM   25  C   UNL     1      -8.980   8.316  68.573  1.00  0.00    -0.137 C  
BRANCH  25  26
HETATM   26  O   UNL     1      -7.488   7.999  68.330  1.00  0.00    -0.098 OA 
BRANCH  26  27
HETATM   27  C   UNL     1      -7.069   7.173  67.305  1.00  0.00    -0.084 C  
HETATM   28  O   UNL     1      -6.802   5.989  67.477  1.00  0.00    -0.059 OA 
BRANCH  27  29
HETATM   29  C   UNL     1      -6.960   7.860  65.907  1.00  0.00    -0.057 C  
HETATM   30  C   UNL     1      -7.857   7.224  64.820  1.00  0.00    -0.126 C  
ENDBRANCH  27  29
ENDBRANCH  26  27
ENDBRANCH  25  26
ENDBRANCH  23  25
ENDBRANCH   4  23
BRANCH   4  31
HETATM   31  O   UNL     1     -11.518  10.571  68.724  1.00  0.00    -0.260 OA 
BRANCH  31  32
HETATM   32  C   UNL     1     -12.088  10.917  69.936  1.00  0.00    -0.354 C  
HETATM   33  O   UNL     1     -11.966  11.997  70.492  1.00  0.00    -0.351 OA 
BRANCH  32  34
HETATM   34  O   UNL     1     -13.005   9.975  70.342  1.00  0.00    -0.172 OA 
BRANCH  34  35
HETATM   35  C   UNL     1     -13.125   9.907  71.785  1.00  0.00    -0.452 C  
HETATM   36  C   UNL     1     -13.942   8.727  72.291  1.00  0.00    -0.511 C  
ENDBRANCH  34  35
ENDBRANCH  32  34
ENDBRANCH  31  32
ENDBRANCH   4  31
TORSDOF 9
ENDMDL
MODEL       31
REMARK 921   NORMALIZED FREE ENERGY PREDICTED BY IDOCK:   -5.44 KCAL/MOL
REMARK 922        TOTAL FREE ENERGY PREDICTED BY IDOCK:   -8.17 KCAL/MOL
REMARK 923 INTER-LIGAND FREE ENERGY PREDICTED BY IDOCK:   -8.10 KCAL/MOL
REMARK 924 INTRA-LIGAND FREE ENERGY PREDICTED BY IDOCK:   -0.07 KCAL/MOL
REMARK 927      BINDING AFFINITY PREDICTED BY RF-SCORE:    0.00 PKD
ROOT
HETATM    1  C   UNL     1      -8.021   8.362  65.718  1.00  0.00    -0.108 C  
HETATM    2  C   UNL     1      -6.781   8.881  65.264  1.00  0.00    -0.068 C  
HETATM    3  C   UNL     1      -7.248   9.233  66.637  1.00  0.00    -0.082 C  
HETATM    4  C   UNL     1      -8.762   8.082  67.495  1.00  0.00    -0.125 C  
HETATM    5  C   UNL     1     -11.590  11.563  67.091  1.00  0.00    -0.249 C  
HETATM    6  C   UNL     1     -10.251  12.063  66.540  1.00  0.00    -0.232 C  
HETATM    7  C   UNL     1      -7.388   8.020  67.514  1.00  0.00    -0.089 C  
HETATM    8  C   UNL     1      -9.624  13.384  67.175  1.00  0.00    -0.241 C  
HETATM    9  C   UNL     1      -6.498   6.800  67.602  1.00  0.00    -0.049 C  
HETATM   10  C   UNL     1      -7.516   9.493  68.722  1.00  0.00    -0.075 C  
HETATM   11  O   UNL     1     -11.630  15.114  66.109  1.00  0.00    -0.235 OA 
HETATM   12  C   UNL     1      -9.316  14.529  66.544  1.00  0.00    -0.307 C  
HETATM   13  C   UNL     1     -10.621  14.527  65.741  1.00  0.00    -0.317 C  
HETATM   14  C   UNL     1     -10.585  13.600  64.603  1.00  0.00    -0.446 C  
HETATM   15  C   UNL     1      -8.842  10.503  68.331  1.00  0.00    -0.140 C  
HETATM   16  C   UNL     1     -10.466  12.330  65.025  1.00  0.00    -0.322 C  
HETATM   17  C   UNL     1     -10.597  11.167  64.080  1.00  0.00    -0.436 C  
HETATM   18  C   UNL     1      -9.156  10.963  66.747  1.00  0.00    -0.164 C  
HETATM   19  O   UNL     1      -9.984   9.852  68.909  1.00  0.00    -0.167 OA 
HETATM   20  C   UNL     1      -9.471  10.159  64.233  1.00  0.00    -0.366 C  
HETATM   21  C   UNL     1      -9.302   9.687  65.680  1.00  0.00    -0.296 C  
HETATM   22  H   UNL     1     -10.720  10.411  68.691  1.00  0.00     0.000 HD 
ENDROOT
BRANCH   4  23
HETATM   23  C   UNL     1      -8.933   7.316  69.162  1.00  0.00    -0.135 C  
HETATM   24  O   UNL     1      -7.981   6.729  69.716  1.00  0.00    -0.119 OA 
BRANCH  23  25
HETATM   25  C   UNL     1     -10.288   7.212  70.040  1.00  0.00    -0.208 C  
BRANCH  25  26
HETATM   26  O   UNL     1     -10.224   8.168  71.251  1.00  0.00    -0.189 OA 
BRANCH  26  27
HETATM   27  C   UNL     1     -11.139   8.110  72.285  1.00  0.00    -0.344 C  
HETATM   28  O   UNL     1     -10.879   7.601  73.370  1.00  0.00    -0.380 OA 
BRANCH  27  29
HETATM   29  C   UNL     1     -12.531   8.741  71.970  1.00  0.00    -0.452 C  
HETATM   30  C   UNL     1     -12.462  10.199  71.456  1.00  0.00    -0.526 C  
ENDBRANCH  27  29
ENDBRANCH  26  27
ENDBRANCH  25  26
ENDBRANCH  23  25
ENDBRANCH   4  23
BRANCH   4  31
HETATM   31  O   UNL     1      -9.207   6.702  66.784  1.00  0.00    -0.138 OA 
BRANCH  31  32
HETATM   32  C   UNL     1     -10.475   6.146  66.783  1.00  0.00    -0.252 C  
HETATM   33  O   UNL     1     -11.520   6.771  66.861  1.00  0.00    -0.176 OA 
BRANCH  32  34
HETATM   34  O   UNL     1     -10.432   4.811  66.454  1.00  0.00    -0.282 OA 
BRANCH  34  35
HETATM   35  C   UNL     1      -9.173   4.192  66.819  1.00  0.00    -0.157 C  
HETATM   36  C   UNL     1      -9.166   3.552  68.199  1.00  0.00    -0.228 C  
ENDBRANCH  34  35
ENDBRANCH  32  34
ENDBRANCH  31  32
ENDBRANCH   4  31
TORSDOF 9
ENDMDL
MODEL       32
REMARK 921   NORMALIZED FREE ENERGY PREDICTED BY IDOCK:   -5.44 KCAL/MOL
REMARK 922        TOTAL FREE ENERGY PREDICTED BY IDOCK:   -8.16 KCAL/MOL
REMARK 923 INTER-LIGAND FREE ENERGY PREDICTED BY IDOCK:   -8.42 KCAL/MOL
REMARK 924 INTRA-LIGAND FREE ENERGY PREDICTED BY IDOCK:    0.26 KCAL/MOL
REMARK 927      BINDING AFFINITY PREDICTED BY RF-SCORE:    0.00 PKD
ROOT
HETATM    1  C   UNL     1      -7.481   9.834  67.669  1.00  0.00    -0.091 C  
HETATM    2  C   UNL     1      -6.784   8.707  67.162  1.00  0.00    -0.063 C  
HETATM    3  C   UNL     1      -8.276   8.703  67.130  1.00  0.00    -0.107 C  
HETATM    4  C   UNL     1      -9.278  10.518  67.370  1.00  0.00    -0.142 C  
HETATM    5  C   UNL     1     -10.694   9.162  71.423  1.00  0.00    -0.414 C  
HETATM    6  C   UNL     1      -9.870   7.994  70.871  1.00  0.00    -0.195 C  
HETATM    7  C   UNL     1      -8.826   9.814  66.278  1.00  0.00    -0.165 C  
HETATM    8  C   UNL     1     -10.565   6.562  70.783  1.00  0.00    -0.278 C  
HETATM    9  C   UNL     1      -8.315  10.343  64.957  1.00  0.00    -0.166 C  
HETATM   10  C   UNL     1     -10.330   8.684  66.609  1.00  0.00    -0.303 C  
HETATM   11  O   UNL     1     -10.678   6.198  73.613  1.00  0.00    -0.264 OA 
HETATM   12  C   UNL     1     -10.167   5.422  71.373  1.00  0.00    -0.279 C  
HETATM   13  C   UNL     1      -9.866   6.124  72.700  1.00  0.00    -0.167 C  
HETATM   14  C   UNL     1      -8.590   6.850  72.681  1.00  0.00    -0.131 C  
HETATM   15  C   UNL     1     -10.657   8.562  68.285  1.00  0.00    -0.119 C  
HETATM   16  C   UNL     1      -8.625   7.854  71.789  1.00  0.00    -0.151 C  
HETATM   17  C   UNL     1      -7.523   8.874  71.702  1.00  0.00    -0.054 C  
HETATM   18  C   UNL     1      -9.429   8.314  69.403  1.00  0.00    -0.159 C  
HETATM   19  O   UNL     1     -11.403   9.749  68.602  1.00  0.00    -0.481 OA 
HETATM   20  C   UNL     1      -7.045   9.098  70.278  1.00  0.00    -0.063 C  
HETATM   21  C   UNL     1      -8.193   9.433  69.322  1.00  0.00    -0.111 C  
HETATM   22  H   UNL     1     -11.584   9.682  69.531  1.00  0.00     0.000 HD 
ENDROOT
BRANCH   4  23
HETATM   23  C   UNL     1     -10.667  11.290  66.439  1.00  0.00    -0.267 C  
HETATM   24  O   UNL     1     -11.758  11.556  66.985  1.00  0.00    -0.556 OA 
BRANCH  23  25
HETATM   25  C   UNL     1     -10.702  11.614  64.854  1.00  0.00    -0.296 C  
BRANCH  25  26
HETATM   26  O   UNL     1     -12.063  12.226  64.456  1.00  0.00    -0.392 OA 
BRANCH  26  27
HETATM   27  C   UNL     1     -12.197  13.554  64.098  1.00  0.00    -0.394 C  
HETATM   28  O   UNL     1     -12.474  13.907  62.957  1.00  0.00    -0.689 OA 
BRANCH  27  29
HETATM   29  C   UNL     1     -11.971  14.576  65.257  1.00  0.00    -0.353 C  
HETATM   30  C   UNL     1     -11.148  15.820  64.851  1.00  0.00    -0.411 C  
ENDBRANCH  27  29
ENDBRANCH  26  27
ENDBRANCH  25  26
ENDBRANCH  23  25
ENDBRANCH   4  23
BRANCH   4  31
HETATM   31  O   UNL     1      -8.440  11.898  67.320  1.00  0.00    -0.156 OA 
BRANCH  31  32
HETATM   32  C   UNL     1      -8.908  13.159  67.646  1.00  0.00    -0.191 C  
HETATM   33  O   UNL     1      -8.880  14.134  66.913  1.00  0.00    -0.227 OA 
BRANCH  32  34
HETATM   34  O   UNL     1      -9.622  13.135  68.822  1.00  0.00    -0.078 OA 
BRANCH  34  35
HETATM   35  C   UNL     1     -10.554  14.241  68.924  1.00  0.00    -0.245 C  
HETATM   36  C   UNL     1     -10.075  15.386  69.804  1.00  0.00    -0.266 C  
ENDBRANCH  34  35
ENDBRANCH  32  34
ENDBRANCH  31  32
ENDBRANCH   4  31
TORSDOF 9
ENDMDL
MODEL       33
REMARK 921   NORMALIZED FREE ENERGY PREDICTED BY IDOCK:   -5.43 KCAL/MOL
REMARK 922        TOTAL FREE ENERGY PREDICTED BY IDOCK:   -8.15 KCAL/MOL
REMARK 923 INTER-LIGAND FREE ENERGY PREDICTED BY IDOCK:   -8.06 KCAL/MOL
REMARK 924 INTRA-LIGAND FREE ENERGY PREDICTED BY IDOCK:   -0.09 KCAL/MOL
REMARK 927      BINDING AFFINITY PREDICTED BY RF-SCORE:    0.00 PKD
ROOT
HETATM    1  C   UNL     1      -7.632   9.953  68.361  1.00  0.00    -0.083 C  
HETATM    2  C   UNL     1      -6.943  10.292  69.554  1.00  0.00    -0.096 C  
HETATM    3  C   UNL     1      -8.392   9.947  69.635  1.00  0.00    -0.181 C  
HETATM    4  C   UNL     1      -9.267   8.955  68.021  1.00  0.00    -0.139 C  
HETATM    5  C   UNL     1     -11.584  12.685  67.026  1.00  0.00    -0.431 C  
HETATM    6  C   UNL     1     -10.766  13.037  68.273  1.00  0.00    -0.261 C  
HETATM    7  C   UNL     1      -8.663   8.538  69.184  1.00  0.00    -0.134 C  
HETATM    8  C   UNL     1     -11.545  13.584  69.552  1.00  0.00    -0.355 C  
HETATM    9  C   UNL     1      -7.852   7.286  69.433  1.00  0.00    -0.122 C  
HETATM   10  C   UNL     1     -10.292   9.090  70.016  1.00  0.00    -0.226 C  
HETATM   11  O   UNL     1     -12.260  16.064  68.333  1.00  0.00     0.049 OA 
HETATM   12  C   UNL     1     -11.371  14.761  70.175  1.00  0.00    -0.291 C  
HETATM   13  C   UNL     1     -11.288  15.534  68.855  1.00  0.00    -0.324 C  
HETATM   14  C   UNL     1      -9.979  15.404  68.204  1.00  0.00    -0.221 C  
HETATM   15  C   UNL     1     -10.961  10.452  69.225  1.00  0.00    -0.242 C  
HETATM   16  C   UNL     1      -9.749  14.130  67.843  1.00  0.00    -0.224 C  
HETATM   17  C   UNL     1      -8.571  13.751  66.989  1.00  0.00    -0.182 C  
HETATM   18  C   UNL     1     -10.011  11.763  68.779  1.00  0.00    -0.128 C  
HETATM   19  O   UNL     1     -11.654   9.915  68.088  1.00  0.00    -0.596 OA 
HETATM   20  C   UNL     1      -7.796  12.571  67.551  1.00  0.00    -0.168 C  
HETATM   21  C   UNL     1      -8.695  11.363  67.833  1.00  0.00    -0.145 C  
HETATM   22  H   UNL     1     -12.025  10.670  67.649  1.00  0.00     0.000 HD 
ENDROOT
BRANCH   4  23
HETATM   23  C   UNL     1     -10.369   7.481  67.931  1.00  0.00    -0.210 C  
HETATM   24  O   UNL     1     -11.278   7.390  67.080  1.00  0.00    -0.152 OA 
BRANCH  23  25
HETATM   25  C   UNL     1     -10.381   6.224  68.950  1.00  0.00    -0.204 C  
BRANCH  25  26
HETATM   26  O   UNL     1     -11.751   6.108  69.652  1.00  0.00    -0.331 OA 
BRANCH  26  27
HETATM   27  C   UNL     1     -11.910   6.353  71.003  1.00  0.00    -0.258 C  
HETATM   28  O   UNL     1     -12.872   6.963  71.456  1.00  0.00    -0.374 OA 
BRANCH  27  29
HETATM   29  C   UNL     1     -10.771   5.795  71.913  1.00  0.00    -0.297 C  
HETATM   30  C   UNL     1     -11.275   4.979  73.127  1.00  0.00    -0.408 C  
ENDBRANCH  27  29
ENDBRANCH  26  27
ENDBRANCH  25  26
ENDBRANCH  23  25
ENDBRANCH   4  23
BRANCH   4  31
HETATM   31  O   UNL     1      -8.325   8.356  66.854  1.00  0.00    -0.105 OA 
BRANCH  31  32
HETATM   32  C   UNL     1      -8.559   8.418  65.492  1.00  0.00    -0.176 C  
HETATM   33  O   UNL     1      -8.139   7.623  64.666  1.00  0.00    -0.142 OA 
BRANCH  32  34
HETATM   34  O   UNL     1      -9.516   9.360  65.194  1.00  0.00    -0.259 OA 
BRANCH  34  35
HETATM   35  C   UNL     1      -9.054  10.329  64.220  1.00  0.00    -0.243 C  
HETATM   36  C   UNL     1     -10.165  10.989  63.417  1.00  0.00    -0.404 C  
ENDBRANCH  34  35
ENDBRANCH  32  34
ENDBRANCH  31  32
ENDBRANCH   4  31
TORSDOF 9
ENDMDL
MODEL       34
REMARK 921   NORMALIZED FREE ENERGY PREDICTED BY IDOCK:   -5.38 KCAL/MOL
REMARK 922        TOTAL FREE ENERGY PREDICTED BY IDOCK:   -8.08 KCAL/MOL
REMARK 923 INTER-LIGAND FREE ENERGY PREDICTED BY IDOCK:   -7.86 KCAL/MOL
REMARK 924 INTRA-LIGAND FREE ENERGY PREDICTED BY IDOCK:   -0.22 KCAL/MOL
REMARK 927      BINDING AFFINITY PREDICTED BY RF-SCORE:    0.00 PKD
ROOT
HETATM    1  C   UNL     1      -7.982   9.157  69.215  1.00  0.00    -0.097 C  
HETATM    2  C   UNL     1      -6.602   9.233  68.896  1.00  0.00    -0.048 C  
HETATM    3  C   UNL     1      -7.603   9.417  67.805  1.00  0.00    -0.088 C  
HETATM    4  C   UNL     1      -9.579   9.830  68.331  1.00  0.00    -0.148 C  
HETATM    5  C   UNL     1     -10.778   5.728  66.914  1.00  0.00    -0.381 C  
HETATM    6  C   UNL     1      -9.271   5.821  66.654  1.00  0.00    -0.143 C  
HETATM    7  C   UNL     1      -8.484  10.612  68.043  1.00  0.00    -0.119 C  
HETATM    8  C   UNL     1      -8.747   5.553  65.172  1.00  0.00    -0.118 C  
HETATM    9  C   UNL     1      -8.119  11.970  68.599  1.00  0.00    -0.069 C  
HETATM   10  C   UNL     1      -8.834  10.120  66.231  1.00  0.00    -0.163 C  
HETATM   11  O   UNL     1      -9.385   2.771  65.212  1.00  0.00    -0.151 OA 
HETATM   12  C   UNL     1      -7.874   4.616  64.770  1.00  0.00    -0.087 C  
HETATM   13  C   UNL     1      -8.523   3.531  65.635  1.00  0.00    -0.108 C  
HETATM   14  C   UNL     1      -8.144   3.631  67.049  1.00  0.00    -0.091 C  
HETATM   15  C   UNL     1      -9.452   8.527  66.129  1.00  0.00    -0.217 C  
HETATM   16  C   UNL     1      -8.593   4.779  67.584  1.00  0.00    -0.103 C  
HETATM   17  C   UNL     1      -8.511   5.048  69.062  1.00  0.00    -0.084 C  
HETATM   18  C   UNL     1      -8.770   7.264  67.000  1.00  0.00    -0.123 C  
HETATM   19  O   UNL     1     -10.851   8.654  66.427  1.00  0.00     0.014 OA 
HETATM   20  C   UNL     1      -7.932   6.417  69.376  1.00  0.00    -0.110 C  
HETATM   21  C   UNL     1      -8.665   7.543  68.642  1.00  0.00    -0.128 C  
HETATM   22  H   UNL     1     -11.194   7.771  66.371  1.00  0.00     0.000 HD 
ENDROOT
BRANCH   4  23
HETATM   23  C   UNL     1     -10.779  11.087  67.720  1.00  0.00    -0.227 C  
HETATM   24  O   UNL     1     -12.013  10.908  67.790  1.00  0.00    -0.553 OA 
BRANCH  23  25
HETATM   25  C   UNL     1     -10.423  12.469  66.957  1.00  0.00    -0.231 C  
BRANCH  25  26
HETATM   26  O   UNL     1     -11.679  13.049  66.271  1.00  0.00    -0.348 OA 
BRANCH  26  27
HETATM   27  C   UNL     1     -12.041  12.703  64.983  1.00  0.00    -0.444 C  
HETATM   28  O   UNL     1     -13.188  12.394  64.679  1.00  0.00    -0.822 OA 
BRANCH  27  29
HETATM   29  C   UNL     1     -10.880  12.735  63.940  1.00  0.00    -0.447 C  
HETATM   30  C   UNL     1     -10.528  11.352  63.343  1.00  0.00    -0.452 C  
ENDBRANCH  27  29
ENDBRANCH  26  27
ENDBRANCH  25  26
ENDBRANCH  23  25
ENDBRANCH   4  23
BRANCH   4  31
HETATM   31  O   UNL     1      -9.931  10.198  69.863  1.00  0.00    -0.242 OA 
BRANCH  31  32
HETATM   32  C   UNL     1     -11.033   9.770  70.582  1.00  0.00    -0.331 C  
HETATM   33  O   UNL     1     -11.905  10.492  71.036  1.00  0.00    -0.350 OA 
BRANCH  32  34
HETATM   34  O   UNL     1     -11.156   8.400  70.535  1.00  0.00    -0.252 OA 
BRANCH  34  35
HETATM   35  C   UNL     1     -11.106   7.795  71.851  1.00  0.00    -0.257 C  
HETATM   36  C   UNL     1      -9.821   8.068  72.619  1.00  0.00    -0.347 C  
ENDBRANCH  34  35
ENDBRANCH  32  34
ENDBRANCH  31  32
ENDBRANCH   4  31
TORSDOF 9
ENDMDL
MODEL       35
REMARK 921   NORMALIZED FREE ENERGY PREDICTED BY IDOCK:   -5.29 KCAL/MOL
REMARK 922        TOTAL FREE ENERGY PREDICTED BY IDOCK:   -7.95 KCAL/MOL
REMARK 923 INTER-LIGAND FREE ENERGY PREDICTED BY IDOCK:   -7.97 KCAL/MOL
REMARK 924 INTRA-LIGAND FREE ENERGY PREDICTED BY IDOCK:    0.02 KCAL/MOL
REMARK 927      BINDING AFFINITY PREDICTED BY RF-SCORE:    0.00 PKD
ROOT
HETATM    1  C   UNL     1      -8.085   9.717  69.966  1.00  0.00    -0.190 C  
HETATM    2  C   UNL     1      -6.779   9.180  70.101  1.00  0.00    -0.050 C  
HETATM    3  C   UNL     1      -7.742   8.503  69.184  1.00  0.00    -0.091 C  
HETATM    4  C   UNL     1      -9.441   9.554  68.580  1.00  0.00    -0.142 C  
HETATM    5  C   UNL     1     -11.985   6.822  71.097  1.00  0.00    -0.421 C  
HETATM    6  C   UNL     1     -10.549   6.318  71.277  1.00  0.00    -0.285 C  
HETATM    7  C   UNL     1      -8.177   9.402  68.059  1.00  0.00    -0.114 C  
HETATM    8  C   UNL     1     -10.245   4.788  70.946  1.00  0.00    -0.247 C  
HETATM    9  C   UNL     1      -7.358  10.390  67.259  1.00  0.00    -0.090 C  
HETATM   10  C   UNL     1      -8.792   7.669  67.544  1.00  0.00    -0.124 C  
HETATM   11  O   UNL     1     -11.734   3.782  73.164  1.00  0.00     0.008 OA 
HETATM   12  C   UNL     1      -9.748   3.855  71.774  1.00  0.00    -0.243 C  
HETATM   13  C   UNL     1     -10.647   4.295  72.933  1.00  0.00    -0.180 C  
HETATM   14  C   UNL     1     -10.157   5.506  73.603  1.00  0.00    -0.209 C  
HETATM   15  C   UNL     1      -9.892   7.035  68.692  1.00  0.00    -0.148 C  
HETATM   16  C   UNL     1     -10.177   6.557  72.765  1.00  0.00    -0.206 C  
HETATM   17  C   UNL     1      -9.909   7.956  73.246  1.00  0.00    -0.345 C  
HETATM   18  C   UNL     1      -9.590   7.127  70.341  1.00  0.00    -0.169 C  
HETATM   19  O   UNL     1     -11.153   7.644  68.370  1.00  0.00    -0.434 OA 
HETATM   20  C   UNL     1      -8.902   8.691  72.378  1.00  0.00    -0.181 C  
HETATM   21  C   UNL     1      -9.287   8.672  70.895  1.00  0.00    -0.235 C  
HETATM   22  H   UNL     1     -11.763   7.293  69.007  1.00  0.00     0.000 HD 
ENDROOT
BRANCH   4  23
HETATM   23  C   UNL     1     -10.216   9.797  66.926  1.00  0.00    -0.245 C  
HETATM   24  O   UNL     1     -11.443   9.987  66.796  1.00  0.00     0.237 OA 
BRANCH  23  25
HETATM   25  C   UNL     1      -9.475   9.697  65.491  1.00  0.00    -0.266 C  
BRANCH  25  26
HETATM   26  O   UNL     1     -10.394  10.226  64.368  1.00  0.00    -0.235 OA 
BRANCH  26  27
HETATM   27  C   UNL     1     -10.027  11.277  63.550  1.00  0.00    -0.376 C  
HETATM   28  O   UNL     1      -9.212  11.155  62.643  1.00  0.00    -0.323 OA 
BRANCH  27  29
HETATM   29  C   UNL     1     -10.730  12.635  63.865  1.00  0.00    -0.465 C  
HETATM   30  C   UNL     1     -12.264  12.612  63.669  1.00  0.00    -0.624 C  
ENDBRANCH  27  29
ENDBRANCH  26  27
ENDBRANCH  25  26
ENDBRANCH  23  25
ENDBRANCH   4  23
BRANCH   4  31
HETATM   31  O   UNL     1      -9.548  11.135  68.893  1.00  0.00    -0.198 OA 
BRANCH  31  32
HETATM   32  C   UNL     1     -10.703  11.844  69.172  1.00  0.00    -0.097 C  
HETATM   33  O   UNL     1     -11.631  11.442  69.855  1.00  0.00    -0.293 OA 
BRANCH  32  34
HETATM   34  O   UNL     1     -10.588  13.157  68.776  1.00  0.00    -0.248 OA 
BRANCH  34  35
HETATM   35  C   UNL     1     -10.810  13.326  67.354  1.00  0.00    -0.267 C  
HETATM   36  C   UNL     1     -12.020  14.181  67.006  1.00  0.00    -0.471 C  
ENDBRANCH  34  35
ENDBRANCH  32  34
ENDBRANCH  31  32
ENDBRANCH   4  31
TORSDOF 9
ENDMDL
MODEL       36
REMARK 921   NORMALIZED FREE ENERGY PREDICTED BY IDOCK:   -5.22 KCAL/MOL
REMARK 922        TOTAL FREE ENERGY PREDICTED BY IDOCK:   -7.84 KCAL/MOL
REMARK 923 INTER-LIGAND FREE ENERGY PREDICTED BY IDOCK:   -7.69 KCAL/MOL
REMARK 924 INTRA-LIGAND FREE ENERGY PREDICTED BY IDOCK:   -0.14 KCAL/MOL
REMARK 927      BINDING AFFINITY PREDICTED BY RF-SCORE:    0.00 PKD
ROOT
HETATM    1  C   UNL     1      -8.714   8.835  66.899  1.00  0.00    -0.136 C  
HETATM    2  C   UNL     1      -9.494   7.912  66.155  1.00  0.00    -0.158 C  
HETATM    3  C   UNL     1     -10.191   8.948  66.972  1.00  0.00    -0.345 C  
HETATM    4  C   UNL     1      -9.095  10.598  67.627  1.00  0.00    -0.142 C  
HETATM    5  C   UNL     1      -9.326   9.036  71.844  1.00  0.00    -0.145 C  
HETATM    6  C   UNL     1     -10.098   8.022  70.994  1.00  0.00    -0.213 C  
HETATM    7  C   UNL     1      -9.864  10.342  66.515  1.00  0.00    -0.256 C  
HETATM    8  C   UNL     1     -11.605   7.695  71.400  1.00  0.00    -0.300 C  
HETATM    9  C   UNL     1      -9.696  10.869  65.108  1.00  0.00    -0.312 C  
HETATM   10  C   UNL     1     -11.341  10.569  67.705  1.00  0.00    -0.267 C  
HETATM   11  O   UNL     1     -10.896   6.346  73.814  1.00  0.00    -0.222 OA 
HETATM   12  C   UNL     1     -12.124   6.500  71.728  1.00  0.00    -0.393 C  
HETATM   13  C   UNL     1     -10.924   6.136  72.608  1.00  0.00    -0.256 C  
HETATM   14  C   UNL     1      -9.761   5.695  71.828  1.00  0.00    -0.192 C  
HETATM   15  C   UNL     1     -10.964  10.004  69.276  1.00  0.00    -0.228 C  
HETATM   16  C   UNL     1      -9.299   6.692  71.054  1.00  0.00    -0.161 C  
HETATM   17  C   UNL     1      -8.004   6.571  70.299  1.00  0.00    -0.115 C  
HETATM   18  C   UNL     1     -10.185   8.536  69.518  1.00  0.00    -0.206 C  
HETATM   19  O   UNL     1     -10.229  11.077  69.887  1.00  0.00    -0.409 OA 
HETATM   20  C   UNL     1      -8.135   6.985  68.843  1.00  0.00    -0.121 C  
HETATM   21  C   UNL     1      -8.747   8.380  68.685  1.00  0.00    -0.133 C  
HETATM   22  H   UNL     1     -10.020  10.763  70.759  1.00  0.00     0.000 HD 
ENDROOT
BRANCH   4  23
HETATM   23  C   UNL     1      -9.454  12.405  67.600  1.00  0.00    -0.190 C  
HETATM   24  O   UNL     1      -9.284  13.125  68.606  1.00  0.00    -0.109 OA 
BRANCH  23  25
HETATM   25  C   UNL     1     -10.103  13.240  66.375  1.00  0.00    -0.290 C  
BRANCH  25  26
HETATM   26  O   UNL     1      -9.178  14.406  65.963  1.00  0.00    -0.190 OA 
BRANCH  26  27
HETATM   27  C   UNL     1      -9.495  15.725  66.223  1.00  0.00    -0.317 C  
HETATM   28  O   UNL     1      -8.892  16.663  65.713  1.00  0.00    -0.493 OA 
BRANCH  27  29
HETATM   29  C   UNL     1     -10.683  15.936  67.214  1.00  0.00    -0.306 C  
HETATM   30  C   UNL     1     -10.467  17.088  68.223  1.00  0.00    -0.363 C  
ENDBRANCH  27  29
ENDBRANCH  26  27
ENDBRANCH  25  26
ENDBRANCH  23  25
ENDBRANCH   4  23
BRANCH   4  31
HETATM   31  O   UNL     1      -7.617  10.855  67.031  1.00  0.00    -0.110 OA 
BRANCH  31  32
HETATM   32  C   UNL     1      -6.540  11.406  67.703  1.00  0.00    -0.074 C  
HETATM   33  O   UNL     1      -6.066  10.983  68.745  1.00  0.00    -0.043 OA 
BRANCH  32  34
HETATM   34  O   UNL     1      -5.914  12.363  66.939  1.00  0.00    -0.273 OA 
BRANCH  34  35
HETATM   35  C   UNL     1      -5.355  13.433  67.741  1.00  0.00    -0.073 C  
HETATM   36  C   UNL     1      -6.199  14.699  67.773  1.00  0.00    -0.154 C  
ENDBRANCH  34  35
ENDBRANCH  32  34
ENDBRANCH  31  32
ENDBRANCH   4  31
TORSDOF 9
ENDMDL
MODEL       37
REMARK 921   NORMALIZED FREE ENERGY PREDICTED BY IDOCK:   -5.20 KCAL/MOL
REMARK 922        TOTAL FREE ENERGY PREDICTED BY IDOCK:   -7.81 KCAL/MOL
REMARK 923 INTER-LIGAND FREE ENERGY PREDICTED BY IDOCK:   -7.73 KCAL/MOL
REMARK 924 INTRA-LIGAND FREE ENERGY PREDICTED BY IDOCK:   -0.08 KCAL/MOL
REMARK 927      BINDING AFFINITY PREDICTED BY RF-SCORE:    0.00 PKD
ROOT
HETATM    1  C   UNL     1      -8.896   8.023  66.944  1.00  0.00    -0.146 C  
HETATM    2  C   UNL     1      -9.887   7.185  66.369  1.00  0.00    -0.116 C  
HETATM    3  C   UNL     1     -10.321   8.354  67.190  1.00  0.00    -0.381 C  
HETATM    4  C   UNL     1      -8.931   9.859  67.586  1.00  0.00    -0.128 C  
HETATM    5  C   UNL     1      -8.817   8.575  71.900  1.00  0.00    -0.284 C  
HETATM    6  C   UNL     1      -9.827   7.640  71.226  1.00  0.00    -0.187 C  
HETATM    7  C   UNL     1      -9.868   9.659  66.598  1.00  0.00    -0.285 C  
HETATM    8  C   UNL     1     -11.298   7.558  71.836  1.00  0.00    -0.298 C  
HETATM    9  C   UNL     1      -9.816  10.080  65.146  1.00  0.00    -0.388 C  
HETATM   10  C   UNL     1     -11.130  10.162  67.941  1.00  0.00    -0.303 C  
HETATM   11  O   UNL     1     -10.469   6.251  74.235  1.00  0.00    -0.305 OA 
HETATM   12  C   UNL     1     -11.928   6.471  72.310  1.00  0.00    -0.272 C  
HETATM   13  C   UNL     1     -10.684   5.984  73.060  1.00  0.00    -0.252 C  
HETATM   14  C   UNL     1      -9.707   5.337  72.177  1.00  0.00    -0.202 C  
HETATM   15  C   UNL     1     -10.630   9.633  69.490  1.00  0.00    -0.229 C  
HETATM   16  C   UNL     1      -9.218   6.213  71.282  1.00  0.00    -0.157 C  
HETATM   17  C   UNL     1      -8.063   5.864  70.384  1.00  0.00    -0.107 C  
HETATM   18  C   UNL     1     -10.036   8.082  69.739  1.00  0.00    -0.196 C  
HETATM   19  O   UNL     1      -9.681  10.618  69.928  1.00  0.00    -0.411 OA 
HETATM   20  C   UNL     1      -8.326   6.215  68.930  1.00  0.00    -0.115 C  
HETATM   21  C   UNL     1      -8.756   7.674  68.749  1.00  0.00    -0.128 C  
HETATM   22  H   UNL     1      -9.404  10.324  70.787  1.00  0.00     0.000 HD 
ENDROOT
BRANCH   4  23
HETATM   23  C   UNL     1      -9.039  11.695  67.474  1.00  0.00    -0.172 C  
HETATM   24  O   UNL     1      -8.791  12.430  68.452  1.00  0.00    -0.182 OA 
BRANCH  23  25
HETATM   25  C   UNL     1      -9.544  12.555  66.199  1.00  0.00    -0.228 C  
BRANCH  25  26
HETATM   26  O   UNL     1     -10.421  13.740  66.657  1.00  0.00    -0.268 OA 
BRANCH  26  27
HETATM   27  C   UNL     1     -11.795  13.639  66.770  1.00  0.00    -0.413 C  
HETATM   28  O   UNL     1     -12.407  14.032  67.757  1.00  0.00    -0.249 OA 
BRANCH  27  29
HETATM   29  C   UNL     1     -12.512  12.989  65.546  1.00  0.00    -0.496 C  
HETATM   30  C   UNL     1     -12.127  13.612  64.184  1.00  0.00    -0.484 C  
ENDBRANCH  27  29
ENDBRANCH  26  27
ENDBRANCH  25  26
ENDBRANCH  23  25
ENDBRANCH   4  23
BRANCH   4  31
HETATM   31  O   UNL     1      -7.524   9.866  66.795  1.00  0.00    -0.094 OA 
BRANCH  31  32
HETATM   32  C   UNL     1      -6.283  10.176  67.323  1.00  0.00    -0.059 C  
HETATM   33  O   UNL     1      -6.027  10.282  68.511  1.00  0.00    -0.041 OA 
BRANCH  32  34
HETATM   34  O   UNL     1      -5.305  10.128  66.356  1.00  0.00    -0.042 OA 
BRANCH  34  35
HETATM   35  C   UNL     1      -5.425   8.959  65.507  1.00  0.00    -0.038 C  
HETATM   36  C   UNL     1      -5.651   9.274  64.035  1.00  0.00    -0.069 C  
ENDBRANCH  34  35
ENDBRANCH  32  34
ENDBRANCH  31  32
ENDBRANCH   4  31
TORSDOF 9
ENDMDL
MODEL       38
REMARK 921   NORMALIZED FREE ENERGY PREDICTED BY IDOCK:   -5.18 KCAL/MOL
REMARK 922        TOTAL FREE ENERGY PREDICTED BY IDOCK:   -7.78 KCAL/MOL
REMARK 923 INTER-LIGAND FREE ENERGY PREDICTED BY IDOCK:   -7.84 KCAL/MOL
REMARK 924 INTRA-LIGAND FREE ENERGY PREDICTED BY IDOCK:    0.06 KCAL/MOL
REMARK 927      BINDING AFFINITY PREDICTED BY RF-SCORE:    0.00 PKD
ROOT
HETATM    1  C   UNL     1      -8.479   9.613  70.432  1.00  0.00    -0.187 C  
HETATM    2  C   UNL     1      -7.122   9.316  70.721  1.00  0.00    -0.121 C  
HETATM    3  C   UNL     1      -7.840   8.486  69.709  1.00  0.00    -0.094 C  
HETATM    4  C   UNL     1      -9.618   9.223  68.904  1.00  0.00    -0.155 C  
HETATM    5  C   UNL     1     -11.905   6.061  71.150  1.00  0.00     0.028 C  
HETATM    6  C   UNL     1     -10.433   5.819  71.497  1.00  0.00    -0.291 C  
HETATM    7  C   UNL     1      -8.296   9.302  68.531  1.00  0.00    -0.119 C  
HETATM    8  C   UNL     1      -9.825   4.371  71.222  1.00  0.00    -0.260 C  
HETATM    9  C   UNL     1      -7.581  10.427  67.817  1.00  0.00    -0.089 C  
HETATM   10  C   UNL     1      -8.531   7.491  67.971  1.00  0.00    -0.123 C  
HETATM   11  O   UNL     1     -11.354   3.097  73.269  1.00  0.00    -0.145 OA 
HETATM   12  C   UNL     1      -9.268   3.534  72.113  1.00  0.00    -0.165 C  
HETATM   13  C   UNL     1     -10.357   3.798  73.157  1.00  0.00    -0.165 C  
HETATM   14  C   UNL     1     -10.170   5.071  73.863  1.00  0.00    -0.259 C  
HETATM   15  C   UNL     1      -9.624   6.663  68.995  1.00  0.00    -0.133 C  
HETATM   16  C   UNL     1     -10.281   6.109  73.015  1.00  0.00    -0.210 C  
HETATM   17  C   UNL     1     -10.323   7.529  73.506  1.00  0.00    -0.373 C  
HETATM   18  C   UNL     1      -9.533   6.794  70.666  1.00  0.00    -0.171 C  
HETATM   19  O   UNL     1     -10.928   7.040  68.524  1.00  0.00    -0.398 OA 
HETATM   20  C   UNL     1      -9.370   8.439  72.748  1.00  0.00    -0.312 C  
HETATM   21  C   UNL     1      -9.574   8.364  71.232  1.00  0.00    -0.239 C  
HETATM   22  H   UNL     1     -11.534   6.581  69.092  1.00  0.00     0.000 HD 
ENDROOT
BRANCH   4  23
HETATM   23  C   UNL     1     -10.231   9.337  67.170  1.00  0.00    -0.257 C  
HETATM   24  O   UNL     1     -10.769   8.367  66.597  1.00  0.00    -0.195 OA 
BRANCH  23  25
HETATM   25  C   UNL     1     -10.069  10.601  66.172  1.00  0.00    -0.249 C  
BRANCH  25  26
HETATM   26  O   UNL     1     -10.341  10.177  64.712  1.00  0.00    -0.221 OA 
BRANCH  26  27
HETATM   27  C   UNL     1      -9.347  10.157  63.753  1.00  0.00    -0.288 C  
HETATM   28  O   UNL     1      -9.587  10.189  62.551  1.00  0.00    -0.291 OA 
BRANCH  27  29
HETATM   29  C   UNL     1      -7.891  10.092  64.313  1.00  0.00    -0.144 C  
HETATM   30  C   UNL     1      -7.290   8.667  64.344  1.00  0.00    -0.103 C  
ENDBRANCH  27  29
ENDBRANCH  26  27
ENDBRANCH  25  26
ENDBRANCH  23  25
ENDBRANCH   4  23
BRANCH   4  31
HETATM   31  O   UNL     1     -10.039  10.757  69.183  1.00  0.00    -0.213 OA 
BRANCH  31  32
HETATM   32  C   UNL     1     -11.315  11.228  69.438  1.00  0.00    -0.292 C  
HETATM   33  O   UNL     1     -12.099  11.635  68.597  1.00  0.00    -0.449 OA 
BRANCH  32  34
HETATM   34  O   UNL     1     -11.688  10.974  70.738  1.00  0.00    -0.313 OA 
BRANCH  34  35
HETATM   35  C   UNL     1     -12.895  10.174  70.819  1.00  0.00    -0.308 C  
HETATM   36  C   UNL     1     -13.178   9.606  72.202  1.00  0.00    -0.535 C  
ENDBRANCH  34  35
ENDBRANCH  32  34
ENDBRANCH  31  32
ENDBRANCH   4  31
TORSDOF 9
ENDMDL
MODEL       39
REMARK 921   NORMALIZED FREE ENERGY PREDICTED BY IDOCK:   -5.18 KCAL/MOL
REMARK 922        TOTAL FREE ENERGY PREDICTED BY IDOCK:   -7.77 KCAL/MOL
REMARK 923 INTER-LIGAND FREE ENERGY PREDICTED BY IDOCK:   -7.33 KCAL/MOL
REMARK 924 INTRA-LIGAND FREE ENERGY PREDICTED BY IDOCK:   -0.45 KCAL/MOL
REMARK 927      BINDING AFFINITY PREDICTED BY RF-SCORE:    0.00 PKD
ROOT
HETATM    1  C   UNL     1      -9.974   9.026  68.036  1.00  0.00    -0.213 C  
HETATM    2  C   UNL     1     -11.012   8.179  67.570  1.00  0.00     0.064 C  
HETATM    3  C   UNL     1      -9.974   8.642  66.603  1.00  0.00    -0.357 C  
HETATM    4  C   UNL     1      -8.194   9.426  67.360  1.00  0.00    -0.121 C  
HETATM    5  C   UNL     1      -9.426  13.514  65.933  1.00  0.00    -0.048 C  
HETATM    6  C   UNL     1     -10.564  12.578  65.511  1.00  0.00    -0.304 C  
HETATM    7  C   UNL     1      -8.598   8.166  66.982  1.00  0.00    -0.124 C  
HETATM    8  C   UNL     1     -10.977  12.545  63.971  1.00  0.00    -0.443 C  
HETATM    9  C   UNL     1      -8.174   6.828  67.544  1.00  0.00    -0.122 C  
HETATM   10  C   UNL     1      -8.395   8.830  65.202  1.00  0.00    -0.176 C  
HETATM   11  O   UNL     1     -12.067  15.184  63.978  1.00  0.00    -0.546 OA 
HETATM   12  C   UNL     1     -12.179  12.822  63.440  1.00  0.00    -0.594 C  
HETATM   13  C   UNL     1     -12.374  14.053  64.330  1.00  0.00    -0.367 C  
HETATM   14  C   UNL     1     -12.782  13.705  65.697  1.00  0.00    -0.505 C  
HETATM   15  C   UNL     1      -8.801  10.491  65.110  1.00  0.00    -0.190 C  
HETATM   16  C   UNL     1     -11.817  13.008  66.321  1.00  0.00    -0.466 C  
HETATM   17  C   UNL     1     -11.894  12.692  67.789  1.00  0.00    -0.381 C  
HETATM   18  C   UNL     1     -10.178  11.100  65.852  1.00  0.00    -0.303 C  
HETATM   19  O   UNL     1      -7.627  11.182  65.566  1.00  0.00    -0.363 OA 
HETATM   20  C   UNL     1     -11.610  11.230  68.088  1.00  0.00    -0.359 C  
HETATM   21  C   UNL     1     -10.285  10.756  67.482  1.00  0.00    -0.231 C  
HETATM   22  H   UNL     1      -7.853  12.103  65.516  1.00  0.00     0.000 HD 
ENDROOT
BRANCH   4  23
HETATM   23  C   UNL     1      -6.429   9.110  66.933  1.00  0.00    -0.067 C  
HETATM   24  O   UNL     1      -5.594  10.036  66.862  1.00  0.00    -0.045 OA 
BRANCH  23  25
HETATM   25  C   UNL     1      -5.779   7.690  66.512  1.00  0.00    -0.036 C  
BRANCH  25  26
HETATM   26  O   UNL     1      -5.153   7.777  65.103  1.00  0.00    -0.028 OA 
BRANCH  26  27
HETATM   27  C   UNL     1      -5.588   6.991  64.053  1.00  0.00    -0.032 C  
HETATM   28  O   UNL     1      -5.574   7.376  62.889  1.00  0.00    -0.043 OA 
BRANCH  27  29
HETATM   29  C   UNL     1      -6.100   5.573  64.458  1.00  0.00    -0.022 C  
HETATM   30  C   UNL     1      -7.567   5.293  64.058  1.00  0.00    -0.071 C  
ENDBRANCH  27  29
ENDBRANCH  26  27
ENDBRANCH  25  26
ENDBRANCH  23  25
ENDBRANCH   4  23
BRANCH   4  31
HETATM   31  O   UNL     1      -7.868   9.276  68.934  1.00  0.00    -0.084 OA 
BRANCH  31  32
HETATM   32  C   UNL     1      -7.324  10.245  69.760  1.00  0.00    -0.165 C  
HETATM   33  O   UNL     1      -7.297  11.441  69.523  1.00  0.00    -0.052 OA 
BRANCH  32  34
HETATM   34  O   UNL     1      -7.014   9.727  70.996  1.00  0.00    -0.310 OA 
BRANCH  34  35
HETATM   35  C   UNL     1      -7.238   8.297  71.068  1.00  0.00    -0.061 C  
HETATM   36  C   UNL     1      -8.358   7.884  72.013  1.00  0.00    -0.161 C  
ENDBRANCH  34  35
ENDBRANCH  32  34
ENDBRANCH  31  32
ENDBRANCH   4  31
TORSDOF 9
ENDMDL
MODEL       40
REMARK 921   NORMALIZED FREE ENERGY PREDICTED BY IDOCK:   -5.07 KCAL/MOL
REMARK 922        TOTAL FREE ENERGY PREDICTED BY IDOCK:   -7.61 KCAL/MOL
REMARK 923 INTER-LIGAND FREE ENERGY PREDICTED BY IDOCK:   -7.79 KCAL/MOL
REMARK 924 INTRA-LIGAND FREE ENERGY PREDICTED BY IDOCK:    0.18 KCAL/MOL
REMARK 927      BINDING AFFINITY PREDICTED BY RF-SCORE:    0.00 PKD
ROOT
HETATM    1  C   UNL     1      -7.214   9.851  66.410  1.00  0.00    -0.100 C  
HETATM    2  C   UNL     1      -6.203  10.561  65.712  1.00  0.00    -0.132 C  
HETATM    3  C   UNL     1      -6.823  11.190  66.915  1.00  0.00    -0.127 C  
HETATM    4  C   UNL     1      -7.897   9.974  68.228  1.00  0.00    -0.089 C  
HETATM    5  C   UNL     1     -11.713  11.949  66.883  1.00  0.00    -0.291 C  
HETATM    6  C   UNL     1     -10.598  12.642  66.092  1.00  0.00    -0.280 C  
HETATM    7  C   UNL     1      -6.584  10.382  68.161  1.00  0.00    -0.060 C  
HETATM    8  C   UNL     1     -10.484  14.229  66.189  1.00  0.00    -0.294 C  
HETATM    9  C   UNL     1      -5.340   9.638  68.590  1.00  0.00    -0.036 C  
HETATM   10  C   UNL     1      -7.258  12.050  68.802  1.00  0.00    -0.108 C  
HETATM   11  O   UNL     1     -12.906  14.712  64.756  1.00  0.00    -0.542 OA 
HETATM   12  C   UNL     1     -10.553  15.117  65.184  1.00  0.00    -0.447 C  
HETATM   13  C   UNL     1     -11.742  14.404  64.534  1.00  0.00    -0.419 C  
HETATM   14  C   UNL     1     -11.343  13.209  63.780  1.00  0.00    -0.370 C  
HETATM   15  C   UNL     1      -8.827  12.360  68.193  1.00  0.00    -0.191 C  
HETATM   16  C   UNL     1     -10.821  12.280  64.599  1.00  0.00    -0.349 C  
HETATM   17  C   UNL     1     -10.509  10.889  64.119  1.00  0.00    -0.397 C  
HETATM   18  C   UNL     1      -9.207  12.111  66.577  1.00  0.00    -0.216 C  
HETATM   19  O   UNL     1      -9.708  11.609  69.045  1.00  0.00    -0.401 OA 
HETATM   20  C   UNL     1      -9.116  10.431  64.518  1.00  0.00    -0.263 C  
HETATM   21  C   UNL     1      -8.864  10.575  66.022  1.00  0.00    -0.179 C  
HETATM   22  H   UNL     1     -10.578  11.781  68.707  1.00  0.00     0.000 HD 
ENDROOT
BRANCH   4  23
HETATM   23  C   UNL     1      -7.874   9.822  70.064  1.00  0.00    -0.178 C  
HETATM   24  O   UNL     1      -6.900  10.206  70.743  1.00  0.00    -0.317 OA 
BRANCH  23  25
HETATM   25  C   UNL     1      -9.000   9.114  70.986  1.00  0.00    -0.214 C  
BRANCH  25  26
HETATM   26  O   UNL     1      -8.584   7.669  71.336  1.00  0.00    -0.117 OA 
BRANCH  26  27
HETATM   27  C   UNL     1      -9.426   6.802  72.007  1.00  0.00    -0.141 C  
HETATM   28  O   UNL     1      -9.010   5.858  72.670  1.00  0.00    -0.132 OA 
BRANCH  27  29
HETATM   29  C   UNL     1     -10.948   7.114  71.860  1.00  0.00    -0.262 C  
HETATM   30  C   UNL     1     -11.639   6.357  70.702  1.00  0.00    -0.412 C  
ENDBRANCH  27  29
ENDBRANCH  26  27
ENDBRANCH  25  26
ENDBRANCH  23  25
ENDBRANCH   4  23
BRANCH   4  31
HETATM   31  O   UNL     1      -7.817   8.369  68.066  1.00  0.00    -0.108 OA 
BRANCH  31  32
HETATM   32  C   UNL     1      -8.871   7.513  67.802  1.00  0.00    -0.132 C  
HETATM   33  O   UNL     1     -10.054   7.792  67.914  1.00  0.00    -0.168 OA 
BRANCH  32  34
HETATM   34  O   UNL     1      -8.437   6.368  67.174  1.00  0.00    -0.112 OA 
BRANCH  34  35
HETATM   35  C   UNL     1      -8.822   6.323  65.778  1.00  0.00    -0.111 C  
HETATM   36  C   UNL     1      -7.652   6.285  64.805  1.00  0.00    -0.093 C  
ENDBRANCH  34  35
ENDBRANCH  32  34
ENDBRANCH  31  32
ENDBRANCH   4  31
TORSDOF 9
ENDMDL
MODEL       41
REMARK 921   NORMALIZED FREE ENERGY PREDICTED BY IDOCK:   -5.07 KCAL/MOL
REMARK 922        TOTAL FREE ENERGY PREDICTED BY IDOCK:   -7.61 KCAL/MOL
REMARK 923 INTER-LIGAND FREE ENERGY PREDICTED BY IDOCK:   -7.45 KCAL/MOL
REMARK 924 INTRA-LIGAND FREE ENERGY PREDICTED BY IDOCK:   -0.16 KCAL/MOL
REMARK 927      BINDING AFFINITY PREDICTED BY RF-SCORE:    0.00 PKD
ROOT
HETATM    1  C   UNL     1      -9.916   9.948  65.669  1.00  0.00    -0.353 C  
HETATM    2  C   UNL     1      -9.451  10.153  64.345  1.00  0.00    -0.368 C  
HETATM    3  C   UNL     1      -8.571  10.546  65.484  1.00  0.00    -0.187 C  
HETATM    4  C   UNL     1      -9.001   9.782  67.378  1.00  0.00    -0.135 C  
HETATM    5  C   UNL     1     -10.291  13.887  68.704  1.00  0.00    -0.237 C  
HETATM    6  C   UNL     1      -9.849  14.053  67.246  1.00  0.00    -0.242 C  
HETATM    7  C   UNL     1      -8.197   9.368  66.341  1.00  0.00    -0.111 C  
HETATM    8  C   UNL     1      -8.726  15.137  66.922  1.00  0.00    -0.289 C  
HETATM    9  C   UNL     1      -7.846   7.959  65.922  1.00  0.00    -0.101 C  
HETATM   10  C   UNL     1      -7.032  10.765  66.923  1.00  0.00    -0.109 C  
HETATM   11  O   UNL     1     -10.400  17.373  67.513  1.00  0.00    -0.327 OA 
HETATM   12  C   UNL     1      -8.822  16.194  66.098  1.00  0.00    -0.367 C  
HETATM   13  C   UNL     1     -10.216  16.565  66.613  1.00  0.00    -0.300 C  
HETATM   14  C   UNL     1     -11.273  15.716  66.050  1.00  0.00    -0.045 C  
HETATM   15  C   UNL     1      -7.918  12.099  67.529  1.00  0.00    -0.163 C  
HETATM   16  C   UNL     1     -11.118  14.438  66.438  1.00  0.00    -0.326 C  
HETATM   17  C   UNL     1     -12.166  13.396  66.163  1.00  0.00    -0.471 C  
HETATM   18  C   UNL     1      -9.261  12.700  66.722  1.00  0.00    -0.225 C  
HETATM   19  O   UNL     1      -8.254  11.736  68.878  1.00  0.00    -0.329 OA 
HETATM   20  C   UNL     1     -11.585  12.126  65.564  1.00  0.00    -0.398 C  
HETATM   21  C   UNL     1     -10.436  11.558  66.403  1.00  0.00    -0.292 C  
HETATM   22  H   UNL     1      -8.746  12.475  69.214  1.00  0.00     0.000 HD 
ENDROOT
BRANCH   4  23
HETATM   23  C   UNL     1      -7.935   9.007  68.665  1.00  0.00    -0.102 C  
HETATM   24  O   UNL     1      -7.841   9.481  69.815  1.00  0.00    -0.097 OA 
BRANCH  23  25
HETATM   25  C   UNL     1      -6.947   7.741  68.462  1.00  0.00    -0.071 C  
BRANCH  25  26
HETATM   26  O   UNL     1      -7.680   6.423  68.795  1.00  0.00    -0.097 OA 
BRANCH  26  27
HETATM   27  C   UNL     1      -7.667   5.873  70.063  1.00  0.00    -0.088 C  
HETATM   28  O   UNL     1      -7.270   6.488  71.046  1.00  0.00    -0.074 OA 
BRANCH  27  29
HETATM   29  C   UNL     1      -8.197   4.407  70.151  1.00  0.00    -0.067 C  
HETATM   30  C   UNL     1      -9.663   4.293  70.629  1.00  0.00    -0.274 C  
ENDBRANCH  27  29
ENDBRANCH  26  27
ENDBRANCH  25  26
ENDBRANCH  23  25
ENDBRANCH   4  23
BRANCH   4  31
HETATM   31  O   UNL     1     -10.089   8.598  67.527  1.00  0.00    -0.184 OA 
BRANCH  31  32
HETATM   32  C   UNL     1     -10.679   8.163  68.701  1.00  0.00    -0.025 C  
HETATM   33  O   UNL     1     -11.103   8.885  69.588  1.00  0.00    -0.175 OA 
BRANCH  32  34
HETATM   34  O   UNL     1     -10.941   6.813  68.654  1.00  0.00    -0.234 OA 
BRANCH  34  35
HETATM   35  C   UNL     1     -11.160   6.339  67.301  1.00  0.00    -0.296 C  
HETATM   36  C   UNL     1     -10.316   5.134  66.915  1.00  0.00    -0.288 C  
ENDBRANCH  34  35
ENDBRANCH  32  34
ENDBRANCH  31  32
ENDBRANCH   4  31
TORSDOF 9
ENDMDL
MODEL       42
REMARK 921   NORMALIZED FREE ENERGY PREDICTED BY IDOCK:   -5.07 KCAL/MOL
REMARK 922        TOTAL FREE ENERGY PREDICTED BY IDOCK:   -7.61 KCAL/MOL
REMARK 923 INTER-LIGAND FREE ENERGY PREDICTED BY IDOCK:   -7.53 KCAL/MOL
REMARK 924 INTRA-LIGAND FREE ENERGY PREDICTED BY IDOCK:   -0.08 KCAL/MOL
REMARK 927      BINDING AFFINITY PREDICTED BY RF-SCORE:    0.00 PKD
ROOT
HETATM    1  C   UNL     1     -10.887  11.062  68.908  1.00  0.00    -0.262 C  
HETATM    2  C   UNL     1     -12.276  11.093  68.624  1.00  0.00    -0.012 C  
HETATM    3  C   UNL     1     -11.312  11.015  67.487  1.00  0.00    -0.332 C  
HETATM    4  C   UNL     1      -9.346  10.445  67.893  1.00  0.00    -0.138 C  
HETATM    5  C   UNL     1      -7.981  14.643  67.009  1.00  0.00    -0.106 C  
HETATM    6  C   UNL     1      -9.497  14.655  66.784  1.00  0.00    -0.275 C  
HETATM    7  C   UNL     1     -10.485   9.760  67.535  1.00  0.00    -0.309 C  
HETATM    8  C   UNL     1     -10.042  15.146  65.369  1.00  0.00    -0.384 C  
HETATM    9  C   UNL     1     -10.903   8.357  67.913  1.00  0.00    -0.037 C  
HETATM   10  C   UNL     1     -10.155  10.479  65.796  1.00  0.00    -0.329 C  
HETATM   11  O   UNL     1      -9.267  17.865  65.766  1.00  0.00    -0.498 OA 
HETATM   12  C   UNL     1     -10.877  16.169  65.124  1.00  0.00    -0.376 C  
HETATM   13  C   UNL     1     -10.155  17.094  66.107  1.00  0.00    -0.305 C  
HETATM   14  C   UNL     1     -10.505  16.820  67.506  1.00  0.00    -0.319 C  
HETATM   15  C   UNL     1      -9.462  12.041  65.892  1.00  0.00    -0.197 C  
HETATM   16  C   UNL     1     -10.100  15.590  67.867  1.00  0.00    -0.224 C  
HETATM   17  C   UNL     1     -10.160  15.126  69.296  1.00  0.00    -0.246 C  
HETATM   18  C   UNL     1     -10.060  13.203  66.946  1.00  0.00    -0.245 C  
HETATM   19  O   UNL     1      -8.064  11.810  66.128  1.00  0.00    -0.379 OA 
HETATM   20  C   UNL     1     -10.798  13.754  69.440  1.00  0.00    -0.081 C  
HETATM   21  C   UNL     1     -10.139  12.706  68.538  1.00  0.00    -0.183 C  
HETATM   22  H   UNL     1      -7.679  12.677  66.182  1.00  0.00     0.000 HD 
ENDROOT
BRANCH   4  23
HETATM   23  C   UNL     1      -8.224   9.229  67.081  1.00  0.00    -0.117 C  
HETATM   24  O   UNL     1      -6.996   9.429  66.987  1.00  0.00    -0.083 OA 
BRANCH  23  25
HETATM   25  C   UNL     1      -8.663   7.865  66.329  1.00  0.00    -0.154 C  
BRANCH  25  26
HETATM   26  O   UNL     1      -7.922   6.652  66.930  1.00  0.00    -0.106 OA 
BRANCH  26  27
HETATM   27  C   UNL     1      -8.590   5.530  67.383  1.00  0.00    -0.108 C  
HETATM   28  O   UNL     1      -8.194   4.864  68.333  1.00  0.00    -0.085 OA 
BRANCH  27  29
HETATM   29  C   UNL     1      -9.889   5.173  66.594  1.00  0.00    -0.208 C  
HETATM   30  C   UNL     1      -9.651   4.270  65.361  1.00  0.00    -0.187 C  
ENDBRANCH  27  29
ENDBRANCH  26  27
ENDBRANCH  25  26
ENDBRANCH  23  25
ENDBRANCH   4  23
BRANCH   4  31
HETATM   31  O   UNL     1      -8.977   9.855  69.350  1.00  0.00    -0.167 OA 
BRANCH  31  32
HETATM   32  C   UNL     1      -7.812  10.083  70.061  1.00  0.00    -0.158 C  
HETATM   33  O   UNL     1      -7.032  11.001  69.864  1.00  0.00    -0.138 OA 
BRANCH  32  34
HETATM   34  O   UNL     1      -7.745   9.281  71.176  1.00  0.00    -0.282 OA 
BRANCH  34  35
HETATM   35  C   UNL     1      -8.931   8.464  71.341  1.00  0.00    -0.186 C  
HETATM   36  C   UNL     1      -9.461   8.409  72.767  1.00  0.00    -0.312 C  
ENDBRANCH  34  35
ENDBRANCH  32  34
ENDBRANCH  31  32
ENDBRANCH   4  31
TORSDOF 9
ENDMDL
MODEL       43
REMARK 921   NORMALIZED FREE ENERGY PREDICTED BY IDOCK:   -5.02 KCAL/MOL
REMARK 922        TOTAL FREE ENERGY PREDICTED BY IDOCK:   -7.53 KCAL/MOL
REMARK 923 INTER-LIGAND FREE ENERGY PREDICTED BY IDOCK:   -7.25 KCAL/MOL
REMARK 924 INTRA-LIGAND FREE ENERGY PREDICTED BY IDOCK:   -0.28 KCAL/MOL
REMARK 927      BINDING AFFINITY PREDICTED BY RF-SCORE:    0.00 PKD
ROOT
HETATM    1  C   UNL     1      -8.714   8.192  66.686  1.00  0.00    -0.152 C  
HETATM    2  C   UNL     1      -9.575   7.215  66.123  1.00  0.00    -0.013 C  
HETATM    3  C   UNL     1     -10.178   8.372  66.849  1.00  0.00    -0.383 C  
HETATM    4  C   UNL     1      -8.985  10.047  67.208  1.00  0.00    -0.135 C  
HETATM    5  C   UNL     1      -8.947   9.035  71.595  1.00  0.00    -0.144 C  
HETATM    6  C   UNL     1      -9.811   7.954  70.939  1.00  0.00    -0.192 C  
HETATM    7  C   UNL     1      -9.843   9.684  66.195  1.00  0.00    -0.334 C  
HETATM    8  C   UNL     1     -11.293   7.741  71.488  1.00  0.00    -0.289 C  
HETATM    9  C   UNL     1      -9.765  10.023  64.724  1.00  0.00    -0.363 C  
HETATM   10  C   UNL     1     -11.219  10.117  67.448  1.00  0.00    -0.080 C  
HETATM   11  O   UNL     1     -10.445   6.677  73.999  1.00  0.00    -0.346 OA 
HETATM   12  C   UNL     1     -11.821   6.618  72.002  1.00  0.00    -0.365 C  
HETATM   13  C   UNL     1     -10.570   6.320  72.835  1.00  0.00    -0.233 C  
HETATM   14  C   UNL     1      -9.484   5.738  72.038  1.00  0.00    -0.166 C  
HETATM   15  C   UNL     1     -10.742   9.739  69.047  1.00  0.00    -0.217 C  
HETATM   16  C   UNL     1      -9.051   6.611  71.112  1.00  0.00    -0.152 C  
HETATM   17  C   UNL     1      -7.821   6.345  70.289  1.00  0.00    -0.103 C  
HETATM   18  C   UNL     1      -9.993   8.283  69.419  1.00  0.00    -0.188 C  
HETATM   19  O   UNL     1      -9.931  10.849  69.463  1.00  0.00    -0.418 OA 
HETATM   20  C   UNL     1      -8.048   6.578  68.805  1.00  0.00    -0.118 C  
HETATM   21  C   UNL     1      -8.627   7.966  68.514  1.00  0.00    -0.128 C  
HETATM   22  H   UNL     1      -9.667  10.639  70.350  1.00  0.00     0.000 HD 
ENDROOT
BRANCH   4  23
HETATM   23  C   UNL     1      -9.290  11.848  66.976  1.00  0.00    -0.188 C  
HETATM   24  O   UNL     1      -9.600  12.325  65.864  1.00  0.00    -0.240 OA 
BRANCH  23  25
HETATM   25  C   UNL     1      -9.106  13.009  68.089  1.00  0.00    -0.204 C  
BRANCH  25  26
HETATM   26  O   UNL     1     -10.480  13.558  68.532  1.00  0.00    -0.238 OA 
BRANCH  26  27
HETATM   27  C   UNL     1     -10.606  14.722  69.266  1.00  0.00    -0.240 C  
HETATM   28  O   UNL     1      -9.700  15.542  69.366  1.00  0.00    -0.250 OA 
BRANCH  27  29
HETATM   29  C   UNL     1     -11.991  14.918  69.959  1.00  0.00    -0.377 C  
HETATM   30  C   UNL     1     -12.433  13.722  70.835  1.00  0.00    -0.451 C  
ENDBRANCH  27  29
ENDBRANCH  26  27
ENDBRANCH  25  26
ENDBRANCH  23  25
ENDBRANCH   4  23
BRANCH   4  31
HETATM   31  O   UNL     1      -7.549  10.167  66.481  1.00  0.00    -0.103 OA 
BRANCH  31  32
HETATM   32  C   UNL     1      -6.440  10.846  66.953  1.00  0.00    -0.097 C  
HETATM   33  O   UNL     1      -5.776  11.647  66.315  1.00  0.00    -0.225 OA 
BRANCH  32  34
HETATM   34  O   UNL     1      -6.300  10.686  68.313  1.00  0.00    -0.054 OA 
BRANCH  34  35
HETATM   35  C   UNL     1      -5.339   9.656  68.652  1.00  0.00    -0.036 C  
HETATM   36  C   UNL     1      -5.382   9.213  70.108  1.00  0.00    -0.027 C  
ENDBRANCH  34  35
ENDBRANCH  32  34
ENDBRANCH  31  32
ENDBRANCH   4  31
TORSDOF 9
ENDMDL
MODEL       44
REMARK 921   NORMALIZED FREE ENERGY PREDICTED BY IDOCK:   -5.01 KCAL/MOL
REMARK 922        TOTAL FREE ENERGY PREDICTED BY IDOCK:   -7.50 KCAL/MOL
REMARK 923 INTER-LIGAND FREE ENERGY PREDICTED BY IDOCK:   -7.48 KCAL/MOL
REMARK 924 INTRA-LIGAND FREE ENERGY PREDICTED BY IDOCK:   -0.02 KCAL/MOL
REMARK 927      BINDING AFFINITY PREDICTED BY RF-SCORE:    0.00 PKD
ROOT
HETATM    1  C   UNL     1      -7.909   8.668  69.073  1.00  0.00    -0.100 C  
HETATM    2  C   UNL     1      -6.869   9.357  69.749  1.00  0.00    -0.055 C  
HETATM    3  C   UNL     1      -8.261   9.458  70.278  1.00  0.00    -0.194 C  
HETATM    4  C   UNL     1      -9.671   8.062  69.632  1.00  0.00    -0.169 C  
HETATM    5  C   UNL     1     -11.756  11.298  67.298  1.00  0.00    -0.047 C  
HETATM    6  C   UNL     1     -10.577  11.992  67.987  1.00  0.00    -0.233 C  
HETATM    7  C   UNL     1      -8.803   8.120  70.698  1.00  0.00    -0.143 C  
HETATM    8  C   UNL     1     -10.885  13.254  68.911  1.00  0.00    -0.245 C  
HETATM    9  C   UNL     1      -8.096   6.985  71.405  1.00  0.00    -0.108 C  
HETATM   10  C   UNL     1     -10.048   9.379  71.413  1.00  0.00    -0.263 C  
HETATM   11  O   UNL     1     -11.650  14.938  66.736  1.00  0.00    -0.344 OA 
HETATM   12  C   UNL     1     -10.410  14.504  68.775  1.00  0.00    -0.243 C  
HETATM   13  C   UNL     1     -10.632  14.504  67.259  1.00  0.00    -0.280 C  
HETATM   14  C   UNL     1      -9.592  13.765  66.533  1.00  0.00    -0.295 C  
HETATM   15  C   UNL     1     -10.766  10.314  70.172  1.00  0.00    -0.278 C  
HETATM   16  C   UNL     1      -9.617  12.461  66.860  1.00  0.00    -0.219 C  
HETATM   17  C   UNL     1      -8.788  11.445  66.123  1.00  0.00    -0.186 C  
HETATM   18  C   UNL     1      -9.851  10.975  68.930  1.00  0.00    -0.189 C  
HETATM   19  O   UNL     1     -11.815   9.485  69.647  1.00  0.00    -0.433 OA 
HETATM   20  C   UNL     1      -8.017  10.530  67.058  1.00  0.00    -0.118 C  
HETATM   21  C   UNL     1      -8.920   9.865  68.101  1.00  0.00    -0.118 C  
HETATM   22  H   UNL     1     -12.213  10.003  68.958  1.00  0.00     0.000 HD 
ENDROOT
BRANCH   4  23
HETATM   23  C   UNL     1     -10.904   7.044  70.547  1.00  0.00    -0.251 C  
HETATM   24  O   UNL     1     -11.759   6.355  69.952  1.00  0.00    -0.426 OA 
BRANCH  23  25
HETATM   25  C   UNL     1     -11.108   6.988  72.151  1.00  0.00    -0.245 C  
BRANCH  25  26
HETATM   26  O   UNL     1     -11.662   5.612  72.580  1.00  0.00    -0.297 OA 
BRANCH  26  27
HETATM   27  C   UNL     1     -10.893   4.688  73.261  1.00  0.00    -0.272 C  
HETATM   28  O   UNL     1     -10.889   4.606  74.485  1.00  0.00    -0.339 OA 
BRANCH  27  29
HETATM   29  C   UNL     1     -10.029   3.754  72.358  1.00  0.00    -0.232 C  
HETATM   30  C   UNL     1     -10.290   2.245  72.577  1.00  0.00    -0.219 C  
ENDBRANCH  27  29
ENDBRANCH  26  27
ENDBRANCH  25  26
ENDBRANCH  23  25
ENDBRANCH   4  23
BRANCH   4  31
HETATM   31  O   UNL     1      -9.181   6.769  68.798  1.00  0.00    -0.132 OA 
BRANCH  31  32
HETATM   32  C   UNL     1      -9.710   6.308  67.606  1.00  0.00    -0.119 C  
HETATM   33  O   UNL     1     -10.529   6.899  66.920  1.00  0.00    -0.257 OA 
BRANCH  32  34
HETATM   34  O   UNL     1      -9.034   5.196  67.159  1.00  0.00    -0.113 OA 
BRANCH  34  35
HETATM   35  C   UNL     1      -8.427   4.446  68.241  1.00  0.00    -0.093 C  
HETATM   36  C   UNL     1      -9.196   3.197  68.646  1.00  0.00    -0.228 C  
ENDBRANCH  34  35
ENDBRANCH  32  34
ENDBRANCH  31  32
ENDBRANCH   4  31
TORSDOF 9
ENDMDL
MODEL       45
REMARK 921   NORMALIZED FREE ENERGY PREDICTED BY IDOCK:   -5.00 KCAL/MOL
REMARK 922        TOTAL FREE ENERGY PREDICTED BY IDOCK:   -7.50 KCAL/MOL
REMARK 923 INTER-LIGAND FREE ENERGY PREDICTED BY IDOCK:   -7.10 KCAL/MOL
REMARK 924 INTRA-LIGAND FREE ENERGY PREDICTED BY IDOCK:   -0.40 KCAL/MOL
REMARK 927      BINDING AFFINITY PREDICTED BY RF-SCORE:    0.00 PKD
ROOT
HETATM    1  C   UNL     1      -9.851   8.799  67.804  1.00  0.00    -0.217 C  
HETATM    2  C   UNL     1     -10.905   7.965  67.349  1.00  0.00    -0.172 C  
HETATM    3  C   UNL     1      -9.910   8.472  66.358  1.00  0.00    -0.327 C  
HETATM    4  C   UNL     1      -8.103   9.236  67.069  1.00  0.00    -0.112 C  
HETATM    5  C   UNL     1      -9.413  13.370  65.858  1.00  0.00    -0.044 C  
HETATM    6  C   UNL     1     -10.564  12.444  65.448  1.00  0.00    -0.316 C  
HETATM    7  C   UNL     1      -8.518   7.990  66.659  1.00  0.00    -0.133 C  
HETATM    8  C   UNL     1     -11.041  12.469  63.927  1.00  0.00    -0.476 C  
HETATM    9  C   UNL     1      -8.065   6.633  67.150  1.00  0.00    -0.113 C  
HETATM   10  C   UNL     1      -8.394   8.724  64.900  1.00  0.00    -0.179 C  
HETATM   11  O   UNL     1     -12.142  15.099  64.085  1.00  0.00    -0.543 OA 
HETATM   12  C   UNL     1     -12.266  12.759  63.459  1.00  0.00    -0.613 C  
HETATM   13  C   UNL     1     -12.429  13.953  64.405  1.00  0.00    -0.279 C  
HETATM   14  C   UNL     1     -12.777  13.550  65.772  1.00  0.00    -0.433 C  
HETATM   15  C   UNL     1      -8.810  10.384  64.891  1.00  0.00    -0.190 C  
HETATM   16  C   UNL     1     -11.783  12.835  66.327  1.00  0.00    -0.460 C  
HETATM   17  C   UNL     1     -11.796  12.461  67.784  1.00  0.00    -0.362 C  
HETATM   18  C   UNL     1     -10.157  10.956  65.714  1.00  0.00    -0.308 C  
HETATM   19  O   UNL     1      -7.621  11.065  65.324  1.00  0.00    -0.357 OA 
HETATM   20  C   UNL     1     -11.493  10.990  68.012  1.00  0.00    -0.365 C  
HETATM   21  C   UNL     1     -10.193  10.548  67.333  1.00  0.00    -0.253 C  
HETATM   22  H   UNL     1      -7.852  11.986  65.319  1.00  0.00     0.000 HD 
ENDROOT
BRANCH   4  23
HETATM   23  C   UNL     1      -6.357   8.948  66.555  1.00  0.00    -0.062 C  
HETATM   24  O   UNL     1      -5.535   9.883  66.469  1.00  0.00    -0.043 OA 
BRANCH  23  25
HETATM   25  C   UNL     1      -5.714   7.544  66.071  1.00  0.00    -0.036 C  
BRANCH  25  26
HETATM   26  O   UNL     1      -5.209   7.653  64.615  1.00  0.00    -0.029 OA 
BRANCH  26  27
HETATM   27  C   UNL     1      -5.453   6.669  63.676  1.00  0.00    -0.027 C  
HETATM   28  O   UNL     1      -5.139   6.789  62.497  1.00  0.00    -0.028 OA 
BRANCH  27  29
HETATM   29  C   UNL     1      -6.158   5.390  64.227  1.00  0.00    -0.022 C  
HETATM   30  C   UNL     1      -7.373   4.928  63.389  1.00  0.00    -0.050 C  
ENDBRANCH  27  29
ENDBRANCH  26  27
ENDBRANCH  25  26
ENDBRANCH  23  25
ENDBRANCH   4  23
BRANCH   4  31
HETATM   31  O   UNL     1      -7.710   9.027  68.621  1.00  0.00    -0.094 OA 
BRANCH  31  32
HETATM   32  C   UNL     1      -7.145   9.968  69.463  1.00  0.00    -0.091 C  
HETATM   33  O   UNL     1      -6.184   9.779  70.191  1.00  0.00    -0.054 OA 
BRANCH  32  34
HETATM   34  O   UNL     1      -7.652  11.223  69.217  1.00  0.00    -0.107 OA 
BRANCH  34  35
HETATM   35  C   UNL     1      -6.611  12.200  68.964  1.00  0.00    -0.100 C  
HETATM   36  C   UNL     1      -7.125  13.568  68.540  1.00  0.00    -0.108 C  
ENDBRANCH  34  35
ENDBRANCH  32  34
ENDBRANCH  31  32
ENDBRANCH   4  31
TORSDOF 9
ENDMDL
MODEL       46
REMARK 921   NORMALIZED FREE ENERGY PREDICTED BY IDOCK:   -5.00 KCAL/MOL
REMARK 922        TOTAL FREE ENERGY PREDICTED BY IDOCK:   -7.50 KCAL/MOL
REMARK 923 INTER-LIGAND FREE ENERGY PREDICTED BY IDOCK:   -7.60 KCAL/MOL
REMARK 924 INTRA-LIGAND FREE ENERGY PREDICTED BY IDOCK:    0.09 KCAL/MOL
REMARK 927      BINDING AFFINITY PREDICTED BY RF-SCORE:    0.00 PKD
ROOT
HETATM    1  C   UNL     1      -7.884   8.070  69.398  1.00  0.00    -0.113 C  
HETATM    2  C   UNL     1      -6.479   8.077  69.199  1.00  0.00    -0.036 C  
HETATM    3  C   UNL     1      -7.367   8.496  68.075  1.00  0.00    -0.092 C  
HETATM    4  C   UNL     1      -9.348   8.991  68.507  1.00  0.00    -0.139 C  
HETATM    5  C   UNL     1     -10.706   5.245  66.411  1.00  0.00    -0.290 C  
HETATM    6  C   UNL     1      -9.179   5.250  66.281  1.00  0.00    -0.152 C  
HETATM    7  C   UNL     1      -8.179   9.713  68.421  1.00  0.00    -0.106 C  
HETATM    8  C   UNL     1      -8.550   5.154  64.819  1.00  0.00    -0.148 C  
HETATM    9  C   UNL     1      -7.769  10.943  69.199  1.00  0.00    -0.127 C  
HETATM   10  C   UNL     1      -8.406   9.515  66.535  1.00  0.00    -0.119 C  
HETATM   11  O   UNL     1      -9.383   2.456  64.398  1.00  0.00    -0.129 OA 
HETATM   12  C   UNL     1      -7.714   4.214  64.349  1.00  0.00    -0.084 C  
HETATM   13  C   UNL     1      -8.510   3.075  64.992  1.00  0.00    -0.097 C  
HETATM   14  C   UNL     1      -8.248   2.941  66.430  1.00  0.00    -0.088 C  
HETATM   15  C   UNL     1      -9.123   8.009  66.151  1.00  0.00    -0.176 C  
HETATM   16  C   UNL     1      -8.660   4.034  67.095  1.00  0.00    -0.104 C  
HETATM   17  C   UNL     1      -8.686   4.082  68.597  1.00  0.00    -0.130 C  
HETATM   18  C   UNL     1      -8.609   6.583  66.874  1.00  0.00    -0.114 C  
HETATM   19  O   UNL     1     -10.531   8.207  66.360  1.00  0.00    -0.432 OA 
HETATM   20  C   UNL     1      -8.042   5.340  69.154  1.00  0.00    -0.089 C  
HETATM   21  C   UNL     1      -8.628   6.616  68.543  1.00  0.00    -0.124 C  
HETATM   22  H   UNL     1     -10.928   7.372  66.148  1.00  0.00     0.000 HD 
ENDROOT
BRANCH   4  23
HETATM   23  C   UNL     1     -10.399  10.417  68.001  1.00  0.00    -0.179 C  
HETATM   24  O   UNL     1     -11.636  10.310  67.876  1.00  0.00    -0.338 OA 
BRANCH  23  25
HETATM   25  C   UNL     1      -9.884  11.890  67.572  1.00  0.00    -0.188 C  
BRANCH  25  26
HETATM   26  O   UNL     1     -10.630  12.380  66.312  1.00  0.00    -0.242 OA 
BRANCH  26  27
HETATM   27  C   UNL     1     -11.609  13.354  66.368  1.00  0.00    -0.346 C  
HETATM   28  O   UNL     1     -11.707  14.139  67.304  1.00  0.00    -0.351 OA 
BRANCH  27  29
HETATM   29  C   UNL     1     -12.582  13.382  65.147  1.00  0.00    -0.495 C  
HETATM   30  C   UNL     1     -12.368  12.226  64.142  1.00  0.00    -0.546 C  
ENDBRANCH  27  29
ENDBRANCH  26  27
ENDBRANCH  25  26
ENDBRANCH  23  25
ENDBRANCH   4  23
BRANCH   4  31
HETATM   31  O   UNL     1      -9.803   9.165  70.046  1.00  0.00    -0.174 OA 
BRANCH  31  32
HETATM   32  C   UNL     1     -10.956   8.665  70.627  1.00  0.00    -0.240 C  
HETATM   33  O   UNL     1     -11.437   7.565  70.409  1.00  0.00    -0.269 OA 
BRANCH  32  34
HETATM   34  O   UNL     1     -11.380   9.469  71.660  1.00  0.00    -0.383 OA 
BRANCH  34  35
HETATM   35  C   UNL     1     -12.760   9.886  71.505  1.00  0.00    -0.415 C  
HETATM   36  C   UNL     1     -13.746   9.128  72.381  1.00  0.00    -0.543 C  
ENDBRANCH  34  35
ENDBRANCH  32  34
ENDBRANCH  31  32
ENDBRANCH   4  31
TORSDOF 9
ENDMDL
MODEL       47
REMARK 921   NORMALIZED FREE ENERGY PREDICTED BY IDOCK:   -4.97 KCAL/MOL
REMARK 922        TOTAL FREE ENERGY PREDICTED BY IDOCK:   -7.45 KCAL/MOL
REMARK 923 INTER-LIGAND FREE ENERGY PREDICTED BY IDOCK:   -6.82 KCAL/MOL
REMARK 924 INTRA-LIGAND FREE ENERGY PREDICTED BY IDOCK:   -0.63 KCAL/MOL
REMARK 927      BINDING AFFINITY PREDICTED BY RF-SCORE:    0.00 PKD
ROOT
HETATM    1  C   UNL     1     -10.849   6.953  69.051  1.00  0.00    -0.247 C  
HETATM    2  C   UNL     1     -10.679   5.699  68.410  1.00  0.00    -0.229 C  
HETATM    3  C   UNL     1      -9.552   6.253  69.216  1.00  0.00    -0.147 C  
HETATM    4  C   UNL     1      -9.960   7.794  70.563  1.00  0.00    -0.187 C  
HETATM    5  C   UNL     1      -7.709  10.658  67.918  1.00  0.00    -0.100 C  
HETATM    6  C   UNL     1      -7.610   9.298  67.218  1.00  0.00    -0.091 C  
HETATM    7  C   UNL     1      -9.923   6.422  70.664  1.00  0.00    -0.213 C  
HETATM    8  C   UNL     1      -6.159   8.735  66.872  1.00  0.00    -0.058 C  
HETATM    9  C   UNL     1     -10.751   5.516  71.547  1.00  0.00    -0.290 C  
HETATM   10  C   UNL     1      -8.027   6.650  70.633  1.00  0.00    -0.111 C  
HETATM   11  O   UNL     1      -5.628  10.706  64.876  1.00  0.00    -0.141 OA 
HETATM   12  C   UNL     1      -5.674   8.412  65.662  1.00  0.00    -0.043 C  
HETATM   13  C   UNL     1      -6.261   9.667  65.008  1.00  0.00    -0.087 C  
HETATM   14  C   UNL     1      -7.698   9.546  64.737  1.00  0.00    -0.119 C  
HETATM   15  C   UNL     1      -7.577   7.969  69.639  1.00  0.00    -0.096 C  
HETATM   16  C   UNL     1      -8.392   9.428  65.882  1.00  0.00    -0.125 C  
HETATM   17  C   UNL     1      -9.894   9.480  65.905  1.00  0.00    -0.360 C  
HETATM   18  C   UNL     1      -8.260   8.197  68.122  1.00  0.00    -0.129 C  
HETATM   19  O   UNL     1      -7.763   9.131  70.462  1.00  0.00    -0.101 OA 
HETATM   20  C   UNL     1     -10.507   8.346  66.710  1.00  0.00    -0.315 C  
HETATM   21  C   UNL     1      -9.928   8.255  68.125  1.00  0.00    -0.224 C  
HETATM   22  H   UNL     1      -7.514   9.862  69.910  1.00  0.00     0.000 HD 
ENDROOT
BRANCH   4  23
HETATM   23  C   UNL     1      -9.483   8.048  72.325  1.00  0.00    -0.209 C  
HETATM   24  O   UNL     1      -8.686   8.947  72.667  1.00  0.00    -0.373 OA 
BRANCH  23  25
HETATM   25  C   UNL     1      -9.919   7.131  73.584  1.00  0.00    -0.325 C  
BRANCH  25  26
HETATM   26  O   UNL     1      -8.736   6.949  74.559  1.00  0.00    -0.167 OA 
BRANCH  26  27
HETATM   27  C   UNL     1      -7.680   6.100  74.286  1.00  0.00    -0.095 C  
HETATM   28  O   UNL     1      -6.590   6.505  73.897  1.00  0.00    -0.072 OA 
BRANCH  27  29
HETATM   29  C   UNL     1      -7.977   4.584  74.511  1.00  0.00    -0.087 C  
HETATM   30  C   UNL     1      -7.913   3.730  73.223  1.00  0.00    -0.083 C  
ENDBRANCH  27  29
ENDBRANCH  26  27
ENDBRANCH  25  26
ENDBRANCH  23  25
ENDBRANCH   4  23
BRANCH   4  31
HETATM   31  O   UNL     1     -11.495   8.169  70.896  1.00  0.00    -0.272 OA 
BRANCH  31  32
HETATM   32  C   UNL     1     -11.955   9.359  71.432  1.00  0.00    -0.371 C  
HETATM   33  O   UNL     1     -12.665   9.462  72.419  1.00  0.00    -0.352 OA 
BRANCH  32  34
HETATM   34  O   UNL     1     -11.330  10.440  70.853  1.00  0.00    -0.335 OA 
BRANCH  34  35
HETATM   35  C   UNL     1     -12.088  10.990  69.747  1.00  0.00    -0.353 C  
HETATM   36  C   UNL     1     -11.238  11.645  68.668  1.00  0.00    -0.308 C  
ENDBRANCH  34  35
ENDBRANCH  32  34
ENDBRANCH  31  32
ENDBRANCH   4  31
TORSDOF 9
ENDMDL
MODEL       48
REMARK 921   NORMALIZED FREE ENERGY PREDICTED BY IDOCK:   -4.94 KCAL/MOL
REMARK 922        TOTAL FREE ENERGY PREDICTED BY IDOCK:   -7.41 KCAL/MOL
REMARK 923 INTER-LIGAND FREE ENERGY PREDICTED BY IDOCK:   -7.42 KCAL/MOL
REMARK 924 INTRA-LIGAND FREE ENERGY PREDICTED BY IDOCK:    0.02 KCAL/MOL
REMARK 927      BINDING AFFINITY PREDICTED BY RF-SCORE:    0.00 PKD
ROOT
HETATM    1  C   UNL     1      -7.428   8.528  67.576  1.00  0.00    -0.093 C  
HETATM    2  C   UNL     1      -7.280   7.266  66.945  1.00  0.00    -0.088 C  
HETATM    3  C   UNL     1      -8.653   7.745  67.279  1.00  0.00    -0.128 C  
HETATM    4  C   UNL     1      -8.920   9.770  67.707  1.00  0.00    -0.128 C  
HETATM    5  C   UNL     1      -9.683   8.725  72.019  1.00  0.00    -0.370 C  
HETATM    6  C   UNL     1      -9.444   7.385  71.314  1.00  0.00    -0.159 C  
HETATM    7  C   UNL     1      -8.998   9.019  66.557  1.00  0.00    -0.177 C  
HETATM    8  C   UNL     1     -10.566   6.261  71.439  1.00  0.00    -0.284 C  
HETATM    9  C   UNL     1      -8.675   9.426  65.137  1.00  0.00    -0.210 C  
HETATM   10  C   UNL     1     -10.662   8.418  67.277  1.00  0.00    -0.230 C  
HETATM   11  O   UNL     1     -10.109   5.799  74.219  1.00  0.00    -0.219 OA 
HETATM   12  C   UNL     1     -10.433   5.023  71.944  1.00  0.00    -0.255 C  
HETATM   13  C   UNL     1      -9.610   5.517  73.138  1.00  0.00    -0.149 C  
HETATM   14  C   UNL     1      -8.212   5.793  72.787  1.00  0.00    -0.112 C  
HETATM   15  C   UNL     1     -10.598   8.317  68.985  1.00  0.00    -0.150 C  
HETATM   16  C   UNL     1      -8.131   6.802  71.903  1.00  0.00    -0.101 C  
HETATM   17  C   UNL     1      -6.811   7.415  71.522  1.00  0.00    -0.054 C  
HETATM   18  C   UNL     1      -9.288   7.626  69.775  1.00  0.00    -0.150 C  
HETATM   19  O   UNL     1     -10.818   9.661  69.441  1.00  0.00    -0.224 OA 
HETATM   20  C   UNL     1      -6.642   7.550  70.018  1.00  0.00    -0.042 C  
HETATM   21  C   UNL     1      -7.813   8.289  69.363  1.00  0.00    -0.104 C  
HETATM   22  H   UNL     1     -10.782   9.606  70.389  1.00  0.00     0.000 HD 
ENDROOT
BRANCH   4  23
HETATM   23  C   UNL     1     -10.162  10.999  67.123  1.00  0.00    -0.206 C  
HETATM   24  O   UNL     1     -10.701  11.811  67.903  1.00  0.00    -0.191 OA 
BRANCH  23  25
HETATM   25  C   UNL     1     -10.770  11.119  65.628  1.00  0.00    -0.185 C  
BRANCH  25  26
HETATM   26  O   UNL     1     -12.059  11.969  65.633  1.00  0.00    -0.508 OA 
BRANCH  26  27
HETATM   27  C   UNL     1     -12.466  12.698  64.533  1.00  0.00    -0.448 C  
HETATM   28  O   UNL     1     -12.901  12.171  63.515  1.00  0.00    -0.768 OA 
BRANCH  27  29
HETATM   29  C   UNL     1     -12.331  14.246  64.681  1.00  0.00    -0.433 C  
HETATM   30  C   UNL     1     -10.872  14.746  64.790  1.00  0.00    -0.395 C  
ENDBRANCH  27  29
ENDBRANCH  26  27
ENDBRANCH  25  26
ENDBRANCH  23  25
ENDBRANCH   4  23
BRANCH   4  31
HETATM   31  O   UNL     1      -7.716  10.807  67.416  1.00  0.00    -0.103 OA 
BRANCH  31  32
HETATM   32  C   UNL     1      -7.365  11.901  68.187  1.00  0.00    -0.092 C  
HETATM   33  O   UNL     1      -7.025  11.860  69.358  1.00  0.00    -0.088 OA 
BRANCH  32  34
HETATM   34  O   UNL     1      -7.223  13.030  67.413  1.00  0.00    -0.152 OA 
BRANCH  34  35
HETATM   35  C   UNL     1      -8.141  14.083  67.798  1.00  0.00    -0.167 C  
HETATM   36  C   UNL     1      -7.928  15.399  67.065  1.00  0.00    -0.259 C  
ENDBRANCH  34  35
ENDBRANCH  32  34
ENDBRANCH  31  32
ENDBRANCH   4  31
TORSDOF 9
ENDMDL
MODEL       49
REMARK 921   NORMALIZED FREE ENERGY PREDICTED BY IDOCK:   -4.93 KCAL/MOL
REMARK 922        TOTAL FREE ENERGY PREDICTED BY IDOCK:   -7.39 KCAL/MOL
REMARK 923 INTER-LIGAND FREE ENERGY PREDICTED BY IDOCK:   -6.98 KCAL/MOL
REMARK 924 INTRA-LIGAND FREE ENERGY PREDICTED BY IDOCK:   -0.41 KCAL/MOL
REMARK 927      BINDING AFFINITY PREDICTED BY RF-SCORE:    0.00 PKD
ROOT
HETATM    1  C   UNL     1     -10.758   9.864  70.224  1.00  0.00    -0.367 C  
HETATM    2  C   UNL     1     -12.136   9.546  70.341  1.00  0.00    -0.061 C  
HETATM    3  C   UNL     1     -11.408   9.143  69.102  1.00  0.00     0.275 C  
HETATM    4  C   UNL     1      -9.321   9.126  69.140  1.00  0.00    -0.152 C  
HETATM    5  C   UNL     1      -9.277  12.696  66.396  1.00  0.00    -0.162 C  
HETATM    6  C   UNL     1     -10.759  12.365  66.607  1.00  0.00    -0.263 C  
HETATM    7  C   UNL     1     -10.288   8.181  69.394  1.00  0.00    -0.219 C  
HETATM    8  C   UNL     1     -11.660  12.106  65.318  1.00  0.00    -0.376 C  
HETATM    9  C   UNL     1     -10.252   7.030  70.373  1.00  0.00    -0.209 C  
HETATM   10  C   UNL     1     -10.478   8.125  67.494  1.00  0.00    -0.326 C  
HETATM   11  O   UNL     1     -11.559  14.817  64.428  1.00  0.00    -0.364 OA 
HETATM   12  C   UNL     1     -12.762  12.775  64.942  1.00  0.00    -0.479 C  
HETATM   13  C   UNL     1     -12.139  14.136  65.264  1.00  0.00    -0.405 C  
HETATM   14  C   UNL     1     -12.145  14.437  66.701  1.00  0.00    -0.392 C  
HETATM   15  C   UNL     1     -10.209   9.666  66.798  1.00  0.00    -0.239 C  
HETATM   16  C   UNL     1     -11.376  13.565  67.375  1.00  0.00    -0.338 C  
HETATM   17  C   UNL     1     -11.053  13.758  68.831  1.00  0.00    -0.300 C  
HETATM   18  C   UNL     1     -10.886  11.055  67.454  1.00  0.00    -0.327 C  
HETATM   19  O   UNL     1      -8.780   9.787  66.712  1.00  0.00    -0.130 OA 
HETATM   20  C   UNL     1     -11.276  12.498  69.652  1.00  0.00    -0.090 C  
HETATM   21  C   UNL     1     -10.543  11.286  69.071  1.00  0.00    -0.241 C  
HETATM   22  H   UNL     1      -8.631  10.642  66.327  1.00  0.00     0.000 HD 
ENDROOT
BRANCH   4  23
HETATM   23  C   UNL     1      -8.089   7.878  68.576  1.00  0.00    -0.123 C  
HETATM   24  O   UNL     1      -7.026   8.211  68.013  1.00  0.00    -0.074 OA 
BRANCH  23  25
HETATM   25  C   UNL     1      -8.252   6.269  68.633  1.00  0.00    -0.112 C  
BRANCH  25  26
HETATM   26  O   UNL     1      -7.630   5.616  67.379  1.00  0.00    -0.087 OA 
BRANCH  26  27
HETATM   27  C   UNL     1      -8.352   5.415  66.218  1.00  0.00    -0.115 C  
HETATM   28  O   UNL     1      -9.470   4.914  66.214  1.00  0.00    -0.137 OA 
BRANCH  27  29
HETATM   29  C   UNL     1      -7.638   5.877  64.909  1.00  0.00    -0.090 C  
HETATM   30  C   UNL     1      -7.877   7.362  64.549  1.00  0.00    -0.129 C  
ENDBRANCH  27  29
ENDBRANCH  26  27
ENDBRANCH  25  26
ENDBRANCH  23  25
ENDBRANCH   4  23
BRANCH   4  31
HETATM   31  O   UNL     1      -8.553   9.288  70.551  1.00  0.00    -0.198 OA 
BRANCH  31  32
HETATM   32  C   UNL     1      -7.287   9.813  70.745  1.00  0.00     0.036 C  
HETATM   33  O   UNL     1      -6.869  10.850  70.257  1.00  0.00    -0.233 OA 
BRANCH  32  34
HETATM   34  O   UNL     1      -6.619   9.142  71.744  1.00  0.00    -0.222 OA 
BRANCH  34  35
HETATM   35  C   UNL     1      -7.444   8.133  72.379  1.00  0.00    -0.116 C  
HETATM   36  C   UNL     1      -7.598   8.305  73.883  1.00  0.00    -0.217 C  
ENDBRANCH  34  35
ENDBRANCH  32  34
ENDBRANCH  31  32
ENDBRANCH   4  31
TORSDOF 9
ENDMDL
MODEL       50
REMARK 921   NORMALIZED FREE ENERGY PREDICTED BY IDOCK:   -4.90 KCAL/MOL
REMARK 922        TOTAL FREE ENERGY PREDICTED BY IDOCK:   -7.35 KCAL/MOL
REMARK 923 INTER-LIGAND FREE ENERGY PREDICTED BY IDOCK:   -7.25 KCAL/MOL
REMARK 924 INTRA-LIGAND FREE ENERGY PREDICTED BY IDOCK:   -0.10 KCAL/MOL
REMARK 927      BINDING AFFINITY PREDICTED BY RF-SCORE:    0.00 PKD
ROOT
HETATM    1  C   UNL     1      -7.497   8.757  69.750  1.00  0.00    -0.056 C  
HETATM    2  C   UNL     1      -6.746   9.527  70.676  1.00  0.00    -0.110 C  
HETATM    3  C   UNL     1      -8.227   9.444  70.845  1.00  0.00    -0.103 C  
HETATM    4  C   UNL     1      -9.255   7.929  69.843  1.00  0.00    -0.153 C  
HETATM    5  C   UNL     1     -11.084  11.016  67.123  1.00  0.00    -0.333 C  
HETATM    6  C   UNL     1     -10.202  11.806  68.096  1.00  0.00    -0.210 C  
HETATM    7  C   UNL     1      -8.688   8.034  71.092  1.00  0.00    -0.149 C  
HETATM    8  C   UNL     1     -10.878  12.979  68.938  1.00  0.00    -0.244 C  
HETATM    9  C   UNL     1      -8.044   6.954  71.931  1.00  0.00    -0.100 C  
HETATM   10  C   UNL     1     -10.214   9.108  71.498  1.00  0.00    -0.403 C  
HETATM   11  O   UNL     1     -11.286  14.668  66.672  1.00  0.00    -0.342 OA 
HETATM   12  C   UNL     1     -10.540  14.279  68.947  1.00  0.00    -0.252 C  
HETATM   13  C   UNL     1     -10.382  14.328  67.424  1.00  0.00    -0.259 C  
HETATM   14  C   UNL     1      -9.115  13.746  66.966  1.00  0.00    -0.253 C  
HETATM   15  C   UNL     1     -10.715  10.014  70.134  1.00  0.00    -0.307 C  
HETATM   16  C   UNL     1      -9.060  12.434  67.252  1.00  0.00    -0.187 C  
HETATM   17  C   UNL     1      -7.959  11.556  66.726  1.00  0.00    -0.152 C  
HETATM   18  C   UNL     1      -9.611  10.834  69.171  1.00  0.00    -0.169 C  
HETATM   19  O   UNL     1     -11.495   9.098  69.349  1.00  0.00    -0.430 OA 
HETATM   20  C   UNL     1      -7.334  10.689  67.807  1.00  0.00    -0.089 C  
HETATM   21  C   UNL     1      -8.377   9.877  68.580  1.00  0.00    -0.108 C  
HETATM   22  H   UNL     1     -11.772   9.600  68.593  1.00  0.00     0.000 HD 
ENDROOT
BRANCH   4  23
HETATM   23  C   UNL     1     -10.542   6.736  70.402  1.00  0.00    -0.227 C  
HETATM   24  O   UNL     1     -11.266   6.121  69.592  1.00  0.00    -0.384 OA 
BRANCH  23  25
HETATM   25  C   UNL     1     -10.961   6.417  71.933  1.00  0.00    -0.253 C  
BRANCH  25  26
HETATM   26  O   UNL     1     -10.812   4.909  72.233  1.00  0.00    -0.188 OA 
BRANCH  26  27
HETATM   27  C   UNL     1     -10.798   4.413  73.522  1.00  0.00    -0.277 C  
HETATM   28  O   UNL     1     -10.537   5.110  74.496  1.00  0.00    -0.315 OA 
BRANCH  27  29
HETATM   29  C   UNL     1     -11.139   2.895  73.648  1.00  0.00    -0.326 C  
HETATM   30  C   UNL     1     -10.054   1.953  73.076  1.00  0.00    -0.180 C  
ENDBRANCH  27  29
ENDBRANCH  26  27
ENDBRANCH  25  26
ENDBRANCH  23  25
ENDBRANCH   4  23
BRANCH   4  31
HETATM   31  O   UNL     1      -8.423   6.741  69.133  1.00  0.00    -0.126 OA 
BRANCH  31  32
HETATM   32  C   UNL     1      -8.717   6.136  67.924  1.00  0.00    -0.113 C  
HETATM   33  O   UNL     1      -8.612   4.943  67.687  1.00  0.00    -0.104 OA 
BRANCH  32  34
HETATM   34  O   UNL     1      -9.366   7.005  67.078  1.00  0.00    -0.135 OA 
BRANCH  34  35
HETATM   35  C   UNL     1      -8.650   7.201  65.832  1.00  0.00    -0.148 C  
HETATM   36  C   UNL     1      -8.920   8.537  65.157  1.00  0.00    -0.059 C  
ENDBRANCH  34  35
ENDBRANCH  32  34
ENDBRANCH  31  32
ENDBRANCH   4  31
TORSDOF 9
ENDMDL
MODEL       51
REMARK 921   NORMALIZED FREE ENERGY PREDICTED BY IDOCK:   -4.88 KCAL/MOL
REMARK 922        TOTAL FREE ENERGY PREDICTED BY IDOCK:   -7.31 KCAL/MOL
REMARK 923 INTER-LIGAND FREE ENERGY PREDICTED BY IDOCK:   -6.91 KCAL/MOL
REMARK 924 INTRA-LIGAND FREE ENERGY PREDICTED BY IDOCK:   -0.41 KCAL/MOL
REMARK 927      BINDING AFFINITY PREDICTED BY RF-SCORE:    0.00 PKD
ROOT
HETATM    1  C   UNL     1     -10.191  10.145  69.501  1.00  0.00    -0.258 C  
HETATM    2  C   UNL     1     -11.454   9.540  69.727  1.00  0.00    -0.048 C  
HETATM    3  C   UNL     1     -10.730   9.238  68.458  1.00  0.00    -0.185 C  
HETATM    4  C   UNL     1      -8.694   9.681  68.348  1.00  0.00    -0.120 C  
HETATM    5  C   UNL     1      -9.608  13.016  65.465  1.00  0.00     0.028 C  
HETATM    6  C   UNL     1     -10.964  12.382  65.793  1.00  0.00    -0.333 C  
HETATM    7  C   UNL     1      -9.410   8.563  68.708  1.00  0.00    -0.143 C  
HETATM    8  C   UNL     1     -11.861  11.861  64.583  1.00  0.00    -0.282 C  
HETATM    9  C   UNL     1      -9.060   7.504  69.728  1.00  0.00    -0.140 C  
HETATM   10  C   UNL     1      -9.696   8.362  66.830  1.00  0.00    -0.309 C  
HETATM   11  O   UNL     1     -12.419  14.475  63.580  1.00  0.00    -0.727 OA 
HETATM   12  C   UNL     1     -13.105  12.250  64.260  1.00  0.00    -0.076 C  
HETATM   13  C   UNL     1     -12.781  13.731  64.481  1.00  0.00    -0.080 C  
HETATM   14  C   UNL     1     -12.768  14.102  65.901  1.00  0.00    -0.387 C  
HETATM   15  C   UNL     1      -9.818   9.883  66.055  1.00  0.00    -0.264 C  
HETATM   16  C   UNL     1     -11.786  13.458  66.554  1.00  0.00    -0.415 C  
HETATM   17  C   UNL     1     -11.426  13.797  67.975  1.00  0.00    -0.344 C  
HETATM   18  C   UNL     1     -10.746  11.124  66.700  1.00  0.00    -0.322 C  
HETATM   19  O   UNL     1      -8.460  10.309  65.863  1.00  0.00    -0.139 OA 
HETATM   20  C   UNL     1     -11.314  12.567  68.859  1.00  0.00    -0.346 C  
HETATM   21  C   UNL     1     -10.366  11.514  68.278  1.00  0.00    -0.211 C  
HETATM   22  H   UNL     1      -8.527  11.153  65.434  1.00  0.00     0.000 HD 
ENDROOT
BRANCH   4  23
HETATM   23  C   UNL     1      -7.251   8.704  67.749  1.00  0.00    -0.088 C  
HETATM   24  O   UNL     1      -6.452   9.160  66.906  1.00  0.00    -0.065 OA 
BRANCH  23  25
HETATM   25  C   UNL     1      -6.901   7.171  68.131  1.00  0.00    -0.074 C  
BRANCH  25  26
HETATM   26  O   UNL     1      -7.099   6.249  66.908  1.00  0.00    -0.069 OA 
BRANCH  26  27
HETATM   27  C   UNL     1      -7.983   5.188  66.920  1.00  0.00    -0.104 C  
HETATM   28  O   UNL     1      -8.061   4.403  67.859  1.00  0.00    -0.093 OA 
BRANCH  27  29
HETATM   29  C   UNL     1      -8.880   5.061  65.649  1.00  0.00    -0.143 C  
HETATM   30  C   UNL     1     -10.352   4.692  65.948  1.00  0.00    -0.315 C  
ENDBRANCH  27  29
ENDBRANCH  26  27
ENDBRANCH  25  26
ENDBRANCH  23  25
ENDBRANCH   4  23
BRANCH   4  31
HETATM   31  O   UNL     1      -7.897  10.085  69.693  1.00  0.00    -0.133 OA 
BRANCH  31  32
HETATM   32  C   UNL     1      -6.951  11.087  69.822  1.00  0.00    -0.090 C  
HETATM   33  O   UNL     1      -6.103  11.150  70.697  1.00  0.00    -0.295 OA 
BRANCH  32  34
HETATM   34  O   UNL     1      -6.930  11.896  68.710  1.00  0.00    -0.091 OA 
BRANCH  34  35
HETATM   35  C   UNL     1      -6.708  13.289  69.044  1.00  0.00    -0.107 C  
HETATM   36  C   UNL     1      -7.760  14.241  68.495  1.00  0.00    -0.137 C  
ENDBRANCH  34  35
ENDBRANCH  32  34
ENDBRANCH  31  32
ENDBRANCH   4  31
TORSDOF 9
ENDMDL
MODEL       52
REMARK 921   NORMALIZED FREE ENERGY PREDICTED BY IDOCK:   -4.86 KCAL/MOL
REMARK 922        TOTAL FREE ENERGY PREDICTED BY IDOCK:   -7.29 KCAL/MOL
REMARK 923 INTER-LIGAND FREE ENERGY PREDICTED BY IDOCK:   -8.30 KCAL/MOL
REMARK 924 INTRA-LIGAND FREE ENERGY PREDICTED BY IDOCK:    1.02 KCAL/MOL
REMARK 927      BINDING AFFINITY PREDICTED BY RF-SCORE:    0.00 PKD
ROOT
HETATM    1  C   UNL     1      -8.330  14.491  66.869  1.00  0.00    -0.133 C  
HETATM    2  C   UNL     1      -7.218  13.745  67.337  1.00  0.00    -0.107 C  
HETATM    3  C   UNL     1      -8.096  14.426  68.333  1.00  0.00    -0.143 C  
HETATM    4  C   UNL     1      -9.986  15.062  67.716  1.00  0.00    -0.229 C  
HETATM    5  C   UNL     1      -8.605  19.338  68.009  1.00  0.00    -0.357 C  
HETATM    6  C   UNL     1      -7.400  18.493  68.438  1.00  0.00    -0.301 C  
HETATM    7  C   UNL     1      -9.507  13.907  68.289  1.00  0.00    -0.217 C  
HETATM    8  C   UNL     1      -6.748  18.786  69.862  1.00  0.00     0.073 C  
HETATM    9  C   UNL     1      -9.994  12.487  68.105  1.00  0.00    -0.224 C  
HETATM   10  C   UNL     1      -9.434  14.944  69.891  1.00  0.00     0.243 C  
HETATM   11  O   UNL     1      -5.713  21.339  69.110  1.00  0.00    -0.267 OA 
HETATM   12  C   UNL     1      -5.481  19.147  70.123  1.00  0.00    -0.242 C  
HETATM   13  C   UNL     1      -5.448  20.152  68.968  1.00  0.00    -0.229 C  
HETATM   14  C   UNL     1      -5.258  19.509  67.662  1.00  0.00    -0.178 C  
HETATM   15  C   UNL     1      -9.045  16.577  69.556  1.00  0.00     0.177 C  
HETATM   16  C   UNL     1      -6.299  18.713  67.365  1.00  0.00    -0.192 C  
HETATM   17  C   UNL     1      -6.451  18.085  66.007  1.00  0.00    -0.299 C  
HETATM   18  C   UNL     1      -7.813  16.984  68.490  1.00  0.00    -0.251 C  
HETATM   19  O   UNL     1     -10.286  17.176  69.152  1.00  0.00    -0.312 OA 
HETATM   20  C   UNL     1      -6.757  16.598  66.081  1.00  0.00     0.478 C  
HETATM   21  C   UNL     1      -7.961  16.294  66.978  1.00  0.00    -0.248 C  
HETATM   22  H   UNL     1     -10.070  18.082  68.966  1.00  0.00     0.000 HD 
ENDROOT
BRANCH   4  23
HETATM   23  C   UNL     1     -11.654  14.882  68.475  1.00  0.00    -0.323 C  
HETATM   24  O   UNL     1     -12.511  14.105  68.004  1.00  0.00    -0.104 OA 
BRANCH  23  25
HETATM   25  C   UNL     1     -12.245  15.732  69.719  1.00  0.00    -0.216 C  
BRANCH  25  26
HETATM   26  O   UNL     1     -13.333  14.925  70.460  1.00  0.00    -0.270 OA 
BRANCH  26  27
HETATM   27  C   UNL     1     -13.187  14.525  71.774  1.00  0.00    -0.351 C  
HETATM   28  O   UNL     1     -13.928  13.701  72.300  1.00  0.00    -0.529 OA 
BRANCH  27  29
HETATM   29  C   UNL     1     -12.007  15.198  72.542  1.00  0.00    -0.492 C  
HETATM   30  C   UNL     1     -12.454  16.174  73.656  1.00  0.00    -0.684 C  
ENDBRANCH  27  29
ENDBRANCH  26  27
ENDBRANCH  25  26
ENDBRANCH  23  25
ENDBRANCH   4  23
BRANCH   4  31
HETATM   31  O   UNL     1     -10.555  14.582  66.283  1.00  0.00    -0.292 OA 
BRANCH  31  32
HETATM   32  C   UNL     1     -11.181  15.374  65.337  1.00  0.00    -0.272 C  
HETATM   33  O   UNL     1     -10.787  16.463  64.954  1.00  0.00    -0.655 OA 
BRANCH  32  34
HETATM   34  O   UNL     1     -12.191  14.687  64.703  1.00  0.00    -0.453 OA 
BRANCH  34  35
HETATM   35  C   UNL     1     -11.759  13.390  64.222  1.00  0.00    -0.412 C  
HETATM   36  C   UNL     1     -12.792  12.284  64.384  1.00  0.00    -0.294 C  
ENDBRANCH  34  35
ENDBRANCH  32  34
ENDBRANCH  31  32
ENDBRANCH   4  31
TORSDOF 9
ENDMDL
MODEL       53
REMARK 921   NORMALIZED FREE ENERGY PREDICTED BY IDOCK:   -4.78 KCAL/MOL
REMARK 922        TOTAL FREE ENERGY PREDICTED BY IDOCK:   -7.15 KCAL/MOL
REMARK 923 INTER-LIGAND FREE ENERGY PREDICTED BY IDOCK:   -6.94 KCAL/MOL
REMARK 924 INTRA-LIGAND FREE ENERGY PREDICTED BY IDOCK:   -0.21 KCAL/MOL
REMARK 927      BINDING AFFINITY PREDICTED BY RF-SCORE:    0.00 PKD
ROOT
HETATM    1  C   UNL     1      -7.995   8.208  65.814  1.00  0.00    -0.105 C  
HETATM    2  C   UNL     1      -6.745   8.701  65.358  1.00  0.00    -0.067 C  
HETATM    3  C   UNL     1      -7.206   9.070  66.729  1.00  0.00    -0.086 C  
HETATM    4  C   UNL     1      -8.743   7.953  67.592  1.00  0.00    -0.126 C  
HETATM    5  C   UNL     1     -11.503  11.483  67.167  1.00  0.00    -0.313 C  
HETATM    6  C   UNL     1     -10.155  11.955  66.613  1.00  0.00    -0.225 C  
HETATM    7  C   UNL     1      -7.369   7.864  67.612  1.00  0.00    -0.096 C  
HETATM    8  C   UNL     1      -9.504  13.268  67.240  1.00  0.00    -0.233 C  
HETATM    9  C   UNL     1      -6.503   6.629  67.709  1.00  0.00    -0.053 C  
HETATM   10  C   UNL     1      -7.471   9.347  68.812  1.00  0.00    -0.075 C  
HETATM   11  O   UNL     1     -11.476  15.029  66.163  1.00  0.00    -0.321 OA 
HETATM   12  C   UNL     1      -9.174  14.403  66.603  1.00  0.00    -0.283 C  
HETATM   13  C   UNL     1     -10.478  14.421  65.800  1.00  0.00    -0.318 C  
HETATM   14  C   UNL     1     -10.459  13.487  64.667  1.00  0.00    -0.439 C  
HETATM   15  C   UNL     1      -8.777  10.379  68.414  1.00  0.00    -0.129 C  
HETATM   16  C   UNL     1     -10.364  12.217  65.096  1.00  0.00    -0.311 C  
HETATM   17  C   UNL     1     -10.516  11.052  64.158  1.00  0.00    -0.434 C  
HETATM   18  C   UNL     1      -9.082  10.836  66.827  1.00  0.00    -0.167 C  
HETATM   19  O   UNL     1      -9.932   9.753  68.995  1.00  0.00    -0.169 OA 
HETATM   20  C   UNL     1      -9.410  10.023  64.317  1.00  0.00    -0.345 C  
HETATM   21  C   UNL     1      -9.250   9.557  65.768  1.00  0.00    -0.267 C  
HETATM   22  H   UNL     1     -10.656  10.325  68.773  1.00  0.00     0.000 HD 
ENDROOT
BRANCH   4  23
HETATM   23  C   UNL     1      -8.929   7.200  69.263  1.00  0.00    -0.138 C  
HETATM   24  O   UNL     1     -10.017   7.216  69.874  1.00  0.00    -0.179 OA 
BRANCH  23  25
HETATM   25  C   UNL     1      -7.752   6.547  70.163  1.00  0.00    -0.102 C  
BRANCH  25  26
HETATM   26  O   UNL     1      -8.190   6.452  71.641  1.00  0.00    -0.115 OA 
BRANCH  26  27
HETATM   27  C   UNL     1      -8.372   5.240  72.279  1.00  0.00    -0.122 C  
HETATM   28  O   UNL     1      -7.443   4.484  72.538  1.00  0.00    -0.078 OA 
BRANCH  27  29
HETATM   29  C   UNL     1      -9.851   4.905  72.648  1.00  0.00    -0.200 C  
HETATM   30  C   UNL     1     -10.187   3.396  72.600  1.00  0.00    -0.234 C  
ENDBRANCH  27  29
ENDBRANCH  26  27
ENDBRANCH  25  26
ENDBRANCH  23  25
ENDBRANCH   4  23
BRANCH   4  31
HETATM   31  O   UNL     1      -9.213   6.577  66.889  1.00  0.00    -0.131 OA 
BRANCH  31  32
HETATM   32  C   UNL     1     -10.477   6.016  66.939  1.00  0.00    -0.280 C  
HETATM   33  O   UNL     1     -11.527   6.638  66.942  1.00  0.00    -0.209 OA 
BRANCH  32  34
HETATM   34  O   UNL     1     -10.424   4.654  66.754  1.00  0.00    -0.193 OA 
BRANCH  34  35
HETATM   35  C   UNL     1      -9.169   4.084  67.202  1.00  0.00    -0.165 C  
HETATM   36  C   UNL     1      -9.277   3.243  68.465  1.00  0.00    -0.233 C  
ENDBRANCH  34  35
ENDBRANCH  32  34
ENDBRANCH  31  32
ENDBRANCH   4  31
TORSDOF 9
ENDMDL
MODEL       54
REMARK 921   NORMALIZED FREE ENERGY PREDICTED BY IDOCK:   -4.77 KCAL/MOL
REMARK 922        TOTAL FREE ENERGY PREDICTED BY IDOCK:   -7.14 KCAL/MOL
REMARK 923 INTER-LIGAND FREE ENERGY PREDICTED BY IDOCK:   -7.57 KCAL/MOL
REMARK 924 INTRA-LIGAND FREE ENERGY PREDICTED BY IDOCK:    0.43 KCAL/MOL
REMARK 927      BINDING AFFINITY PREDICTED BY RF-SCORE:    0.00 PKD
ROOT
HETATM    1  C   UNL     1      -7.373   8.785  68.869  1.00  0.00    -0.078 C  
HETATM    2  C   UNL     1      -5.991   8.637  68.582  1.00  0.00    -0.045 C  
HETATM    3  C   UNL     1      -6.926   8.966  67.466  1.00  0.00    -0.075 C  
HETATM    4  C   UNL     1      -8.823   9.694  67.943  1.00  0.00    -0.119 C  
HETATM    5  C   UNL     1     -10.628   5.819  66.530  1.00  0.00    -0.294 C  
HETATM    6  C   UNL     1      -9.120   5.668  66.304  1.00  0.00    -0.153 C  
HETATM    7  C   UNL     1      -7.611  10.288  67.675  1.00  0.00    -0.090 C  
HETATM    8  C   UNL     1      -8.613   5.304  64.837  1.00  0.00    -0.145 C  
HETATM    9  C   UNL     1      -7.046  11.577  68.229  1.00  0.00    -0.080 C  
HETATM   10  C   UNL     1      -7.995   9.838  65.859  1.00  0.00    -0.111 C  
HETATM   11  O   UNL     1      -9.687   2.659  64.884  1.00  0.00    -0.087 OA 
HETATM   12  C   UNL     1      -7.892   4.235  64.462  1.00  0.00    -0.085 C  
HETATM   13  C   UNL     1      -8.725   3.277  65.320  1.00  0.00    -0.119 C  
HETATM   14  C   UNL     1      -8.365   3.331  66.742  1.00  0.00    -0.101 C  
HETATM   15  C   UNL     1      -8.856   8.362  65.754  1.00  0.00    -0.165 C  
HETATM   16  C   UNL     1      -8.637   4.542  67.258  1.00  0.00    -0.104 C  
HETATM   17  C   UNL     1      -8.546   4.811  68.735  1.00  0.00    -0.098 C  
HETATM   18  C   UNL     1      -8.403   7.017  66.650  1.00  0.00    -0.118 C  
HETATM   19  O   UNL     1     -10.224   8.714  66.019  1.00  0.00    -0.422 OA 
HETATM   20  C   UNL     1      -7.763   6.074  69.052  1.00  0.00    -0.092 C  
HETATM   21  C   UNL     1      -8.291   7.295  68.293  1.00  0.00    -0.125 C  
HETATM   22  H   UNL     1     -10.701   7.896  65.962  1.00  0.00     0.000 HD 
ENDROOT
BRANCH   4  23
HETATM   23  C   UNL     1      -9.793  11.119  67.295  1.00  0.00    -0.175 C  
HETATM   24  O   UNL     1      -9.277  11.987  66.561  1.00  0.00    -0.209 OA 
BRANCH  23  25
HETATM   25  C   UNL     1     -11.330  11.481  67.652  1.00  0.00    -0.291 C  
BRANCH  25  26
HETATM   26  O   UNL     1     -12.057  12.043  66.411  1.00  0.00    -0.610 OA 
BRANCH  26  27
HETATM   27  C   UNL     1     -12.384  13.380  66.292  1.00  0.00    -0.349 C  
HETATM   28  O   UNL     1     -13.074  13.812  65.375  1.00  0.00    -0.727 OA 
BRANCH  27  29
HETATM   29  C   UNL     1     -11.811  14.302  67.413  1.00  0.00    -0.441 C  
HETATM   30  C   UNL     1     -10.837  15.389  66.900  1.00  0.00    -0.313 C  
ENDBRANCH  27  29
ENDBRANCH  26  27
ENDBRANCH  25  26
ENDBRANCH  23  25
ENDBRANCH   4  23
BRANCH   4  31
HETATM   31  O   UNL     1      -9.145  10.130  69.464  1.00  0.00    -0.199 OA 
BRANCH  31  32
HETATM   32  C   UNL     1      -9.782   9.365  70.424  1.00  0.00    -0.261 C  
HETATM   33  O   UNL     1      -9.475   9.311  71.604  1.00  0.00    -0.294 OA 
BRANCH  32  34
HETATM   34  O   UNL     1     -10.957   8.838  69.940  1.00  0.00    -0.239 OA 
BRANCH  34  35
HETATM   35  C   UNL     1     -11.487   7.792  70.793  1.00  0.00    -0.272 C  
HETATM   36  C   UNL     1     -11.503   6.411  70.156  1.00  0.00    -0.484 C  
ENDBRANCH  34  35
ENDBRANCH  32  34
ENDBRANCH  31  32
ENDBRANCH   4  31
TORSDOF 9
ENDMDL
MODEL       55
REMARK 921   NORMALIZED FREE ENERGY PREDICTED BY IDOCK:   -4.73 KCAL/MOL
REMARK 922        TOTAL FREE ENERGY PREDICTED BY IDOCK:   -7.08 KCAL/MOL
REMARK 923 INTER-LIGAND FREE ENERGY PREDICTED BY IDOCK:   -7.25 KCAL/MOL
REMARK 924 INTRA-LIGAND FREE ENERGY PREDICTED BY IDOCK:    0.17 KCAL/MOL
REMARK 927      BINDING AFFINITY PREDICTED BY RF-SCORE:    0.00 PKD
ROOT
HETATM    1  C   UNL     1      -7.634   9.082  68.967  1.00  0.00    -0.078 C  
HETATM    2  C   UNL     1      -6.398   9.338  68.320  1.00  0.00    -0.054 C  
HETATM    3  C   UNL     1      -7.650   9.354  67.508  1.00  0.00    -0.091 C  
HETATM    4  C   UNL     1      -9.476   9.505  68.507  1.00  0.00    -0.141 C  
HETATM    5  C   UNL     1     -10.399   5.241  67.394  1.00  0.00    -0.237 C  
HETATM    6  C   UNL     1      -9.030   5.534  66.773  1.00  0.00    -0.114 C  
HETATM    7  C   UNL     1      -8.605  10.422  67.965  1.00  0.00    -0.123 C  
HETATM    8  C   UNL     1      -8.851   5.301  65.206  1.00  0.00    -0.144 C  
HETATM    9  C   UNL     1      -8.308  11.832  68.426  1.00  0.00    -0.153 C  
HETATM   10  C   UNL     1      -9.314   9.839  66.290  1.00  0.00    -0.230 C  
HETATM   11  O   UNL     1      -9.065   2.460  65.379  1.00  0.00    -0.133 OA 
HETATM   12  C   UNL     1      -7.980   4.482  64.594  1.00  0.00    -0.092 C  
HETATM   13  C   UNL     1      -8.241   3.342  65.583  1.00  0.00    -0.098 C  
HETATM   14  C   UNL     1      -7.546   3.530  66.862  1.00  0.00    -0.079 C  
HETATM   15  C   UNL     1      -9.709   8.174  66.330  1.00  0.00    -0.205 C  
HETATM   16  C   UNL     1      -8.007   4.620  67.501  1.00  0.00    -0.097 C  
HETATM   17  C   UNL     1      -7.605   4.936  68.915  1.00  0.00    -0.069 C  
HETATM   18  C   UNL     1      -8.666   7.040  66.997  1.00  0.00    -0.123 C  
HETATM   19  O   UNL     1     -10.997   8.116  66.964  1.00  0.00    -0.422 OA 
HETATM   20  C   UNL     1      -7.164   6.380  69.088  1.00  0.00    -0.090 C  
HETATM   21  C   UNL     1      -8.204   7.375  68.566  1.00  0.00    -0.125 C  
HETATM   22  H   UNL     1     -11.216   7.193  66.986  1.00  0.00     0.000 HD 
ENDROOT
BRANCH   4  23
HETATM   23  C   UNL     1     -10.953  10.569  68.219  1.00  0.00    -0.263 C  
HETATM   24  O   UNL     1     -11.296  10.922  67.072  1.00  0.00    -0.364 OA 
BRANCH  23  25
HETATM   25  C   UNL     1     -11.891  11.242  69.352  1.00  0.00    -0.355 C  
BRANCH  25  26
HETATM   26  O   UNL     1     -11.470  12.707  69.606  1.00  0.00    -0.250 OA 
BRANCH  26  27
HETATM   27  C   UNL     1     -12.221  13.565  70.386  1.00  0.00    -0.356 C  
HETATM   28  O   UNL     1     -12.479  14.714  70.044  1.00  0.00    -0.326 OA 
BRANCH  27  29
HETATM   29  C   UNL     1     -12.721  12.962  71.737  1.00  0.00    -0.250 C  
HETATM   30  C   UNL     1     -13.764  13.836  72.471  1.00  0.00    -0.667 C  
ENDBRANCH  27  29
ENDBRANCH  26  27
ENDBRANCH  25  26
ENDBRANCH  23  25
ENDBRANCH   4  23
BRANCH   4  31
HETATM   31  O   UNL     1      -9.491   9.862  70.081  1.00  0.00    -0.237 OA 
BRANCH  31  32
HETATM   32  C   UNL     1      -9.803   9.001  71.119  1.00  0.00    -0.300 C  
HETATM   33  O   UNL     1      -9.446   9.134  72.278  1.00  0.00    -0.229 OA 
BRANCH  32  34
HETATM   34  O   UNL     1     -10.760   8.089  70.738  1.00  0.00    -0.216 OA 
BRANCH  34  35
HETATM   35  C   UNL     1     -10.820   6.947  71.628  1.00  0.00    -0.226 C  
HETATM   36  C   UNL     1     -10.729   5.600  70.926  1.00  0.00    -0.313 C  
ENDBRANCH  34  35
ENDBRANCH  32  34
ENDBRANCH  31  32
ENDBRANCH   4  31
TORSDOF 9
ENDMDL
MODEL       56
REMARK 921   NORMALIZED FREE ENERGY PREDICTED BY IDOCK:   -4.69 KCAL/MOL
REMARK 922        TOTAL FREE ENERGY PREDICTED BY IDOCK:   -7.02 KCAL/MOL
REMARK 923 INTER-LIGAND FREE ENERGY PREDICTED BY IDOCK:   -6.61 KCAL/MOL
REMARK 924 INTRA-LIGAND FREE ENERGY PREDICTED BY IDOCK:   -0.41 KCAL/MOL
REMARK 927      BINDING AFFINITY PREDICTED BY RF-SCORE:    0.00 PKD
ROOT
HETATM    1  C   UNL     1      -9.799  10.381  65.982  1.00  0.00    -0.289 C  
HETATM    2  C   UNL     1     -11.160  10.469  65.590  1.00  0.00     0.369 C  
HETATM    3  C   UNL     1     -10.753  11.042  66.907  1.00  0.00    -0.325 C  
HETATM    4  C   UNL     1      -8.724  11.389  67.252  1.00  0.00    -0.148 C  
HETATM    5  C   UNL     1      -8.687   8.007  70.225  1.00  0.00    -0.134 C  
HETATM    6  C   UNL     1     -10.132   8.087  69.720  1.00  0.00    -0.196 C  
HETATM    7  C   UNL     1      -9.752  12.155  66.753  1.00  0.00    -0.215 C  
HETATM    8  C   UNL     1     -11.294   8.261  70.797  1.00  0.00    -0.285 C  
HETATM    9  C   UNL     1      -9.697  13.249  65.711  1.00  0.00    -0.149 C  
HETATM   10  C   UNL     1     -10.312  12.271  68.575  1.00  0.00    -0.234 C  
HETATM   11  O   UNL     1     -10.969   5.646  71.897  1.00  0.00    -0.250 OA 
HETATM   12  C   UNL     1     -12.338   7.443  71.014  1.00  0.00    -0.303 C  
HETATM   13  C   UNL     1     -11.470   6.185  70.919  1.00  0.00    -0.248 C  
HETATM   14  C   UNL     1     -11.154   5.818  69.533  1.00  0.00    -0.287 C  
HETATM   15  C   UNL     1      -9.959  10.827  69.426  1.00  0.00    -0.110 C  
HETATM   16  C   UNL     1     -10.405   6.769  68.946  1.00  0.00    -0.208 C  
HETATM   17  C   UNL     1      -9.782   6.561  67.594  1.00  0.00    -0.137 C  
HETATM   18  C   UNL     1     -10.285   9.318  68.766  1.00  0.00    -0.223 C  
HETATM   19  O   UNL     1      -8.572  10.940  69.782  1.00  0.00    -0.326 OA 
HETATM   20  C   UNL     1     -10.024   7.728  66.652  1.00  0.00    -0.299 C  
HETATM   21  C   UNL     1      -9.604   9.068  67.262  1.00  0.00    -0.206 C  
HETATM   22  H   UNL     1      -8.376  10.139  70.253  1.00  0.00     0.000 HD 
ENDROOT
BRANCH   4  23
HETATM   23  C   UNL     1      -7.822  12.843  67.935  1.00  0.00    -0.151 C  
HETATM   24  O   UNL     1      -6.955  12.721  68.825  1.00  0.00    -0.091 OA 
BRANCH  23  25
HETATM   25  C   UNL     1      -8.088  14.398  67.575  1.00  0.00    -0.190 C  
BRANCH  25  26
HETATM   26  O   UNL     1      -8.406  15.204  68.854  1.00  0.00    -0.165 OA 
BRANCH  26  27
HETATM   27  C   UNL     1      -9.367  16.196  68.880  1.00  0.00    -0.235 C  
HETATM   28  O   UNL     1      -9.275  17.223  68.216  1.00  0.00    -0.249 OA 
BRANCH  27  29
HETATM   29  C   UNL     1     -10.582  15.914  69.818  1.00  0.00    -0.322 C  
HETATM   30  C   UNL     1     -11.899  15.600  69.069  1.00  0.00    -0.379 C  
ENDBRANCH  27  29
ENDBRANCH  26  27
ENDBRANCH  25  26
ENDBRANCH  23  25
ENDBRANCH   4  23
BRANCH   4  31
HETATM   31  O   UNL     1      -7.681  11.284  66.024  1.00  0.00    -0.068 OA 
BRANCH  31  32
HETATM   32  C   UNL     1      -6.360  10.880  66.096  1.00  0.00    -0.123 C  
HETATM   33  O   UNL     1      -5.390  11.615  65.999  1.00  0.00    -0.295 OA 
BRANCH  32  34
HETATM   34  O   UNL     1      -6.261   9.575  66.519  1.00  0.00    -0.063 OA 
BRANCH  34  35
HETATM   35  C   UNL     1      -5.585   9.458  67.796  1.00  0.00    -0.037 C  
HETATM   36  C   UNL     1      -5.552   8.046  68.361  1.00  0.00    -0.033 C  
ENDBRANCH  34  35
ENDBRANCH  32  34
ENDBRANCH  31  32
ENDBRANCH   4  31
TORSDOF 9
ENDMDL
MODEL       57
REMARK 921   NORMALIZED FREE ENERGY PREDICTED BY IDOCK:   -4.64 KCAL/MOL
REMARK 922        TOTAL FREE ENERGY PREDICTED BY IDOCK:   -6.95 KCAL/MOL
REMARK 923 INTER-LIGAND FREE ENERGY PREDICTED BY IDOCK:   -6.75 KCAL/MOL
REMARK 924 INTRA-LIGAND FREE ENERGY PREDICTED BY IDOCK:   -0.20 KCAL/MOL
REMARK 927      BINDING AFFINITY PREDICTED BY RF-SCORE:    0.00 PKD
ROOT
HETATM    1  C   UNL     1     -10.633   7.328  67.921  1.00  0.00    -0.266 C  
HETATM    2  C   UNL     1     -10.971   6.344  66.956  1.00  0.00    -0.463 C  
HETATM    3  C   UNL     1      -9.623   6.292  67.594  1.00  0.00    -0.118 C  
HETATM    4  C   UNL     1      -9.315   7.375  69.351  1.00  0.00    -0.155 C  
HETATM    5  C   UNL     1      -6.656  10.220  67.090  1.00  0.00    -0.073 C  
HETATM    6  C   UNL     1      -7.104   9.178  66.059  1.00  0.00    -0.090 C  
HETATM    7  C   UNL     1      -9.710   6.085  69.081  1.00  0.00    -0.168 C  
HETATM    8  C   UNL     1      -5.978   8.388  65.252  1.00  0.00    -0.045 C  
HETATM    9  C   UNL     1     -10.653   5.201  69.867  1.00  0.00    -0.196 C  
HETATM   10  C   UNL     1      -7.868   5.796  68.671  1.00  0.00    -0.097 C  
HETATM   11  O   UNL     1      -5.126  10.674  63.768  1.00  0.00    -0.150 OA 
HETATM   12  C   UNL     1      -5.800   8.349  63.922  1.00  0.00    -0.066 C  
HETATM   13  C   UNL     1      -6.035   9.855  63.769  1.00  0.00    -0.121 C  
HETATM   14  C   UNL     1      -7.458  10.214  63.817  1.00  0.00    -0.126 C  
HETATM   15  C   UNL     1      -7.160   7.191  67.977  1.00  0.00    -0.085 C  
HETATM   16  C   UNL     1      -7.982   9.929  65.021  1.00  0.00    -0.137 C  
HETATM   17  C   UNL     1      -9.368  10.371  65.405  1.00  0.00    -0.252 C  
HETATM   18  C   UNL     1      -7.940   8.063  66.772  1.00  0.00    -0.103 C  
HETATM   19  O   UNL     1      -6.841   8.037  69.093  1.00  0.00    -0.050 OA 
HETATM   20  C   UNL     1     -10.194   9.247  66.008  1.00  0.00    -0.156 C  
HETATM   21  C   UNL     1      -9.482   8.560  67.176  1.00  0.00    -0.208 C  
HETATM   22  H   UNL     1      -6.450   8.812  68.707  1.00  0.00     0.000 HD 
ENDROOT
BRANCH   4  23
HETATM   23  C   UNL     1      -8.536   6.921  70.957  1.00  0.00    -0.131 C  
HETATM   24  O   UNL     1      -7.807   7.717  71.584  1.00  0.00    -0.082 OA 
BRANCH  23  25
HETATM   25  C   UNL     1      -8.598   5.476  71.684  1.00  0.00    -0.132 C  
BRANCH  25  26
HETATM   26  O   UNL     1      -8.946   5.636  73.180  1.00  0.00    -0.123 OA 
BRANCH  26  27
HETATM   27  C   UNL     1     -10.228   5.919  73.612  1.00  0.00    -0.226 C  
HETATM   28  O   UNL     1     -10.506   6.939  74.231  1.00  0.00    -0.312 OA 
BRANCH  27  29
HETATM   29  C   UNL     1     -11.298   4.841  73.252  1.00  0.00    -0.408 C  
HETATM   30  C   UNL     1     -10.905   3.401  73.656  1.00  0.00    -0.323 C  
ENDBRANCH  27  29
ENDBRANCH  26  27
ENDBRANCH  25  26
ENDBRANCH  23  25
ENDBRANCH   4  23
BRANCH   4  31
HETATM   31  O   UNL     1     -10.581   8.021  70.116  1.00  0.00    -0.228 OA 
BRANCH  31  32
HETATM   32  C   UNL     1     -10.639   9.273  70.703  1.00  0.00    -0.262 C  
HETATM   33  O   UNL     1     -10.331  10.322  70.163  1.00  0.00    -0.256 OA 
BRANCH  32  34
HETATM   34  O   UNL     1     -11.306   9.227  71.906  1.00  0.00    -0.374 OA 
BRANCH  34  35
HETATM   35  C   UNL     1     -12.746   9.274  71.742  1.00  0.00    -0.381 C  
HETATM   36  C   UNL     1     -13.412   7.909  71.656  1.00  0.00    -0.386 C  
ENDBRANCH  34  35
ENDBRANCH  32  34
ENDBRANCH  31  32
ENDBRANCH   4  31
TORSDOF 9
ENDMDL
MODEL       58
REMARK 921   NORMALIZED FREE ENERGY PREDICTED BY IDOCK:   -4.63 KCAL/MOL
REMARK 922        TOTAL FREE ENERGY PREDICTED BY IDOCK:   -6.93 KCAL/MOL
REMARK 923 INTER-LIGAND FREE ENERGY PREDICTED BY IDOCK:   -6.50 KCAL/MOL
REMARK 924 INTRA-LIGAND FREE ENERGY PREDICTED BY IDOCK:   -0.43 KCAL/MOL
REMARK 927      BINDING AFFINITY PREDICTED BY RF-SCORE:    0.00 PKD
ROOT
HETATM    1  C   UNL     1     -11.188   7.376  71.151  1.00  0.00    -0.279 C  
HETATM    2  C   UNL     1     -12.352   6.840  70.542  1.00  0.00    -0.160 C  
HETATM    3  C   UNL     1     -11.076   6.853  69.768  1.00  0.00    -0.316 C  
HETATM    4  C   UNL     1      -9.288   7.136  70.807  1.00  0.00    -0.160 C  
HETATM    5  C   UNL     1      -8.895  11.219  68.951  1.00  0.00    -0.055 C  
HETATM    6  C   UNL     1     -10.187  10.633  68.370  1.00  0.00    -0.191 C  
HETATM    7  C   UNL     1     -10.007   6.025  70.427  1.00  0.00    -0.233 C  
HETATM    8  C   UNL     1     -10.329  10.556  66.785  1.00  0.00    -0.301 C  
HETATM    9  C   UNL     1     -10.132   4.694  71.133  1.00  0.00    -0.243 C  
HETATM   10  C   UNL     1      -9.313   6.393  68.686  1.00  0.00    -0.124 C  
HETATM   11  O   UNL     1     -10.503  13.384  66.440  1.00  0.00    -0.278 OA 
HETATM   12  C   UNL     1     -11.275  11.124  66.019  1.00  0.00    -0.036 C  
HETATM   13  C   UNL     1     -11.210  12.448  66.787  1.00  0.00    -0.310 C  
HETATM   14  C   UNL     1     -11.926  12.396  68.067  1.00  0.00    -0.264 C  
HETATM   15  C   UNL     1      -9.144   8.076  68.428  1.00  0.00    -0.136 C  
HETATM   16  C   UNL     1     -11.351  11.513  68.902  1.00  0.00    -0.331 C  
HETATM   17  C   UNL     1     -11.766  11.401  70.343  1.00  0.00    -0.362 C  
HETATM   18  C   UNL     1     -10.356   9.156  68.859  1.00  0.00    -0.232 C  
HETATM   19  O   UNL     1      -7.903   8.424  69.062  1.00  0.00    -0.098 OA 
HETATM   20  C   UNL     1     -12.018   9.965  70.770  1.00  0.00    -0.410 C  
HETATM   21  C   UNL     1     -10.834   9.046  70.455  1.00  0.00    -0.296 C  
HETATM   22  H   UNL     1      -7.810   9.358  68.919  1.00  0.00     0.000 HD 
ENDROOT
BRANCH   4  23
HETATM   23  C   UNL     1      -7.673   6.252  70.743  1.00  0.00    -0.102 C  
HETATM   24  O   UNL     1      -6.589   6.867  70.668  1.00  0.00    -0.050 OA 
BRANCH  23  25
HETATM   25  C   UNL     1      -7.453   4.650  70.672  1.00  0.00    -0.053 C  
BRANCH  25  26
HETATM   26  O   UNL     1      -6.583   4.276  69.452  1.00  0.00    -0.038 OA 
BRANCH  26  27
HETATM   27  C   UNL     1      -6.803   3.129  68.714  1.00  0.00    -0.044 C  
HETATM   28  O   UNL     1      -6.156   2.102  68.881  1.00  0.00    -0.024 OA 
BRANCH  27  29
HETATM   29  C   UNL     1      -7.940   3.238  67.649  1.00  0.00    -0.076 C  
HETATM   30  C   UNL     1      -9.152   2.316  67.923  1.00  0.00    -0.220 C  
ENDBRANCH  27  29
ENDBRANCH  26  27
ENDBRANCH  25  26
ENDBRANCH  23  25
ENDBRANCH   4  23
BRANCH   4  31
HETATM   31  O   UNL     1      -9.291   7.072  72.420  1.00  0.00    -0.136 OA 
BRANCH  31  32
HETATM   32  C   UNL     1      -8.442   7.753  73.275  1.00  0.00    -0.178 C  
HETATM   33  O   UNL     1      -7.956   8.852  73.060  1.00  0.00    -0.381 OA 
BRANCH  32  34
HETATM   34  O   UNL     1      -8.386   7.146  74.508  1.00  0.00    -0.161 OA 
BRANCH  34  35
HETATM   35  C   UNL     1      -8.812   5.762  74.463  1.00  0.00    -0.123 C  
HETATM   36  C   UNL     1      -7.671   4.756  74.422  1.00  0.00    -0.092 C  
ENDBRANCH  34  35
ENDBRANCH  32  34
ENDBRANCH  31  32
ENDBRANCH   4  31
TORSDOF 9
ENDMDL
MODEL       59
REMARK 921   NORMALIZED FREE ENERGY PREDICTED BY IDOCK:   -4.57 KCAL/MOL
REMARK 922        TOTAL FREE ENERGY PREDICTED BY IDOCK:   -6.85 KCAL/MOL
REMARK 923 INTER-LIGAND FREE ENERGY PREDICTED BY IDOCK:   -7.08 KCAL/MOL
REMARK 924 INTRA-LIGAND FREE ENERGY PREDICTED BY IDOCK:    0.23 KCAL/MOL
REMARK 927      BINDING AFFINITY PREDICTED BY RF-SCORE:    0.00 PKD
ROOT
HETATM    1  C   UNL     1      -8.137  10.858  66.133  1.00  0.00    -0.160 C  
HETATM    2  C   UNL     1      -8.021   9.916  65.078  1.00  0.00    -0.137 C  
HETATM    3  C   UNL     1      -9.155   9.783  66.039  1.00  0.00    -0.201 C  
HETATM    4  C   UNL     1      -9.634  11.420  67.240  1.00  0.00    -0.174 C  
HETATM    5  C   UNL     1      -8.082   9.196  70.834  1.00  0.00    -0.201 C  
HETATM    6  C   UNL     1      -7.904   8.234  69.655  1.00  0.00    -0.102 C  
HETATM    7  C   UNL     1     -10.064  10.980  66.009  1.00  0.00    -0.297 C  
HETATM    8  C   UNL     1      -8.566   6.787  69.760  1.00  0.00    -0.141 C  
HETATM    9  C   UNL     1     -10.528  11.795  64.823  1.00  0.00    -0.341 C  
HETATM   10  C   UNL     1     -11.033   9.676  67.013  1.00  0.00    -0.020 C  
HETATM   11  O   UNL     1      -6.795   5.884  71.809  1.00  0.00    -0.064 OA 
HETATM   12  C   UNL     1      -7.946   5.597  69.694  1.00  0.00    -0.095 C  
HETATM   13  C   UNL     1      -6.799   6.059  70.598  1.00  0.00    -0.058 C  
HETATM   14  C   UNL     1      -5.817   6.888  69.889  1.00  0.00    -0.023 C  
HETATM   15  C   UNL     1     -10.173   9.209  68.417  1.00  0.00    -0.200 C  
HETATM   16  C   UNL     1      -6.375   8.036  69.469  1.00  0.00    -0.034 C  
HETATM   17  C   UNL     1      -5.550   9.150  68.885  1.00  0.00    -0.037 C  
HETATM   18  C   UNL     1      -8.530   8.866  68.366  1.00  0.00    -0.129 C  
HETATM   19  O   UNL     1     -10.448  10.241  69.378  1.00  0.00    -0.206 OA 
HETATM   20  C   UNL     1      -6.124   9.683  67.584  1.00  0.00    -0.052 C  
HETATM   21  C   UNL     1      -7.596  10.088  67.718  1.00  0.00    -0.090 C  
HETATM   22  H   UNL     1      -9.970   9.982  70.157  1.00  0.00     0.000 HD 
ENDROOT
BRANCH   4  23
HETATM   23  C   UNL     1     -11.243  12.226  67.639  1.00  0.00    -0.290 C  
HETATM   24  O   UNL     1     -12.207  12.196  66.847  1.00  0.00    -0.537 OA 
BRANCH  23  25
HETATM   25  C   UNL     1     -11.574  13.122  68.945  1.00  0.00    -0.311 C  
BRANCH  25  26
HETATM   26  O   UNL     1     -12.122  12.236  70.085  1.00  0.00    -0.327 OA 
BRANCH  26  27
HETATM   27  C   UNL     1     -12.701  12.770  71.220  1.00  0.00    -0.269 C  
HETATM   28  O   UNL     1     -13.350  12.095  72.011  1.00  0.00    -0.503 OA 
BRANCH  27  29
HETATM   29  C   UNL     1     -12.467  14.300  71.423  1.00  0.00    -0.437 C  
HETATM   30  C   UNL     1     -12.544  14.761  72.897  1.00  0.00    -0.482 C  
ENDBRANCH  27  29
ENDBRANCH  26  27
ENDBRANCH  25  26
ENDBRANCH  23  25
ENDBRANCH   4  23
BRANCH   4  31
HETATM   31  O   UNL     1      -8.961  12.855  66.930  1.00  0.00    -0.215 OA 
BRANCH  31  32
HETATM   32  C   UNL     1      -8.488  13.762  67.862  1.00  0.00    -0.176 C  
HETATM   33  O   UNL     1      -7.823  13.483  68.846  1.00  0.00    -0.067 OA 
BRANCH  32  34
HETATM   34  O   UNL     1      -8.662  15.056  67.427  1.00  0.00    -0.174 OA 
BRANCH  34  35
HETATM   35  C   UNL     1      -9.320  15.887  68.416  1.00  0.00    -0.201 C  
HETATM   36  C   UNL     1     -10.595  16.557  67.924  1.00  0.00    -0.329 C  
ENDBRANCH  34  35
ENDBRANCH  32  34
ENDBRANCH  31  32
ENDBRANCH   4  31
TORSDOF 9
ENDMDL
MODEL       60
REMARK 921   NORMALIZED FREE ENERGY PREDICTED BY IDOCK:   -4.56 KCAL/MOL
REMARK 922        TOTAL FREE ENERGY PREDICTED BY IDOCK:   -6.83 KCAL/MOL
REMARK 923 INTER-LIGAND FREE ENERGY PREDICTED BY IDOCK:   -6.67 KCAL/MOL
REMARK 924 INTRA-LIGAND FREE ENERGY PREDICTED BY IDOCK:   -0.17 KCAL/MOL
REMARK 927      BINDING AFFINITY PREDICTED BY RF-SCORE:    0.00 PKD
ROOT
HETATM    1  C   UNL     1      -9.301   7.151  67.164  1.00  0.00    -0.166 C  
HETATM    2  C   UNL     1     -10.501   6.599  66.647  1.00  0.00    -0.222 C  
HETATM    3  C   UNL     1     -10.588   7.759  67.583  1.00  0.00    -0.283 C  
HETATM    4  C   UNL     1      -8.868   8.890  67.922  1.00  0.00    -0.133 C  
HETATM    5  C   UNL     1      -8.653   7.246  72.108  1.00  0.00    -0.126 C  
HETATM    6  C   UNL     1      -9.903   6.612  71.488  1.00  0.00    -0.182 C  
HETATM    7  C   UNL     1      -9.911   8.982  67.029  1.00  0.00    -0.270 C  
HETATM    8  C   UNL     1     -11.293   6.797  72.246  1.00  0.00    -0.310 C  
HETATM    9  C   UNL     1      -9.898   9.504  65.610  1.00  0.00    -0.343 C  
HETATM   10  C   UNL     1     -10.902   9.628  68.529  1.00  0.00    -0.202 C  
HETATM   11  O   UNL     1     -10.563   5.141  74.454  1.00  0.00    -0.280 OA 
HETATM   12  C   UNL     1     -12.104   5.834  72.714  1.00  0.00     0.019 C  
HETATM   13  C   UNL     1     -10.938   5.028  73.294  1.00  0.00    -0.318 C  
HETATM   14  C   UNL     1     -10.213   4.264  72.272  1.00  0.00    -0.244 C  
HETATM   15  C   UNL     1     -10.395   8.872  69.979  1.00  0.00    -0.204 C  
HETATM   16  C   UNL     1      -9.624   5.088  71.388  1.00  0.00    -0.220 C  
HETATM   17  C   UNL     1      -8.662   4.577  70.351  1.00  0.00    -0.116 C  
HETATM   18  C   UNL     1     -10.142   7.215  70.063  1.00  0.00    -0.194 C  
HETATM   19  O   UNL     1      -9.214   9.589  70.375  1.00  0.00    -0.242 OA 
HETATM   20  C   UNL     1      -8.971   5.099  68.958  1.00  0.00    -0.123 C  
HETATM   21  C   UNL     1      -9.079   6.626  68.918  1.00  0.00    -0.132 C  
HETATM   22  H   UNL     1      -8.933   9.170  71.179  1.00  0.00     0.000 HD 
ENDROOT
BRANCH   4  23
HETATM   23  C   UNL     1      -8.573  10.709  67.939  1.00  0.00    -0.124 C  
HETATM   24  O   UNL     1      -7.895  11.257  68.832  1.00  0.00    -0.136 OA 
BRANCH  23  25
HETATM   25  C   UNL     1      -9.204  11.797  66.921  1.00  0.00    -0.189 C  
BRANCH  25  26
HETATM   26  O   UNL     1      -9.699  13.039  67.693  1.00  0.00    -0.202 OA 
BRANCH  26  27
HETATM   27  C   UNL     1     -10.861  13.704  67.352  1.00  0.00    -0.273 C  
HETATM   28  O   UNL     1     -10.982  14.920  67.455  1.00  0.00    -0.285 OA 
BRANCH  27  29
HETATM   29  C   UNL     1     -12.012  12.792  66.823  1.00  0.00    -0.389 C  
HETATM   30  C   UNL     1     -12.081  12.692  65.281  1.00  0.00    -0.519 C  
ENDBRANCH  27  29
ENDBRANCH  26  27
ENDBRANCH  25  26
ENDBRANCH  23  25
ENDBRANCH   4  23
BRANCH   4  31
HETATM   31  O   UNL     1      -7.571   8.661  66.987  1.00  0.00    -0.084 OA 
BRANCH  31  32
HETATM   32  C   UNL     1      -6.255   8.589  67.406  1.00  0.00    -0.056 C  
HETATM   33  O   UNL     1      -5.886   8.495  68.566  1.00  0.00    -0.039 OA 
BRANCH  32  34
HETATM   34  O   UNL     1      -5.403   8.405  66.341  1.00  0.00    -0.027 OA 
BRANCH  34  35
HETATM   35  C   UNL     1      -5.883   7.397  65.418  1.00  0.00    -0.037 C  
HETATM   36  C   UNL     1      -5.211   6.040  65.566  1.00  0.00    -0.013 C  
ENDBRANCH  34  35
ENDBRANCH  32  34
ENDBRANCH  31  32
ENDBRANCH   4  31
TORSDOF 9
ENDMDL
MODEL       61
REMARK 921   NORMALIZED FREE ENERGY PREDICTED BY IDOCK:   -4.54 KCAL/MOL
REMARK 922        TOTAL FREE ENERGY PREDICTED BY IDOCK:   -6.79 KCAL/MOL
REMARK 923 INTER-LIGAND FREE ENERGY PREDICTED BY IDOCK:   -6.38 KCAL/MOL
REMARK 924 INTRA-LIGAND FREE ENERGY PREDICTED BY IDOCK:   -0.41 KCAL/MOL
REMARK 927      BINDING AFFINITY PREDICTED BY RF-SCORE:    0.00 PKD
ROOT
HETATM    1  C   UNL     1      -8.029   9.654  70.246  1.00  0.00    -0.198 C  
HETATM    2  C   UNL     1      -6.730   9.347  70.726  1.00  0.00    -0.105 C  
HETATM    3  C   UNL     1      -7.341   8.462  69.691  1.00  0.00    -0.072 C  
HETATM    4  C   UNL     1      -8.979   9.181  68.616  1.00  0.00    -0.136 C  
HETATM    5  C   UNL     1     -11.634   6.249  70.766  1.00  0.00    -0.347 C  
HETATM    6  C   UNL     1     -10.226   5.997  71.314  1.00  0.00    -0.253 C  
HETATM    7  C   UNL     1      -7.619   9.201  68.411  1.00  0.00    -0.083 C  
HETATM    8  C   UNL     1      -9.637   4.518  71.220  1.00  0.00    -0.240 C  
HETATM    9  C   UNL     1      -6.783  10.252  67.717  1.00  0.00    -0.073 C  
HETATM   10  C   UNL     1      -7.842   7.360  67.952  1.00  0.00    -0.118 C  
HETATM   11  O   UNL     1     -11.453   3.435  73.139  1.00  0.00    -0.038 OA 
HETATM   12  C   UNL     1      -9.224   3.736  72.231  1.00  0.00    -0.163 C  
HETATM   13  C   UNL     1     -10.427   4.101  73.106  1.00  0.00    -0.175 C  
HETATM   14  C   UNL     1     -10.287   5.418  73.740  1.00  0.00    -0.277 C  
HETATM   15  C   UNL     1      -9.082   6.635  68.883  1.00  0.00    -0.132 C  
HETATM   16  C   UNL     1     -10.256   6.393  72.816  1.00  0.00    -0.204 C  
HETATM   17  C   UNL     1     -10.312   7.846  73.197  1.00  0.00    -0.357 C  
HETATM   18  C   UNL     1      -9.197   6.886  70.539  1.00  0.00    -0.156 C  
HETATM   19  O   UNL     1     -10.303   7.009  68.225  1.00  0.00    -0.177 OA 
HETATM   20  C   UNL     1      -9.242   8.674  72.506  1.00  0.00    -0.204 C  
HETATM   21  C   UNL     1      -9.256   8.494  70.985  1.00  0.00    -0.227 C  
HETATM   22  H   UNL     1     -10.991   6.607  68.741  1.00  0.00     0.000 HD 
ENDROOT
BRANCH   4  23
HETATM   23  C   UNL     1      -9.365   9.183  66.814  1.00  0.00    -0.165 C  
HETATM   24  O   UNL     1     -10.500   8.889  66.384  1.00  0.00    -0.219 OA 
BRANCH  23  25
HETATM   25  C   UNL     1      -8.322   9.446  65.606  1.00  0.00    -0.124 C  
BRANCH  25  26
HETATM   26  O   UNL     1      -8.383   8.297  64.577  1.00  0.00    -0.154 OA 
BRANCH  26  27
HETATM   27  C   UNL     1      -7.244   7.716  64.053  1.00  0.00    -0.081 C  
HETATM   28  O   UNL     1      -6.364   8.367  63.500  1.00  0.00    -0.079 OA 
BRANCH  27  29
HETATM   29  C   UNL     1      -7.158   6.166  64.217  1.00  0.00    -0.053 C  
HETATM   30  C   UNL     1      -8.533   5.464  64.314  1.00  0.00    -0.092 C  
ENDBRANCH  27  29
ENDBRANCH  26  27
ENDBRANCH  25  26
ENDBRANCH  23  25
ENDBRANCH   4  23
BRANCH   4  31
HETATM   31  O   UNL     1      -9.381  10.741  68.732  1.00  0.00    -0.169 OA 
BRANCH  31  32
HETATM   32  C   UNL     1     -10.658  11.256  68.863  1.00  0.00    -0.207 C  
HETATM   33  O   UNL     1     -11.049  12.307  68.381  1.00  0.00    -0.212 OA 
BRANCH  32  34
HETATM   34  O   UNL     1     -11.514  10.330  69.413  1.00  0.00    -0.234 OA 
BRANCH  34  35
HETATM   35  C   UNL     1     -12.415  10.919  70.384  1.00  0.00    -0.327 C  
HETATM   36  C   UNL     1     -12.722  10.026  71.577  1.00  0.00    -0.532 C  
ENDBRANCH  34  35
ENDBRANCH  32  34
ENDBRANCH  31  32
ENDBRANCH   4  31
TORSDOF 9
ENDMDL
MODEL       62
REMARK 921   NORMALIZED FREE ENERGY PREDICTED BY IDOCK:   -4.53 KCAL/MOL
REMARK 922        TOTAL FREE ENERGY PREDICTED BY IDOCK:   -6.78 KCAL/MOL
REMARK 923 INTER-LIGAND FREE ENERGY PREDICTED BY IDOCK:   -6.78 KCAL/MOL
REMARK 924 INTRA-LIGAND FREE ENERGY PREDICTED BY IDOCK:   -0.00 KCAL/MOL
REMARK 927      BINDING AFFINITY PREDICTED BY RF-SCORE:    0.00 PKD
ROOT
HETATM    1  C   UNL     1     -11.039   7.791  70.667  1.00  0.00    -0.264 C  
HETATM    2  C   UNL     1     -11.491   8.224  71.941  1.00  0.00    -0.372 C  
HETATM    3  C   UNL     1     -10.090   8.534  71.532  1.00  0.00    -0.315 C  
HETATM    4  C   UNL     1      -9.589   8.380  69.512  1.00  0.00    -0.170 C  
HETATM    5  C   UNL     1      -7.093   4.750  70.443  1.00  0.00    -0.049 C  
HETATM    6  C   UNL     1      -7.662   5.207  71.791  1.00  0.00    -0.108 C  
HETATM    7  C   UNL     1     -10.039   9.408  70.308  1.00  0.00    -0.288 C  
HETATM    8  C   UNL     1      -6.638   5.507  72.975  1.00  0.00    -0.071 C  
HETATM    9  C   UNL     1     -10.922  10.576  69.935  1.00  0.00    -0.359 C  
HETATM   10  C   UNL     1      -8.251   9.431  70.980  1.00  0.00    -0.017 C  
HETATM   11  O   UNL     1      -5.877   2.775  73.307  1.00  0.00    -0.003 OA 
HETATM   12  C   UNL     1      -6.589   4.922  74.183  1.00  0.00    -0.069 C  
HETATM   13  C   UNL     1      -6.802   3.522  73.598  1.00  0.00    -0.044 C  
HETATM   14  C   UNL     1      -8.204   3.259  73.253  1.00  0.00    -0.074 C  
HETATM   15  C   UNL     1      -7.581   7.856  71.014  1.00  0.00    -0.082 C  
HETATM   16  C   UNL     1      -8.618   4.082  72.273  1.00  0.00    -0.113 C  
HETATM   17  C   UNL     1      -9.949   3.901  71.598  1.00  0.00    -0.223 C  
HETATM   18  C   UNL     1      -8.452   6.544  71.598  1.00  0.00    -0.124 C  
HETATM   19  O   UNL     1      -7.137   7.615  69.670  1.00  0.00    -0.060 OA 
HETATM   20  C   UNL     1     -10.740   5.194  71.508  1.00  0.00    -0.165 C  
HETATM   21  C   UNL     1      -9.935   6.327  70.864  1.00  0.00    -0.219 C  
HETATM   22  H   UNL     1      -6.765   6.742  69.689  1.00  0.00     0.000 HD 
ENDROOT
BRANCH   4  23
HETATM   23  C   UNL     1      -8.671   9.508  68.381  1.00  0.00    -0.124 C  
HETATM   24  O   UNL     1      -7.561   9.197  67.900  1.00  0.00    -0.084 OA 
BRANCH  23  25
HETATM   25  C   UNL     1      -9.098  11.012  67.964  1.00  0.00    -0.152 C  
BRANCH  25  26
HETATM   26  O   UNL     1      -9.578  11.052  66.496  1.00  0.00    -0.187 OA 
BRANCH  26  27
HETATM   27  C   UNL     1     -10.682  11.782  66.102  1.00  0.00    -0.277 C  
HETATM   28  O   UNL     1     -11.754  11.730  66.694  1.00  0.00    -0.548 OA 
BRANCH  27  29
HETATM   29  C   UNL     1     -10.464  12.681  64.845  1.00  0.00    -0.331 C  
HETATM   30  C   UNL     1     -10.979  12.059  63.526  1.00  0.00    -0.514 C  
ENDBRANCH  27  29
ENDBRANCH  26  27
ENDBRANCH  25  26
ENDBRANCH  23  25
ENDBRANCH   4  23
BRANCH   4  31
HETATM   31  O   UNL     1     -10.761   8.191  68.417  1.00  0.00    -0.137 OA 
BRANCH  31  32
HETATM   32  C   UNL     1     -10.694   7.436  67.259  1.00  0.00    -0.308 C  
HETATM   33  O   UNL     1     -10.137   7.773  66.227  1.00  0.00    -0.117 OA 
BRANCH  32  34
HETATM   34  O   UNL     1     -11.136   6.152  67.477  1.00  0.00    -0.330 OA 
BRANCH  34  35
HETATM   35  C   UNL     1     -10.338   5.166  66.776  1.00  0.00    -0.261 C  
HETATM   36  C   UNL     1      -9.533   4.249  67.686  1.00  0.00    -0.217 C  
ENDBRANCH  34  35
ENDBRANCH  32  34
ENDBRANCH  31  32
ENDBRANCH   4  31
TORSDOF 9
ENDMDL
MODEL       63
REMARK 921   NORMALIZED FREE ENERGY PREDICTED BY IDOCK:   -4.52 KCAL/MOL
REMARK 922        TOTAL FREE ENERGY PREDICTED BY IDOCK:   -6.77 KCAL/MOL
REMARK 923 INTER-LIGAND FREE ENERGY PREDICTED BY IDOCK:   -6.59 KCAL/MOL
REMARK 924 INTRA-LIGAND FREE ENERGY PREDICTED BY IDOCK:   -0.18 KCAL/MOL
REMARK 927      BINDING AFFINITY PREDICTED BY RF-SCORE:    0.00 PKD
ROOT
HETATM    1  C   UNL     1      -7.513   9.135  69.426  1.00  0.00    -0.077 C  
HETATM    2  C   UNL     1      -7.263   9.595  70.744  1.00  0.00    -0.072 C  
HETATM    3  C   UNL     1      -8.648   9.175  70.380  1.00  0.00    -0.236 C  
HETATM    4  C   UNL     1      -8.915   8.024  68.659  1.00  0.00    -0.134 C  
HETATM    5  C   UNL     1     -10.893  11.539  66.657  1.00  0.00    -0.335 C  
HETATM    6  C   UNL     1     -10.539  12.023  68.067  1.00  0.00    -0.233 C  
HETATM    7  C   UNL     1      -8.713   7.724  69.987  1.00  0.00    -0.141 C  
HETATM    8  C   UNL     1     -11.711  12.611  68.974  1.00  0.00    -0.367 C  
HETATM    9  C   UNL     1      -7.990   6.541  70.590  1.00  0.00    -0.111 C  
HETATM   10  C   UNL     1     -10.540   8.239  70.196  1.00  0.00    -0.233 C  
HETATM   11  O   UNL     1     -12.064  14.957  67.384  1.00  0.00    -0.246 OA 
HETATM   12  C   UNL     1     -11.788  13.837  69.518  1.00  0.00    -0.394 C  
HETATM   13  C   UNL     1     -11.301  14.520  68.236  1.00  0.00    -0.297 C  
HETATM   14  C   UNL     1      -9.848  14.420  68.057  1.00  0.00    -0.221 C  
HETATM   15  C   UNL     1     -10.956   9.503  69.119  1.00  0.00    -0.125 C  
HETATM   16  C   UNL     1      -9.472  13.139  67.900  1.00  0.00    -0.218 C  
HETATM   17  C   UNL     1      -8.068  12.768  67.508  1.00  0.00    -0.180 C  
HETATM   18  C   UNL     1      -9.953  10.831  68.897  1.00  0.00    -0.213 C  
HETATM   19  O   UNL     1     -11.221   8.849  67.868  1.00  0.00    -0.450 OA 
HETATM   20  C   UNL     1      -7.484  11.676  68.388  1.00  0.00    -0.107 C  
HETATM   21  C   UNL     1      -8.388  10.442  68.465  1.00  0.00    -0.124 C  
HETATM   22  H   UNL     1     -11.451   9.550  67.271  1.00  0.00     0.000 HD 
ENDROOT
BRANCH   4  23
HETATM   23  C   UNL     1      -9.881   6.488  68.342  1.00  0.00    -0.137 C  
HETATM   24  O   UNL     1     -10.699   6.407  67.403  1.00  0.00    -0.249 OA 
BRANCH  23  25
HETATM   25  C   UNL     1      -9.883   5.147  69.248  1.00  0.00    -0.190 C  
BRANCH  25  26
HETATM   26  O   UNL     1      -8.924   4.091  68.655  1.00  0.00    -0.100 OA 
BRANCH  26  27
HETATM   27  C   UNL     1      -9.353   3.119  67.772  1.00  0.00    -0.203 C  
HETATM   28  O   UNL     1      -9.692   3.375  66.622  1.00  0.00    -0.122 OA 
BRANCH  27  29
HETATM   29  C   UNL     1      -9.373   1.668  68.346  1.00  0.00    -0.241 C  
HETATM   30  C   UNL     1      -9.223   1.595  69.884  1.00  0.00    -0.162 C  
ENDBRANCH  27  29
ENDBRANCH  26  27
ENDBRANCH  25  26
ENDBRANCH  23  25
ENDBRANCH   4  23
BRANCH   4  31
HETATM   31  O   UNL     1      -7.625   7.400  67.916  1.00  0.00    -0.108 OA 
BRANCH  31  32
HETATM   32  C   UNL     1      -7.448   7.257  66.551  1.00  0.00    -0.088 C  
HETATM   33  O   UNL     1      -7.655   6.237  65.914  1.00  0.00    -0.080 OA 
BRANCH  32  34
HETATM   34  O   UNL     1      -7.226   8.474  65.949  1.00  0.00    -0.074 OA 
BRANCH  34  35
HETATM   35  C   UNL     1      -8.294   8.844  65.041  1.00  0.00    -0.165 C  
HETATM   36  C   UNL     1      -8.053  10.143  64.286  1.00  0.00    -0.159 C  
ENDBRANCH  34  35
ENDBRANCH  32  34
ENDBRANCH  31  32
ENDBRANCH   4  31
TORSDOF 9
ENDMDL
MODEL       64
REMARK 921   NORMALIZED FREE ENERGY PREDICTED BY IDOCK:   -4.50 KCAL/MOL
REMARK 922        TOTAL FREE ENERGY PREDICTED BY IDOCK:   -6.74 KCAL/MOL
REMARK 923 INTER-LIGAND FREE ENERGY PREDICTED BY IDOCK:   -6.52 KCAL/MOL
REMARK 924 INTRA-LIGAND FREE ENERGY PREDICTED BY IDOCK:   -0.22 KCAL/MOL
REMARK 927      BINDING AFFINITY PREDICTED BY RF-SCORE:    0.00 PKD
ROOT
HETATM    1  C   UNL     1     -10.182   7.801  68.984  1.00  0.00    -0.213 C  
HETATM    2  C   UNL     1     -11.221   7.050  68.376  1.00  0.00     0.021 C  
HETATM    3  C   UNL     1      -9.974   7.313  67.599  1.00  0.00    -0.207 C  
HETATM    4  C   UNL     1      -8.273   7.937  68.634  1.00  0.00    -0.127 C  
HETATM    5  C   UNL     1      -8.689  12.023  66.789  1.00  0.00    -0.192 C  
HETATM    6  C   UNL     1      -9.844  11.198  66.210  1.00  0.00    -0.253 C  
HETATM    7  C   UNL     1      -8.763   6.709  68.253  1.00  0.00    -0.118 C  
HETATM    8  C   UNL     1      -9.974  11.098  64.625  1.00  0.00    -0.345 C  
HETATM    9  C   UNL     1      -8.624   5.376  68.955  1.00  0.00    -0.099 C  
HETATM   10  C   UNL     1      -8.159   7.208  66.512  1.00  0.00    -0.114 C  
HETATM   11  O   UNL     1     -10.696  13.839  64.289  1.00  0.00    -0.372 OA 
HETATM   12  C   UNL     1     -11.014  11.473  63.863  1.00  0.00    -0.474 C  
HETATM   13  C   UNL     1     -11.206  12.782  64.636  1.00  0.00    -0.319 C  
HETATM   14  C   UNL     1     -11.894  12.589  65.917  1.00  0.00    -0.489 C  
HETATM   15  C   UNL     1      -8.323   8.893  66.258  1.00  0.00    -0.117 C  
HETATM   16  C   UNL     1     -11.156  11.832  66.747  1.00  0.00    -0.360 C  
HETATM   17  C   UNL     1     -11.536  11.639  68.189  1.00  0.00    -0.389 C  
HETATM   18  C   UNL     1      -9.720   9.715  66.695  1.00  0.00    -0.266 C  
HETATM   19  O   UNL     1      -7.171   9.475  66.890  1.00  0.00    -0.085 OA 
HETATM   20  C   UNL     1     -11.502  10.180  68.612  1.00  0.00    -0.105 C  
HETATM   21  C   UNL     1     -10.163   9.510  68.292  1.00  0.00    -0.225 C  
HETATM   22  H   UNL     1      -7.262  10.409  66.749  1.00  0.00     0.000 HD 
ENDROOT
BRANCH   4  23
HETATM   23  C   UNL     1      -6.517   7.385  68.564  1.00  0.00    -0.041 C  
HETATM   24  O   UNL     1      -5.578   8.196  68.421  1.00  0.00    -0.032 OA 
BRANCH  23  25
HETATM   25  C   UNL     1      -5.986   5.856  68.568  1.00  0.00    -0.020 C  
BRANCH  25  26
HETATM   26  O   UNL     1      -5.303   5.516  67.226  1.00  0.00    -0.007 OA 
BRANCH  26  27
HETATM   27  C   UNL     1      -5.559   4.340  66.547  1.00  0.00    -0.018 C  
HETATM   28  O   UNL     1      -5.422   3.236  67.062  1.00  0.00    -0.019 OA 
BRANCH  27  29
HETATM   29  C   UNL     1      -6.037   4.520  65.072  1.00  0.00    -0.026 C  
HETATM   30  C   UNL     1      -7.316   3.724  64.720  1.00  0.00    -0.068 C  
ENDBRANCH  27  29
ENDBRANCH  26  27
ENDBRANCH  25  26
ENDBRANCH  23  25
ENDBRANCH   4  23
BRANCH   4  31
HETATM   31  O   UNL     1      -8.259   7.869  70.248  1.00  0.00    -0.119 OA 
BRANCH  31  32
HETATM   32  C   UNL     1      -7.804   8.851  71.110  1.00  0.00    -0.140 C  
HETATM   33  O   UNL     1      -7.273   9.897  70.773  1.00  0.00    -0.305 OA 
BRANCH  32  34
HETATM   34  O   UNL     1      -8.227   8.616  72.398  1.00  0.00    -0.332 OA 
BRANCH  34  35
HETATM   35  C   UNL     1      -9.122   7.480  72.487  1.00  0.00    -0.146 C  
HETATM   36  C   UNL     1     -10.561   7.841  72.827  1.00  0.00    -0.401 C  
ENDBRANCH  34  35
ENDBRANCH  32  34
ENDBRANCH  31  32
ENDBRANCH   4  31
TORSDOF 9
ENDMDL
MODEL       65
REMARK 921   NORMALIZED FREE ENERGY PREDICTED BY IDOCK:   -4.50 KCAL/MOL
REMARK 922        TOTAL FREE ENERGY PREDICTED BY IDOCK:   -6.73 KCAL/MOL
REMARK 923 INTER-LIGAND FREE ENERGY PREDICTED BY IDOCK:   -6.28 KCAL/MOL
REMARK 924 INTRA-LIGAND FREE ENERGY PREDICTED BY IDOCK:   -0.46 KCAL/MOL
REMARK 927      BINDING AFFINITY PREDICTED BY RF-SCORE:    0.00 PKD
ROOT
HETATM    1  C   UNL     1      -7.533   8.080  70.632  1.00  0.00    -0.068 C  
HETATM    2  C   UNL     1      -7.485   8.715  71.900  1.00  0.00    -0.099 C  
HETATM    3  C   UNL     1      -8.781   8.140  71.433  1.00  0.00    -0.179 C  
HETATM    4  C   UNL     1      -8.748   6.772  69.857  1.00  0.00    -0.141 C  
HETATM    5  C   UNL     1     -10.689   9.841  67.196  1.00  0.00    -0.273 C  
HETATM    6  C   UNL     1     -10.552  10.520  68.563  1.00  0.00    -0.234 C  
HETATM    7  C   UNL     1      -8.696   6.653  71.227  1.00  0.00    -0.129 C  
HETATM    8  C   UNL     1     -11.866  11.114  69.242  1.00  0.00    -0.422 C  
HETATM    9  C   UNL     1      -7.977   5.615  72.060  1.00  0.00    -0.107 C  
HETATM   10  C   UNL     1     -10.566   7.035  71.151  1.00  0.00    -0.237 C  
HETATM   11  O   UNL     1     -12.173  13.212  67.330  1.00  0.00    -0.317 OA 
HETATM   12  C   UNL     1     -12.095  12.386  69.609  1.00  0.00    -0.271 C  
HETATM   13  C   UNL     1     -11.497  12.947  68.315  1.00  0.00    -0.311 C  
HETATM   14  C   UNL     1     -10.029  12.948  68.323  1.00  0.00    -0.234 C  
HETATM   15  C   UNL     1     -10.926   8.120  69.878  1.00  0.00    -0.168 C  
HETATM   16  C   UNL     1      -9.551  11.693  68.379  1.00  0.00    -0.195 C  
HETATM   17  C   UNL     1      -8.086  11.396  68.206  1.00  0.00    -0.143 C  
HETATM   18  C   UNL     1      -9.996   9.491  69.604  1.00  0.00    -0.220 C  
HETATM   19  O   UNL     1     -10.985   7.300  68.700  1.00  0.00    -0.412 OA 
HETATM   20  C   UNL     1      -7.546  10.471  69.283  1.00  0.00    -0.134 C  
HETATM   21  C   UNL     1      -8.366   9.184  69.413  1.00  0.00    -0.124 C  
HETATM   22  H   UNL     1     -11.184   7.902  67.994  1.00  0.00     0.000 HD 
ENDROOT
BRANCH   4  23
HETATM   23  C   UNL     1      -9.559   5.133  69.632  1.00  0.00    -0.167 C  
HETATM   24  O   UNL     1     -10.145   4.555  70.570  1.00  0.00    -0.222 OA 
BRANCH  23  25
HETATM   25  C   UNL     1      -9.534   4.221  68.295  1.00  0.00    -0.154 C  
BRANCH  25  26
HETATM   26  O   UNL     1     -10.234   4.951  67.128  1.00  0.00    -0.195 OA 
BRANCH  26  27
HETATM   27  C   UNL     1     -10.091   4.546  65.815  1.00  0.00    -0.255 C  
HETATM   28  O   UNL     1     -11.035   4.489  65.034  1.00  0.00    -0.207 OA 
BRANCH  27  29
HETATM   29  C   UNL     1      -8.635   4.168  65.396  1.00  0.00    -0.118 C  
HETATM   30  C   UNL     1      -8.126   4.912  64.139  1.00  0.00    -0.115 C  
ENDBRANCH  27  29
ENDBRANCH  26  27
ENDBRANCH  25  26
ENDBRANCH  23  25
ENDBRANCH   4  23
BRANCH   4  31
HETATM   31  O   UNL     1      -7.334   6.172  69.358  1.00  0.00    -0.085 OA 
BRANCH  31  32
HETATM   32  C   UNL     1      -6.871   6.127  68.055  1.00  0.00    -0.067 C  
HETATM   33  O   UNL     1      -6.060   5.325  67.621  1.00  0.00    -0.027 OA 
BRANCH  32  34
HETATM   34  O   UNL     1      -7.605   6.956  67.238  1.00  0.00    -0.103 OA 
BRANCH  34  35
HETATM   35  C   UNL     1      -6.770   7.714  66.327  1.00  0.00    -0.057 C  
HETATM   36  C   UNL     1      -7.532   8.698  65.451  1.00  0.00    -0.086 C  
ENDBRANCH  34  35
ENDBRANCH  32  34
ENDBRANCH  31  32
ENDBRANCH   4  31
TORSDOF 9
ENDMDL
MODEL       66
REMARK 921   NORMALIZED FREE ENERGY PREDICTED BY IDOCK:   -4.49 KCAL/MOL
REMARK 922        TOTAL FREE ENERGY PREDICTED BY IDOCK:   -6.72 KCAL/MOL
REMARK 923 INTER-LIGAND FREE ENERGY PREDICTED BY IDOCK:   -6.59 KCAL/MOL
REMARK 924 INTRA-LIGAND FREE ENERGY PREDICTED BY IDOCK:   -0.13 KCAL/MOL
REMARK 927      BINDING AFFINITY PREDICTED BY RF-SCORE:    0.00 PKD
ROOT
HETATM    1  C   UNL     1     -10.213   7.713  68.914  1.00  0.00    -0.217 C  
HETATM    2  C   UNL     1     -11.197   6.953  68.232  1.00  0.00    -0.070 C  
HETATM    3  C   UNL     1      -9.904   7.237  67.543  1.00  0.00    -0.198 C  
HETATM    4  C   UNL     1      -8.286   7.875  68.697  1.00  0.00    -0.128 C  
HETATM    5  C   UNL     1      -8.628  11.968  66.852  1.00  0.00    -0.189 C  
HETATM    6  C   UNL     1      -9.729  11.132  66.190  1.00  0.00    -0.253 C  
HETATM    7  C   UNL     1      -8.732   6.644  68.276  1.00  0.00    -0.118 C  
HETATM    8  C   UNL     1      -9.748  11.041  64.599  1.00  0.00    -0.315 C  
HETATM    9  C   UNL     1      -8.624   5.308  68.978  1.00  0.00    -0.095 C  
HETATM   10  C   UNL     1      -8.017   7.162  66.583  1.00  0.00    -0.111 C  
HETATM   11  O   UNL     1     -10.482  13.775  64.230  1.00  0.00    -0.359 OA 
HETATM   12  C   UNL     1     -10.739  11.408  63.770  1.00  0.00    -0.470 C  
HETATM   13  C   UNL     1     -11.000  12.709  64.535  1.00  0.00    -0.332 C  
HETATM   14  C   UNL     1     -11.773  12.499  65.765  1.00  0.00    -0.478 C  
HETATM   15  C   UNL     1      -8.185   8.847  66.329  1.00  0.00    -0.111 C  
HETATM   16  C   UNL     1     -11.083  11.746  66.639  1.00  0.00    -0.364 C  
HETATM   17  C   UNL     1     -11.559  11.538  68.050  1.00  0.00    -0.370 C  
HETATM   18  C   UNL     1      -9.620   9.647  66.674  1.00  0.00    -0.241 C  
HETATM   19  O   UNL     1      -7.087   9.439  67.042  1.00  0.00    -0.084 OA 
HETATM   20  C   UNL     1     -11.535  10.077  68.467  1.00  0.00    -0.024 C  
HETATM   21  C   UNL     1     -10.168   9.426  68.235  1.00  0.00    -0.229 C  
HETATM   22  H   UNL     1      -7.181  10.373  66.901  1.00  0.00     0.000 HD 
ENDROOT
BRANCH   4  23
HETATM   23  C   UNL     1      -6.522   7.346  68.744  1.00  0.00    -0.044 C  
HETATM   24  O   UNL     1      -5.596   8.161  68.941  1.00  0.00    -0.030 OA 
BRANCH  23  25
HETATM   25  C   UNL     1      -5.953   5.860  68.449  1.00  0.00    -0.020 C  
BRANCH  25  26
HETATM   26  O   UNL     1      -5.128   5.347  69.650  1.00  0.00    -0.003 OA 
BRANCH  26  27
HETATM   27  C   UNL     1      -5.435   4.171  70.306  1.00  0.00    -0.012 C  
HETATM   28  O   UNL     1      -5.479   3.087  69.734  1.00  0.00    -0.015 OA 
BRANCH  27  29
HETATM   29  C   UNL     1      -5.723   4.322  71.833  1.00  0.00    -0.012 C  
HETATM   30  C   UNL     1      -6.664   5.498  72.185  1.00  0.00    -0.066 C  
ENDBRANCH  27  29
ENDBRANCH  26  27
ENDBRANCH  25  26
ENDBRANCH  23  25
ENDBRANCH   4  23
BRANCH   4  31
HETATM   31  O   UNL     1      -8.381   7.797  70.307  1.00  0.00    -0.123 OA 
BRANCH  31  32
HETATM   32  C   UNL     1      -8.074   8.807  71.202  1.00  0.00    -0.157 C  
HETATM   33  O   UNL     1      -7.367   9.773  70.962  1.00  0.00    -0.329 OA 
BRANCH  32  34
HETATM   34  O   UNL     1      -8.847   8.719  72.336  1.00  0.00    -0.391 OA 
BRANCH  34  35
HETATM   35  C   UNL     1     -10.056   7.947  72.123  1.00  0.00    -0.220 C  
HETATM   36  C   UNL     1     -11.332   8.775  72.100  1.00  0.00    -0.411 C  
ENDBRANCH  34  35
ENDBRANCH  32  34
ENDBRANCH  31  32
ENDBRANCH   4  31
TORSDOF 9
ENDMDL
MODEL       67
REMARK 921   NORMALIZED FREE ENERGY PREDICTED BY IDOCK:   -4.49 KCAL/MOL
REMARK 922        TOTAL FREE ENERGY PREDICTED BY IDOCK:   -6.72 KCAL/MOL
REMARK 923 INTER-LIGAND FREE ENERGY PREDICTED BY IDOCK:   -7.39 KCAL/MOL
REMARK 924 INTRA-LIGAND FREE ENERGY PREDICTED BY IDOCK:    0.67 KCAL/MOL
REMARK 927      BINDING AFFINITY PREDICTED BY RF-SCORE:    0.00 PKD
ROOT
HETATM    1  C   UNL     1      -9.674  12.391  66.102  1.00  0.00    -0.254 C  
HETATM    2  C   UNL     1     -10.178  11.820  64.905  1.00  0.00    -0.315 C  
HETATM    3  C   UNL     1     -10.588  11.227  66.213  1.00  0.00    -0.315 C  
HETATM    4  C   UNL     1     -10.293  12.351  67.946  1.00  0.00    -0.210 C  
HETATM    5  C   UNL     1      -7.039   9.503  69.199  1.00  0.00    -0.062 C  
HETATM    6  C   UNL     1      -7.562   8.959  67.866  1.00  0.00    -0.093 C  
HETATM    7  C   UNL     1     -11.341  12.210  67.066  1.00  0.00    -0.398 C  
HETATM    8  C   UNL     1      -8.075   7.450  67.820  1.00  0.00    -0.119 C  
HETATM    9  C   UNL     1     -12.374  13.235  66.653  1.00  0.00    -0.274 C  
HETATM   10  C   UNL     1     -11.609  10.530  67.933  1.00  0.00    -0.039 C  
HETATM   11  O   UNL     1      -5.478   6.322  68.186  1.00  0.00    -0.007 OA 
HETATM   12  C   UNL     1      -7.616   6.452  67.048  1.00  0.00    -0.095 C  
HETATM   13  C   UNL     1      -6.152   6.829  67.300  1.00  0.00    -0.029 C  
HETATM   14  C   UNL     1      -5.718   7.980  66.499  1.00  0.00    -0.040 C  
HETATM   15  C   UNL     1     -10.120   9.840  68.421  1.00  0.00    -0.166 C  
HETATM   16  C   UNL     1      -6.398   9.087  66.846  1.00  0.00    -0.059 C  
HETATM   17  C   UNL     1      -6.019  10.444  66.320  1.00  0.00    -0.084 C  
HETATM   18  C   UNL     1      -8.789   9.812  67.398  1.00  0.00    -0.137 C  
HETATM   19  O   UNL     1      -9.798  10.495  69.658  1.00  0.00    -0.368 OA 
HETATM   20  C   UNL     1      -7.212  11.217  65.783  1.00  0.00     0.193 C  
HETATM   21  C   UNL     1      -8.354  11.308  66.800  1.00  0.00    -0.156 C  
HETATM   22  H   UNL     1      -8.972  10.113  69.929  1.00  0.00     0.000 HD 
ENDROOT
BRANCH   4  23
HETATM   23  C   UNL     1     -11.395  12.723  69.375  1.00  0.00    -0.202 C  
HETATM   24  O   UNL     1     -11.971  11.819  70.014  1.00  0.00    -0.321 OA 
BRANCH  23  25
HETATM   25  C   UNL     1     -11.829  14.191  69.901  1.00  0.00    -0.325 C  
BRANCH  25  26
HETATM   26  O   UNL     1     -11.938  14.204  71.441  1.00  0.00    -0.304 OA 
BRANCH  26  27
HETATM   27  C   UNL     1     -12.688  15.147  72.119  1.00  0.00    -0.341 C  
HETATM   28  O   UNL     1     -13.306  16.036  71.545  1.00  0.00    -0.371 OA 
BRANCH  27  29
HETATM   29  C   UNL     1     -12.690  14.996  73.672  1.00  0.00    -0.650 C  
HETATM   30  C   UNL     1     -12.439  16.318  74.436  1.00  0.00    -0.597 C  
ENDBRANCH  27  29
ENDBRANCH  26  27
ENDBRANCH  25  26
ENDBRANCH  23  25
ENDBRANCH   4  23
BRANCH   4  31
HETATM   31  O   UNL     1      -9.883  13.908  67.821  1.00  0.00    -0.226 OA 
BRANCH  31  32
HETATM   32  C   UNL     1      -8.790  14.523  68.404  1.00  0.00    -0.180 C  
HETATM   33  O   UNL     1      -7.766  13.959  68.756  1.00  0.00    -0.134 OA 
BRANCH  32  34
HETATM   34  O   UNL     1      -8.894  15.893  68.336  1.00  0.00    -0.175 OA 
BRANCH  34  35
HETATM   35  C   UNL     1      -7.751  16.564  68.921  1.00  0.00    -0.236 C  
HETATM   36  C   UNL     1      -7.685  18.057  68.635  1.00  0.00    -0.304 C  
ENDBRANCH  34  35
ENDBRANCH  32  34
ENDBRANCH  31  32
ENDBRANCH   4  31
TORSDOF 9
ENDMDL
MODEL       68
REMARK 921   NORMALIZED FREE ENERGY PREDICTED BY IDOCK:   -4.47 KCAL/MOL
REMARK 922        TOTAL FREE ENERGY PREDICTED BY IDOCK:   -6.69 KCAL/MOL
REMARK 923 INTER-LIGAND FREE ENERGY PREDICTED BY IDOCK:   -7.28 KCAL/MOL
REMARK 924 INTRA-LIGAND FREE ENERGY PREDICTED BY IDOCK:    0.59 KCAL/MOL
REMARK 927      BINDING AFFINITY PREDICTED BY RF-SCORE:    0.00 PKD
ROOT
HETATM    1  C   UNL     1      -8.183  11.645  68.105  1.00  0.00    -0.151 C  
HETATM    2  C   UNL     1      -7.608  10.852  67.079  1.00  0.00    -0.122 C  
HETATM    3  C   UNL     1      -9.095  10.928  67.181  1.00  0.00    -0.152 C  
HETATM    4  C   UNL     1      -9.934  12.468  68.312  1.00  0.00    -0.229 C  
HETATM    5  C   UNL     1     -11.217   9.456  71.402  1.00  0.00    -0.452 C  
HETATM    6  C   UNL     1     -10.522   8.640  70.306  1.00  0.00    -0.229 C  
HETATM    7  C   UNL     1      -9.603  12.329  66.983  1.00  0.00    -0.208 C  
HETATM    8  C   UNL     1     -11.332   7.443  69.634  1.00  0.00     0.019 C  
HETATM    9  C   UNL     1      -9.129  13.386  66.011  1.00  0.00     0.207 C  
HETATM   10  C   UNL     1     -11.170  11.241  66.891  1.00  0.00    -0.300 C  
HETATM   11  O   UNL     1     -11.310   5.817  71.981  1.00  0.00    -0.271 OA 
HETATM   12  C   UNL     1     -10.993   6.144  69.599  1.00  0.00    -0.459 C  
HETATM   13  C   UNL     1     -10.561   6.138  71.069  1.00  0.00    -0.246 C  
HETATM   14  C   UNL     1      -9.235   6.734  71.272  1.00  0.00    -0.154 C  
HETATM   15  C   UNL     1     -11.409  10.374  68.347  1.00  0.00    -0.227 C  
HETATM   16  C   UNL     1      -9.241   8.038  70.945  1.00  0.00    -0.163 C  
HETATM   17  C   UNL     1      -8.069   8.933  71.238  1.00  0.00    -0.185 C  
HETATM   18  C   UNL     1     -10.143   9.583  69.115  1.00  0.00    -0.200 C  
HETATM   19  O   UNL     1     -12.039  11.310  69.236  1.00  0.00    -0.334 OA 
HETATM   20  C   UNL     1      -7.657   9.769  70.039  1.00  0.00    -0.169 C  
HETATM   21  C   UNL     1      -8.828  10.558  69.446  1.00  0.00    -0.091 C  
HETATM   22  H   UNL     1     -12.171  10.829  70.043  1.00  0.00     0.000 HD 
ENDROOT
BRANCH   4  23
HETATM   23  C   UNL     1     -11.309  13.644  67.963  1.00  0.00    -0.285 C  
HETATM   24  O   UNL     1     -12.396  13.584  68.574  1.00  0.00    -0.223 OA 
BRANCH  23  25
HETATM   25  C   UNL     1     -11.337  14.780  66.811  1.00  0.00    -0.346 C  
BRANCH  25  26
HETATM   26  O   UNL     1     -12.447  14.481  65.780  1.00  0.00    -0.323 OA 
BRANCH  26  27
HETATM   27  C   UNL     1     -12.232  14.574  64.418  1.00  0.00    -0.458 C  
HETATM   28  O   UNL     1     -12.544  15.564  63.766  1.00  0.00    -0.618 OA 
BRANCH  27  29
HETATM   29  C   UNL     1     -11.559  13.324  63.770  1.00  0.00    -0.427 C  
HETATM   30  C   UNL     1     -12.525  12.141  63.529  1.00  0.00    -0.666 C  
ENDBRANCH  27  29
ENDBRANCH  26  27
ENDBRANCH  25  26
ENDBRANCH  23  25
ENDBRANCH   4  23
BRANCH   4  31
HETATM   31  O   UNL     1      -8.994  13.677  68.825  1.00  0.00    -0.075 OA 
BRANCH  31  32
HETATM   32  C   UNL     1      -9.356  14.691  69.694  1.00  0.00     0.316 C  
HETATM   33  O   UNL     1     -10.275  14.641  70.495  1.00  0.00     0.374 OA 
BRANCH  32  34
HETATM   34  O   UNL     1      -8.412  15.691  69.711  1.00  0.00    -0.170 OA 
BRANCH  34  35
HETATM   35  C   UNL     1      -7.420  15.533  68.665  1.00  0.00    -0.131 C  
HETATM   36  C   UNL     1      -6.064  16.142  68.990  1.00  0.00    -0.131 C  
ENDBRANCH  34  35
ENDBRANCH  32  34
ENDBRANCH  31  32
ENDBRANCH   4  31
TORSDOF 9
ENDMDL
MODEL       69
REMARK 921   NORMALIZED FREE ENERGY PREDICTED BY IDOCK:   -4.36 KCAL/MOL
REMARK 922        TOTAL FREE ENERGY PREDICTED BY IDOCK:   -6.52 KCAL/MOL
REMARK 923 INTER-LIGAND FREE ENERGY PREDICTED BY IDOCK:   -6.05 KCAL/MOL
REMARK 924 INTRA-LIGAND FREE ENERGY PREDICTED BY IDOCK:   -0.47 KCAL/MOL
REMARK 927      BINDING AFFINITY PREDICTED BY RF-SCORE:    0.00 PKD
ROOT
HETATM    1  C   UNL     1      -9.797   5.804  67.611  1.00  0.00    -0.142 C  
HETATM    2  C   UNL     1     -10.903   5.772  66.722  1.00  0.00    -0.327 C  
HETATM    3  C   UNL     1     -10.082   7.016  66.804  1.00  0.00    -0.270 C  
HETATM    4  C   UNL     1      -8.192   6.901  67.681  1.00  0.00    -0.117 C  
HETATM    5  C   UNL     1      -9.714   9.271  71.194  1.00  0.00    -0.327 C  
HETATM    6  C   UNL     1     -10.907   9.151  70.239  1.00  0.00    -0.282 C  
HETATM    7  C   UNL     1      -8.656   6.780  66.391  1.00  0.00    -0.131 C  
HETATM    8  C   UNL     1     -11.619  10.493  69.757  1.00  0.00    -0.368 C  
HETATM    9  C   UNL     1      -8.119   5.919  65.270  1.00  0.00    -0.133 C  
HETATM   10  C   UNL     1      -8.819   8.681  66.462  1.00  0.00    -0.163 C  
HETATM   11  O   UNL     1     -12.704  11.103  72.326  1.00  0.00    -0.052 OA 
HETATM   12  C   UNL     1     -12.906  10.842  69.923  1.00  0.00     0.016 C  
HETATM   13  C   UNL     1     -12.927  10.362  71.378  1.00  0.00    -0.443 C  
HETATM   14  C   UNL     1     -13.050   8.904  71.492  1.00  0.00    -0.376 C  
HETATM   15  C   UNL     1      -9.246   9.209  68.033  1.00  0.00    -0.134 C  
HETATM   16  C   UNL     1     -11.974   8.291  70.968  1.00  0.00    -0.260 C  
HETATM   17  C   UNL     1     -11.753   6.811  71.124  1.00  0.00    -0.394 C  
HETATM   18  C   UNL     1     -10.450   8.445  68.919  1.00  0.00    -0.208 C  
HETATM   19  O   UNL     1      -8.009   9.228  68.765  1.00  0.00    -0.096 OA 
HETATM   20  C   UNL     1     -11.405   6.130  69.812  1.00  0.00    -0.452 C  
HETATM   21  C   UNL     1     -10.225   6.800  69.101  1.00  0.00    -0.195 C  
HETATM   22  H   UNL     1      -8.246   9.520  69.636  1.00  0.00     0.000 HD 
ENDROOT
BRANCH   4  23
HETATM   23  C   UNL     1      -6.547   7.539  67.150  1.00  0.00    -0.062 C  
HETATM   24  O   UNL     1      -5.751   8.059  67.959  1.00  0.00    -0.032 OA 
BRANCH  23  25
HETATM   25  C   UNL     1      -5.983   7.607  65.635  1.00  0.00    -0.038 C  
BRANCH  25  26
HETATM   26  O   UNL     1      -5.666   9.065  65.240  1.00  0.00    -0.049 OA 
BRANCH  26  27
HETATM   27  C   UNL     1      -6.031   9.593  64.016  1.00  0.00    -0.100 C  
HETATM   28  O   UNL     1      -5.579  10.650  63.590  1.00  0.00    -0.148 OA 
BRANCH  27  29
HETATM   29  C   UNL     1      -7.062   8.741  63.211  1.00  0.00    -0.089 C  
HETATM   30  C   UNL     1      -8.384   9.480  62.897  1.00  0.00    -0.172 C  
ENDBRANCH  27  29
ENDBRANCH  26  27
ENDBRANCH  25  26
ENDBRANCH  23  25
ENDBRANCH   4  23
BRANCH   4  31
HETATM   31  O   UNL     1      -7.556   5.452  68.006  1.00  0.00    -0.079 OA 
BRANCH  31  32
HETATM   32  C   UNL     1      -7.056   5.026  69.224  1.00  0.00    -0.056 C  
HETATM   33  O   UNL     1      -6.929   5.721  70.218  1.00  0.00    -0.054 OA 
BRANCH  32  34
HETATM   34  O   UNL     1      -6.926   3.656  69.255  1.00  0.00    -0.044 OA 
BRANCH  34  35
HETATM   35  C   UNL     1      -7.784   3.043  70.250  1.00  0.00    -0.043 C  
HETATM   36  C   UNL     1      -9.264   3.057  69.896  1.00  0.00    -0.225 C  
ENDBRANCH  34  35
ENDBRANCH  32  34
ENDBRANCH  31  32
ENDBRANCH   4  31
TORSDOF 9
ENDMDL
MODEL       70
REMARK 921   NORMALIZED FREE ENERGY PREDICTED BY IDOCK:   -4.35 KCAL/MOL
REMARK 922        TOTAL FREE ENERGY PREDICTED BY IDOCK:   -6.50 KCAL/MOL
REMARK 923 INTER-LIGAND FREE ENERGY PREDICTED BY IDOCK:   -6.87 KCAL/MOL
REMARK 924 INTRA-LIGAND FREE ENERGY PREDICTED BY IDOCK:    0.37 KCAL/MOL
REMARK 927      BINDING AFFINITY PREDICTED BY RF-SCORE:    0.00 PKD
ROOT
HETATM    1  C   UNL     1      -8.026   6.843  69.984  1.00  0.00    -0.116 C  
HETATM    2  C   UNL     1      -6.627   6.626  69.891  1.00  0.00    -0.048 C  
HETATM    3  C   UNL     1      -7.300   7.443  68.839  1.00  0.00    -0.091 C  
HETATM    4  C   UNL     1      -9.205   8.198  69.236  1.00  0.00    -0.151 C  
HETATM    5  C   UNL     1     -10.932   5.332  66.224  1.00  0.00    -0.056 C  
HETATM    6  C   UNL     1      -9.422   5.076  66.206  1.00  0.00    -0.162 C  
HETATM    7  C   UNL     1      -7.929   8.686  69.405  1.00  0.00    -0.102 C  
HETATM    8  C   UNL     1      -8.659   5.186  64.811  1.00  0.00    -0.148 C  
HETATM    9  C   UNL     1      -7.406   9.614  70.479  1.00  0.00    -0.141 C  
HETATM   10  C   UNL     1      -7.973   8.954  67.515  1.00  0.00    -0.101 C  
HETATM   11  O   UNL     1      -9.882   2.855  63.706  1.00  0.00    -0.132 OA 
HETATM   12  C   UNL     1      -7.945   4.231  64.191  1.00  0.00    -0.090 C  
HETATM   13  C   UNL     1      -8.989   3.151  64.489  1.00  0.00    -0.121 C  
HETATM   14  C   UNL     1      -8.916   2.656  65.869  1.00  0.00    -0.131 C  
HETATM   15  C   UNL     1      -8.887   7.733  66.737  1.00  0.00    -0.139 C  
HETATM   16  C   UNL     1      -9.209   3.634  66.743  1.00  0.00    -0.198 C  
HETATM   17  C   UNL     1      -9.395   3.355  68.209  1.00  0.00    -0.239 C  
HETATM   18  C   UNL     1      -8.705   6.112  67.135  1.00  0.00    -0.106 C  
HETATM   19  O   UNL     1     -10.255   8.145  66.887  1.00  0.00    -0.266 OA 
HETATM   20  C   UNL     1      -8.613   4.314  69.091  1.00  0.00    -0.109 C  
HETATM   21  C   UNL     1      -8.904   5.781  68.759  1.00  0.00    -0.110 C  
HETATM   22  H   UNL     1     -10.762   7.467  66.456  1.00  0.00     0.000 HD 
ENDROOT
BRANCH   4  23
HETATM   23  C   UNL     1      -9.937   9.873  69.010  1.00  0.00    -0.187 C  
HETATM   24  O   UNL     1      -9.227  10.881  68.815  1.00  0.00    -0.179 OA 
BRANCH  23  25
HETATM   25  C   UNL     1     -11.502  10.265  69.133  1.00  0.00    -0.147 C  
BRANCH  25  26
HETATM   26  O   UNL     1     -11.740  11.168  70.363  1.00  0.00    -0.316 OA 
BRANCH  26  27
HETATM   27  C   UNL     1     -12.786  10.956  71.241  1.00  0.00    -0.433 C  
HETATM   28  O   UNL     1     -13.315   9.859  71.386  1.00  0.00    -0.383 OA 
BRANCH  27  29
HETATM   29  C   UNL     1     -13.246  12.218  72.037  1.00  0.00    -0.508 C  
HETATM   30  C   UNL     1     -12.883  13.559  71.358  1.00  0.00    -0.440 C  
ENDBRANCH  27  29
ENDBRANCH  26  27
ENDBRANCH  25  26
ENDBRANCH  23  25
ENDBRANCH   4  23
BRANCH   4  31
HETATM   31  O   UNL     1      -9.794   8.112  70.737  1.00  0.00    -0.178 OA 
BRANCH  31  32
HETATM   32  C   UNL     1     -10.882   7.368  71.155  1.00  0.00    -0.242 C  
HETATM   33  O   UNL     1     -11.833   7.053  70.457  1.00  0.00    -0.326 OA 
BRANCH  32  34
HETATM   34  O   UNL     1     -10.664   6.823  72.399  1.00  0.00    -0.212 OA 
BRANCH  34  35
HETATM   35  C   UNL     1     -10.478   5.387  72.349  1.00  0.00    -0.217 C  
HETATM   36  C   UNL     1     -11.446   4.598  73.218  1.00  0.00    -0.346 C  
ENDBRANCH  34  35
ENDBRANCH  32  34
ENDBRANCH  31  32
ENDBRANCH   4  31
TORSDOF 9
ENDMDL
MODEL       71
REMARK 921   NORMALIZED FREE ENERGY PREDICTED BY IDOCK:   -4.33 KCAL/MOL
REMARK 922        TOTAL FREE ENERGY PREDICTED BY IDOCK:   -6.47 KCAL/MOL
REMARK 923 INTER-LIGAND FREE ENERGY PREDICTED BY IDOCK:   -6.66 KCAL/MOL
REMARK 924 INTRA-LIGAND FREE ENERGY PREDICTED BY IDOCK:    0.19 KCAL/MOL
REMARK 927      BINDING AFFINITY PREDICTED BY RF-SCORE:    0.00 PKD
ROOT
HETATM    1  C   UNL     1      -7.144  10.673  67.799  1.00  0.00    -0.083 C  
HETATM    2  C   UNL     1      -6.144  11.344  67.049  1.00  0.00    -0.120 C  
HETATM    3  C   UNL     1      -7.451  11.043  66.396  1.00  0.00    -0.131 C  
HETATM    4  C   UNL     1      -9.077  10.552  67.609  1.00  0.00    -0.142 C  
HETATM    5  C   UNL     1      -8.875   6.313  66.106  1.00  0.00    -0.160 C  
HETATM    6  C   UNL     1      -7.755   7.057  65.370  1.00  0.00    -0.111 C  
HETATM    7  C   UNL     1      -8.598  11.731  67.085  1.00  0.00    -0.168 C  
HETATM    8  C   UNL     1      -7.748   7.016  63.777  1.00  0.00    -0.111 C  
HETATM    9  C   UNL     1      -8.659  13.122  67.674  1.00  0.00    -0.193 C  
HETATM   10  C   UNL     1      -9.344  11.096  65.445  1.00  0.00    -0.243 C  
HETATM   11  O   UNL     1      -7.100   4.239  63.630  1.00  0.00    -0.044 OA 
HETATM   12  C   UNL     1      -6.776   6.552  62.974  1.00  0.00    -0.042 C  
HETATM   13  C   UNL     1      -6.547   5.311  63.842  1.00  0.00    -0.037 C  
HETATM   14  C   UNL     1      -5.758   5.598  65.046  1.00  0.00    -0.017 C  
HETATM   15  C   UNL     1      -9.229   9.393  65.330  1.00  0.00    -0.238 C  
HETATM   16  C   UNL     1      -6.416   6.441  65.860  1.00  0.00    -0.043 C  
HETATM   17  C   UNL     1      -5.922   6.750  67.246  1.00  0.00    -0.017 C  
HETATM   18  C   UNL     1      -7.816   8.579  65.730  1.00  0.00    -0.100 C  
HETATM   19  O   UNL     1     -10.338   8.895  66.096  1.00  0.00    -0.337 OA 
HETATM   20  C   UNL     1      -5.898   8.240  67.540  1.00  0.00    -0.043 C  
HETATM   21  C   UNL     1      -7.247   8.911  67.264  1.00  0.00    -0.083 C  
HETATM   22  H   UNL     1     -10.273   7.950  66.032  1.00  0.00     0.000 HD 
ENDROOT
BRANCH   4  23
HETATM   23  C   UNL     1     -10.824  11.137  67.624  1.00  0.00    -0.247 C  
HETATM   24  O   UNL     1     -11.781  10.347  67.761  1.00  0.00    -0.353 OA 
BRANCH  23  25
HETATM   25  C   UNL     1     -11.335  12.651  67.369  1.00  0.00    -0.313 C  
BRANCH  25  26
HETATM   26  O   UNL     1     -12.083  13.187  68.610  1.00  0.00    -0.315 OA 
BRANCH  26  27
HETATM   27  C   UNL     1     -11.963  14.496  69.034  1.00  0.00    -0.299 C  
HETATM   28  O   UNL     1     -11.771  15.427  68.259  1.00  0.00    -0.360 OA 
BRANCH  27  29
HETATM   29  C   UNL     1     -12.093  14.706  70.575  1.00  0.00    -0.388 C  
HETATM   30  C   UNL     1     -11.647  16.104  71.062  1.00  0.00    -0.434 C  
ENDBRANCH  27  29
ENDBRANCH  26  27
ENDBRANCH  25  26
ENDBRANCH  23  25
ENDBRANCH   4  23
BRANCH   4  31
HETATM   31  O   UNL     1      -8.965  10.760  69.206  1.00  0.00    -0.136 OA 
BRANCH  31  32
HETATM   32  C   UNL     1      -9.260   9.825  70.182  1.00  0.00    -0.208 C  
HETATM   33  O   UNL     1      -8.473   9.018  70.649  1.00  0.00    -0.158 OA 
BRANCH  32  34
HETATM   34  O   UNL     1     -10.497  10.058  70.737  1.00  0.00    -0.257 OA 
BRANCH  34  35
HETATM   35  C   UNL     1     -11.280   8.846  70.873  1.00  0.00    -0.279 C  
HETATM   36  C   UNL     1     -12.286   8.873  72.014  1.00  0.00    -0.447 C  
ENDBRANCH  34  35
ENDBRANCH  32  34
ENDBRANCH  31  32
ENDBRANCH   4  31
TORSDOF 9
ENDMDL
MODEL       72
REMARK 921   NORMALIZED FREE ENERGY PREDICTED BY IDOCK:   -4.31 KCAL/MOL
REMARK 922        TOTAL FREE ENERGY PREDICTED BY IDOCK:   -6.44 KCAL/MOL
REMARK 923 INTER-LIGAND FREE ENERGY PREDICTED BY IDOCK:   -8.29 KCAL/MOL
REMARK 924 INTRA-LIGAND FREE ENERGY PREDICTED BY IDOCK:    1.84 KCAL/MOL
REMARK 927      BINDING AFFINITY PREDICTED BY RF-SCORE:    0.00 PKD
ROOT
HETATM    1  C   UNL     1      -9.859  10.158  65.419  1.00  0.00    -0.375 C  
HETATM    2  C   UNL     1      -9.051  10.811  64.452  1.00  0.00    -0.217 C  
HETATM    3  C   UNL     1      -8.556  10.717  65.857  1.00  0.00    -0.177 C  
HETATM    4  C   UNL     1      -9.457   9.335  67.135  1.00  0.00    -0.149 C  
HETATM    5  C   UNL     1     -11.320  12.728  69.435  1.00  0.00    -0.267 C  
HETATM    6  C   UNL     1     -10.494  13.394  68.329  1.00  0.00    -0.256 C  
HETATM    7  C   UNL     1      -8.369   9.291  66.295  1.00  0.00    -0.124 C  
HETATM    8  C   UNL     1      -9.394  14.466  68.757  1.00  0.00    -0.150 C  
HETATM    9  C   UNL     1      -7.826   8.117  65.511  1.00  0.00    -0.104 C  
HETATM   10  C   UNL     1      -7.505  10.320  67.652  1.00  0.00    -0.089 C  
HETATM   11  O   UNL     1     -11.301  16.409  69.616  1.00  0.00    -0.295 OA 
HETATM   12  C   UNL     1      -9.318  15.754  68.383  1.00  0.00    -0.196 C  
HETATM   13  C   UNL     1     -10.821  15.978  68.576  1.00  0.00    -0.304 C  
HETATM   14  C   UNL     1     -11.620  15.446  67.466  1.00  0.00    -0.176 C  
HETATM   15  C   UNL     1      -8.606  11.381  68.421  1.00  0.00    -0.156 C  
HETATM   16  C   UNL     1     -11.503  14.110  67.390  1.00  0.00    -0.369 C  
HETATM   17  C   UNL     1     -12.364  13.292  66.467  1.00  0.00    -0.311 C  
HETATM   18  C   UNL     1      -9.700  12.300  67.540  1.00  0.00    -0.190 C  
HETATM   19  O   UNL     1      -9.288  10.566  69.389  1.00  0.00    -0.306 OA 
HETATM   20  C   UNL     1     -11.560  12.302  65.641  1.00  0.00    -0.433 C  
HETATM   21  C   UNL     1     -10.663  11.412  66.506  1.00  0.00    -0.325 C  
HETATM   22  H   UNL     1      -9.899  11.155  69.815  1.00  0.00     0.000 HD 
ENDROOT
BRANCH   4  23
HETATM   23  C   UNL     1      -8.753   8.092  68.298  1.00  0.00    -0.133 C  
HETATM   24  O   UNL     1      -7.729   7.435  68.018  1.00  0.00    -0.111 OA 
BRANCH  23  25
HETATM   25  C   UNL     1      -9.386   7.630  69.714  1.00  0.00    -0.150 C  
BRANCH  25  26
HETATM   26  O   UNL     1      -8.639   8.302  70.887  1.00  0.00    -0.123 OA 
BRANCH  26  27
HETATM   27  C   UNL     1      -9.203   8.433  72.141  1.00  0.00    -0.243 C  
HETATM   28  O   UNL     1      -8.535   8.646  73.147  1.00  0.00    -0.398 OA 
BRANCH  27  29
HETATM   29  C   UNL     1     -10.757   8.291  72.184  1.00  0.00    -0.389 C  
HETATM   30  C   UNL     1     -11.519   9.520  71.637  1.00  0.00    -0.433 C  
ENDBRANCH  27  29
ENDBRANCH  26  27
ENDBRANCH  25  26
ENDBRANCH  23  25
ENDBRANCH   4  23
BRANCH   4  31
HETATM   31  O   UNL     1     -10.468   8.233  66.525  1.00  0.00    -0.255 OA 
BRANCH  31  32
HETATM   32  C   UNL     1     -10.588   6.914  66.924  1.00  0.00    -0.302 C  
HETATM   33  O   UNL     1     -11.349   6.502  67.785  1.00  0.00    -0.258 OA 
BRANCH  32  34
HETATM   34  O   UNL     1      -9.905   6.074  66.075  1.00  0.00    -0.050 OA 
BRANCH  34  35
HETATM   35  C   UNL     1     -10.263   4.683  66.268  1.00  0.00    -0.275 C  
HETATM   36  C   UNL     1      -9.169   3.835  66.900  1.00  0.00    -0.198 C  
ENDBRANCH  34  35
ENDBRANCH  32  34
ENDBRANCH  31  32
ENDBRANCH   4  31
TORSDOF 9
ENDMDL
MODEL       73
REMARK 921   NORMALIZED FREE ENERGY PREDICTED BY IDOCK:   -4.29 KCAL/MOL
REMARK 922        TOTAL FREE ENERGY PREDICTED BY IDOCK:   -6.42 KCAL/MOL
REMARK 923 INTER-LIGAND FREE ENERGY PREDICTED BY IDOCK:   -6.44 KCAL/MOL
REMARK 924 INTRA-LIGAND FREE ENERGY PREDICTED BY IDOCK:    0.03 KCAL/MOL
REMARK 927      BINDING AFFINITY PREDICTED BY RF-SCORE:    0.00 PKD
ROOT
HETATM    1  C   UNL     1      -8.114  11.813  67.372  1.00  0.00    -0.161 C  
HETATM    2  C   UNL     1      -7.555  12.685  68.341  1.00  0.00    -0.132 C  
HETATM    3  C   UNL     1      -7.173  11.243  68.368  1.00  0.00    -0.085 C  
HETATM    4  C   UNL     1      -7.555  10.085  66.674  1.00  0.00    -0.104 C  
HETATM    5  C   UNL     1     -10.770   7.894  68.940  1.00  0.00    -0.098 C  
HETATM    6  C   UNL     1     -10.189   8.903  69.936  1.00  0.00    -0.209 C  
HETATM    7  C   UNL     1      -6.475  10.821  67.104  1.00  0.00    -0.074 C  
HETATM    8  C   UNL     1      -9.634   8.351  71.325  1.00  0.00    -0.239 C  
HETATM    9  C   UNL     1      -5.457  11.577  66.280  1.00  0.00    -0.015 C  
HETATM   10  C   UNL     1      -6.191   9.367  68.309  1.00  0.00    -0.053 C  
HETATM   11  O   UNL     1     -12.210   7.630  72.322  1.00  0.00    -0.285 OA 
HETATM   12  C   UNL     1     -10.040   8.687  72.560  1.00  0.00    -0.242 C  
HETATM   13  C   UNL     1     -11.521   8.630  72.171  1.00  0.00    -0.373 C  
HETATM   14  C   UNL     1     -11.960   9.821  71.435  1.00  0.00    -0.493 C  
HETATM   15  C   UNL     1      -7.676   8.680  68.813  1.00  0.00    -0.097 C  
HETATM   16  C   UNL     1     -11.322   9.916  70.255  1.00  0.00    -0.357 C  
HETATM   17  C   UNL     1     -11.719  10.933  69.221  1.00  0.00    -0.395 C  
HETATM   18  C   UNL     1      -8.971   9.639  69.284  1.00  0.00    -0.173 C  
HETATM   19  O   UNL     1      -8.056   7.799  67.744  1.00  0.00    -0.121 OA 
HETATM   20  C   UNL     1     -10.531  11.702  68.670  1.00  0.00    -0.234 C  
HETATM   21  C   UNL     1      -9.426  10.777  68.151  1.00  0.00    -0.161 C  
HETATM   22  H   UNL     1      -8.879   7.418  68.024  1.00  0.00     0.000 HD 
ENDROOT
BRANCH   4  23
HETATM   23  C   UNL     1      -6.512   8.889  65.739  1.00  0.00    -0.060 C  
HETATM   24  O   UNL     1      -5.279   8.809  65.921  1.00  0.00    -0.033 OA 
BRANCH  23  25
HETATM   25  C   UNL     1      -7.001   7.910  64.547  1.00  0.00    -0.071 C  
BRANCH  25  26
HETATM   26  O   UNL     1      -8.239   7.099  64.985  1.00  0.00    -0.134 OA 
BRANCH  26  27
HETATM   27  C   UNL     1      -8.221   5.720  65.082  1.00  0.00    -0.140 C  
HETATM   28  O   UNL     1      -8.089   5.135  66.151  1.00  0.00    -0.106 OA 
BRANCH  27  29
HETATM   29  C   UNL     1      -8.382   4.961  63.728  1.00  0.00    -0.127 C  
HETATM   30  C   UNL     1      -9.620   4.036  63.667  1.00  0.00    -0.156 C  
ENDBRANCH  27  29
ENDBRANCH  26  27
ENDBRANCH  25  26
ENDBRANCH  23  25
ENDBRANCH   4  23
BRANCH   4  31
HETATM   31  O   UNL     1      -8.002  10.810  65.303  1.00  0.00    -0.107 OA 
BRANCH  31  32
HETATM   32  C   UNL     1      -9.100  10.494  64.522  1.00  0.00    -0.222 C  
HETATM   33  O   UNL     1     -10.032   9.785  64.867  1.00  0.00    -0.252 OA 
BRANCH  32  34
HETATM   34  O   UNL     1      -9.135  11.259  63.380  1.00  0.00    -0.183 OA 
BRANCH  34  35
HETATM   35  C   UNL     1     -10.360  12.027  63.266  1.00  0.00    -0.359 C  
HETATM   36  C   UNL     1     -10.701  12.851  64.499  1.00  0.00    -0.392 C  
ENDBRANCH  34  35
ENDBRANCH  32  34
ENDBRANCH  31  32
ENDBRANCH   4  31
TORSDOF 9
ENDMDL
MODEL       74
REMARK 921   NORMALIZED FREE ENERGY PREDICTED BY IDOCK:   -4.27 KCAL/MOL
REMARK 922        TOTAL FREE ENERGY PREDICTED BY IDOCK:   -6.38 KCAL/MOL
REMARK 923 INTER-LIGAND FREE ENERGY PREDICTED BY IDOCK:   -5.75 KCAL/MOL
REMARK 924 INTRA-LIGAND FREE ENERGY PREDICTED BY IDOCK:   -0.63 KCAL/MOL
REMARK 927      BINDING AFFINITY PREDICTED BY RF-SCORE:    0.00 PKD
ROOT
HETATM    1  C   UNL     1      -8.535   8.705  69.600  1.00  0.00    -0.129 C  
HETATM    2  C   UNL     1      -9.422   9.141  70.618  1.00  0.00    -0.316 C  
HETATM    3  C   UNL     1      -9.994   8.578  69.360  1.00  0.00    -0.194 C  
HETATM    4  C   UNL     1      -8.742   7.470  68.111  1.00  0.00    -0.122 C  
HETATM    5  C   UNL     1      -8.860  10.806  65.089  1.00  0.00    -0.199 C  
HETATM    6  C   UNL     1      -9.752  11.274  66.244  1.00  0.00    -0.246 C  
HETATM    7  C   UNL     1      -9.587   7.146  69.147  1.00  0.00    -0.154 C  
HETATM    8  C   UNL     1     -11.255  11.690  65.911  1.00  0.00    -0.296 C  
HETATM    9  C   UNL     1      -9.457   6.032  70.161  1.00  0.00    -0.182 C  
HETATM   10  C   UNL     1     -10.976   7.439  67.868  1.00  0.00    -0.065 C  
HETATM   11  O   UNL     1     -10.519  14.036  64.461  1.00  0.00    -0.424 OA 
HETATM   12  C   UNL     1     -11.843  12.877  66.129  1.00  0.00    -0.487 C  
HETATM   13  C   UNL     1     -10.628  13.659  65.620  1.00  0.00    -0.293 C  
HETATM   14  C   UNL     1      -9.547  13.734  66.609  1.00  0.00    -0.295 C  
HETATM   15  C   UNL     1     -10.557   8.686  66.773  1.00  0.00    -0.153 C  
HETATM   16  C   UNL     1      -9.053  12.511  66.872  1.00  0.00    -0.213 C  
HETATM   17  C   UNL     1      -7.814  12.320  67.702  1.00  0.00    -0.156 C  
HETATM   18  C   UNL     1      -9.880  10.128  67.302  1.00  0.00    -0.226 C  
HETATM   19  O   UNL     1      -9.712   8.053  65.799  1.00  0.00    -0.428 OA 
HETATM   20  C   UNL     1      -7.993  11.270  68.786  1.00  0.00    -0.137 C  
HETATM   21  C   UNL     1      -8.505   9.938  68.230  1.00  0.00    -0.111 C  
HETATM   22  H   UNL     1      -9.480   8.745  65.192  1.00  0.00     0.000 HD 
ENDROOT
BRANCH   4  23
HETATM   23  C   UNL     1      -8.965   5.846  67.271  1.00  0.00    -0.108 C  
HETATM   24  O   UNL     1      -8.618   5.665  66.085  1.00  0.00    -0.123 OA 
BRANCH  23  25
HETATM   25  C   UNL     1      -9.695   4.537  67.882  1.00  0.00    -0.139 C  
BRANCH  25  26
HETATM   26  O   UNL     1      -8.965   3.251  67.436  1.00  0.00    -0.123 OA 
BRANCH  26  27
HETATM   27  C   UNL     1      -7.766   2.853  67.996  1.00  0.00    -0.056 C  
HETATM   28  O   UNL     1      -6.755   2.665  67.328  1.00  0.00    -0.039 OA 
BRANCH  27  29
HETATM   29  C   UNL     1      -7.793   2.659  69.544  1.00  0.00    -0.049 C  
HETATM   30  C   UNL     1      -6.699   3.450  70.299  1.00  0.00    -0.033 C  
ENDBRANCH  27  29
ENDBRANCH  26  27
ENDBRANCH  25  26
ENDBRANCH  23  25
ENDBRANCH   4  23
BRANCH   4  31
HETATM   31  O   UNL     1      -7.283   7.027  68.642  1.00  0.00    -0.088 OA 
BRANCH  31  32
HETATM   32  C   UNL     1      -6.147   6.840  67.874  1.00  0.00    -0.032 C  
HETATM   33  O   UNL     1      -5.527   5.793  67.773  1.00  0.00    -0.007 OA 
BRANCH  32  34
HETATM   34  O   UNL     1      -5.921   7.918  67.050  1.00  0.00    -0.048 OA 
BRANCH  34  35
HETATM   35  C   UNL     1      -5.410   7.524  65.752  1.00  0.00    -0.028 C  
HETATM   36  C   UNL     1      -6.282   7.948  64.580  1.00  0.00    -0.052 C  
ENDBRANCH  34  35
ENDBRANCH  32  34
ENDBRANCH  31  32
ENDBRANCH   4  31
TORSDOF 9
ENDMDL
MODEL       75
REMARK 921   NORMALIZED FREE ENERGY PREDICTED BY IDOCK:   -4.27 KCAL/MOL
REMARK 922        TOTAL FREE ENERGY PREDICTED BY IDOCK:   -6.38 KCAL/MOL
REMARK 923 INTER-LIGAND FREE ENERGY PREDICTED BY IDOCK:   -6.47 KCAL/MOL
REMARK 924 INTRA-LIGAND FREE ENERGY PREDICTED BY IDOCK:    0.09 KCAL/MOL
REMARK 927      BINDING AFFINITY PREDICTED BY RF-SCORE:    0.00 PKD
ROOT
HETATM    1  C   UNL     1      -6.985   9.389  69.309  1.00  0.00    -0.053 C  
HETATM    2  C   UNL     1      -6.586  10.564  69.997  1.00  0.00    -0.144 C  
HETATM    3  C   UNL     1      -7.954  10.020  70.238  1.00  0.00    -0.039 C  
HETATM    4  C   UNL     1      -8.356   8.054  69.663  1.00  0.00    -0.126 C  
HETATM    5  C   UNL     1     -11.004   9.595  66.365  1.00  0.00     0.352 C  
HETATM    6  C   UNL     1     -10.492  10.845  67.089  1.00  0.00    -0.281 C  
HETATM    7  C   UNL     1      -7.916   8.637  70.829  1.00  0.00    -0.127 C  
HETATM    8  C   UNL     1     -11.566  11.878  67.655  1.00  0.00    -0.382 C  
HETATM    9  C   UNL     1      -6.980   8.074  71.874  1.00  0.00    -0.072 C  
HETATM   10  C   UNL     1      -9.734   9.187  71.029  1.00  0.00    -0.359 C  
HETATM   11  O   UNL     1     -12.424  12.741  65.072  1.00  0.00    -0.483 OA 
HETATM   12  C   UNL     1     -11.694  13.178  67.344  1.00  0.00    -0.419 C  
HETATM   13  C   UNL     1     -11.493  12.918  65.847  1.00  0.00    -0.346 C  
HETATM   14  C   UNL     1     -10.084  12.717  65.491  1.00  0.00    -0.279 C  
HETATM   15  C   UNL     1     -10.452   9.518  69.511  1.00  0.00    -0.220 C  
HETATM   16  C   UNL     1      -9.596  11.609  66.076  1.00  0.00    -0.249 C  
HETATM   17  C   UNL     1      -8.238  11.064  65.730  1.00  0.00    -0.064 C  
HETATM   18  C   UNL     1      -9.653  10.416  68.339  1.00  0.00    -0.153 C  
HETATM   19  O   UNL     1     -10.835   8.233  68.996  1.00  0.00    -0.401 OA 
HETATM   20  C   UNL     1      -7.405  10.745  66.959  1.00  0.00    -0.110 C  
HETATM   21  C   UNL     1      -8.141   9.830  67.942  1.00  0.00    -0.112 C  
HETATM   22  H   UNL     1     -11.233   8.417  68.154  1.00  0.00     0.000 HD 
ENDROOT
BRANCH   4  23
HETATM   23  C   UNL     1      -9.180   6.659  70.539  1.00  0.00    -0.156 C  
HETATM   24  O   UNL     1      -9.836   5.792  69.924  1.00  0.00    -0.162 OA 
BRANCH  23  25
HETATM   25  C   UNL     1      -9.255   6.436  72.140  1.00  0.00    -0.140 C  
BRANCH  25  26
HETATM   26  O   UNL     1     -10.612   6.924  72.692  1.00  0.00    -0.211 OA 
BRANCH  26  27
HETATM   27  C   UNL     1     -11.800   6.281  72.401  1.00  0.00    -0.226 C  
HETATM   28  O   UNL     1     -12.033   5.130  72.754  1.00  0.00    -0.179 OA 
BRANCH  27  29
HETATM   29  C   UNL     1     -12.828   7.131  71.590  1.00  0.00    -0.420 C  
HETATM   30  C   UNL     1     -13.053   8.555  72.150  1.00  0.00    -0.393 C  
ENDBRANCH  27  29
ENDBRANCH  26  27
ENDBRANCH  25  26
ENDBRANCH  23  25
ENDBRANCH   4  23
BRANCH   4  31
HETATM   31  O   UNL     1      -7.135   7.093  69.222  1.00  0.00    -0.074 OA 
BRANCH  31  32
HETATM   32  C   UNL     1      -7.194   6.050  68.314  1.00  0.00    -0.084 C  
HETATM   33  O   UNL     1      -6.819   4.908  68.524  1.00  0.00    -0.049 OA 
BRANCH  32  34
HETATM   34  O   UNL     1      -7.939   6.394  67.210  1.00  0.00    -0.110 OA 
BRANCH  34  35
HETATM   35  C   UNL     1      -8.586   5.249  66.601  1.00  0.00    -0.110 C  
HETATM   36  C   UNL     1      -7.906   4.741  65.338  1.00  0.00    -0.091 C  
ENDBRANCH  34  35
ENDBRANCH  32  34
ENDBRANCH  31  32
ENDBRANCH   4  31
TORSDOF 9
ENDMDL
MODEL       76
REMARK 921   NORMALIZED FREE ENERGY PREDICTED BY IDOCK:   -4.25 KCAL/MOL
REMARK 922        TOTAL FREE ENERGY PREDICTED BY IDOCK:   -6.35 KCAL/MOL
REMARK 923 INTER-LIGAND FREE ENERGY PREDICTED BY IDOCK:   -6.18 KCAL/MOL
REMARK 924 INTRA-LIGAND FREE ENERGY PREDICTED BY IDOCK:   -0.17 KCAL/MOL
REMARK 927      BINDING AFFINITY PREDICTED BY RF-SCORE:    0.00 PKD
ROOT
HETATM    1  C   UNL     1      -9.047   7.746  69.698  1.00  0.00    -0.146 C  
HETATM    2  C   UNL     1     -10.201   7.970  70.493  1.00  0.00    -0.201 C  
HETATM    3  C   UNL     1     -10.377   7.578  69.063  1.00  0.00    -0.217 C  
HETATM    4  C   UNL     1      -8.750   6.748  68.055  1.00  0.00    -0.118 C  
HETATM    5  C   UNL     1      -8.405  10.500  65.591  1.00  0.00    -0.167 C  
HETATM    6  C   UNL     1      -9.602  10.734  66.519  1.00  0.00    -0.217 C  
HETATM    7  C   UNL     1      -9.798   6.221  68.775  1.00  0.00    -0.156 C  
HETATM    8  C   UNL     1     -11.002  11.113  65.857  1.00  0.00    -0.171 C  
HETATM    9  C   UNL     1      -9.826   4.972  69.626  1.00  0.00    -0.290 C  
HETATM   10  C   UNL     1     -10.835   6.631  67.224  1.00  0.00    -0.456 C  
HETATM   11  O   UNL     1     -10.144  13.693  64.986  1.00  0.00    -0.328 OA 
HETATM   12  C   UNL     1     -11.736  12.218  66.069  1.00  0.00    -0.451 C  
HETATM   13  C   UNL     1     -10.510  13.135  66.012  1.00  0.00    -0.284 C  
HETATM   14  C   UNL     1      -9.728  13.114  67.254  1.00  0.00    -0.230 C  
HETATM   15  C   UNL     1     -10.270   8.055  66.459  1.00  0.00    -0.158 C  
HETATM   16  C   UNL     1      -9.206  11.895  67.471  1.00  0.00    -0.177 C  
HETATM   17  C   UNL     1      -8.208  11.646  68.567  1.00  0.00    -0.144 C  
HETATM   18  C   UNL     1      -9.888   9.432  67.340  1.00  0.00    -0.222 C  
HETATM   19  O   UNL     1      -9.148   7.628  65.669  1.00  0.00    -0.374 OA 
HETATM   20  C   UNL     1      -8.558  10.432  69.412  1.00  0.00    -0.143 C  
HETATM   21  C   UNL     1      -8.784   9.176  68.565  1.00  0.00    -0.129 C  
HETATM   22  H   UNL     1      -8.834   8.417  65.245  1.00  0.00     0.000 HD 
ENDROOT
BRANCH   4  23
HETATM   23  C   UNL     1      -8.598   5.263  66.974  1.00  0.00    -0.105 C  
HETATM   24  O   UNL     1      -7.691   5.160  66.122  1.00  0.00    -0.090 OA 
BRANCH  23  25
HETATM   25  C   UNL     1      -9.619   4.010  66.909  1.00  0.00    -0.207 C  
BRANCH  25  26
HETATM   26  O   UNL     1      -9.573   3.345  65.516  1.00  0.00    -0.154 OA 
BRANCH  26  27
HETATM   27  C   UNL     1     -10.278   3.845  64.438  1.00  0.00    -0.230 C  
HETATM   28  O   UNL     1     -11.468   4.131  64.501  1.00  0.00    -0.230 OA 
BRANCH  27  29
HETATM   29  C   UNL     1      -9.444   4.021  63.129  1.00  0.00    -0.139 C  
HETATM   30  C   UNL     1      -8.096   3.264  63.133  1.00  0.00    -0.077 C  
ENDBRANCH  27  29
ENDBRANCH  26  27
ENDBRANCH  25  26
ENDBRANCH  23  25
ENDBRANCH   4  23
BRANCH   4  31
HETATM   31  O   UNL     1      -7.440   6.308  68.891  1.00  0.00    -0.083 OA 
BRANCH  31  32
HETATM   32  C   UNL     1      -6.122   6.525  68.532  1.00  0.00    -0.025 C  
HETATM   33  O   UNL     1      -5.725   7.423  67.808  1.00  0.00    -0.028 OA 
BRANCH  32  34
HETATM   34  O   UNL     1      -5.269   5.739  69.273  1.00  0.00    -0.004 OA 
BRANCH  34  35
HETATM   35  C   UNL     1      -5.978   4.800  70.120  1.00  0.00    -0.021 C  
HETATM   36  C   UNL     1      -5.628   4.900  71.597  1.00  0.00    -0.008 C  
ENDBRANCH  34  35
ENDBRANCH  32  34
ENDBRANCH  31  32
ENDBRANCH   4  31
TORSDOF 9
ENDMDL
MODEL       77
REMARK 921   NORMALIZED FREE ENERGY PREDICTED BY IDOCK:   -4.24 KCAL/MOL
REMARK 922        TOTAL FREE ENERGY PREDICTED BY IDOCK:   -6.33 KCAL/MOL
REMARK 923 INTER-LIGAND FREE ENERGY PREDICTED BY IDOCK:   -6.05 KCAL/MOL
REMARK 924 INTRA-LIGAND FREE ENERGY PREDICTED BY IDOCK:   -0.29 KCAL/MOL
REMARK 927      BINDING AFFINITY PREDICTED BY RF-SCORE:    0.00 PKD
ROOT
HETATM    1  C   UNL     1      -7.997   9.562  68.825  1.00  0.00    -0.088 C  
HETATM    2  C   UNL     1      -7.058  10.185  69.687  1.00  0.00    -0.115 C  
HETATM    3  C   UNL     1      -6.900   8.732  69.380  1.00  0.00    -0.049 C  
HETATM    4  C   UNL     1      -7.926   7.948  67.741  1.00  0.00    -0.124 C  
HETATM    5  C   UNL     1     -10.622   5.690  70.553  1.00  0.00    -0.354 C  
HETATM    6  C   UNL     1      -9.633   6.438  71.453  1.00  0.00    -0.173 C  
HETATM    7  C   UNL     1      -6.671   8.487  67.914  1.00  0.00    -0.066 C  
HETATM    8  C   UNL     1      -8.783   5.590  72.502  1.00  0.00    -0.124 C  
HETATM    9  C   UNL     1      -5.840   9.282  66.933  1.00  0.00    -0.051 C  
HETATM   10  C   UNL     1      -6.263   6.815  68.743  1.00  0.00    -0.027 C  
HETATM   11  O   UNL     1     -11.032   4.944  74.138  1.00  0.00    -0.310 OA 
HETATM   12  C   UNL     1      -8.757   5.729  73.838  1.00  0.00    -0.117 C  
HETATM   13  C   UNL     1     -10.278   5.885  73.928  1.00  0.00    -0.257 C  
HETATM   14  C   UNL     1     -10.734   7.228  73.549  1.00  0.00    -0.367 C  
HETATM   15  C   UNL     1      -7.619   6.190  69.580  1.00  0.00    -0.094 C  
HETATM   16  C   UNL     1     -10.463   7.477  72.256  1.00  0.00    -0.275 C  
HETATM   17  C   UNL     1     -10.992   8.700  71.559  1.00  0.00    -0.360 C  
HETATM   18  C   UNL     1      -8.566   7.164  70.568  1.00  0.00    -0.144 C  
HETATM   19  O   UNL     1      -8.420   5.561  68.567  1.00  0.00    -0.100 OA 
HETATM   20  C   UNL     1      -9.917   9.443  70.783  1.00  0.00    -0.358 C  
HETATM   21  C   UNL     1      -9.161   8.529  69.814  1.00  0.00    -0.153 C  
HETATM   22  H   UNL     1      -9.172   5.215  69.031  1.00  0.00     0.000 HD 
ENDROOT
BRANCH   4  23
HETATM   23  C   UNL     1      -7.388   6.852  66.361  1.00  0.00    -0.073 C  
HETATM   24  O   UNL     1      -6.215   6.432  66.273  1.00  0.00    -0.035 OA 
BRANCH  23  25
HETATM   25  C   UNL     1      -8.279   6.395  65.090  1.00  0.00    -0.134 C  
BRANCH  25  26
HETATM   26  O   UNL     1      -9.401   5.431  65.533  1.00  0.00    -0.136 OA 
BRANCH  26  27
HETATM   27  C   UNL     1      -9.222   4.061  65.572  1.00  0.00    -0.150 C  
HETATM   28  O   UNL     1      -9.092   3.441  66.621  1.00  0.00    -0.143 OA 
BRANCH  27  29
HETATM   29  C   UNL     1      -9.199   3.359  64.178  1.00  0.00    -0.127 C  
HETATM   30  C   UNL     1     -10.441   3.650  63.303  1.00  0.00    -0.237 C  
ENDBRANCH  27  29
ENDBRANCH  26  27
ENDBRANCH  25  26
ENDBRANCH  23  25
ENDBRANCH   4  23
BRANCH   4  31
HETATM   31  O   UNL     1      -8.644   8.952  66.701  1.00  0.00    -0.119 OA 
BRANCH  31  32
HETATM   32  C   UNL     1      -9.985   8.968  66.361  1.00  0.00    -0.300 C  
HETATM   33  O   UNL     1     -10.827   8.186  66.772  1.00  0.00    -0.197 OA 
BRANCH  32  34
HETATM   34  O   UNL     1     -10.311  10.116  65.676  1.00  0.00    -0.240 OA 
BRANCH  34  35
HETATM   35  C   UNL     1      -9.213  11.061  65.628  1.00  0.00    -0.210 C  
HETATM   36  C   UNL     1      -9.426  12.312  66.468  1.00  0.00    -0.238 C  
ENDBRANCH  34  35
ENDBRANCH  32  34
ENDBRANCH  31  32
ENDBRANCH   4  31
TORSDOF 9
ENDMDL
MODEL       78
REMARK 921   NORMALIZED FREE ENERGY PREDICTED BY IDOCK:   -4.21 KCAL/MOL
REMARK 922        TOTAL FREE ENERGY PREDICTED BY IDOCK:   -6.28 KCAL/MOL
REMARK 923 INTER-LIGAND FREE ENERGY PREDICTED BY IDOCK:   -6.70 KCAL/MOL
REMARK 924 INTRA-LIGAND FREE ENERGY PREDICTED BY IDOCK:    0.42 KCAL/MOL
REMARK 927      BINDING AFFINITY PREDICTED BY RF-SCORE:    0.00 PKD
ROOT
HETATM    1  C   UNL     1      -7.163  10.509  67.940  1.00  0.00    -0.084 C  
HETATM    2  C   UNL     1      -6.229  11.307  67.231  1.00  0.00    -0.081 C  
HETATM    3  C   UNL     1      -7.580  11.084  66.638  1.00  0.00    -0.146 C  
HETATM    4  C   UNL     1      -9.103  10.379  67.879  1.00  0.00    -0.132 C  
HETATM    5  C   UNL     1      -8.979   6.426  65.728  1.00  0.00    -0.068 C  
HETATM    6  C   UNL     1      -7.926   7.296  65.034  1.00  0.00    -0.129 C  
HETATM    7  C   UNL     1      -8.676  11.634  67.509  1.00  0.00    -0.156 C  
HETATM    8  C   UNL     1      -8.042   7.501  63.457  1.00  0.00    -0.023 C  
HETATM    9  C   UNL     1      -8.704  12.916  68.309  1.00  0.00    -0.168 C  
HETATM   10  C   UNL     1      -9.541  11.243  65.851  1.00  0.00    -0.249 C  
HETATM   11  O   UNL     1      -7.382   4.793  62.835  1.00  0.00    -0.046 OA 
HETATM   12  C   UNL     1      -7.130   7.185  62.523  1.00  0.00    -0.070 C  
HETATM   13  C   UNL     1      -6.824   5.831  63.169  1.00  0.00    -0.036 C  
HETATM   14  C   UNL     1      -5.947   5.946  64.340  1.00  0.00    -0.025 C  
HETATM   15  C   UNL     1      -9.420   9.580  65.465  1.00  0.00    -0.268 C  
HETATM   16  C   UNL     1      -6.548   6.641  65.321  1.00  0.00    -0.050 C  
HETATM   17  C   UNL     1      -5.951   6.744  66.697  1.00  0.00    -0.029 C  
HETATM   18  C   UNL     1      -7.973   8.744  65.629  1.00  0.00    -0.103 C  
HETATM   19  O   UNL     1     -10.461   8.948  66.226  1.00  0.00    -0.264 OA 
HETATM   20  C   UNL     1      -5.918   8.171  67.216  1.00  0.00    -0.050 C  
HETATM   21  C   UNL     1      -7.290   8.849  67.149  1.00  0.00    -0.084 C  
HETATM   22  H   UNL     1     -10.394   8.025  66.013  1.00  0.00     0.000 HD 
ENDROOT
BRANCH   4  23
HETATM   23  C   UNL     1     -10.849  10.918  68.114  1.00  0.00    -0.234 C  
HETATM   24  O   UNL     1     -11.651  10.984  67.160  1.00  0.00    -0.469 OA 
BRANCH  23  25
HETATM   25  C   UNL     1     -11.515  11.452  69.489  1.00  0.00    -0.312 C  
BRANCH  25  26
HETATM   26  O   UNL     1     -12.266  10.309  70.207  1.00  0.00    -0.267 OA 
BRANCH  26  27
HETATM   27  C   UNL     1     -12.887  10.489  71.428  1.00  0.00    -0.447 C  
HETATM   28  O   UNL     1     -13.124  11.599  71.892  1.00  0.00    -0.478 OA 
BRANCH  27  29
HETATM   29  C   UNL     1     -13.267   9.172  72.175  1.00  0.00    -0.524 C  
HETATM   30  C   UNL     1     -12.262   8.015  71.967  1.00  0.00    -0.374 C  
ENDBRANCH  27  29
ENDBRANCH  26  27
ENDBRANCH  25  26
ENDBRANCH  23  25
ENDBRANCH   4  23
BRANCH   4  31
HETATM   31  O   UNL     1      -8.870  10.341  69.476  1.00  0.00    -0.187 OA 
BRANCH  31  32
HETATM   32  C   UNL     1      -8.951   9.229  70.295  1.00  0.00    -0.229 C  
HETATM   33  O   UNL     1      -9.523   8.188  70.019  1.00  0.00    -0.166 OA 
BRANCH  32  34
HETATM   34  O   UNL     1      -8.112   9.348  71.380  1.00  0.00    -0.306 OA 
BRANCH  34  35
HETATM   35  C   UNL     1      -7.947   8.096  72.091  1.00  0.00    -0.128 C  
HETATM   36  C   UNL     1      -8.758   7.992  73.375  1.00  0.00    -0.323 C  
ENDBRANCH  34  35
ENDBRANCH  32  34
ENDBRANCH  31  32
ENDBRANCH   4  31
TORSDOF 9
ENDMDL
MODEL       79
REMARK 921   NORMALIZED FREE ENERGY PREDICTED BY IDOCK:   -4.20 KCAL/MOL
REMARK 922        TOTAL FREE ENERGY PREDICTED BY IDOCK:   -6.27 KCAL/MOL
REMARK 923 INTER-LIGAND FREE ENERGY PREDICTED BY IDOCK:   -6.28 KCAL/MOL
REMARK 924 INTRA-LIGAND FREE ENERGY PREDICTED BY IDOCK:    0.01 KCAL/MOL
REMARK 927      BINDING AFFINITY PREDICTED BY RF-SCORE:    0.00 PKD
ROOT
HETATM    1  C   UNL     1     -11.110   9.663  68.128  1.00  0.00    -0.109 C  
HETATM    2  C   UNL     1     -11.503   9.389  69.464  1.00  0.00     0.125 C  
HETATM    3  C   UNL     1     -10.076   9.729  69.190  1.00  0.00    -0.200 C  
HETATM    4  C   UNL     1      -9.604  10.633  67.369  1.00  0.00    -0.158 C  
HETATM    5  C   UNL     1      -7.556   6.844  66.058  1.00  0.00    -0.093 C  
HETATM    6  C   UNL     1      -8.062   6.560  67.476  1.00  0.00    -0.121 C  
HETATM    7  C   UNL     1      -9.926  11.112  68.618  1.00  0.00    -0.210 C  
HETATM    8  C   UNL     1      -7.005   6.076  68.567  1.00  0.00    -0.076 C  
HETATM    9  C   UNL     1     -10.665  12.380  68.983  1.00  0.00    -0.140 C  
HETATM   10  C   UNL     1      -8.146  10.595  69.078  1.00  0.00    -0.148 C  
HETATM   11  O   UNL     1      -6.575   3.532  67.344  1.00  0.00    -0.040 OA 
HETATM   12  C   UNL     1      -7.022   4.933  69.273  1.00  0.00    -0.051 C  
HETATM   13  C   UNL     1      -7.403   4.094  68.049  1.00  0.00    -0.064 C  
HETATM   14  C   UNL     1      -8.828   4.198  67.712  1.00  0.00    -0.130 C  
HETATM   15  C   UNL     1      -7.668   9.190  68.224  1.00  0.00    -0.091 C  
HETATM   16  C   UNL     1      -9.144   5.453  67.350  1.00  0.00    -0.111 C  
HETATM   17  C   UNL     1     -10.489   5.795  66.772  1.00  0.00    -0.350 C  
HETATM   18  C   UNL     1      -8.687   7.863  68.078  1.00  0.00    -0.125 C  
HETATM   19  O   UNL     1      -7.260   9.664  66.931  1.00  0.00    -0.089 OA 
HETATM   20  C   UNL     1     -11.121   7.006  67.437  1.00  0.00    -0.265 C  
HETATM   21  C   UNL     1     -10.189   8.222  67.442  1.00  0.00    -0.326 C  
HETATM   22  H   UNL     1      -6.996   8.885  66.458  1.00  0.00     0.000 HD 
ENDROOT
BRANCH   4  23
HETATM   23  C   UNL     1      -8.562  12.094  66.952  1.00  0.00    -0.191 C  
HETATM   24  O   UNL     1      -7.483  11.977  66.335  1.00  0.00     0.132 OA 
BRANCH  23  25
HETATM   25  C   UNL     1      -8.831  13.627  67.395  1.00  0.00    -0.221 C  
BRANCH  25  26
HETATM   26  O   UNL     1      -9.045  14.520  66.153  1.00  0.00    -0.198 OA 
BRANCH  26  27
HETATM   27  C   UNL     1     -10.118  15.384  66.043  1.00  0.00    -0.324 C  
HETATM   28  O   UNL     1     -10.458  15.882  64.976  1.00  0.00    -0.518 OA 
BRANCH  27  29
HETATM   29  C   UNL     1     -10.867  15.679  67.380  1.00  0.00    -0.315 C  
HETATM   30  C   UNL     1     -10.719  17.135  67.880  1.00  0.00    -0.355 C  
ENDBRANCH  27  29
ENDBRANCH  26  27
ENDBRANCH  25  26
ENDBRANCH  23  25
ENDBRANCH   4  23
BRANCH   4  31
HETATM   31  O   UNL     1     -10.794  11.177  66.422  1.00  0.00    -0.270 OA 
BRANCH  31  32
HETATM   32  C   UNL     1     -10.742  11.355  65.051  1.00  0.00    -0.277 C  
HETATM   33  O   UNL     1     -10.931  12.410  64.468  1.00  0.00    -0.287 OA 
BRANCH  32  34
HETATM   34  O   UNL     1     -10.223  10.245  64.425  1.00  0.00    -0.298 OA 
BRANCH  34  35
HETATM   35  C   UNL     1      -9.940  10.483  63.024  1.00  0.00    -0.104 C  
HETATM   36  C   UNL     1      -8.982   9.479  62.399  1.00  0.00    -0.279 C  
ENDBRANCH  34  35
ENDBRANCH  32  34
ENDBRANCH  31  32
ENDBRANCH   4  31
TORSDOF 9
ENDMDL
MODEL       80
REMARK 921   NORMALIZED FREE ENERGY PREDICTED BY IDOCK:   -4.19 KCAL/MOL
REMARK 922        TOTAL FREE ENERGY PREDICTED BY IDOCK:   -6.27 KCAL/MOL
REMARK 923 INTER-LIGAND FREE ENERGY PREDICTED BY IDOCK:   -6.84 KCAL/MOL
REMARK 924 INTRA-LIGAND FREE ENERGY PREDICTED BY IDOCK:    0.57 KCAL/MOL
REMARK 927      BINDING AFFINITY PREDICTED BY RF-SCORE:    0.00 PKD
ROOT
HETATM    1  C   UNL     1      -8.198  12.050  67.877  1.00  0.00    -0.153 C  
HETATM    2  C   UNL     1      -7.381  11.455  66.882  1.00  0.00    -0.147 C  
HETATM    3  C   UNL     1      -8.862  11.301  66.782  1.00  0.00    -0.170 C  
HETATM    4  C   UNL     1     -10.070  12.582  67.903  1.00  0.00    -0.214 C  
HETATM    5  C   UNL     1     -11.233   9.123  70.539  1.00  0.00    -0.309 C  
HETATM    6  C   UNL     1     -10.286   8.531  69.490  1.00  0.00    -0.206 C  
HETATM    7  C   UNL     1      -9.557  12.625  66.626  1.00  0.00    -0.249 C  
HETATM    8  C   UNL     1     -10.804   7.299  68.621  1.00  0.00    -0.112 C  
HETATM    9  C   UNL     1      -9.139  13.831  65.816  1.00  0.00     0.468 C  
HETATM   10  C   UNL     1     -10.907  11.333  66.233  1.00  0.00    -0.296 C  
HETATM   11  O   UNL     1     -10.818   5.471  70.813  1.00  0.00    -0.250 OA 
HETATM   12  C   UNL     1     -10.261   6.074  68.531  1.00  0.00    -0.227 C  
HETATM   13  C   UNL     1     -10.021   5.987  70.042  1.00  0.00    -0.177 C  
HETATM   14  C   UNL     1      -8.843   6.749  70.473  1.00  0.00    -0.151 C  
HETATM   15  C   UNL     1     -11.185  10.300  67.569  1.00  0.00    -0.117 C  
HETATM   16  C   UNL     1      -9.016   8.063  70.252  1.00  0.00    -0.147 C  
HETATM   17  C   UNL     1      -8.046   9.088  70.774  1.00  0.00    -0.194 C  
HETATM   18  C   UNL     1      -9.915   9.632  68.441  1.00  0.00    -0.178 C  
HETATM   19  O   UNL     1     -12.062  11.041  68.432  1.00  0.00    -0.723 OA 
HETATM   20  C   UNL     1      -7.626  10.090  69.712  1.00  0.00    -0.167 C  
HETATM   21  C   UNL     1      -8.825  10.752  69.027  1.00  0.00    -0.135 C  
HETATM   22  H   UNL     1     -12.216  10.468  69.173  1.00  0.00     0.000 HD 
ENDROOT
BRANCH   4  23
HETATM   23  C   UNL     1     -11.560  13.571  67.460  1.00  0.00    -0.350 C  
HETATM   24  O   UNL     1     -12.516  13.709  68.250  1.00  0.00    -0.080 OA 
BRANCH  23  25
HETATM   25  C   UNL     1     -11.865  14.266  66.031  1.00  0.00    -0.391 C  
BRANCH  25  26
HETATM   26  O   UNL     1     -11.714  15.800  66.131  1.00  0.00     0.279 OA 
BRANCH  26  27
HETATM   27  C   UNL     1     -11.147  16.552  65.120  1.00  0.00    -0.129 C  
HETATM   28  O   UNL     1     -11.435  16.395  63.939  1.00  0.00    -1.063 OA 
BRANCH  27  29
HETATM   29  C   UNL     1     -10.113  17.621  65.594  1.00  0.00     0.029 C  
HETATM   30  C   UNL     1     -10.690  19.051  65.710  1.00  0.00    -0.350 C  
ENDBRANCH  27  29
ENDBRANCH  26  27
ENDBRANCH  25  26
ENDBRANCH  23  25
ENDBRANCH   4  23
BRANCH   4  31
HETATM   31  O   UNL     1      -9.406  13.859  68.635  1.00  0.00    -0.187 OA 
BRANCH  31  32
HETATM   32  C   UNL     1     -10.077  14.871  69.297  1.00  0.00    -0.195 C  
HETATM   33  O   UNL     1     -10.692  14.745  70.344  1.00  0.00    -0.083 OA 
BRANCH  32  34
HETATM   34  O   UNL     1      -9.782  16.101  68.755  1.00  0.00    -0.213 OA 
BRANCH  34  35
HETATM   35  C   UNL     1     -10.255  17.196  69.579  1.00  0.00    -0.079 C  
HETATM   36  C   UNL     1      -9.782  18.570  69.127  1.00  0.00    -0.177 C  
ENDBRANCH  34  35
ENDBRANCH  32  34
ENDBRANCH  31  32
ENDBRANCH   4  31
TORSDOF 9
ENDMDL
MODEL       81
REMARK 921   NORMALIZED FREE ENERGY PREDICTED BY IDOCK:   -4.06 KCAL/MOL
REMARK 922        TOTAL FREE ENERGY PREDICTED BY IDOCK:   -6.06 KCAL/MOL
REMARK 923 INTER-LIGAND FREE ENERGY PREDICTED BY IDOCK:   -5.64 KCAL/MOL
REMARK 924 INTRA-LIGAND FREE ENERGY PREDICTED BY IDOCK:   -0.42 KCAL/MOL
REMARK 927      BINDING AFFINITY PREDICTED BY RF-SCORE:    0.00 PKD
ROOT
HETATM    1  C   UNL     1     -10.427   7.210  69.494  1.00  0.00    -0.236 C  
HETATM    2  C   UNL     1     -11.726   6.779  69.119  1.00  0.00     0.146 C  
HETATM    3  C   UNL     1     -10.723   7.052  68.048  1.00  0.00    -0.252 C  
HETATM    4  C   UNL     1      -8.709   7.165  68.582  1.00  0.00    -0.127 C  
HETATM    5  C   UNL     1      -8.780  11.595  67.783  1.00  0.00    -0.152 C  
HETATM    6  C   UNL     1     -10.194  11.103  67.459  1.00  0.00    -0.216 C  
HETATM    7  C   UNL     1      -9.527   6.146  68.152  1.00  0.00    -0.113 C  
HETATM    8  C   UNL     1     -10.784  11.412  66.011  1.00  0.00    -0.318 C  
HETATM    9  C   UNL     1      -9.473   4.676  68.504  1.00  0.00    -0.206 C  
HETATM   10  C   UNL     1      -9.350   6.969  66.437  1.00  0.00    -0.182 C  
HETATM   11  O   UNL     1     -10.993  14.225  66.454  1.00  0.00    -0.303 OA 
HETATM   12  C   UNL     1     -11.897  12.100  65.710  1.00  0.00    -0.342 C  
HETATM   13  C   UNL     1     -11.589  13.194  66.737  1.00  0.00    -0.366 C  
HETATM   14  C   UNL     1     -11.913  12.790  68.111  1.00  0.00    -0.295 C  
HETATM   15  C   UNL     1      -9.229   8.670  66.576  1.00  0.00    -0.187 C  
HETATM   16  C   UNL     1     -11.142  11.759  68.500  1.00  0.00    -0.288 C  
HETATM   17  C   UNL     1     -11.132  11.273  69.922  1.00  0.00    -0.183 C  
HETATM   18  C   UNL     1     -10.246   9.543  67.587  1.00  0.00    -0.273 C  
HETATM   19  O   UNL     1      -7.852   8.917  66.903  1.00  0.00    -0.099 OA 
HETATM   20  C   UNL     1     -11.280   9.764  70.026  1.00  0.00    -0.297 C  
HETATM   21  C   UNL     1     -10.253   9.016  69.171  1.00  0.00    -0.213 C  
HETATM   22  H   UNL     1      -7.785   9.860  66.980  1.00  0.00     0.000 HD 
ENDROOT
BRANCH   4  23
HETATM   23  C   UNL     1      -7.196   6.412  67.848  1.00  0.00    -0.087 C  
HETATM   24  O   UNL     1      -6.134   7.057  67.723  1.00  0.00    -0.030 OA 
BRANCH  23  25
HETATM   25  C   UNL     1      -7.071   4.933  67.202  1.00  0.00    -0.066 C  
BRANCH  25  26
HETATM   26  O   UNL     1      -6.603   5.020  65.734  1.00  0.00    -0.039 OA 
BRANCH  26  27
HETATM   27  C   UNL     1      -7.349   4.507  64.690  1.00  0.00    -0.071 C  
HETATM   28  O   UNL     1      -7.180   4.850  63.525  1.00  0.00    -0.047 OA 
BRANCH  27  29
HETATM   29  C   UNL     1      -8.426   3.456  65.104  1.00  0.00    -0.099 C  
HETATM   30  C   UNL     1      -9.853   3.783  64.604  1.00  0.00    -0.190 C  
ENDBRANCH  27  29
ENDBRANCH  26  27
ENDBRANCH  25  26
ENDBRANCH  23  25
ENDBRANCH   4  23
BRANCH   4  31
HETATM   31  O   UNL     1      -8.254   6.703  70.061  1.00  0.00    -0.125 OA 
BRANCH  31  32
HETATM   32  C   UNL     1      -7.471   7.424  70.946  1.00  0.00    -0.074 C  
HETATM   33  O   UNL     1      -7.106   8.578  70.788  1.00  0.00    -0.046 OA 
BRANCH  32  34
HETATM   34  O   UNL     1      -7.334   6.760  72.143  1.00  0.00    -0.086 OA 
BRANCH  34  35
HETATM   35  C   UNL     1      -8.132   5.551  72.199  1.00  0.00    -0.111 C  
HETATM   36  C   UNL     1      -7.326   4.276  72.399  1.00  0.00    -0.068 C  
ENDBRANCH  34  35
ENDBRANCH  32  34
ENDBRANCH  31  32
ENDBRANCH   4  31
TORSDOF 9
ENDMDL
MODEL       82
REMARK 921   NORMALIZED FREE ENERGY PREDICTED BY IDOCK:   -4.04 KCAL/MOL
REMARK 922        TOTAL FREE ENERGY PREDICTED BY IDOCK:   -6.04 KCAL/MOL
REMARK 923 INTER-LIGAND FREE ENERGY PREDICTED BY IDOCK:   -6.48 KCAL/MOL
REMARK 924 INTRA-LIGAND FREE ENERGY PREDICTED BY IDOCK:    0.44 KCAL/MOL
REMARK 927      BINDING AFFINITY PREDICTED BY RF-SCORE:    0.00 PKD
ROOT
HETATM    1  C   UNL     1     -12.397  13.563  66.622  1.00  0.00    -0.351 C  
HETATM    2  C   UNL     1     -13.257  14.321  65.786  1.00  0.00     0.296 C  
HETATM    3  C   UNL     1     -11.820  14.188  65.406  1.00  0.00    -0.362 C  
HETATM    4  C   UNL     1     -10.692  12.680  66.306  1.00  0.00    -0.256 C  
HETATM    5  C   UNL     1      -8.408  15.806  68.604  1.00  0.00    -0.183 C  
HETATM    6  C   UNL     1      -9.404  16.586  67.740  1.00  0.00    -0.210 C  
HETATM    7  C   UNL     1     -11.435  12.757  65.150  1.00  0.00    -0.356 C  
HETATM    8  C   UNL     1      -8.832  17.708  66.763  1.00  0.00    -0.275 C  
HETATM    9  C   UNL     1     -12.222  11.667  64.458  1.00  0.00     0.048 C  
HETATM   10  C   UNL     1      -9.960  13.770  64.483  1.00  0.00     0.138 C  
HETATM   11  O   UNL     1      -8.053  19.464  68.876  1.00  0.00    -0.356 OA 
HETATM   12  C   UNL     1      -9.135  19.017  66.752  1.00  0.00    -0.340 C  
HETATM   13  C   UNL     1      -9.065  19.124  68.278  1.00  0.00    -0.338 C  
HETATM   14  C   UNL     1     -10.266  18.597  68.939  1.00  0.00    -0.262 C  
HETATM   15  C   UNL     1      -9.241  14.708  65.721  1.00  0.00     0.128 C  
HETATM   16  C   UNL     1     -10.394  17.278  68.717  1.00  0.00    -0.358 C  
HETATM   17  C   UNL     1     -11.427  16.452  69.433  1.00  0.00    -0.143 C  
HETATM   18  C   UNL     1     -10.171  15.594  66.803  1.00  0.00    -0.278 C  
HETATM   19  O   UNL     1      -8.377  13.798  66.420  1.00  0.00    -0.286 OA 
HETATM   20  C   UNL     1     -12.225  15.567  68.491  1.00  0.00     0.111 C  
HETATM   21  C   UNL     1     -11.327  14.697  67.606  1.00  0.00    -0.350 C  
HETATM   22  H   UNL     1      -7.979  14.318  67.107  1.00  0.00     0.000 HD 
ENDROOT
BRANCH   4  23
HETATM   23  C   UNL     1      -9.532  11.429  65.612  1.00  0.00    -0.230 C  
HETATM   24  O   UNL     1      -8.310  11.452  65.868  1.00  0.00    -0.094 OA 
BRANCH  23  25
HETATM   25  C   UNL     1      -9.894  10.261  64.552  1.00  0.00    -0.315 C  
BRANCH  25  26
HETATM   26  O   UNL     1      -8.690   9.973  63.629  1.00  0.00    -0.179 OA 
BRANCH  26  27
HETATM   27  C   UNL     1      -8.026   8.761  63.641  1.00  0.00    -0.158 C  
HETATM   28  O   UNL     1      -7.356   8.365  62.694  1.00  0.00    -0.094 OA 
BRANCH  27  29
HETATM   29  C   UNL     1      -8.191   7.931  64.953  1.00  0.00    -0.128 C  
HETATM   30  C   UNL     1      -6.855   7.517  65.611  1.00  0.00    -0.056 C  
ENDBRANCH  27  29
ENDBRANCH  26  27
ENDBRANCH  25  26
ENDBRANCH  23  25
ENDBRANCH   4  23
BRANCH   4  31
HETATM   31  O   UNL     1     -11.440  11.544  67.177  1.00  0.00    -0.430 OA 
BRANCH  31  32
HETATM   32  C   UNL     1     -10.993  10.984  68.360  1.00  0.00    -0.230 C  
HETATM   33  O   UNL     1     -11.522  10.054  68.947  1.00  0.00    -0.134 OA 
BRANCH  32  34
HETATM   34  O   UNL     1      -9.741  11.451  68.689  1.00  0.00    -0.192 OA 
BRANCH  34  35
HETATM   35  C   UNL     1      -8.866  10.399  69.166  1.00  0.00    -0.172 C  
HETATM   36  C   UNL     1      -7.470  10.868  69.548  1.00  0.00    -0.081 C  
ENDBRANCH  34  35
ENDBRANCH  32  34
ENDBRANCH  31  32
ENDBRANCH   4  31
TORSDOF 9
ENDMDL
MODEL       83
REMARK 921   NORMALIZED FREE ENERGY PREDICTED BY IDOCK:   -4.00 KCAL/MOL
REMARK 922        TOTAL FREE ENERGY PREDICTED BY IDOCK:   -5.97 KCAL/MOL
REMARK 923 INTER-LIGAND FREE ENERGY PREDICTED BY IDOCK:   -6.54 KCAL/MOL
REMARK 924 INTRA-LIGAND FREE ENERGY PREDICTED BY IDOCK:    0.57 KCAL/MOL
REMARK 927      BINDING AFFINITY PREDICTED BY RF-SCORE:    0.00 PKD
ROOT
HETATM    1  C   UNL     1      -8.729  10.696  65.582  1.00  0.00    -0.198 C  
HETATM    2  C   UNL     1      -9.474  10.504  64.390  1.00  0.00    -0.333 C  
HETATM    3  C   UNL     1      -9.832   9.704  65.598  1.00  0.00    -0.369 C  
HETATM    4  C   UNL     1      -9.120  10.339  67.454  1.00  0.00    -0.138 C  
HETATM    5  C   UNL     1      -6.358   6.786  67.572  1.00  0.00    -0.044 C  
HETATM    6  C   UNL     1      -7.132   6.653  66.256  1.00  0.00    -0.067 C  
HETATM    7  C   UNL     1     -10.273  10.577  66.741  1.00  0.00    -0.288 C  
HETATM    8  C   UNL     1      -7.931   5.300  65.988  1.00  0.00    -0.104 C  
HETATM    9  C   UNL     1     -11.128  11.823  66.714  1.00  0.00    -0.360 C  
HETATM   10  C   UNL     1     -10.758   8.810  67.281  1.00  0.00    -0.217 C  
HETATM   11  O   UNL     1      -5.578   3.708  65.701  1.00  0.00    -0.016 OA 
HETATM   12  C   UNL     1      -7.770   4.443  64.967  1.00  0.00    -0.081 C  
HETATM   13  C   UNL     1      -6.242   4.507  65.054  1.00  0.00    -0.034 C  
HETATM   14  C   UNL     1      -5.689   5.723  64.445  1.00  0.00    -0.024 C  
HETATM   15  C   UNL     1      -9.385   7.792  67.377  1.00  0.00    -0.141 C  
HETATM   16  C   UNL     1      -6.094   6.818  65.112  1.00  0.00    -0.035 C  
HETATM   17  C   UNL     1      -5.524   8.178  64.819  1.00  0.00    -0.040 C  
HETATM   18  C   UNL     1      -8.215   7.780  66.172  1.00  0.00    -0.123 C  
HETATM   19  O   UNL     1      -8.797   8.085  68.654  1.00  0.00    -0.134 OA 
HETATM   20  C   UNL     1      -6.599   9.238  64.646  1.00  0.00    -0.077 C  
HETATM   21  C   UNL     1      -7.572   9.281  65.828  1.00  0.00    -0.098 C  
HETATM   22  H   UNL     1      -8.035   7.521  68.707  1.00  0.00     0.000 HD 
ENDROOT
BRANCH   4  23
HETATM   23  C   UNL     1      -9.951  10.551  69.085  1.00  0.00    -0.220 C  
HETATM   24  O   UNL     1      -9.524   9.994  70.118  1.00  0.00    -0.213 OA 
BRANCH  23  25
HETATM   25  C   UNL     1     -11.327  11.353  69.369  1.00  0.00    -0.297 C  
BRANCH  25  26
HETATM   26  O   UNL     1     -12.412  10.395  69.908  1.00  0.00    -0.204 OA 
BRANCH  26  27
HETATM   27  C   UNL     1     -12.796  10.390  71.235  1.00  0.00    -0.433 C  
HETATM   28  O   UNL     1     -13.076  11.415  71.846  1.00  0.00    -0.492 OA 
BRANCH  27  29
HETATM   29  C   UNL     1     -12.849   8.979  71.901  1.00  0.00    -0.451 C  
HETATM   30  C   UNL     1     -14.165   8.208  71.643  1.00  0.00    -0.536 C  
ENDBRANCH  27  29
ENDBRANCH  26  27
ENDBRANCH  25  26
ENDBRANCH  23  25
ENDBRANCH   4  23
BRANCH   4  31
HETATM   31  O   UNL     1      -8.433  11.795  67.584  1.00  0.00    -0.137 OA 
BRANCH  31  32
HETATM   32  C   UNL     1      -7.121  12.059  67.936  1.00  0.00    -0.097 C  
HETATM   33  O   UNL     1      -6.261  12.491  67.186  1.00  0.00    -0.187 OA 
BRANCH  32  34
HETATM   34  O   UNL     1      -6.950  11.993  69.300  1.00  0.00    -0.096 OA 
BRANCH  34  35
HETATM   35  C   UNL     1      -6.117  13.067  69.804  1.00  0.00    -0.123 C  
HETATM   36  C   UNL     1      -5.433  12.761  71.128  1.00  0.00    -0.132 C  
ENDBRANCH  34  35
ENDBRANCH  32  34
ENDBRANCH  31  32
ENDBRANCH   4  31
TORSDOF 9
ENDMDL
MODEL       84
REMARK 921   NORMALIZED FREE ENERGY PREDICTED BY IDOCK:   -3.97 KCAL/MOL
REMARK 922        TOTAL FREE ENERGY PREDICTED BY IDOCK:   -5.92 KCAL/MOL
REMARK 923 INTER-LIGAND FREE ENERGY PREDICTED BY IDOCK:   -6.37 KCAL/MOL
REMARK 924 INTRA-LIGAND FREE ENERGY PREDICTED BY IDOCK:    0.45 KCAL/MOL
REMARK 927      BINDING AFFINITY PREDICTED BY RF-SCORE:    0.00 PKD
ROOT
HETATM    1  C   UNL     1      -9.397  11.450  65.169  1.00  0.00    -0.172 C  
HETATM    2  C   UNL     1      -9.688  10.239  64.490  1.00  0.00    -0.395 C  
HETATM    3  C   UNL     1     -10.313  10.483  65.823  1.00  0.00    -0.270 C  
HETATM    4  C   UNL     1     -10.322  12.432  66.572  1.00  0.00    -0.228 C  
HETATM    5  C   UNL     1      -7.320  11.211  69.696  1.00  0.00     0.034 C  
HETATM    6  C   UNL     1      -7.605   9.939  68.891  1.00  0.00    -0.083 C  
HETATM    7  C   UNL     1     -11.204  11.694  65.815  1.00  0.00    -0.290 C  
HETATM    8  C   UNL     1      -8.098   8.644  69.681  1.00  0.00    -0.112 C  
HETATM    9  C   UNL     1     -12.155  12.170  64.740  1.00  0.00    -0.368 C  
HETATM   10  C   UNL     1     -11.609  10.820  67.464  1.00  0.00    -0.011 C  
HETATM   11  O   UNL     1      -5.597   8.221  70.992  1.00  0.00    -0.032 OA 
HETATM   12  C   UNL     1      -7.509   7.438  69.722  1.00  0.00    -0.092 C  
HETATM   13  C   UNL     1      -6.112   8.041  69.896  1.00  0.00    -0.026 C  
HETATM   14  C   UNL     1      -5.551   8.545  68.637  1.00  0.00    -0.037 C  
HETATM   15  C   UNL     1     -10.224  10.705  68.462  1.00  0.00    -0.175 C  
HETATM   16  C   UNL     1      -6.284   9.568  68.163  1.00  0.00    -0.056 C  
HETATM   17  C   UNL     1      -5.827  10.392  66.992  1.00  0.00    -0.051 C  
HETATM   18  C   UNL     1      -8.737  10.224  67.848  1.00  0.00    -0.122 C  
HETATM   19  O   UNL     1     -10.120  11.989  69.099  1.00  0.00    -0.418 OA 
HETATM   20  C   UNL     1      -6.913  10.576  65.946  1.00  0.00    -0.131 C  
HETATM   21  C   UNL     1      -8.212  11.125  66.544  1.00  0.00    -0.167 C  
HETATM   22  H   UNL     1      -9.352  11.926  69.652  1.00  0.00     0.000 HD 
ENDROOT
BRANCH   4  23
HETATM   23  C   UNL     1     -11.653  13.451  67.335  1.00  0.00    -0.354 C  
HETATM   24  O   UNL     1     -12.656  13.817  66.687  1.00  0.00    -0.330 OA 
BRANCH  23  25
HETATM   25  C   UNL     1     -11.657  14.066  68.832  1.00  0.00    -0.315 C  
BRANCH  25  26
HETATM   26  O   UNL     1     -11.647  15.610  68.783  1.00  0.00    -0.350 OA 
BRANCH  26  27
HETATM   27  C   UNL     1     -10.738  16.364  69.500  1.00  0.00    -0.325 C  
HETATM   28  O   UNL     1     -10.181  15.944  70.509  1.00  0.00    -0.026 OA 
BRANCH  27  29
HETATM   29  C   UNL     1     -10.469  17.792  68.929  1.00  0.00    -0.213 C  
HETATM   30  C   UNL     1      -8.999  18.042  68.520  1.00  0.00    -0.297 C  
ENDBRANCH  27  29
ENDBRANCH  26  27
ENDBRANCH  25  26
ENDBRANCH  23  25
ENDBRANCH   4  23
BRANCH   4  31
HETATM   31  O   UNL     1      -9.903  13.654  65.604  1.00  0.00    -0.256 OA 
BRANCH  31  32
HETATM   32  C   UNL     1      -9.381  14.874  65.995  1.00  0.00    -0.241 C  
HETATM   33  O   UNL     1     -10.004  15.922  66.059  1.00  0.00    -0.288 OA 
BRANCH  32  34
HETATM   34  O   UNL     1      -8.121  14.728  66.528  1.00  0.00     0.081 OA 
BRANCH  34  35
HETATM   35  C   UNL     1      -8.147  14.532  67.964  1.00  0.00    -0.139 C  
HETATM   36  C   UNL     1      -7.036  15.251  68.715  1.00  0.00    -0.117 C  
ENDBRANCH  34  35
ENDBRANCH  32  34
ENDBRANCH  31  32
ENDBRANCH   4  31
TORSDOF 9
ENDMDL
MODEL       85
REMARK 921   NORMALIZED FREE ENERGY PREDICTED BY IDOCK:   -3.95 KCAL/MOL
REMARK 922        TOTAL FREE ENERGY PREDICTED BY IDOCK:   -5.90 KCAL/MOL
REMARK 923 INTER-LIGAND FREE ENERGY PREDICTED BY IDOCK:   -5.73 KCAL/MOL
REMARK 924 INTRA-LIGAND FREE ENERGY PREDICTED BY IDOCK:   -0.17 KCAL/MOL
REMARK 927      BINDING AFFINITY PREDICTED BY RF-SCORE:    0.00 PKD
ROOT
HETATM    1  C   UNL     1      -8.720   8.952  66.665  1.00  0.00    -0.140 C  
HETATM    2  C   UNL     1      -9.653   9.489  65.740  1.00  0.00    -0.337 C  
HETATM    3  C   UNL     1     -10.101   8.409  66.668  1.00  0.00    -0.358 C  
HETATM    4  C   UNL     1      -8.931   7.994  68.345  1.00  0.00    -0.133 C  
HETATM    5  C   UNL     1      -7.735   4.067  66.496  1.00  0.00    -0.089 C  
HETATM    6  C   UNL     1      -8.690   4.714  65.488  1.00  0.00    -0.130 C  
HETATM    7  C   UNL     1     -10.001   8.826  68.109  1.00  0.00    -0.206 C  
HETATM    8  C   UNL     1      -9.972   3.885  65.029  1.00  0.00    -0.186 C  
HETATM    9  C   UNL     1     -10.314  10.165  68.738  1.00  0.00    -0.211 C  
HETATM   10  C   UNL     1     -11.031   7.217  68.152  1.00  0.00    -0.058 C  
HETATM   11  O   UNL     1      -8.469   1.940  63.577  1.00  0.00    -0.079 OA 
HETATM   12  C   UNL     1     -10.303   3.513  63.781  1.00  0.00    -0.241 C  
HETATM   13  C   UNL     1      -8.870   3.088  63.446  1.00  0.00    -0.092 C  
HETATM   14  C   UNL     1      -7.997   4.228  63.141  1.00  0.00    -0.080 C  
HETATM   15  C   UNL     1     -10.147   5.898  67.513  1.00  0.00    -0.165 C  
HETATM   16  C   UNL     1      -7.852   5.021  64.216  1.00  0.00    -0.091 C  
HETATM   17  C   UNL     1      -6.861   6.152  64.237  1.00  0.00    -0.042 C  
HETATM   18  C   UNL     1      -9.266   6.039  66.091  1.00  0.00    -0.154 C  
HETATM   19  O   UNL     1      -9.307   5.460  68.592  1.00  0.00    -0.111 OA 
HETATM   20  C   UNL     1      -7.468   7.452  64.736  1.00  0.00    -0.088 C  
HETATM   21  C   UNL     1      -8.162   7.291  66.092  1.00  0.00    -0.131 C  
HETATM   22  H   UNL     1      -8.817   4.728  68.237  1.00  0.00     0.000 HD 
ENDROOT
BRANCH   4  23
HETATM   23  C   UNL     1      -9.363   7.753  70.119  1.00  0.00    -0.153 C  
HETATM   24  O   UNL     1      -9.053   6.713  70.737  1.00  0.00    -0.150 OA 
BRANCH  23  25
HETATM   25  C   UNL     1     -10.245   8.750  71.040  1.00  0.00    -0.237 C  
BRANCH  25  26
HETATM   26  O   UNL     1     -11.643   8.149  71.305  1.00  0.00    -0.264 OA 
BRANCH  26  27
HETATM   27  C   UNL     1     -12.676   8.895  71.840  1.00  0.00    -0.376 C  
HETATM   28  O   UNL     1     -13.109   8.707  72.971  1.00  0.00    -0.251 OA 
BRANCH  27  29
HETATM   29  C   UNL     1     -13.252   9.997  70.896  1.00  0.00    -0.336 C  
HETATM   30  C   UNL     1     -12.918  11.442  71.335  1.00  0.00    -0.468 C  
ENDBRANCH  27  29
ENDBRANCH  26  27
ENDBRANCH  25  26
ENDBRANCH  23  25
ENDBRANCH   4  23
BRANCH   4  31
HETATM   31  O   UNL     1      -7.733   9.000  68.744  1.00  0.00    -0.092 OA 
BRANCH  31  32
HETATM   32  C   UNL     1      -6.583   8.678  69.443  1.00  0.00    -0.045 C  
HETATM   33  O   UNL     1      -5.829   7.756  69.177  1.00  0.00    -0.029 OA 
BRANCH  32  34
HETATM   34  O   UNL     1      -6.259   9.662  70.349  1.00  0.00    -0.053 OA 
BRANCH  34  35
HETATM   35  C   UNL     1      -5.621   9.131  71.537  1.00  0.00    -0.059 C  
HETATM   36  C   UNL     1      -6.586   8.550  72.560  1.00  0.00    -0.090 C  
ENDBRANCH  34  35
ENDBRANCH  32  34
ENDBRANCH  31  32
ENDBRANCH   4  31
TORSDOF 9
ENDMDL
MODEL       86
REMARK 921   NORMALIZED FREE ENERGY PREDICTED BY IDOCK:   -3.92 KCAL/MOL
REMARK 922        TOTAL FREE ENERGY PREDICTED BY IDOCK:   -5.84 KCAL/MOL
REMARK 923 INTER-LIGAND FREE ENERGY PREDICTED BY IDOCK:   -6.14 KCAL/MOL
REMARK 924 INTRA-LIGAND FREE ENERGY PREDICTED BY IDOCK:    0.30 KCAL/MOL
REMARK 927      BINDING AFFINITY PREDICTED BY RF-SCORE:    0.00 PKD
ROOT
HETATM    1  C   UNL     1      -9.721   6.555  67.859  1.00  0.00    -0.126 C  
HETATM    2  C   UNL     1     -10.994   6.179  67.359  1.00  0.00    -0.409 C  
HETATM    3  C   UNL     1     -10.926   7.071  68.554  1.00  0.00    -0.135 C  
HETATM    4  C   UNL     1      -9.124   8.039  68.967  1.00  0.00    -0.144 C  
HETATM    5  C   UNL     1      -8.571   5.399  72.572  1.00  0.00    -0.118 C  
HETATM    6  C   UNL     1      -9.908   4.971  71.958  1.00  0.00    -0.226 C  
HETATM    7  C   UNL     1     -10.246   8.376  68.245  1.00  0.00    -0.244 C  
HETATM    8  C   UNL     1     -11.202   4.996  72.888  1.00  0.00    -0.344 C  
HETATM    9  C   UNL     1     -10.350   9.235  67.005  1.00  0.00    -0.325 C  
HETATM   10  C   UNL     1     -11.045   8.653  69.958  1.00  0.00    -0.161 C  
HETATM   11  O   UNL     1     -10.338   2.824  74.528  1.00  0.00    -0.140 OA 
HETATM   12  C   UNL     1     -12.010   3.967  73.193  1.00  0.00     0.248 C  
HETATM   13  C   UNL     1     -10.834   3.013  73.425  1.00  0.00    -0.207 C  
HETATM   14  C   UNL     1     -10.258   2.510  72.172  1.00  0.00    -0.171 C  
HETATM   15  C   UNL     1     -10.433   7.547  71.113  1.00  0.00    -0.205 C  
HETATM   16  C   UNL     1      -9.720   3.513  71.457  1.00  0.00    -0.237 C  
HETATM   17  C   UNL     1      -8.896   3.253  70.226  1.00  0.00    -0.145 C  
HETATM   18  C   UNL     1     -10.259   5.915  70.760  1.00  0.00    -0.268 C  
HETATM   19  O   UNL     1      -9.183   8.113  71.539  1.00  0.00    -0.141 OA 
HETATM   20  C   UNL     1      -9.317   4.113  69.047  1.00  0.00    -0.232 C  
HETATM   21  C   UNL     1      -9.350   5.605  69.395  1.00  0.00    -0.156 C  
HETATM   22  H   UNL     1      -8.843   7.500  72.179  1.00  0.00     0.000 HD 
ENDROOT
BRANCH   4  23
HETATM   23  C   UNL     1      -8.736   9.788  69.396  1.00  0.00    -0.174 C  
HETATM   24  O   UNL     1      -8.016  10.081  70.373  1.00  0.00    -0.204 OA 
BRANCH  23  25
HETATM   25  C   UNL     1      -9.325  11.111  68.674  1.00  0.00    -0.184 C  
BRANCH  25  26
HETATM   26  O   UNL     1     -10.333  11.829  69.598  1.00  0.00     0.238 OA 
BRANCH  26  27
HETATM   27  C   UNL     1     -11.567  12.258  69.149  1.00  0.00    -0.318 C  
HETATM   28  O   UNL     1     -12.160  11.714  68.224  1.00  0.00    -0.552 OA 
BRANCH  27  29
HETATM   29  C   UNL     1     -12.154  13.490  69.908  1.00  0.00    -0.408 C  
HETATM   30  C   UNL     1     -12.552  13.197  71.374  1.00  0.00    -0.352 C  
ENDBRANCH  27  29
ENDBRANCH  26  27
ENDBRANCH  25  26
ENDBRANCH  23  25
ENDBRANCH   4  23
BRANCH   4  31
HETATM   31  O   UNL     1      -7.942   8.018  67.866  1.00  0.00    -0.123 OA 
BRANCH  31  32
HETATM   32  C   UNL     1      -6.681   7.471  68.021  1.00  0.00    -0.059 C  
HETATM   33  O   UNL     1      -6.105   6.778  67.197  1.00  0.00    -0.026 OA 
BRANCH  32  34
HETATM   34  O   UNL     1      -6.047   7.988  69.127  1.00  0.00    -0.037 OA 
BRANCH  34  35
HETATM   35  C   UNL     1      -5.963   7.032  70.213  1.00  0.00    -0.024 C  
HETATM   36  C   UNL     1      -5.816   7.660  71.591  1.00  0.00    -0.035 C  
ENDBRANCH  34  35
ENDBRANCH  32  34
ENDBRANCH  31  32
ENDBRANCH   4  31
TORSDOF 9
ENDMDL
MODEL       87
REMARK 921   NORMALIZED FREE ENERGY PREDICTED BY IDOCK:   -3.92 KCAL/MOL
REMARK 922        TOTAL FREE ENERGY PREDICTED BY IDOCK:   -5.84 KCAL/MOL
REMARK 923 INTER-LIGAND FREE ENERGY PREDICTED BY IDOCK:   -6.35 KCAL/MOL
REMARK 924 INTRA-LIGAND FREE ENERGY PREDICTED BY IDOCK:    0.51 KCAL/MOL
REMARK 927      BINDING AFFINITY PREDICTED BY RF-SCORE:    0.00 PKD
ROOT
HETATM    1  C   UNL     1      -7.968   9.794  68.958  1.00  0.00    -0.096 C  
HETATM    2  C   UNL     1      -6.974  10.149  69.906  1.00  0.00    -0.133 C  
HETATM    3  C   UNL     1      -6.984   8.759  69.362  1.00  0.00    -0.053 C  
HETATM    4  C   UNL     1      -8.072   8.384  67.621  1.00  0.00    -0.118 C  
HETATM    5  C   UNL     1     -11.056   6.029  70.033  1.00  0.00    -0.451 C  
HETATM    6  C   UNL     1     -10.000   6.495  71.040  1.00  0.00    -0.203 C  
HETATM    7  C   UNL     1      -6.766   8.734  67.874  1.00  0.00    -0.066 C  
HETATM    8  C   UNL     1      -9.271   5.390  71.929  1.00  0.00    -0.155 C  
HETATM    9  C   UNL     1      -5.832   9.577  67.034  1.00  0.00    -0.052 C  
HETATM   10  C   UNL     1      -6.570   6.912  68.412  1.00  0.00    -0.062 C  
HETATM   11  O   UNL     1     -11.603   4.753  73.447  1.00  0.00    -0.323 OA 
HETATM   12  C   UNL     1      -9.247   5.301  73.269  1.00  0.00    -0.128 C  
HETATM   13  C   UNL     1     -10.741   5.620  73.392  1.00  0.00    -0.278 C  
HETATM   14  C   UNL     1     -11.029   7.051  73.244  1.00  0.00    -0.296 C  
HETATM   15  C   UNL     1      -8.002   6.323  69.141  1.00  0.00    -0.110 C  
HETATM   16  C   UNL     1     -10.712   7.478  72.009  1.00  0.00    -0.264 C  
HETATM   17  C   UNL     1     -11.083   8.853  71.528  1.00  0.00    -0.397 C  
HETATM   18  C   UNL     1      -8.841   7.225  70.282  1.00  0.00    -0.147 C  
HETATM   19  O   UNL     1      -8.857   5.970  68.041  1.00  0.00    -0.112 OA 
HETATM   20  C   UNL     1      -9.917   9.581  70.880  1.00  0.00    -0.308 C  
HETATM   21  C   UNL     1      -9.259   8.757  69.769  1.00  0.00    -0.155 C  
HETATM   22  H   UNL     1      -9.651   5.643  68.446  1.00  0.00     0.000 HD 
ENDROOT
BRANCH   4  23
HETATM   23  C   UNL     1      -7.648   7.476  66.075  1.00  0.00    -0.088 C  
HETATM   24  O   UNL     1      -8.353   6.538  65.649  1.00  0.00    -0.135 OA 
BRANCH  23  25
HETATM   25  C   UNL     1      -6.325   7.684  65.168  1.00  0.00    -0.038 C  
BRANCH  25  26
HETATM   26  O   UNL     1      -6.663   8.486  63.892  1.00  0.00    -0.075 OA 
BRANCH  26  27
HETATM   27  C   UNL     1      -7.494   7.987  62.907  1.00  0.00    -0.113 C  
HETATM   28  O   UNL     1      -7.421   6.832  62.504  1.00  0.00    -0.066 OA 
BRANCH  27  29
HETATM   29  C   UNL     1      -8.536   9.005  62.345  1.00  0.00    -0.213 C  
HETATM   30  C   UNL     1      -8.155  10.487  62.568  1.00  0.00    -0.201 C  
ENDBRANCH  27  29
ENDBRANCH  26  27
ENDBRANCH  25  26
ENDBRANCH  23  25
ENDBRANCH   4  23
BRANCH   4  31
HETATM   31  O   UNL     1      -8.651   9.626  66.766  1.00  0.00    -0.132 OA 
BRANCH  31  32
HETATM   32  C   UNL     1      -9.974   9.848  66.428  1.00  0.00    -0.244 C  
HETATM   33  O   UNL     1     -10.935   9.625  67.147  1.00  0.00    -0.190 OA 
BRANCH  32  34
HETATM   34  O   UNL     1     -10.074  10.569  65.260  1.00  0.00    -0.279 OA 
BRANCH  34  35
HETATM   35  C   UNL     1     -10.509  11.933  65.489  1.00  0.00    -0.268 C  
HETATM   36  C   UNL     1     -11.149  12.598  64.279  1.00  0.00    -0.405 C  
ENDBRANCH  34  35
ENDBRANCH  32  34
ENDBRANCH  31  32
ENDBRANCH   4  31
TORSDOF 9
ENDMDL
MODEL       88
REMARK 921   NORMALIZED FREE ENERGY PREDICTED BY IDOCK:   -3.90 KCAL/MOL
REMARK 922        TOTAL FREE ENERGY PREDICTED BY IDOCK:   -5.82 KCAL/MOL
REMARK 923 INTER-LIGAND FREE ENERGY PREDICTED BY IDOCK:   -5.74 KCAL/MOL
REMARK 924 INTRA-LIGAND FREE ENERGY PREDICTED BY IDOCK:   -0.09 KCAL/MOL
REMARK 927      BINDING AFFINITY PREDICTED BY RF-SCORE:    0.00 PKD
ROOT
HETATM    1  C   UNL     1      -8.789   7.203  69.904  1.00  0.00    -0.142 C  
HETATM    2  C   UNL     1      -9.738   7.430  70.934  1.00  0.00    -0.169 C  
HETATM    3  C   UNL     1     -10.226   7.229  69.538  1.00  0.00    -0.200 C  
HETATM    4  C   UNL     1      -8.922   6.386  68.144  1.00  0.00    -0.116 C  
HETATM    5  C   UNL     1      -8.648  10.360  66.047  1.00  0.00    -0.158 C  
HETATM    6  C   UNL     1      -9.612  10.586  67.216  1.00  0.00    -0.188 C  
HETATM    7  C   UNL     1      -9.864   5.870  69.004  1.00  0.00    -0.193 C  
HETATM    8  C   UNL     1     -11.063  11.162  66.892  1.00  0.00    -0.313 C  
HETATM    9  C   UNL     1      -9.866   4.536  69.715  1.00  0.00    -0.295 C  
HETATM   10  C   UNL     1     -11.128   6.552  67.744  1.00  0.00    -0.366 C  
HETATM   11  O   UNL     1     -10.110  13.742  66.128  1.00  0.00    -0.291 OA 
HETATM   12  C   UNL     1     -11.617  12.293  67.358  1.00  0.00    -0.425 C  
HETATM   13  C   UNL     1     -10.332  13.100  67.146  1.00  0.00    -0.247 C  
HETATM   14  C   UNL     1      -9.334  12.863  68.196  1.00  0.00    -0.214 C  
HETATM   15  C   UNL     1     -10.567   8.001  67.026  1.00  0.00    -0.294 C  
HETATM   16  C   UNL     1      -8.917  11.586  68.180  1.00  0.00    -0.172 C  
HETATM   17  C   UNL     1      -7.761  11.121  69.022  1.00  0.00    -0.114 C  
HETATM   18  C   UNL     1      -9.876   9.225  67.945  1.00  0.00    -0.200 C  
HETATM   19  O   UNL     1      -9.671   7.575  65.988  1.00  0.00    -0.427 OA 
HETATM   20  C   UNL     1      -8.073   9.851  69.795  1.00  0.00    -0.185 C  
HETATM   21  C   UNL     1      -8.593   8.730  68.890  1.00  0.00    -0.136 C  
HETATM   22  H   UNL     1      -9.360   8.379  65.590  1.00  0.00     0.000 HD 
ENDROOT
BRANCH   4  23
HETATM   23  C   UNL     1      -9.143   5.033  66.912  1.00  0.00    -0.117 C  
HETATM   24  O   UNL     1     -10.273   4.682  66.516  1.00  0.00    -0.242 OA 
BRANCH  23  25
HETATM   25  C   UNL     1      -7.979   4.097  66.291  1.00  0.00    -0.098 C  
BRANCH  25  26
HETATM   26  O   UNL     1      -7.896   4.280  64.759  1.00  0.00    -0.086 OA 
BRANCH  26  27
HETATM   27  C   UNL     1      -7.015   5.166  64.170  1.00  0.00    -0.049 C  
HETATM   28  O   UNL     1      -6.977   6.355  64.466  1.00  0.00    -0.045 OA 
BRANCH  27  29
HETATM   29  C   UNL     1      -6.068   4.542  63.098  1.00  0.00    -0.018 C  
HETATM   30  C   UNL     1      -5.127   3.445  63.648  1.00  0.00    -0.008 C  
ENDBRANCH  27  29
ENDBRANCH  26  27
ENDBRANCH  25  26
ENDBRANCH  23  25
ENDBRANCH   4  23
BRANCH   4  31
HETATM   31  O   UNL     1      -7.533   5.737  68.650  1.00  0.00    -0.081 OA 
BRANCH  31  32
HETATM   32  C   UNL     1      -6.271   5.991  68.143  1.00  0.00    -0.029 C  
HETATM   33  O   UNL     1      -5.342   5.200  68.129  1.00  0.00    -0.009 OA 
BRANCH  32  34
HETATM   34  O   UNL     1      -6.246   7.176  67.443  1.00  0.00    -0.041 OA 
BRANCH  34  35
HETATM   35  C   UNL     1      -5.162   8.042  67.861  1.00  0.00    -0.033 C  
HETATM   36  C   UNL     1      -5.157   9.408  67.191  1.00  0.00    -0.035 C  
ENDBRANCH  34  35
ENDBRANCH  32  34
ENDBRANCH  31  32
ENDBRANCH   4  31
TORSDOF 9
ENDMDL
MODEL       89
REMARK 921   NORMALIZED FREE ENERGY PREDICTED BY IDOCK:   -3.89 KCAL/MOL
REMARK 922        TOTAL FREE ENERGY PREDICTED BY IDOCK:   -5.80 KCAL/MOL
REMARK 923 INTER-LIGAND FREE ENERGY PREDICTED BY IDOCK:   -6.01 KCAL/MOL
REMARK 924 INTRA-LIGAND FREE ENERGY PREDICTED BY IDOCK:    0.21 KCAL/MOL
REMARK 927      BINDING AFFINITY PREDICTED BY RF-SCORE:    0.00 PKD
ROOT
HETATM    1  C   UNL     1     -10.465   7.285  68.052  1.00  0.00    -0.249 C  
HETATM    2  C   UNL     1     -11.035   6.424  67.079  1.00  0.00    -0.463 C  
HETATM    3  C   UNL     1      -9.611   6.217  67.476  1.00  0.00    -0.122 C  
HETATM    4  C   UNL     1      -8.936   7.103  69.241  1.00  0.00    -0.138 C  
HETATM    5  C   UNL     1      -6.444   9.961  66.813  1.00  0.00    -0.070 C  
HETATM    6  C   UNL     1      -7.137   9.057  65.788  1.00  0.00    -0.085 C  
HETATM    7  C   UNL     1      -9.476   5.875  68.935  1.00  0.00    -0.146 C  
HETATM    8  C   UNL     1      -6.225   8.272  64.742  1.00  0.00    -0.056 C  
HETATM    9  C   UNL     1     -10.352   4.988  69.790  1.00  0.00    -0.286 C  
HETATM   10  C   UNL     1      -7.753   5.500  68.200  1.00  0.00    -0.085 C  
HETATM   11  O   UNL     1      -5.432  10.625  63.332  1.00  0.00    -0.159 OA 
HETATM   12  C   UNL     1      -6.266   8.349  63.401  1.00  0.00    -0.077 C  
HETATM   13  C   UNL     1      -6.395   9.875  63.416  1.00  0.00    -0.126 C  
HETATM   14  C   UNL     1      -7.756  10.325  63.731  1.00  0.00    -0.100 C  
HETATM   15  C   UNL     1      -7.052   6.904  67.516  1.00  0.00    -0.085 C  
HETATM   16  C   UNL     1      -8.104   9.963  64.978  1.00  0.00    -0.140 C  
HETATM   17  C   UNL     1      -9.368  10.460  65.623  1.00  0.00    -0.244 C  
HETATM   18  C   UNL     1      -7.938   7.939  66.535  1.00  0.00    -0.102 C  
HETATM   19  O   UNL     1      -6.489   7.615  68.630  1.00  0.00    -0.045 OA 
HETATM   20  C   UNL     1     -10.178   9.344  66.259  1.00  0.00    -0.284 C  
HETATM   21  C   UNL     1      -9.348   8.500  67.231  1.00  0.00    -0.184 C  
HETATM   22  H   UNL     1      -6.100   8.393  68.250  1.00  0.00     0.000 HD 
ENDROOT
BRANCH   4  23
HETATM   23  C   UNL     1      -7.951   6.444  70.651  1.00  0.00    -0.112 C  
HETATM   24  O   UNL     1      -8.438   5.644  71.477  1.00  0.00    -0.125 OA 
BRANCH  23  25
HETATM   25  C   UNL     1      -6.441   6.866  71.054  1.00  0.00    -0.044 C  
BRANCH  25  26
HETATM   26  O   UNL     1      -6.385   8.355  71.459  1.00  0.00    -0.042 OA 
BRANCH  26  27
HETATM   27  C   UNL     1      -5.898   8.767  72.685  1.00  0.00    -0.079 C  
HETATM   28  O   UNL     1      -5.346   9.849  72.847  1.00  0.00    -0.290 OA 
BRANCH  27  29
HETATM   29  C   UNL     1      -6.105   7.751  73.852  1.00  0.00    -0.075 C  
HETATM   30  C   UNL     1      -7.478   7.868  74.555  1.00  0.00    -0.220 C  
ENDBRANCH  27  29
ENDBRANCH  26  27
ENDBRANCH  25  26
ENDBRANCH  23  25
ENDBRANCH   4  23
BRANCH   4  31
HETATM   31  O   UNL     1     -10.005   7.759  70.258  1.00  0.00    -0.187 OA 
BRANCH  31  32
HETATM   32  C   UNL     1      -9.847   8.930  70.979  1.00  0.00    -0.253 C  
HETATM   33  O   UNL     1      -9.425   9.004  72.121  1.00  0.00    -0.340 OA 
BRANCH  32  34
HETATM   34  O   UNL     1     -10.008  10.034  70.174  1.00  0.00    -0.252 OA 
BRANCH  34  35
HETATM   35  C   UNL     1     -11.348  10.583  70.252  1.00  0.00    -0.327 C  
HETATM   36  C   UNL     1     -11.828  11.248  68.970  1.00  0.00    -0.421 C  
ENDBRANCH  34  35
ENDBRANCH  32  34
ENDBRANCH  31  32
ENDBRANCH   4  31
TORSDOF 9
ENDMDL
MODEL       90
REMARK 921   NORMALIZED FREE ENERGY PREDICTED BY IDOCK:   -3.89 KCAL/MOL
REMARK 922        TOTAL FREE ENERGY PREDICTED BY IDOCK:   -5.80 KCAL/MOL
REMARK 923 INTER-LIGAND FREE ENERGY PREDICTED BY IDOCK:   -5.93 KCAL/MOL
REMARK 924 INTRA-LIGAND FREE ENERGY PREDICTED BY IDOCK:    0.14 KCAL/MOL
REMARK 927      BINDING AFFINITY PREDICTED BY RF-SCORE:    0.00 PKD
ROOT
HETATM    1  C   UNL     1     -10.187   9.937  69.859  1.00  0.00    -0.298 C  
HETATM    2  C   UNL     1     -11.541   9.738  70.231  1.00  0.00    -0.283 C  
HETATM    3  C   UNL     1     -11.070   9.200  68.922  1.00  0.00     0.089 C  
HETATM    4  C   UNL     1      -9.015   9.019  68.605  1.00  0.00    -0.137 C  
HETATM    5  C   UNL     1      -9.210  12.392  65.629  1.00  0.00     0.141 C  
HETATM    6  C   UNL     1     -10.651  12.195  66.113  1.00  0.00    -0.290 C  
HETATM    7  C   UNL     1      -9.985   8.173  69.091  1.00  0.00    -0.192 C  
HETATM    8  C   UNL     1     -11.780  11.927  65.019  1.00  0.00    -0.253 C  
HETATM    9  C   UNL     1      -9.855   7.087  70.136  1.00  0.00    -0.179 C  
HETATM   10  C   UNL     1     -10.507   8.011  67.261  1.00  0.00    -0.384 C  
HETATM   11  O   UNL     1     -11.653  14.559  63.921  1.00  0.00    -0.082 OA 
HETATM   12  C   UNL     1     -12.883  12.657  64.786  1.00  0.00    -0.349 C  
HETATM   13  C   UNL     1     -12.122  13.982  64.893  1.00  0.00    -0.420 C  
HETATM   14  C   UNL     1     -11.856  14.373  66.282  1.00  0.00    -0.391 C  
HETATM   15  C   UNL     1     -10.260   9.478  66.414  1.00  0.00    -0.232 C  
HETATM   16  C   UNL     1     -11.042  13.487  66.881  1.00  0.00    -0.309 C  
HETATM   17  C   UNL     1     -10.457  13.745  68.242  1.00  0.00    -0.251 C  
HETATM   18  C   UNL     1     -10.717  10.956  67.067  1.00  0.00    -0.323 C  
HETATM   19  O   UNL     1      -8.863   9.479  66.078  1.00  0.00    -0.143 OA 
HETATM   20  C   UNL     1     -10.617  12.563  69.182  1.00  0.00    -0.000 C  
HETATM   21  C   UNL     1     -10.081  11.261  68.580  1.00  0.00    -0.210 C  
HETATM   22  H   UNL     1      -8.726  10.293  65.608  1.00  0.00     0.000 HD 
ENDROOT
BRANCH   4  23
HETATM   23  C   UNL     1      -7.988   7.643  67.938  1.00  0.00    -0.118 C  
HETATM   24  O   UNL     1      -7.003   7.855  67.201  1.00  0.00    -0.071 OA 
BRANCH  23  25
HETATM   25  C   UNL     1      -8.266   6.059  68.116  1.00  0.00    -0.113 C  
BRANCH  25  26
HETATM   26  O   UNL     1      -7.145   5.402  68.950  1.00  0.00    -0.058 OA 
BRANCH  26  27
HETATM   27  C   UNL     1      -7.219   4.091  69.380  1.00  0.00    -0.050 C  
HETATM   28  O   UNL     1      -6.368   3.255  69.099  1.00  0.00    -0.028 OA 
BRANCH  27  29
HETATM   29  C   UNL     1      -8.468   3.752  70.252  1.00  0.00    -0.093 C  
HETATM   30  C   UNL     1      -9.098   2.373  69.945  1.00  0.00    -0.176 C  
ENDBRANCH  27  29
ENDBRANCH  26  27
ENDBRANCH  25  26
ENDBRANCH  23  25
ENDBRANCH   4  23
BRANCH   4  31
HETATM   31  O   UNL     1      -8.002   9.209  69.849  1.00  0.00    -0.085 OA 
BRANCH  31  32
HETATM   32  C   UNL     1      -6.864   9.996  69.873  1.00  0.00    -0.108 C  
HETATM   33  O   UNL     1      -6.323  10.486  68.895  1.00  0.00    -0.046 OA 
BRANCH  32  34
HETATM   34  O   UNL     1      -6.535  10.355  71.160  1.00  0.00    -0.336 OA 
BRANCH  34  35
HETATM   35  C   UNL     1      -5.422   9.585  71.681  1.00  0.00    -0.073 C  
HETATM   36  C   UNL     1      -5.763   8.732  72.893  1.00  0.00    -0.083 C  
ENDBRANCH  34  35
ENDBRANCH  32  34
ENDBRANCH  31  32
ENDBRANCH   4  31
TORSDOF 9
ENDMDL
MODEL       91
REMARK 921   NORMALIZED FREE ENERGY PREDICTED BY IDOCK:   -3.88 KCAL/MOL
REMARK 922        TOTAL FREE ENERGY PREDICTED BY IDOCK:   -5.79 KCAL/MOL
REMARK 923 INTER-LIGAND FREE ENERGY PREDICTED BY IDOCK:   -5.81 KCAL/MOL
REMARK 924 INTRA-LIGAND FREE ENERGY PREDICTED BY IDOCK:    0.02 KCAL/MOL
REMARK 927      BINDING AFFINITY PREDICTED BY RF-SCORE:    0.00 PKD
ROOT
HETATM    1  C   UNL     1      -9.327   8.559  67.654  1.00  0.00    -0.157 C  
HETATM    2  C   UNL     1     -10.476   9.107  67.027  1.00  0.00    -0.311 C  
HETATM    3  C   UNL     1     -10.589   7.781  67.704  1.00  0.00    -0.283 C  
HETATM    4  C   UNL     1      -9.095   7.225  69.051  1.00  0.00    -0.133 C  
HETATM    5  C   UNL     1      -7.670   4.109  66.130  1.00  0.00    -0.090 C  
HETATM    6  C   UNL     1      -8.872   4.777  65.454  1.00  0.00    -0.146 C  
HETATM    7  C   UNL     1     -10.302   7.874  69.177  1.00  0.00    -0.225 C  
HETATM    8  C   UNL     1     -10.076   3.849  64.977  1.00  0.00    -0.167 C  
HETATM    9  C   UNL     1     -10.697   8.954  70.159  1.00  0.00    -0.245 C  
HETATM   10  C   UNL     1     -11.058   6.134  68.951  1.00  0.00    -0.417 C  
HETATM   11  O   UNL     1      -8.577   2.596  62.895  1.00  0.00    -0.081 OA 
HETATM   12  C   UNL     1     -10.561   3.712  63.731  1.00  0.00    -0.284 C  
HETATM   13  C   UNL     1      -9.161   3.649  63.112  1.00  0.00    -0.102 C  
HETATM   14  C   UNL     1      -8.535   4.971  62.990  1.00  0.00    -0.119 C  
HETATM   15  C   UNL     1     -10.113   5.181  67.888  1.00  0.00    -0.137 C  
HETATM   16  C   UNL     1      -8.324   5.514  64.201  1.00  0.00    -0.102 C  
HETATM   17  C   UNL     1      -7.524   6.775  64.374  1.00  0.00    -0.100 C  
HETATM   18  C   UNL     1      -9.524   5.801  66.443  1.00  0.00    -0.172 C  
HETATM   19  O   UNL     1      -9.041   4.676  68.700  1.00  0.00    -0.105 OA 
HETATM   20  C   UNL     1      -8.221   7.793  65.260  1.00  0.00    -0.142 C  
HETATM   21  C   UNL     1      -8.636   7.204  66.612  1.00  0.00    -0.124 C  
HETATM   22  H   UNL     1      -8.517   4.148  68.110  1.00  0.00     0.000 HD 
ENDROOT
BRANCH   4  23
HETATM   23  C   UNL     1      -9.171   6.515  70.749  1.00  0.00    -0.155 C  
HETATM   24  O   UNL     1      -8.362   5.645  71.135  1.00  0.00    -0.119 OA 
BRANCH  23  25
HETATM   25  C   UNL     1     -10.293   6.822  71.873  1.00  0.00    -0.197 C  
BRANCH  25  26
HETATM   26  O   UNL     1     -11.109   5.549  72.188  1.00  0.00    -0.245 OA 
BRANCH  26  27
HETATM   27  C   UNL     1     -10.807   4.725  73.255  1.00  0.00    -0.281 C  
HETATM   28  O   UNL     1     -10.871   5.103  74.420  1.00  0.00    -0.323 OA 
BRANCH  27  29
HETATM   29  C   UNL     1     -10.377   3.275  72.869  1.00  0.00    -0.246 C  
HETATM   30  C   UNL     1     -11.224   2.166  73.537  1.00  0.00    -0.310 C  
ENDBRANCH  27  29
ENDBRANCH  26  27
ENDBRANCH  25  26
ENDBRANCH  23  25
ENDBRANCH   4  23
BRANCH   4  31
HETATM   31  O   UNL     1      -8.010   8.321  69.527  1.00  0.00    -0.107 OA 
BRANCH  31  32
HETATM   32  C   UNL     1      -6.699   8.077  69.896  1.00  0.00    -0.037 C  
HETATM   33  O   UNL     1      -5.859   7.529  69.200  1.00  0.00    -0.028 OA 
BRANCH  32  34
HETATM   34  O   UNL     1      -6.381   8.731  71.064  1.00  0.00    -0.042 OA 
BRANCH  34  35
HETATM   35  C   UNL     1      -5.291   8.093  71.776  1.00  0.00    -0.034 C  
HETATM   36  C   UNL     1      -5.733   7.159  72.892  1.00  0.00    -0.041 C  
ENDBRANCH  34  35
ENDBRANCH  32  34
ENDBRANCH  31  32
ENDBRANCH   4  31
TORSDOF 9
ENDMDL
MODEL       92
REMARK 921   NORMALIZED FREE ENERGY PREDICTED BY IDOCK:   -3.84 KCAL/MOL
REMARK 922        TOTAL FREE ENERGY PREDICTED BY IDOCK:   -5.73 KCAL/MOL
REMARK 923 INTER-LIGAND FREE ENERGY PREDICTED BY IDOCK:   -5.91 KCAL/MOL
REMARK 924 INTRA-LIGAND FREE ENERGY PREDICTED BY IDOCK:    0.18 KCAL/MOL
REMARK 927      BINDING AFFINITY PREDICTED BY RF-SCORE:    0.00 PKD
ROOT
HETATM    1  C   UNL     1      -8.355  11.002  65.741  1.00  0.00    -0.092 C  
HETATM    2  C   UNL     1      -8.695  10.646  64.411  1.00  0.00    -0.145 C  
HETATM    3  C   UNL     1      -9.763  10.638  65.452  1.00  0.00    -0.306 C  
HETATM    4  C   UNL     1      -9.408  11.645  67.246  1.00  0.00    -0.169 C  
HETATM    5  C   UNL     1      -9.160   7.688  69.379  1.00  0.00    -0.142 C  
HETATM    6  C   UNL     1      -9.455   7.341  67.916  1.00  0.00    -0.142 C  
HETATM    7  C   UNL     1      -9.983  12.002  66.047  1.00  0.00    -0.258 C  
HETATM    8  C   UNL     1     -10.732   6.441  67.601  1.00  0.00    -0.387 C  
HETATM    9  C   UNL     1      -9.983  13.350  65.363  1.00  0.00    -0.211 C  
HETATM   10  C   UNL     1     -11.472  10.974  66.660  1.00  0.00     0.159 C  
HETATM   11  O   UNL     1      -9.639   4.083  68.782  1.00  0.00    -0.164 OA 
HETATM   12  C   UNL     1     -10.762   5.251  66.978  1.00  0.00    -0.172 C  
HETATM   13  C   UNL     1      -9.544   4.732  67.748  1.00  0.00    -0.154 C  
HETATM   14  C   UNL     1      -8.276   5.253  67.224  1.00  0.00    -0.104 C  
HETATM   15  C   UNL     1     -10.958   9.635  67.594  1.00  0.00    -0.124 C  
HETATM   16  C   UNL     1      -8.208   6.587  67.379  1.00  0.00    -0.121 C  
HETATM   17  C   UNL     1      -6.942   7.350  67.104  1.00  0.00    -0.083 C  
HETATM   18  C   UNL     1      -9.684   8.658  67.103  1.00  0.00    -0.248 C  
HETATM   19  O   UNL     1     -10.713  10.172  68.904  1.00  0.00    -0.203 OA 
HETATM   20  C   UNL     1      -7.173   8.573  66.233  1.00  0.00    -0.078 C  
HETATM   21  C   UNL     1      -8.269   9.487  66.789  1.00  0.00    -0.113 C  
HETATM   22  H   UNL     1     -10.428   9.429  69.422  1.00  0.00     0.000 HD 
ENDROOT
BRANCH   4  23
HETATM   23  C   UNL     1     -10.434  12.826  68.218  1.00  0.00    -0.241 C  
HETATM   24  O   UNL     1     -11.658  12.651  68.387  1.00  0.00    -0.283 OA 
BRANCH  23  25
HETATM   25  C   UNL     1      -9.941  14.228  68.861  1.00  0.00    -0.156 C  
BRANCH  25  26
HETATM   26  O   UNL     1     -11.153  15.100  69.254  1.00  0.00    -0.245 OA 
BRANCH  26  27
HETATM   27  C   UNL     1     -11.019  16.424  69.623  1.00  0.00    -0.329 C  
HETATM   28  O   UNL     1     -11.317  16.833  70.740  1.00  0.00    -0.101 OA 
BRANCH  27  29
HETATM   29  C   UNL     1     -10.458  17.366  68.511  1.00  0.00    -0.370 C  
HETATM   30  C   UNL     1      -9.845  18.681  69.047  1.00  0.00    -0.330 C  
ENDBRANCH  27  29
ENDBRANCH  26  27
ENDBRANCH  25  26
ENDBRANCH  23  25
ENDBRANCH   4  23
BRANCH   4  31
HETATM   31  O   UNL     1      -8.123  12.615  67.368  1.00  0.00    -0.163 OA 
BRANCH  31  32
HETATM   32  C   UNL     1      -7.057  12.465  68.237  1.00  0.00    -0.098 C  
HETATM   33  O   UNL     1      -6.038  13.137  68.228  1.00  0.00    -0.072 OA 
BRANCH  32  34
HETATM   34  O   UNL     1      -7.373  11.612  69.269  1.00  0.00    -0.077 OA 
BRANCH  34  35
HETATM   35  C   UNL     1      -6.215  11.255  70.065  1.00  0.00    -0.149 C  
HETATM   36  C   UNL     1      -5.545   9.953  69.650  1.00  0.00    -0.037 C  
ENDBRANCH  34  35
ENDBRANCH  32  34
ENDBRANCH  31  32
ENDBRANCH   4  31
TORSDOF 9
ENDMDL
MODEL       93
REMARK 921   NORMALIZED FREE ENERGY PREDICTED BY IDOCK:   -3.81 KCAL/MOL
REMARK 922        TOTAL FREE ENERGY PREDICTED BY IDOCK:   -5.68 KCAL/MOL
REMARK 923 INTER-LIGAND FREE ENERGY PREDICTED BY IDOCK:   -6.20 KCAL/MOL
REMARK 924 INTRA-LIGAND FREE ENERGY PREDICTED BY IDOCK:    0.51 KCAL/MOL
REMARK 927      BINDING AFFINITY PREDICTED BY RF-SCORE:    0.00 PKD
ROOT
HETATM    1  C   UNL     1     -10.094   9.871  69.896  1.00  0.00    -0.297 C  
HETATM    2  C   UNL     1     -11.438   9.593  70.257  1.00  0.00    -0.288 C  
HETATM    3  C   UNL     1     -10.935   9.116  68.935  1.00  0.00    -0.016 C  
HETATM    4  C   UNL     1      -8.873   9.049  68.623  1.00  0.00    -0.137 C  
HETATM    5  C   UNL     1      -9.231  12.489  65.740  1.00  0.00     0.111 C  
HETATM    6  C   UNL     1     -10.661  12.206  66.212  1.00  0.00    -0.296 C  
HETATM    7  C   UNL     1      -9.800   8.141  69.081  1.00  0.00    -0.182 C  
HETATM    8  C   UNL     1     -11.772  11.911  65.107  1.00  0.00    -0.244 C  
HETATM    9  C   UNL     1      -9.619   7.035  70.096  1.00  0.00    -0.164 C  
HETATM   10  C   UNL     1     -10.307   8.004  67.245  1.00  0.00    -0.371 C  
HETATM   11  O   UNL     1     -11.776  14.575  64.082  1.00  0.00    -0.315 OA 
HETATM   12  C   UNL     1     -12.910  12.589  64.889  1.00  0.00    -0.216 C  
HETATM   13  C   UNL     1     -12.218  13.948  65.035  1.00  0.00    -0.425 C  
HETATM   14  C   UNL     1     -11.977  14.313  66.436  1.00  0.00    -0.438 C  
HETATM   15  C   UNL     1     -10.133   9.504  66.440  1.00  0.00    -0.258 C  
HETATM   16  C   UNL     1     -11.120  13.454  67.014  1.00  0.00    -0.310 C  
HETATM   17  C   UNL     1     -10.553  13.704  68.384  1.00  0.00    -0.260 C  
HETATM   18  C   UNL     1     -10.667  10.938  67.131  1.00  0.00    -0.320 C  
HETATM   19  O   UNL     1      -8.738   9.586  66.110  1.00  0.00    -0.138 OA 
HETATM   20  C   UNL     1     -10.656  12.489  69.290  1.00  0.00     0.101 C  
HETATM   21  C   UNL     1     -10.052  11.233  68.655  1.00  0.00    -0.216 C  
HETATM   22  H   UNL     1      -8.641  10.418  65.664  1.00  0.00     0.000 HD 
ENDROOT
BRANCH   4  23
HETATM   23  C   UNL     1      -7.775   7.746  67.923  1.00  0.00    -0.122 C  
HETATM   24  O   UNL     1      -7.674   6.618  68.449  1.00  0.00    -0.102 OA 
BRANCH  23  25
HETATM   25  C   UNL     1      -6.769   7.907  66.666  1.00  0.00    -0.063 C  
BRANCH  25  26
HETATM   26  O   UNL     1      -6.745   6.615  65.821  1.00  0.00    -0.046 OA 
BRANCH  26  27
HETATM   27  C   UNL     1      -7.712   6.336  64.873  1.00  0.00    -0.099 C  
HETATM   28  O   UNL     1      -8.572   5.478  65.039  1.00  0.00    -0.149 OA 
BRANCH  27  29
HETATM   29  C   UNL     1      -7.630   7.197  63.574  1.00  0.00    -0.109 C  
HETATM   30  C   UNL     1      -6.382   6.912  62.705  1.00  0.00    -0.044 C  
ENDBRANCH  27  29
ENDBRANCH  26  27
ENDBRANCH  25  26
ENDBRANCH  23  25
ENDBRANCH   4  23
BRANCH   4  31
HETATM   31  O   UNL     1      -7.875   9.255  69.876  1.00  0.00    -0.084 OA 
BRANCH  31  32
HETATM   32  C   UNL     1      -6.845  10.175  69.967  1.00  0.00    -0.137 C  
HETATM   33  O   UNL     1      -6.457  10.702  70.997  1.00  0.00    -0.334 OA 
BRANCH  32  34
HETATM   34  O   UNL     1      -6.149  10.260  68.783  1.00  0.00    -0.047 OA 
BRANCH  34  35
HETATM   35  C   UNL     1      -6.309  11.549  68.140  1.00  0.00    -0.046 C  
HETATM   36  C   UNL     1      -5.859  11.584  66.687  1.00  0.00    -0.137 C  
ENDBRANCH  34  35
ENDBRANCH  32  34
ENDBRANCH  31  32
ENDBRANCH   4  31
TORSDOF 9
ENDMDL
MODEL       94
REMARK 921   NORMALIZED FREE ENERGY PREDICTED BY IDOCK:   -3.79 KCAL/MOL
REMARK 922        TOTAL FREE ENERGY PREDICTED BY IDOCK:   -5.64 KCAL/MOL
REMARK 923 INTER-LIGAND FREE ENERGY PREDICTED BY IDOCK:   -6.07 KCAL/MOL
REMARK 924 INTRA-LIGAND FREE ENERGY PREDICTED BY IDOCK:    0.43 KCAL/MOL
REMARK 927      BINDING AFFINITY PREDICTED BY RF-SCORE:    0.00 PKD
ROOT
HETATM    1  C   UNL     1      -8.227  10.614  69.477  1.00  0.00    -0.036 C  
HETATM    2  C   UNL     1      -7.544   9.770  70.391  1.00  0.00    -0.165 C  
HETATM    3  C   UNL     1      -6.839  10.204  69.150  1.00  0.00    -0.059 C  
HETATM    4  C   UNL     1      -7.608  11.828  68.088  1.00  0.00    -0.117 C  
HETATM    5  C   UNL     1      -8.867   9.033  64.791  1.00  0.00    -0.165 C  
HETATM    6  C   UNL     1      -8.188   8.143  65.838  1.00  0.00    -0.122 C  
HETATM    7  C   UNL     1      -6.672  11.697  69.088  1.00  0.00    -0.109 C  
HETATM    8  C   UNL     1      -6.970   7.228  65.369  1.00  0.00    -0.060 C  
HETATM    9  C   UNL     1      -6.336  12.665  70.201  1.00  0.00     0.060 C  
HETATM   10  C   UNL     1      -5.541  11.038  67.698  1.00  0.00    -0.043 C  
HETATM   11  O   UNL     1      -8.592   5.501  63.777  1.00  0.00    -0.080 OA 
HETATM   12  C   UNL     1      -6.875   5.891  65.444  1.00  0.00    -0.055 C  
HETATM   13  C   UNL     1      -8.311   5.685  64.953  1.00  0.00    -0.139 C  
HETATM   14  C   UNL     1      -9.309   5.920  66.004  1.00  0.00    -0.117 C  
HETATM   15  C   UNL     1      -6.438  10.164  66.531  1.00  0.00    -0.076 C  
HETATM   16  C   UNL     1      -9.288   7.204  66.403  1.00  0.00    -0.190 C  
HETATM   17  C   UNL     1     -10.334   7.761  67.329  1.00  0.00    -0.371 C  
HETATM   18  C   UNL     1      -7.599   9.038  66.980  1.00  0.00    -0.091 C  
HETATM   19  O   UNL     1      -7.006  11.168  65.675  1.00  0.00    -0.373 OA 
HETATM   20  C   UNL     1      -9.734   8.545  68.484  1.00  0.00    -0.174 C  
HETATM   21  C   UNL     1      -8.768   9.635  68.011  1.00  0.00    -0.119 C  
HETATM   22  H   UNL     1      -7.504  10.684  65.028  1.00  0.00     0.000 HD 
ENDROOT
BRANCH   4  23
HETATM   23  C   UNL     1      -6.806  13.326  67.378  1.00  0.00    -0.085 C  
HETATM   24  O   UNL     1      -5.618  13.317  66.994  1.00  0.00    -0.244 OA 
BRANCH  23  25
HETATM   25  C   UNL     1      -7.457  14.803  67.257  1.00  0.00    -0.141 C  
BRANCH  25  26
HETATM   26  O   UNL     1      -6.374  15.846  66.905  1.00  0.00    -0.301 OA 
BRANCH  26  27
HETATM   27  C   UNL     1      -6.679  17.171  66.660  1.00  0.00    -0.242 C  
HETATM   28  O   UNL     1      -7.271  17.538  65.651  1.00  0.00    -0.405 OA 
BRANCH  27  29
HETATM   29  C   UNL     1      -6.215  18.170  67.767  1.00  0.00    -0.176 C  
HETATM   30  C   UNL     1      -7.319  19.144  68.242  1.00  0.00    -0.322 C  
ENDBRANCH  27  29
ENDBRANCH  26  27
ENDBRANCH  25  26
ENDBRANCH  23  25
ENDBRANCH   4  23
BRANCH   4  31
HETATM   31  O   UNL     1      -8.769  12.731  68.754  1.00  0.00     0.004 OA 
BRANCH  31  32
HETATM   32  C   UNL     1     -10.023  12.984  68.225  1.00  0.00    -0.235 C  
HETATM   33  O   UNL     1     -10.892  13.656  68.757  1.00  0.00    -0.248 OA 
BRANCH  32  34
HETATM   34  O   UNL     1     -10.100  12.576  66.914  1.00  0.00    -0.221 OA 
BRANCH  34  35
HETATM   35  C   UNL     1     -11.418  12.083  66.565  1.00  0.00    -0.349 C  
HETATM   36  C   UNL     1     -12.140  12.911  65.512  1.00  0.00    -0.507 C  
ENDBRANCH  34  35
ENDBRANCH  32  34
ENDBRANCH  31  32
ENDBRANCH   4  31
TORSDOF 9
ENDMDL
MODEL       95
REMARK 921   NORMALIZED FREE ENERGY PREDICTED BY IDOCK:   -3.72 KCAL/MOL
REMARK 922        TOTAL FREE ENERGY PREDICTED BY IDOCK:   -5.55 KCAL/MOL
REMARK 923 INTER-LIGAND FREE ENERGY PREDICTED BY IDOCK:   -6.04 KCAL/MOL
REMARK 924 INTRA-LIGAND FREE ENERGY PREDICTED BY IDOCK:    0.50 KCAL/MOL
REMARK 927      BINDING AFFINITY PREDICTED BY RF-SCORE:    0.00 PKD
ROOT
HETATM    1  C   UNL     1     -10.827   7.164  70.668  1.00  0.00    -0.268 C  
HETATM    2  C   UNL     1     -12.034   6.693  70.088  1.00  0.00    -0.250 C  
HETATM    3  C   UNL     1     -10.812   6.774  69.236  1.00  0.00    -0.303 C  
HETATM    4  C   UNL     1      -8.957   6.949  70.177  1.00  0.00    -0.149 C  
HETATM    5  C   UNL     1      -8.642  11.189  68.695  1.00  0.00    -0.151 C  
HETATM    6  C   UNL     1      -9.975  10.667  68.149  1.00  0.00    -0.176 C  
HETATM    7  C   UNL     1      -9.711   5.883  69.742  1.00  0.00    -0.202 C  
HETATM    8  C   UNL     1     -10.222  10.742  66.576  1.00  0.00    -0.287 C  
HETATM    9  C   UNL     1      -9.805   4.491  70.324  1.00  0.00    -0.299 C  
HETATM   10  C   UNL     1      -9.129   6.412  68.001  1.00  0.00    -0.113 C  
HETATM   11  O   UNL     1     -10.387  13.592  66.514  1.00  0.00    -0.272 OA 
HETATM   12  C   UNL     1     -11.210  11.386  65.932  1.00  0.00    -0.172 C  
HETATM   13  C   UNL     1     -11.080  12.629  66.817  1.00  0.00    -0.277 C  
HETATM   14  C   UNL     1     -11.711  12.459  68.131  1.00  0.00    -0.408 C  
HETATM   15  C   UNL     1      -8.959   8.112  67.894  1.00  0.00    -0.133 C  
HETATM   16  C   UNL     1     -11.093  11.497  68.838  1.00  0.00    -0.288 C  
HETATM   17  C   UNL     1     -11.413  11.250  70.286  1.00  0.00    -0.286 C  
HETATM   18  C   UNL     1     -10.128   9.151  68.505  1.00  0.00    -0.212 C  
HETATM   19  O   UNL     1      -7.675   8.391  68.474  1.00  0.00    -0.100 OA 
HETATM   20  C   UNL     1     -11.652   9.781  70.590  1.00  0.00    -0.389 C  
HETATM   21  C   UNL     1     -10.501   8.891  70.111  1.00  0.00    -0.236 C  
HETATM   22  H   UNL     1      -7.582   9.334  68.415  1.00  0.00     0.000 HD 
ENDROOT
BRANCH   4  23
HETATM   23  C   UNL     1      -7.359   6.068  69.922  1.00  0.00    -0.075 C  
HETATM   24  O   UNL     1      -7.204   4.876  70.262  1.00  0.00    -0.048 OA 
BRANCH  23  25
HETATM   25  C   UNL     1      -5.986   6.707  69.355  1.00  0.00    -0.022 C  
BRANCH  25  26
HETATM   26  O   UNL     1      -5.638   6.109  67.974  1.00  0.00    -0.007 OA 
BRANCH  26  27
HETATM   27  C   UNL     1      -5.725   6.846  66.809  1.00  0.00    -0.018 C  
HETATM   28  O   UNL     1      -5.353   8.012  66.735  1.00  0.00    -0.030 OA 
BRANCH  27  29
HETATM   29  C   UNL     1      -6.331   6.083  65.589  1.00  0.00    -0.038 C  
HETATM   30  C   UNL     1      -7.014   6.999  64.547  1.00  0.00    -0.051 C  
ENDBRANCH  27  29
ENDBRANCH  26  27
ENDBRANCH  25  26
ENDBRANCH  23  25
ENDBRANCH   4  23
BRANCH   4  31
HETATM   31  O   UNL     1      -8.855   6.731  71.773  1.00  0.00    -0.129 OA 
BRANCH  31  32
HETATM   32  C   UNL     1      -8.219   7.560  72.680  1.00  0.00    -0.112 C  
HETATM   33  O   UNL     1      -8.691   8.578  73.159  1.00  0.00    -0.345 OA 
BRANCH  32  34
HETATM   34  O   UNL     1      -7.066   6.981  73.160  1.00  0.00    -0.073 OA 
BRANCH  34  35
HETATM   35  C   UNL     1      -5.994   7.942  73.328  1.00  0.00    -0.061 C  
HETATM   36  C   UNL     1      -5.678   8.753  72.080  1.00  0.00    -0.062 C  
ENDBRANCH  34  35
ENDBRANCH  32  34
ENDBRANCH  31  32
ENDBRANCH   4  31
TORSDOF 9
ENDMDL
MODEL       96
REMARK 921   NORMALIZED FREE ENERGY PREDICTED BY IDOCK:   -3.71 KCAL/MOL
REMARK 922        TOTAL FREE ENERGY PREDICTED BY IDOCK:   -5.52 KCAL/MOL
REMARK 923 INTER-LIGAND FREE ENERGY PREDICTED BY IDOCK:   -5.18 KCAL/MOL
REMARK 924 INTRA-LIGAND FREE ENERGY PREDICTED BY IDOCK:   -0.34 KCAL/MOL
REMARK 927      BINDING AFFINITY PREDICTED BY RF-SCORE:    0.00 PKD
ROOT
HETATM    1  C   UNL     1      -9.019   5.177  67.053  1.00  0.00    -0.112 C  
HETATM    2  C   UNL     1     -10.317   4.838  66.590  1.00  0.00    -0.258 C  
HETATM    3  C   UNL     1     -10.112   6.161  67.249  1.00  0.00    -0.202 C  
HETATM    4  C   UNL     1      -8.163   6.878  67.448  1.00  0.00    -0.119 C  
HETATM    5  C   UNL     1      -8.405   6.208  71.893  1.00  0.00    -0.118 C  
HETATM    6  C   UNL     1      -9.771   5.780  71.345  1.00  0.00    -0.203 C  
HETATM    7  C   UNL     1      -9.141   7.024  66.491  1.00  0.00    -0.183 C  
HETATM    8  C   UNL     1     -11.073   6.467  71.955  1.00  0.00    -0.296 C  
HETATM    9  C   UNL     1      -8.985   7.197  64.998  1.00  0.00     0.455 C  
HETATM   10  C   UNL     1      -9.945   8.212  67.753  1.00  0.00    -0.230 C  
HETATM   11  O   UNL     1     -10.806   5.217  74.508  1.00  0.00    -0.311 OA 
HETATM   12  C   UNL     1     -12.107   5.864  72.566  1.00  0.00    -0.100 C  
HETATM   13  C   UNL     1     -11.189   4.945  73.378  1.00  0.00    -0.338 C  
HETATM   14  C   UNL     1     -10.676   3.817  72.591  1.00  0.00    -0.096 C  
HETATM   15  C   UNL     1      -9.659   7.697  69.360  1.00  0.00    -0.159 C  
HETATM   16  C   UNL     1      -9.890   4.251  71.590  1.00  0.00    -0.257 C  
HETATM   17  C   UNL     1      -9.082   3.301  70.750  1.00  0.00    -0.185 C  
HETATM   18  C   UNL     1      -9.838   6.090  69.812  1.00  0.00    -0.208 C  
HETATM   19  O   UNL     1      -8.337   8.169  69.667  1.00  0.00    -0.121 OA 
HETATM   20  C   UNL     1      -9.238   3.560  69.261  1.00  0.00    -0.230 C  
HETATM   21  C   UNL     1      -8.952   5.018  68.888  1.00  0.00    -0.127 C  
HETATM   22  H   UNL     1      -8.178   7.883  70.559  1.00  0.00     0.000 HD 
ENDROOT
BRANCH   4  23
HETATM   23  C   UNL     1      -7.414   8.524  67.095  1.00  0.00    -0.085 C  
HETATM   24  O   UNL     1      -6.593   9.054  67.872  1.00  0.00    -0.059 OA 
BRANCH  23  25
HETATM   25  C   UNL     1      -7.775   9.502  65.857  1.00  0.00    -0.100 C  
BRANCH  25  26
HETATM   26  O   UNL     1      -8.227  10.885  66.372  1.00  0.00    -0.152 OA 
BRANCH  26  27
HETATM   27  C   UNL     1      -9.487  11.392  66.114  1.00  0.00    -0.216 C  
HETATM   28  O   UNL     1      -9.978  12.306  66.766  1.00  0.00    -0.201 OA 
BRANCH  27  29
HETATM   29  C   UNL     1     -10.239  10.714  64.926  1.00  0.00    -0.395 C  
HETATM   30  C   UNL     1     -11.129  11.680  64.108  1.00  0.00    -0.435 C  
ENDBRANCH  27  29
ENDBRANCH  26  27
ENDBRANCH  25  26
ENDBRANCH  23  25
ENDBRANCH   4  23
BRANCH   4  31
HETATM   31  O   UNL     1      -6.961   6.133  66.668  1.00  0.00    -0.064 OA 
BRANCH  31  32
HETATM   32  C   UNL     1      -5.767   5.698  67.216  1.00  0.00    -0.017 C  
HETATM   33  O   UNL     1      -5.377   5.943  68.346  1.00  0.00    -0.003 OA 
BRANCH  32  34
HETATM   34  O   UNL     1      -5.164   4.759  66.411  1.00  0.00    -0.008 OA 
BRANCH  34  35
HETATM   35  C   UNL     1      -6.001   3.595  66.198  1.00  0.00    -0.023 C  
HETATM   36  C   UNL     1      -6.133   2.686  67.411  1.00  0.00    -0.027 C  
ENDBRANCH  34  35
ENDBRANCH  32  34
ENDBRANCH  31  32
ENDBRANCH   4  31
TORSDOF 9
ENDMDL
MODEL       97
REMARK 921   NORMALIZED FREE ENERGY PREDICTED BY IDOCK:   -3.65 KCAL/MOL
REMARK 922        TOTAL FREE ENERGY PREDICTED BY IDOCK:   -5.44 KCAL/MOL
REMARK 923 INTER-LIGAND FREE ENERGY PREDICTED BY IDOCK:   -5.55 KCAL/MOL
REMARK 924 INTRA-LIGAND FREE ENERGY PREDICTED BY IDOCK:    0.11 KCAL/MOL
REMARK 927      BINDING AFFINITY PREDICTED BY RF-SCORE:    0.00 PKD
ROOT
HETATM    1  C   UNL     1     -10.459   7.271  68.136  1.00  0.00    -0.244 C  
HETATM    2  C   UNL     1     -11.040   6.354  67.223  1.00  0.00    -0.416 C  
HETATM    3  C   UNL     1      -9.591   6.219  67.551  1.00  0.00    -0.122 C  
HETATM    4  C   UNL     1      -8.864   7.193  69.248  1.00  0.00    -0.136 C  
HETATM    5  C   UNL     1      -6.622  10.062  66.599  1.00  0.00    -0.073 C  
HETATM    6  C   UNL     1      -7.328   9.095  65.642  1.00  0.00    -0.086 C  
HETATM    7  C   UNL     1      -9.367   5.935  69.011  1.00  0.00    -0.138 C  
HETATM    8  C   UNL     1      -6.438   8.311  64.576  1.00  0.00    -0.065 C  
HETATM    9  C   UNL     1     -10.160   5.043  69.940  1.00  0.00    -0.344 C  
HETATM   10  C   UNL     1      -7.670   5.604  68.200  1.00  0.00    -0.089 C  
HETATM   11  O   UNL     1      -5.819  10.642  63.049  1.00  0.00    -0.149 OA 
HETATM   12  C   UNL     1      -6.551   8.338  63.238  1.00  0.00    -0.085 C  
HETATM   13  C   UNL     1      -6.744   9.858  63.209  1.00  0.00    -0.124 C  
HETATM   14  C   UNL     1      -8.105  10.263  63.579  1.00  0.00    -0.152 C  
HETATM   15  C   UNL     1      -7.064   7.009  67.434  1.00  0.00    -0.088 C  
HETATM   16  C   UNL     1      -8.372   9.931  64.854  1.00  0.00    -0.154 C  
HETATM   17  C   UNL     1      -9.622  10.400  65.548  1.00  0.00    -0.290 C  
HETATM   18  C   UNL     1      -8.043   7.973  66.467  1.00  0.00    -0.103 C  
HETATM   19  O   UNL     1      -6.475   7.781  68.492  1.00  0.00    -0.049 OA 
HETATM   20  C   UNL     1     -10.351   9.275  66.262  1.00  0.00    -0.192 C  
HETATM   21  C   UNL     1      -9.437   8.501  67.217  1.00  0.00    -0.199 C  
HETATM   22  H   UNL     1      -6.140   8.561  68.067  1.00  0.00     0.000 HD 
ENDROOT
BRANCH   4  23
HETATM   23  C   UNL     1      -7.781   6.625  70.626  1.00  0.00    -0.104 C  
HETATM   24  O   UNL     1      -6.569   6.920  70.675  1.00  0.00    -0.050 OA 
BRANCH  23  25
HETATM   25  C   UNL     1      -8.201   5.634  71.835  1.00  0.00    -0.119 C  
BRANCH  25  26
HETATM   26  O   UNL     1      -7.257   4.413  71.887  1.00  0.00    -0.059 OA 
BRANCH  26  27
HETATM   27  C   UNL     1      -7.731   3.119  71.980  1.00  0.00    -0.054 C  
HETATM   28  O   UNL     1      -8.858   2.855  72.384  1.00  0.00    -0.074 OA 
BRANCH  27  29
HETATM   29  C   UNL     1      -6.725   2.013  71.530  1.00  0.00    -0.023 C  
HETATM   30  C   UNL     1      -5.908   2.379  70.269  1.00  0.00    -0.018 C  
ENDBRANCH  27  29
ENDBRANCH  26  27
ENDBRANCH  25  26
ENDBRANCH  23  25
ENDBRANCH   4  23
BRANCH   4  31
HETATM   31  O   UNL     1      -9.907   7.841  70.297  1.00  0.00    -0.183 OA 
BRANCH  31  32
HETATM   32  C   UNL     1      -9.731   9.007  71.022  1.00  0.00    -0.278 C  
HETATM   33  O   UNL     1      -9.167   9.090  72.101  1.00  0.00    -0.365 OA 
BRANCH  32  34
HETATM   34  O   UNL     1     -10.068  10.112  70.275  1.00  0.00    -0.227 OA 
BRANCH  34  35
HETATM   35  C   UNL     1     -11.502  10.289  70.167  1.00  0.00    -0.309 C  
HETATM   36  C   UNL     1     -11.934  11.258  69.075  1.00  0.00    -0.393 C  
ENDBRANCH  34  35
ENDBRANCH  32  34
ENDBRANCH  31  32
ENDBRANCH   4  31
TORSDOF 9
ENDMDL
MODEL       98
REMARK 921   NORMALIZED FREE ENERGY PREDICTED BY IDOCK:   -3.63 KCAL/MOL
REMARK 922        TOTAL FREE ENERGY PREDICTED BY IDOCK:   -5.40 KCAL/MOL
REMARK 923 INTER-LIGAND FREE ENERGY PREDICTED BY IDOCK:   -5.33 KCAL/MOL
REMARK 924 INTRA-LIGAND FREE ENERGY PREDICTED BY IDOCK:   -0.07 KCAL/MOL
REMARK 927      BINDING AFFINITY PREDICTED BY RF-SCORE:    0.00 PKD
ROOT
HETATM    1  C   UNL     1      -9.921   6.806  67.090  1.00  0.00    -0.220 C  
HETATM    2  C   UNL     1     -11.339   6.820  67.067  1.00  0.00     0.013 C  
HETATM    3  C   UNL     1     -10.625   7.812  67.923  1.00  0.00    -0.221 C  
HETATM    4  C   UNL     1      -8.596   8.149  67.569  1.00  0.00    -0.129 C  
HETATM    5  C   UNL     1      -7.612   6.095  71.453  1.00  0.00    -0.099 C  
HETATM    6  C   UNL     1      -9.141   6.064  71.355  1.00  0.00    -0.149 C  
HETATM    7  C   UNL     1      -9.755   8.734  67.113  1.00  0.00    -0.248 C  
HETATM    8  C   UNL     1      -9.983   6.685  72.558  1.00  0.00    -0.184 C  
HETATM    9  C   UNL     1     -10.030   9.365  65.767  1.00  0.00    -0.278 C  
HETATM   10  C   UNL     1      -9.816   9.540  68.843  1.00  0.00    -0.179 C  
HETATM   11  O   UNL     1      -9.255   4.642  74.414  1.00  0.00    -0.112 OA 
HETATM   12  C   UNL     1     -10.892   6.063  73.327  1.00  0.00    -0.277 C  
HETATM   13  C   UNL     1     -10.022   4.811  73.476  1.00  0.00    -0.153 C  
HETATM   14  C   UNL     1     -10.068   3.946  72.291  1.00  0.00    -0.234 C  
HETATM   15  C   UNL     1      -9.183   8.492  70.039  1.00  0.00    -0.155 C  
HETATM   16  C   UNL     1      -9.548   4.572  71.221  1.00  0.00    -0.240 C  
HETATM   17  C   UNL     1      -9.296   3.848  69.927  1.00  0.00    -0.245 C  
HETATM   18  C   UNL     1      -9.600   6.867  70.091  1.00  0.00    -0.162 C  
HETATM   19  O   UNL     1      -7.758   8.650  69.950  1.00  0.00    -0.079 OA 
HETATM   20  C   UNL     1      -9.835   4.600  68.722  1.00  0.00    -0.201 C  
HETATM   21  C   UNL     1      -9.332   6.046  68.663  1.00  0.00    -0.121 C  
HETATM   22  H   UNL     1      -7.406   8.068  70.612  1.00  0.00     0.000 HD 
ENDROOT
BRANCH   4  23
HETATM   23  C   UNL     1      -7.615   9.700  67.405  1.00  0.00    -0.095 C  
HETATM   24  O   UNL     1      -6.482   9.818  67.915  1.00  0.00    -0.059 OA 
BRANCH  23  25
HETATM   25  C   UNL     1      -8.101  11.078  66.711  1.00  0.00    -0.151 C  
BRANCH  25  26
HETATM   26  O   UNL     1      -7.839  12.278  67.647  1.00  0.00    -0.133 OA 
BRANCH  26  27
HETATM   27  C   UNL     1      -8.725  13.333  67.759  1.00  0.00    -0.194 C  
HETATM   28  O   UNL     1      -9.941  13.179  67.736  1.00  0.00    -0.216 OA 
BRANCH  27  29
HETATM   29  C   UNL     1      -8.062  14.737  67.918  1.00  0.00    -0.146 C  
HETATM   30  C   UNL     1      -7.510  15.018  69.335  1.00  0.00    -0.196 C  
ENDBRANCH  27  29
ENDBRANCH  26  27
ENDBRANCH  25  26
ENDBRANCH  23  25
ENDBRANCH   4  23
BRANCH   4  31
HETATM   31  O   UNL     1      -7.913   7.543  66.237  1.00  0.00    -0.101 OA 
BRANCH  31  32
HETATM   32  C   UNL     1      -6.752   6.794  66.173  1.00  0.00    -0.052 C  
HETATM   33  O   UNL     1      -6.080   6.449  67.131  1.00  0.00    -0.023 OA 
BRANCH  32  34
HETATM   34  O   UNL     1      -6.559   6.283  64.910  1.00  0.00    -0.037 OA 
BRANCH  34  35
HETATM   35  C   UNL     1      -7.808   6.018  64.224  1.00  0.00    -0.113 C  
HETATM   36  C   UNL     1      -8.414   4.655  64.528  1.00  0.00    -0.136 C  
ENDBRANCH  34  35
ENDBRANCH  32  34
ENDBRANCH  31  32
ENDBRANCH   4  31
TORSDOF 9
ENDMDL
MODEL       99
REMARK 921   NORMALIZED FREE ENERGY PREDICTED BY IDOCK:   -3.60 KCAL/MOL
REMARK 922        TOTAL FREE ENERGY PREDICTED BY IDOCK:   -5.36 KCAL/MOL
REMARK 923 INTER-LIGAND FREE ENERGY PREDICTED BY IDOCK:   -5.58 KCAL/MOL
REMARK 924 INTRA-LIGAND FREE ENERGY PREDICTED BY IDOCK:    0.23 KCAL/MOL
REMARK 927      BINDING AFFINITY PREDICTED BY RF-SCORE:    0.00 PKD
ROOT
HETATM    1  C   UNL     1      -9.568  10.766  68.479  1.00  0.00    -0.183 C  
HETATM    2  C   UNL     1      -8.718  10.462  69.574  1.00  0.00    -0.102 C  
HETATM    3  C   UNL     1      -8.115  11.026  68.330  1.00  0.00    -0.134 C  
HETATM    4  C   UNL     1      -9.375  11.952  66.948  1.00  0.00    -0.196 C  
HETATM    5  C   UNL     1      -8.724   8.522  64.106  1.00  0.00     0.114 C  
HETATM    6  C   UNL     1      -7.876   8.192  65.339  1.00  0.00    -0.115 C  
HETATM    7  C   UNL     1      -8.640  12.401  68.022  1.00  0.00    -0.180 C  
HETATM    8  C   UNL     1      -6.320   7.913  65.128  1.00  0.00    -0.041 C  
HETATM    9  C   UNL     1      -8.948  13.538  68.970  1.00  0.00     0.364 C  
HETATM   10  C   UNL     1      -7.142  12.194  66.854  1.00  0.00     0.008 C  
HETATM   11  O   UNL     1      -6.724   5.447  63.747  1.00  0.00    -0.039 OA 
HETATM   12  C   UNL     1      -5.638   6.800  65.442  1.00  0.00    -0.030 C  
HETATM   13  C   UNL     1      -6.734   5.882  64.891  1.00  0.00    -0.047 C  
HETATM   14  C   UNL     1      -7.871   5.742  65.809  1.00  0.00    -0.102 C  
HETATM   15  C   UNL     1      -7.361  10.867  65.795  1.00  0.00     0.005 C  
HETATM   16  C   UNL     1      -8.496   6.920  65.978  1.00  0.00    -0.140 C  
HETATM   17  C   UNL     1      -9.803   7.022  66.714  1.00  0.00    -0.250 C  
HETATM   18  C   UNL     1      -7.933   9.388  66.347  1.00  0.00    -0.108 C  
HETATM   19  O   UNL     1      -8.191  11.372  64.738  1.00  0.00    -0.163 OA 
HETATM   20  C   UNL     1      -9.804   8.128  67.755  1.00  0.00    -0.209 C  
HETATM   21  C   UNL     1      -9.382   9.480  67.171  1.00  0.00    -0.174 C  
HETATM   22  H   UNL     1      -8.313  10.636  64.151  1.00  0.00     0.000 HD 
ENDROOT
BRANCH   4  23
HETATM   23  C   UNL     1      -9.249  13.555  66.048  1.00  0.00     0.109 C  
HETATM   24  O   UNL     1      -9.607  13.670  64.858  1.00  0.00     0.058 OA 
BRANCH  23  25
HETATM   25  C   UNL     1      -8.596  14.926  66.607  1.00  0.00    -0.172 C  
BRANCH  25  26
HETATM   26  O   UNL     1      -9.339  16.153  66.035  1.00  0.00    -0.309 OA 
BRANCH  26  27
HETATM   27  C   UNL     1      -9.361  17.371  66.686  1.00  0.00    -0.265 C  
HETATM   28  O   UNL     1      -8.449  17.747  67.415  1.00  0.00    -0.222 OA 
BRANCH  27  29
HETATM   29  C   UNL     1     -10.633  18.237  66.425  1.00  0.00    -0.318 C  
HETATM   30  C   UNL     1     -10.381  19.762  66.477  1.00  0.00    -0.621 C  
ENDBRANCH  27  29
ENDBRANCH  26  27
ENDBRANCH  25  26
ENDBRANCH  23  25
ENDBRANCH   4  23
BRANCH   4  31
HETATM   31  O   UNL     1     -10.903  12.272  67.359  1.00  0.00    -0.226 OA 
BRANCH  31  32
HETATM   32  C   UNL     1     -11.897  12.754  66.527  1.00  0.00    -0.405 C  
HETATM   33  O   UNL     1     -12.380  12.154  65.581  1.00  0.00    -0.560 OA 
BRANCH  32  34
HETATM   34  O   UNL     1     -12.447  13.912  67.028  1.00  0.00    -0.323 OA 
BRANCH  34  35
HETATM   35  C   UNL     1     -12.139  14.107  68.431  1.00  0.00    -0.273 C  
HETATM   36  C   UNL     1     -11.867  15.553  68.818  1.00  0.00    -0.335 C  
ENDBRANCH  34  35
ENDBRANCH  32  34
ENDBRANCH  31  32
ENDBRANCH   4  31
TORSDOF 9
ENDMDL
MODEL      100
REMARK 921   NORMALIZED FREE ENERGY PREDICTED BY IDOCK:   -3.60 KCAL/MOL
REMARK 922        TOTAL FREE ENERGY PREDICTED BY IDOCK:   -5.36 KCAL/MOL
REMARK 923 INTER-LIGAND FREE ENERGY PREDICTED BY IDOCK:   -6.06 KCAL/MOL
REMARK 924 INTRA-LIGAND FREE ENERGY PREDICTED BY IDOCK:    0.70 KCAL/MOL
REMARK 927      BINDING AFFINITY PREDICTED BY RF-SCORE:    0.00 PKD
ROOT
HETATM    1  C   UNL     1      -8.102   5.790  70.551  1.00  0.00    -0.110 C  
HETATM    2  C   UNL     1      -6.734   5.413  70.575  1.00  0.00    -0.047 C  
HETATM    3  C   UNL     1      -7.182   6.430  69.579  1.00  0.00    -0.078 C  
HETATM    4  C   UNL     1      -9.025   7.363  69.875  1.00  0.00    -0.141 C  
HETATM    5  C   UNL     1     -10.687   5.128  66.338  1.00  0.00    -0.275 C  
HETATM    6  C   UNL     1      -9.223   4.688  66.443  1.00  0.00    -0.133 C  
HETATM    7  C   UNL     1      -7.733   7.663  70.241  1.00  0.00    -0.091 C  
HETATM    8  C   UNL     1      -8.291   4.872  65.162  1.00  0.00    -0.133 C  
HETATM    9  C   UNL     1      -7.243   8.380  71.479  1.00  0.00    -0.093 C  
HETATM   10  C   UNL     1      -7.521   8.164  68.410  1.00  0.00    -0.100 C  
HETATM   11  O   UNL     1      -9.624   2.866  63.630  1.00  0.00    -0.102 OA 
HETATM   12  C   UNL     1      -7.619   3.919  64.496  1.00  0.00    -0.080 C  
HETATM   13  C   UNL     1      -8.804   2.949  64.534  1.00  0.00    -0.109 C  
HETATM   14  C   UNL     1      -8.951   2.284  65.834  1.00  0.00    -0.110 C  
HETATM   15  C   UNL     1      -8.464   7.172  67.383  1.00  0.00    -0.122 C  
HETATM   16  C   UNL     1      -9.237   3.177  66.798  1.00  0.00    -0.175 C  
HETATM   17  C   UNL     1      -9.626   2.745  68.185  1.00  0.00    -0.112 C  
HETATM   18  C   UNL     1      -8.512   5.505  67.574  1.00  0.00    -0.106 C  
HETATM   19  O   UNL     1      -9.787   7.730  67.444  1.00  0.00    -0.151 OA 
HETATM   20  C   UNL     1      -8.854   3.483  69.266  1.00  0.00    -0.156 C  
HETATM   21  C   UNL     1      -8.939   5.005  69.108  1.00  0.00    -0.130 C  
HETATM   22  H   UNL     1     -10.310   7.180  66.875  1.00  0.00     0.000 HD 
ENDROOT
BRANCH   4  23
HETATM   23  C   UNL     1      -9.535   9.132  69.804  1.00  0.00    -0.182 C  
HETATM   24  O   UNL     1      -9.000  10.001  70.524  1.00  0.00     0.003 OA 
BRANCH  23  25
HETATM   25  C   UNL     1     -10.748   9.751  68.929  1.00  0.00    -0.217 C  
BRANCH  25  26
HETATM   26  O   UNL     1     -10.483  11.239  68.612  1.00  0.00    -0.188 OA 
BRANCH  26  27
HETATM   27  C   UNL     1     -10.069  11.665  67.364  1.00  0.00    -0.198 C  
HETATM   28  O   UNL     1      -9.223  12.538  67.211  1.00  0.00    -0.177 OA 
BRANCH  27  29
HETATM   29  C   UNL     1     -10.759  10.948  66.161  1.00  0.00    -0.225 C  
HETATM   30  C   UNL     1      -9.771  10.347  65.134  1.00  0.00    -0.353 C  
ENDBRANCH  27  29
ENDBRANCH  26  27
ENDBRANCH  25  26
ENDBRANCH  23  25
ENDBRANCH   4  23
BRANCH   4  31
HETATM   31  O   UNL     1      -9.795   7.169  71.281  1.00  0.00    -0.178 OA 
BRANCH  31  32
HETATM   32  C   UNL     1     -11.023   6.560  71.472  1.00  0.00    -0.255 C  
HETATM   33  O   UNL     1     -11.260   5.690  72.294  1.00  0.00    -0.266 OA 
BRANCH  32  34
HETATM   34  O   UNL     1     -12.014   7.212  70.776  1.00  0.00    -0.332 OA 
BRANCH  34  35
HETATM   35  C   UNL     1     -12.861   8.011  71.640  1.00  0.00    -0.329 C  
HETATM   36  C   UNL     1     -14.326   7.599  71.638  1.00  0.00    -0.613 C  
ENDBRANCH  34  35
ENDBRANCH  32  34
ENDBRANCH  31  32
ENDBRANCH   4  31
TORSDOF 9
ENDMDL
MODEL      101
REMARK 921   NORMALIZED FREE ENERGY PREDICTED BY IDOCK:   -3.59 KCAL/MOL
REMARK 922        TOTAL FREE ENERGY PREDICTED BY IDOCK:   -5.35 KCAL/MOL
REMARK 923 INTER-LIGAND FREE ENERGY PREDICTED BY IDOCK:   -5.74 KCAL/MOL
REMARK 924 INTRA-LIGAND FREE ENERGY PREDICTED BY IDOCK:    0.38 KCAL/MOL
REMARK 927      BINDING AFFINITY PREDICTED BY RF-SCORE:    0.00 PKD
ROOT
HETATM    1  C   UNL     1     -10.376  10.144  67.261  1.00  0.00    -0.291 C  
HETATM    2  C   UNL     1     -11.278  10.260  68.349  1.00  0.00    -0.284 C  
HETATM    3  C   UNL     1      -9.813  10.220  68.631  1.00  0.00    -0.180 C  
HETATM    4  C   UNL     1      -8.491  10.580  67.058  1.00  0.00    -0.128 C  
HETATM    5  C   UNL     1      -7.264   6.249  67.141  1.00  0.00    -0.075 C  
HETATM    6  C   UNL     1      -8.300   6.398  68.261  1.00  0.00    -0.116 C  
HETATM    7  C   UNL     1      -9.087  11.379  68.007  1.00  0.00    -0.171 C  
HETATM    8  C   UNL     1      -7.882   5.951  69.733  1.00  0.00    -0.100 C  
HETATM    9  C   UNL     1      -9.519  12.823  67.891  1.00  0.00    -0.208 C  
HETATM   10  C   UNL     1      -7.810  10.608  69.200  1.00  0.00    -0.142 C  
HETATM   11  O   UNL     1      -7.779   3.169  69.098  1.00  0.00    -0.048 OA 
HETATM   12  C   UNL     1      -8.470   5.021  70.504  1.00  0.00    -0.109 C  
HETATM   13  C   UNL     1      -8.610   4.035  69.340  1.00  0.00    -0.077 C  
HETATM   14  C   UNL     1      -9.730   4.363  68.450  1.00  0.00    -0.172 C  
HETATM   15  C   UNL     1      -7.476   8.982  68.784  1.00  0.00    -0.076 C  
HETATM   16  C   UNL     1      -9.530   5.546  67.845  1.00  0.00    -0.128 C  
HETATM   17  C   UNL     1     -10.427   6.031  66.740  1.00  0.00    -0.329 C  
HETATM   18  C   UNL     1      -8.705   7.904  68.401  1.00  0.00    -0.131 C  
HETATM   19  O   UNL     1      -6.518   9.063  67.716  1.00  0.00    -0.056 OA 
HETATM   20  C   UNL     1     -10.886   7.465  66.946  1.00  0.00    -0.223 C  
HETATM   21  C   UNL     1      -9.715   8.425  67.179  1.00  0.00    -0.250 C  
HETATM   22  H   UNL     1      -6.334   8.161  67.485  1.00  0.00     0.000 HD 
ENDROOT
BRANCH   4  23
HETATM   23  C   UNL     1      -7.003  11.658  66.923  1.00  0.00    -0.123 C  
HETATM   24  O   UNL     1      -6.152  11.495  66.023  1.00  0.00    -0.055 OA 
BRANCH  23  25
HETATM   25  C   UNL     1      -6.562  12.827  67.951  1.00  0.00    -0.118 C  
BRANCH  25  26
HETATM   26  O   UNL     1      -6.454  14.182  67.218  1.00  0.00    -0.288 OA 
BRANCH  26  27
HETATM   27  C   UNL     1      -6.759  15.380  67.836  1.00  0.00    -0.160 C  
HETATM   28  O   UNL     1      -6.615  15.558  69.040  1.00  0.00    -0.112 OA 
BRANCH  27  29
HETATM   29  C   UNL     1      -7.301  16.493  66.885  1.00  0.00    -0.260 C  
HETATM   30  C   UNL     1      -6.727  17.901  67.169  1.00  0.00    -0.200 C  
ENDBRANCH  27  29
ENDBRANCH  26  27
ENDBRANCH  25  26
ENDBRANCH  23  25
ENDBRANCH   4  23
BRANCH   4  31
HETATM   31  O   UNL     1      -9.061  11.144  65.657  1.00  0.00    -0.205 OA 
BRANCH  31  32
HETATM   32  C   UNL     1      -9.176  10.442  64.470  1.00  0.00    -0.246 C  
HETATM   33  O   UNL     1     -10.021  10.637  63.612  1.00  0.00    -0.319 OA 
BRANCH  32  34
HETATM   34  O   UNL     1      -8.079   9.638  64.260  1.00  0.00    -0.129 OA 
BRANCH  34  35
HETATM   35  C   UNL     1      -7.363   9.986  63.049  1.00  0.00    -0.133 C  
HETATM   36  C   UNL     1      -5.978   9.365  62.939  1.00  0.00    -0.093 C  
ENDBRANCH  34  35
ENDBRANCH  32  34
ENDBRANCH  31  32
ENDBRANCH   4  31
TORSDOF 9
ENDMDL
MODEL      102
REMARK 921   NORMALIZED FREE ENERGY PREDICTED BY IDOCK:   -3.56 KCAL/MOL
REMARK 922        TOTAL FREE ENERGY PREDICTED BY IDOCK:   -5.29 KCAL/MOL
REMARK 923 INTER-LIGAND FREE ENERGY PREDICTED BY IDOCK:   -5.65 KCAL/MOL
REMARK 924 INTRA-LIGAND FREE ENERGY PREDICTED BY IDOCK:    0.35 KCAL/MOL
REMARK 927      BINDING AFFINITY PREDICTED BY RF-SCORE:    0.00 PKD
ROOT
HETATM    1  C   UNL     1      -7.781   8.017  70.225  1.00  0.00    -0.086 C  
HETATM    2  C   UNL     1      -6.446   7.562  70.378  1.00  0.00    -0.038 C  
HETATM    3  C   UNL     1      -6.860   8.147  69.069  1.00  0.00    -0.060 C  
HETATM    4  C   UNL     1      -8.613   9.277  68.998  1.00  0.00    -0.134 C  
HETATM    5  C   UNL     1     -10.595   5.995  66.638  1.00  0.00    -0.312 C  
HETATM    6  C   UNL     1      -9.164   5.506  66.888  1.00  0.00    -0.119 C  
HETATM    7  C   UNL     1      -7.287   9.583  69.202  1.00  0.00    -0.072 C  
HETATM    8  C   UNL     1      -8.279   5.096  65.627  1.00  0.00    -0.119 C  
HETATM    9  C   UNL     1      -6.690  10.679  70.055  1.00  0.00    -0.156 C  
HETATM   10  C   UNL     1      -7.120   9.312  67.319  1.00  0.00    -0.082 C  
HETATM   11  O   UNL     1      -9.827   2.775  65.018  1.00  0.00    -0.015 OA 
HETATM   12  C   UNL     1      -7.711   3.905  65.379  1.00  0.00    -0.082 C  
HETATM   13  C   UNL     1      -8.963   3.133  65.807  1.00  0.00    -0.143 C  
HETATM   14  C   UNL     1      -9.101   3.041  67.266  1.00  0.00    -0.203 C  
HETATM   15  C   UNL     1      -8.181   8.085  66.773  1.00  0.00    -0.111 C  
HETATM   16  C   UNL     1      -9.275   4.259  67.807  1.00  0.00    -0.178 C  
HETATM   17  C   UNL     1      -9.633   4.436  69.257  1.00  0.00    -0.261 C  
HETATM   18  C   UNL     1      -8.345   6.634  67.601  1.00  0.00    -0.122 C  
HETATM   19  O   UNL     1      -9.453   8.735  66.627  1.00  0.00    -0.170 OA 
HETATM   20  C   UNL     1      -8.761   5.467  69.953  1.00  0.00    -0.128 C  
HETATM   21  C   UNL     1      -8.738   6.808  69.214  1.00  0.00    -0.135 C  
HETATM   22  H   UNL     1     -10.042   8.054  66.324  1.00  0.00     0.000 HD 
ENDROOT
BRANCH   4  23
HETATM   23  C   UNL     1      -8.992  10.916  68.247  1.00  0.00    -0.150 C  
HETATM   24  O   UNL     1     -10.163  11.269  67.994  1.00  0.00    -0.175 OA 
BRANCH  23  25
HETATM   25  C   UNL     1      -7.918  12.017  67.742  1.00  0.00    -0.147 C  
BRANCH  25  26
HETATM   26  O   UNL     1      -8.193  13.385  68.402  1.00  0.00    -0.153 OA 
BRANCH  26  27
HETATM   27  C   UNL     1      -7.276  14.418  68.367  1.00  0.00    -0.114 C  
HETATM   28  O   UNL     1      -6.638  14.700  67.359  1.00  0.00    -0.283 OA 
BRANCH  27  29
HETATM   29  C   UNL     1      -7.112  15.202  69.707  1.00  0.00    -0.169 C  
HETATM   30  C   UNL     1      -6.145  14.536  70.713  1.00  0.00    -0.148 C  
ENDBRANCH  27  29
ENDBRANCH  26  27
ENDBRANCH  25  26
ENDBRANCH  23  25
ENDBRANCH   4  23
BRANCH   4  31
HETATM   31  O   UNL     1      -9.332   9.712  70.377  1.00  0.00    -0.251 OA 
BRANCH  31  32
HETATM   32  C   UNL     1     -10.485   9.168  70.913  1.00  0.00    -0.278 C  
HETATM   33  O   UNL     1     -10.655   8.889  72.089  1.00  0.00    -0.340 OA 
BRANCH  32  34
HETATM   34  O   UNL     1     -11.514   9.186  70.000  1.00  0.00    -0.158 OA 
BRANCH  34  35
HETATM   35  C   UNL     1     -12.657   9.945  70.470  1.00  0.00    -0.085 C  
HETATM   36  C   UNL     1     -12.385  11.428  70.672  1.00  0.00    -0.466 C  
ENDBRANCH  34  35
ENDBRANCH  32  34
ENDBRANCH  31  32
ENDBRANCH   4  31
TORSDOF 9
ENDMDL
MODEL      103
REMARK 921   NORMALIZED FREE ENERGY PREDICTED BY IDOCK:   -3.53 KCAL/MOL
REMARK 922        TOTAL FREE ENERGY PREDICTED BY IDOCK:   -5.26 KCAL/MOL
REMARK 923 INTER-LIGAND FREE ENERGY PREDICTED BY IDOCK:   -6.19 KCAL/MOL
REMARK 924 INTRA-LIGAND FREE ENERGY PREDICTED BY IDOCK:    0.93 KCAL/MOL
REMARK 927      BINDING AFFINITY PREDICTED BY RF-SCORE:    0.00 PKD
ROOT
HETATM    1  C   UNL     1      -9.153  15.228  69.255  1.00  0.00    -0.240 C  
HETATM    2  C   UNL     1      -7.838  14.907  69.679  1.00  0.00    -0.040 C  
HETATM    3  C   UNL     1      -8.060  15.292  68.255  1.00  0.00    -0.137 C  
HETATM    4  C   UNL     1      -9.841  16.257  67.754  1.00  0.00    -0.237 C  
HETATM    5  C   UNL     1     -11.190  12.560  65.567  1.00  0.00    -0.349 C  
HETATM    6  C   UNL     1      -9.795  12.225  66.107  1.00  0.00    -0.257 C  
HETATM    7  C   UNL     1      -8.590  16.694  68.125  1.00  0.00    -0.200 C  
HETATM    8  C   UNL     1      -8.687  11.739  65.070  1.00  0.00     0.580 C  
HETATM    9  C   UNL     1      -8.214  17.931  68.908  1.00  0.00    -0.150 C  
HETATM   10  C   UNL     1      -8.091  16.210  66.346  1.00  0.00    -0.305 C  
HETATM   11  O   UNL     1      -9.963   9.241  64.536  1.00  0.00     0.535 OA 
HETATM   12  C   UNL     1      -8.012  10.577  65.077  1.00  0.00    -0.079 C  
HETATM   13  C   UNL     1      -9.269   9.762  65.399  1.00  0.00    -0.227 C  
HETATM   14  C   UNL     1      -9.646   9.837  66.816  1.00  0.00    -0.228 C  
HETATM   15  C   UNL     1      -8.966  14.842  65.806  1.00  0.00     0.421 C  
HETATM   16  C   UNL     1      -9.984  11.094  67.154  1.00  0.00    -0.215 C  
HETATM   17  C   UNL     1     -10.592  11.416  68.491  1.00  0.00    -0.225 C  
HETATM   18  C   UNL     1      -9.179  13.494  66.784  1.00  0.00    -0.248 C  
HETATM   19  O   UNL     1     -10.233  15.363  65.373  1.00  0.00    -0.350 OA 
HETATM   20  C   UNL     1      -9.915  12.592  69.174  1.00  0.00     0.361 C  
HETATM   21  C   UNL     1      -9.850  13.831  68.275  1.00  0.00    -0.232 C  
HETATM   22  H   UNL     1     -10.719  14.604  65.074  1.00  0.00     0.000 HD 
ENDROOT
BRANCH   4  23
HETATM   23  C   UNL     1     -10.187  17.756  66.740  1.00  0.00    -0.351 C  
HETATM   24  O   UNL     1     -10.765  17.683  65.635  1.00  0.00    -0.495 OA 
BRANCH  23  25
HETATM   25  C   UNL     1      -9.723  19.271  67.069  1.00  0.00    -0.328 C  
BRANCH  25  26
HETATM   26  O   UNL     1      -8.801  19.809  65.954  1.00  0.00    -0.365 OA 
BRANCH  26  27
HETATM   27  C   UNL     1      -7.476  20.128  66.184  1.00  0.00    -0.278 C  
HETATM   28  O   UNL     1      -7.134  21.013  66.961  1.00  0.00    -0.332 OA 
BRANCH  27  29
HETATM   29  C   UNL     1      -6.443  19.276  65.381  1.00  0.00    -0.310 C  
HETATM   30  C   UNL     1      -5.310  18.678  66.246  1.00  0.00    -0.171 C  
ENDBRANCH  27  29
ENDBRANCH  26  27
ENDBRANCH  25  26
ENDBRANCH  23  25
ENDBRANCH   4  23
BRANCH   4  31
HETATM   31  O   UNL     1     -10.808  16.796  68.930  1.00  0.00    -0.320 OA 
BRANCH  31  32
HETATM   32  C   UNL     1     -11.882  16.124  69.487  1.00  0.00    -0.137 C  
HETATM   33  O   UNL     1     -12.650  15.394  68.882  1.00  0.00     0.090 OA 
BRANCH  32  34
HETATM   34  O   UNL     1     -11.853  16.194  70.861  1.00  0.00    -0.384 OA 
BRANCH  34  35
HETATM   35  C   UNL     1     -12.533  15.077  71.486  1.00  0.00    -0.333 C  
HETATM   36  C   UNL     1     -13.820  15.450  72.206  1.00  0.00    -0.649 C  
ENDBRANCH  34  35
ENDBRANCH  32  34
ENDBRANCH  31  32
ENDBRANCH   4  31
TORSDOF 9
ENDMDL
MODEL      104
REMARK 921   NORMALIZED FREE ENERGY PREDICTED BY IDOCK:   -3.51 KCAL/MOL
REMARK 922        TOTAL FREE ENERGY PREDICTED BY IDOCK:   -5.22 KCAL/MOL
REMARK 923 INTER-LIGAND FREE ENERGY PREDICTED BY IDOCK:   -5.39 KCAL/MOL
REMARK 924 INTRA-LIGAND FREE ENERGY PREDICTED BY IDOCK:    0.17 KCAL/MOL
REMARK 927      BINDING AFFINITY PREDICTED BY RF-SCORE:    0.00 PKD
ROOT
HETATM    1  C   UNL     1     -10.096   5.358  67.514  1.00  0.00    -0.220 C  
HETATM    2  C   UNL     1     -10.000   4.817  66.206  1.00  0.00    -0.264 C  
HETATM    3  C   UNL     1      -8.769   4.887  67.047  1.00  0.00    -0.103 C  
HETATM    4  C   UNL     1      -8.987   5.175  69.102  1.00  0.00    -0.100 C  
HETATM    5  C   UNL     1      -7.308   9.329  68.665  1.00  0.00    -0.076 C  
HETATM    6  C   UNL     1      -7.290   8.735  67.253  1.00  0.00    -0.081 C  
HETATM    7  C   UNL     1      -8.893   4.062  68.298  1.00  0.00    -0.138 C  
HETATM    8  C   UNL     1      -5.903   8.710  66.467  1.00  0.00    -0.051 C  
HETATM    9  C   UNL     1      -9.530   2.703  68.484  1.00  0.00    -0.203 C  
HETATM   10  C   UNL     1      -7.037   4.507  68.207  1.00  0.00    -0.057 C  
HETATM   11  O   UNL     1      -5.780  11.545  66.148  1.00  0.00    -0.200 OA 
HETATM   12  C   UNL     1      -5.621   9.283  65.286  1.00  0.00    -0.053 C  
HETATM   13  C   UNL     1      -6.349  10.580  65.655  1.00  0.00    -0.126 C  
HETATM   14  C   UNL     1      -7.807  10.466  65.533  1.00  0.00    -0.152 C  
HETATM   15  C   UNL     1      -6.804   6.202  68.242  1.00  0.00    -0.074 C  
HETATM   16  C   UNL     1      -8.291   9.567  66.407  1.00  0.00    -0.120 C  
HETATM   17  C   UNL     1      -9.769   9.395  66.627  1.00  0.00    -0.280 C  
HETATM   18  C   UNL     1      -7.742   7.237  67.311  1.00  0.00    -0.109 C  
HETATM   19  O   UNL     1      -6.882   6.556  69.632  1.00  0.00    -0.060 OA 
HETATM   20  C   UNL     1     -10.201   7.939  66.584  1.00  0.00    -0.303 C  
HETATM   21  C   UNL     1      -9.386   7.059  67.537  1.00  0.00    -0.134 C  
HETATM   22  H   UNL     1      -6.753   7.496  69.652  1.00  0.00     0.000 HD 
ENDROOT
BRANCH   4  23
HETATM   23  C   UNL     1      -8.224   4.331  70.552  1.00  0.00    -0.066 C  
HETATM   24  O   UNL     1      -7.494   4.943  71.359  1.00  0.00    -0.073 OA 
BRANCH  23  25
HETATM   25  C   UNL     1      -8.303   2.753  70.900  1.00  0.00    -0.053 C  
BRANCH  25  26
HETATM   26  O   UNL     1      -8.034   2.515  72.402  1.00  0.00    -0.053 OA 
BRANCH  26  27
HETATM   27  C   UNL     1      -9.013   2.056  73.262  1.00  0.00    -0.066 C  
HETATM   28  O   UNL     1      -8.857   2.012  74.477  1.00  0.00    -0.060 OA 
BRANCH  27  29
HETATM   29  C   UNL     1     -10.336   1.599  72.572  1.00  0.00    -0.224 C  
HETATM   30  C   UNL     1     -11.598   1.767  73.451  1.00  0.00    -0.276 C  
ENDBRANCH  27  29
ENDBRANCH  26  27
ENDBRANCH  25  26
ENDBRANCH  23  25
ENDBRANCH   4  23
BRANCH   4  31
HETATM   31  O   UNL     1     -10.454   5.053  69.768  1.00  0.00    -0.263 OA 
BRANCH  31  32
HETATM   32  C   UNL     1     -10.963   5.835  70.789  1.00  0.00    -0.242 C  
HETATM   33  O   UNL     1     -10.602   5.798  71.955  1.00  0.00    -0.217 OA 
BRANCH  32  34
HETATM   34  O   UNL     1     -11.775   6.830  70.296  1.00  0.00    -0.363 OA 
BRANCH  34  35
HETATM   35  C   UNL     1     -11.560   8.099  70.962  1.00  0.00    -0.279 C  
HETATM   36  C   UNL     1     -10.213   8.742  70.667  1.00  0.00    -0.247 C  
ENDBRANCH  34  35
ENDBRANCH  32  34
ENDBRANCH  31  32
ENDBRANCH   4  31
TORSDOF 9
ENDMDL
MODEL      105
REMARK 921   NORMALIZED FREE ENERGY PREDICTED BY IDOCK:   -3.49 KCAL/MOL
REMARK 922        TOTAL FREE ENERGY PREDICTED BY IDOCK:   -5.20 KCAL/MOL
REMARK 923 INTER-LIGAND FREE ENERGY PREDICTED BY IDOCK:   -5.08 KCAL/MOL
REMARK 924 INTRA-LIGAND FREE ENERGY PREDICTED BY IDOCK:   -0.12 KCAL/MOL
REMARK 927      BINDING AFFINITY PREDICTED BY RF-SCORE:    0.00 PKD
ROOT
HETATM    1  C   UNL     1     -10.094   5.077  67.411  1.00  0.00    -0.213 C  
HETATM    2  C   UNL     1     -10.167   4.688  66.049  1.00  0.00    -0.306 C  
HETATM    3  C   UNL     1      -8.838   4.682  66.728  1.00  0.00    -0.111 C  
HETATM    4  C   UNL     1      -8.790   4.734  68.813  1.00  0.00    -0.098 C  
HETATM    5  C   UNL     1      -7.185   8.936  68.640  1.00  0.00    -0.072 C  
HETATM    6  C   UNL     1      -7.348   8.505  67.178  1.00  0.00    -0.084 C  
HETATM    7  C   UNL     1      -8.799   3.720  67.883  1.00  0.00    -0.138 C  
HETATM    8  C   UNL     1      -6.074   8.590  66.224  1.00  0.00    -0.052 C  
HETATM    9  C   UNL     1      -9.406   2.340  67.993  1.00  0.00    -0.251 C  
HETATM   10  C   UNL     1      -6.971   4.201  67.606  1.00  0.00    -0.056 C  
HETATM   11  O   UNL     1      -5.996  11.444  66.216  1.00  0.00    -0.137 OA 
HETATM   12  C   UNL     1      -5.948   9.297  65.089  1.00  0.00    -0.060 C  
HETATM   13  C   UNL     1      -6.623  10.533  65.693  1.00  0.00    -0.116 C  
HETATM   14  C   UNL     1      -8.085  10.411  65.747  1.00  0.00    -0.155 C  
HETATM   15  C   UNL     1      -6.737   5.885  67.803  1.00  0.00    -0.058 C  
HETATM   16  C   UNL     1      -8.451   9.412  66.568  1.00  0.00    -0.137 C  
HETATM   17  C   UNL     1      -9.888   9.193  66.954  1.00  0.00    -0.280 C  
HETATM   18  C   UNL     1      -7.788   7.004  67.123  1.00  0.00    -0.109 C  
HETATM   19  O   UNL     1      -6.635   6.079  69.223  1.00  0.00    -0.046 OA 
HETATM   20  C   UNL     1     -10.321   7.745  66.802  1.00  0.00    -0.348 C  
HETATM   21  C   UNL     1      -9.389   6.776  67.537  1.00  0.00    -0.129 C  
HETATM   22  H   UNL     1      -6.505   7.013  69.333  1.00  0.00     0.000 HD 
ENDROOT
BRANCH   4  23
HETATM   23  C   UNL     1      -7.846   3.744  70.048  1.00  0.00    -0.047 C  
HETATM   24  O   UNL     1      -7.971   2.505  70.133  1.00  0.00    -0.042 OA 
BRANCH  23  25
HETATM   25  C   UNL     1      -6.863   4.322  71.196  1.00  0.00    -0.035 C  
BRANCH  25  26
HETATM   26  O   UNL     1      -7.681   4.955  72.343  1.00  0.00    -0.088 OA 
BRANCH  26  27
HETATM   27  C   UNL     1      -7.556   6.287  72.688  1.00  0.00    -0.100 C  
HETATM   28  O   UNL     1      -6.986   7.104  71.974  1.00  0.00    -0.060 OA 
BRANCH  27  29
HETATM   29  C   UNL     1      -8.197   6.676  74.057  1.00  0.00    -0.135 C  
HETATM   30  C   UNL     1      -8.144   8.190  74.372  1.00  0.00    -0.291 C  
ENDBRANCH  27  29
ENDBRANCH  26  27
ENDBRANCH  25  26
ENDBRANCH  23  25
ENDBRANCH   4  23
BRANCH   4  31
HETATM   31  O   UNL     1     -10.158   4.515  69.643  1.00  0.00    -0.221 OA 
BRANCH  31  32
HETATM   32  C   UNL     1     -10.515   5.141  70.824  1.00  0.00    -0.193 C  
HETATM   33  O   UNL     1     -10.733   4.578  71.885  1.00  0.00    -0.064 OA 
BRANCH  32  34
HETATM   34  O   UNL     1     -10.376   6.506  70.725  1.00  0.00    -0.198 OA 
BRANCH  34  35
HETATM   35  C   UNL     1     -11.111   7.213  71.755  1.00  0.00    -0.236 C  
HETATM   36  C   UNL     1     -10.782   8.695  71.856  1.00  0.00    -0.414 C  
ENDBRANCH  34  35
ENDBRANCH  32  34
ENDBRANCH  31  32
ENDBRANCH   4  31
TORSDOF 9
ENDMDL
MODEL      106
REMARK 921   NORMALIZED FREE ENERGY PREDICTED BY IDOCK:   -3.39 KCAL/MOL
REMARK 922        TOTAL FREE ENERGY PREDICTED BY IDOCK:   -5.05 KCAL/MOL
REMARK 923 INTER-LIGAND FREE ENERGY PREDICTED BY IDOCK:   -7.26 KCAL/MOL
REMARK 924 INTRA-LIGAND FREE ENERGY PREDICTED BY IDOCK:    2.21 KCAL/MOL
REMARK 927      BINDING AFFINITY PREDICTED BY RF-SCORE:    0.00 PKD
ROOT
HETATM    1  C   UNL     1     -10.795  11.261  69.167  1.00  0.00    -0.269 C  
HETATM    2  C   UNL     1     -12.132  11.113  68.713  1.00  0.00    -0.232 C  
HETATM    3  C   UNL     1     -11.025  11.089  67.712  1.00  0.00    -0.323 C  
HETATM    4  C   UNL     1      -9.078  10.776  68.393  1.00  0.00    -0.164 C  
HETATM    5  C   UNL     1      -8.080  15.053  67.400  1.00  0.00    -0.216 C  
HETATM    6  C   UNL     1      -9.546  14.874  66.991  1.00  0.00    -0.245 C  
HETATM    7  C   UNL     1     -10.078   9.944  67.946  1.00  0.00    -0.210 C  
HETATM    8  C   UNL     1      -9.953  15.221  65.489  1.00  0.00    -0.383 C  
HETATM    9  C   UNL     1     -10.385   8.524  68.364  1.00  0.00    -0.241 C  
HETATM   10  C   UNL     1      -9.606  10.602  66.216  1.00  0.00    -0.228 C  
HETATM   11  O   UNL     1      -9.541  18.030  65.793  1.00  0.00    -0.505 OA 
HETATM   12  C   UNL     1     -10.857  16.124  65.074  1.00  0.00    -0.380 C  
HETATM   13  C   UNL     1     -10.375  17.179  66.074  1.00  0.00    -0.309 C  
HETATM   14  C   UNL     1     -10.871  16.940  67.435  1.00  0.00    -0.166 C  
HETATM   15  C   UNL     1      -9.108  12.238  66.290  1.00  0.00    -0.125 C  
HETATM   16  C   UNL     1     -10.383  15.788  67.926  1.00  0.00    -0.261 C  
HETATM   17  C   UNL     1     -10.577  15.397  69.365  1.00  0.00    -0.251 C  
HETATM   18  C   UNL     1      -9.962  13.376  67.181  1.00  0.00    -0.242 C  
HETATM   19  O   UNL     1      -7.735  12.187  66.711  1.00  0.00    -0.340 OA 
HETATM   20  C   UNL     1     -11.073  13.970  69.522  1.00  0.00    -0.200 C  
HETATM   21  C   UNL     1     -10.191  12.960  68.781  1.00  0.00    -0.105 C  
HETATM   22  H   UNL     1      -7.459  13.094  66.752  1.00  0.00     0.000 HD 
ENDROOT
BRANCH   4  23
HETATM   23  C   UNL     1      -7.733   9.659  67.810  1.00  0.00    -0.094 C  
HETATM   24  O   UNL     1      -7.970   8.658  67.103  1.00  0.00    -0.099 OA 
BRANCH  23  25
HETATM   25  C   UNL     1      -6.165   9.754  68.199  1.00  0.00    -0.055 C  
BRANCH  25  26
HETATM   26  O   UNL     1      -5.772  11.214  68.515  1.00  0.00    -0.043 OA 
BRANCH  26  27
HETATM   27  C   UNL     1      -5.774  11.715  69.802  1.00  0.00    -0.095 C  
HETATM   28  O   UNL     1      -5.945  11.006  70.787  1.00  0.00    -0.287 OA 
BRANCH  27  29
HETATM   29  C   UNL     1      -5.540  13.255  69.911  1.00  0.00    -0.109 C  
HETATM   30  C   UNL     1      -6.708  14.025  70.571  1.00  0.00     0.272 C  
ENDBRANCH  27  29
ENDBRANCH  26  27
ENDBRANCH  25  26
ENDBRANCH  23  25
ENDBRANCH   4  23
BRANCH   4  31
HETATM   31  O   UNL     1      -8.838  10.313  69.921  1.00  0.00    -0.126 OA 
BRANCH  31  32
HETATM   32  C   UNL     1      -8.918   9.022  70.414  1.00  0.00    -0.205 C  
HETATM   33  O   UNL     1      -8.039   8.180  70.336  1.00  0.00    -0.103 OA 
BRANCH  32  34
HETATM   34  O   UNL     1     -10.028   8.863  71.212  1.00  0.00    -0.234 OA 
BRANCH  34  35
HETATM   35  C   UNL     1      -9.702   8.301  72.507  1.00  0.00    -0.298 C  
HETATM   36  C   UNL     1     -10.742   7.332  73.050  1.00  0.00    -0.384 C  
ENDBRANCH  34  35
ENDBRANCH  32  34
ENDBRANCH  31  32
ENDBRANCH   4  31
TORSDOF 9
ENDMDL
MODEL      107
REMARK 921   NORMALIZED FREE ENERGY PREDICTED BY IDOCK:   -3.39 KCAL/MOL
REMARK 922        TOTAL FREE ENERGY PREDICTED BY IDOCK:   -5.03 KCAL/MOL
REMARK 923 INTER-LIGAND FREE ENERGY PREDICTED BY IDOCK:   -5.00 KCAL/MOL
REMARK 924 INTRA-LIGAND FREE ENERGY PREDICTED BY IDOCK:   -0.04 KCAL/MOL
REMARK 927      BINDING AFFINITY PREDICTED BY RF-SCORE:    0.00 PKD
ROOT
HETATM    1  C   UNL     1     -11.029  11.484  67.886  1.00  0.00    -0.287 C  
HETATM    2  C   UNL     1     -12.145  11.726  67.045  1.00  0.00     0.347 C  
HETATM    3  C   UNL     1     -10.787  12.113  66.565  1.00  0.00    -0.307 C  
HETATM    4  C   UNL     1      -9.124  11.301  67.531  1.00  0.00    -0.151 C  
HETATM    5  C   UNL     1      -8.199  15.350  69.269  1.00  0.00    -0.252 C  
HETATM    6  C   UNL     1      -9.450  15.556  68.408  1.00  0.00    -0.196 C  
HETATM    7  C   UNL     1      -9.873  10.926  66.439  1.00  0.00    -0.249 C  
HETATM    8  C   UNL     1      -9.402  16.669  67.268  1.00  0.00    -0.234 C  
HETATM    9  C   UNL     1     -10.184   9.533  65.940  1.00  0.00    -0.185 C  
HETATM   10  C   UNL     1      -8.944  12.334  65.543  1.00  0.00     0.394 C  
HETATM   11  O   UNL     1      -9.318  18.857  69.100  1.00  0.00    -0.235 OA 
HETATM   12  C   UNL     1     -10.201  17.741  67.136  1.00  0.00    -0.353 C  
HETATM   13  C   UNL     1     -10.130  18.072  68.630  1.00  0.00    -0.394 C  
HETATM   14  C   UNL     1     -11.001  17.214  69.443  1.00  0.00     0.163 C  
HETATM   15  C   UNL     1      -8.619  13.636  66.605  1.00  0.00     0.078 C  
HETATM   16  C   UNL     1     -10.601  15.932  69.380  1.00  0.00    -0.263 C  
HETATM   17  C   UNL     1     -11.197  14.874  70.267  1.00  0.00    -0.270 C  
HETATM   18  C   UNL     1      -9.789  14.226  67.654  1.00  0.00    -0.224 C  
HETATM   19  O   UNL     1      -7.442  13.238  67.326  1.00  0.00    -0.294 OA 
HETATM   20  C   UNL     1     -11.607  13.629  69.499  1.00  0.00    -0.361 C  
HETATM   21  C   UNL     1     -10.466  13.067  68.645  1.00  0.00    -0.236 C  
HETATM   22  H   UNL     1      -7.262  13.960  67.916  1.00  0.00     0.000 HD 
ENDROOT
BRANCH   4  23
HETATM   23  C   UNL     1      -7.585  10.521  66.886  1.00  0.00    -0.110 C  
HETATM   24  O   UNL     1      -6.482  10.681  67.448  1.00  0.00    -0.057 OA 
BRANCH  23  25
HETATM   25  C   UNL     1      -7.438   9.660  65.524  1.00  0.00    -0.106 C  
BRANCH  25  26
HETATM   26  O   UNL     1      -7.138   8.180  65.848  1.00  0.00    -0.063 OA 
BRANCH  26  27
HETATM   27  C   UNL     1      -7.525   7.149  65.013  1.00  0.00    -0.093 C  
HETATM   28  O   UNL     1      -7.804   7.325  63.832  1.00  0.00    -0.122 OA 
BRANCH  27  29
HETATM   29  C   UNL     1      -7.581   5.741  65.685  1.00  0.00    -0.086 C  
HETATM   30  C   UNL     1      -8.958   5.046  65.581  1.00  0.00    -0.149 C  
ENDBRANCH  27  29
ENDBRANCH  26  27
ENDBRANCH  25  26
ENDBRANCH  23  25
ENDBRANCH   4  23
BRANCH   4  31
HETATM   31  O   UNL     1      -9.331  10.093  68.581  1.00  0.00    -0.149 OA 
BRANCH  31  32
HETATM   32  C   UNL     1      -8.500   9.769  69.640  1.00  0.00    -0.185 C  
HETATM   33  O   UNL     1      -7.882  10.569  70.323  1.00  0.00    -0.024 OA 
BRANCH  32  34
HETATM   34  O   UNL     1      -8.628   8.444  69.985  1.00  0.00    -0.126 OA 
BRANCH  34  35
HETATM   35  C   UNL     1      -8.291   7.553  68.892  1.00  0.00    -0.129 C  
HETATM   36  C   UNL     1      -7.200   6.544  69.218  1.00  0.00    -0.090 C  
ENDBRANCH  34  35
ENDBRANCH  32  34
ENDBRANCH  31  32
ENDBRANCH   4  31
TORSDOF 9
ENDMDL
MODEL      108
REMARK 921   NORMALIZED FREE ENERGY PREDICTED BY IDOCK:   -3.38 KCAL/MOL
REMARK 922        TOTAL FREE ENERGY PREDICTED BY IDOCK:   -5.03 KCAL/MOL
REMARK 923 INTER-LIGAND FREE ENERGY PREDICTED BY IDOCK:   -6.80 KCAL/MOL
REMARK 924 INTRA-LIGAND FREE ENERGY PREDICTED BY IDOCK:    1.77 KCAL/MOL
REMARK 927      BINDING AFFINITY PREDICTED BY RF-SCORE:    0.00 PKD
ROOT
HETATM    1  C   UNL     1     -10.661  13.262  68.940  1.00  0.00    -0.167 C  
HETATM    2  C   UNL     1     -11.873  13.776  69.469  1.00  0.00    -0.394 C  
HETATM    3  C   UNL     1     -11.690  13.746  67.988  1.00  0.00    -0.390 C  
HETATM    4  C   UNL     1     -10.183  12.537  67.199  1.00  0.00    -0.217 C  
HETATM    5  C   UNL     1      -7.862  16.224  66.065  1.00  0.00     0.301 C  
HETATM    6  C   UNL     1      -9.153  16.741  66.710  1.00  0.00    -0.263 C  
HETATM    7  C   UNL     1     -11.519  12.345  67.469  1.00  0.00    -0.410 C  
HETATM    8  C   UNL     1     -10.059  17.750  65.873  1.00  0.00    -0.183 C  
HETATM    9  C   UNL     1     -12.225  11.078  67.896  1.00  0.00     0.716 C  
HETATM   10  C   UNL     1     -11.802  13.398  65.901  1.00  0.00    -0.414 C  
HETATM   11  O   UNL     1      -8.179  19.895  66.005  1.00  0.00    -0.353 OA 
HETATM   12  C   UNL     1     -10.423  18.998  66.212  1.00  0.00    -0.534 C  
HETATM   13  C   UNL     1      -9.019  19.353  66.711  1.00  0.00    -0.331 C  
HETATM   14  C   UNL     1      -8.736  18.807  68.044  1.00  0.00    -0.324 C  
HETATM   15  C   UNL     1     -10.591  14.596  65.731  1.00  0.00    -0.320 C  
HETATM   16  C   UNL     1      -8.737  17.464  68.020  1.00  0.00    -0.241 C  
HETATM   17  C   UNL     1      -8.288  16.652  69.204  1.00  0.00    -0.115 C  
HETATM   18  C   UNL     1     -10.095  15.533  67.033  1.00  0.00    -0.254 C  
HETATM   19  O   UNL     1      -9.475  13.911  65.142  1.00  0.00    -0.481 OA 
HETATM   20  C   UNL     1      -9.265  15.544  69.559  1.00  0.00    -0.265 C  
HETATM   21  C   UNL     1      -9.596  14.651  68.360  1.00  0.00    -0.217 C  
HETATM   22  H   UNL     1      -8.803  14.575  65.048  1.00  0.00     0.000 HD 
ENDROOT
BRANCH   4  23
HETATM   23  C   UNL     1     -10.175  11.329  65.808  1.00  0.00    -0.251 C  
HETATM   24  O   UNL     1     -11.037  11.360  64.905  1.00  0.00    -0.257 OA 
BRANCH  23  25
HETATM   25  C   UNL     1      -9.173  10.071  65.629  1.00  0.00    -0.186 C  
BRANCH  25  26
HETATM   26  O   UNL     1      -7.789  10.390  66.235  1.00  0.00    -0.120 OA 
BRANCH  26  27
HETATM   27  C   UNL     1      -6.645   9.714  65.855  1.00  0.00    -0.080 C  
HETATM   28  O   UNL     1      -6.665   8.768  65.076  1.00  0.00    -0.068 OA 
BRANCH  27  29
HETATM   29  C   UNL     1      -5.322  10.245  66.492  1.00  0.00    -0.047 C  
HETATM   30  C   UNL     1      -5.162  11.782  66.426  1.00  0.00     0.081 C  
ENDBRANCH  27  29
ENDBRANCH  26  27
ENDBRANCH  25  26
ENDBRANCH  23  25
ENDBRANCH   4  23
BRANCH   4  31
HETATM   31  O   UNL     1      -9.434  11.477  68.160  1.00  0.00    -0.171 OA 
BRANCH  31  32
HETATM   32  C   UNL     1      -8.135  11.564  68.630  1.00  0.00    -0.132 C  
HETATM   33  O   UNL     1      -7.347  12.458  68.366  1.00  0.00    -0.100 OA 
BRANCH  32  34
HETATM   34  O   UNL     1      -7.901  10.637  69.619  1.00  0.00    -0.133 OA 
BRANCH  34  35
HETATM   35  C   UNL     1      -8.756   9.473  69.499  1.00  0.00    -0.174 C  
HETATM   36  C   UNL     1      -9.367   9.005  70.812  1.00  0.00    -0.305 C  
ENDBRANCH  34  35
ENDBRANCH  32  34
ENDBRANCH  31  32
ENDBRANCH   4  31
TORSDOF 9
ENDMDL
MODEL      109
REMARK 921   NORMALIZED FREE ENERGY PREDICTED BY IDOCK:   -3.29 KCAL/MOL
REMARK 922        TOTAL FREE ENERGY PREDICTED BY IDOCK:   -4.88 KCAL/MOL
REMARK 923 INTER-LIGAND FREE ENERGY PREDICTED BY IDOCK:   -6.36 KCAL/MOL
REMARK 924 INTRA-LIGAND FREE ENERGY PREDICTED BY IDOCK:    1.48 KCAL/MOL
REMARK 927      BINDING AFFINITY PREDICTED BY RF-SCORE:    0.00 PKD
ROOT
HETATM    1  C   UNL     1      -7.268   8.467  69.989  1.00  0.00    -0.054 C  
HETATM    2  C   UNL     1      -6.857   9.575  70.774  1.00  0.00    -0.105 C  
HETATM    3  C   UNL     1      -8.272   9.113  70.870  1.00  0.00    -0.220 C  
HETATM    4  C   UNL     1      -8.746   7.211  70.152  1.00  0.00    -0.141 C  
HETATM    5  C   UNL     1     -10.999   9.096  66.740  1.00  0.00     0.247 C  
HETATM    6  C   UNL     1     -10.473  10.269  67.574  1.00  0.00    -0.293 C  
HETATM    7  C   UNL     1      -8.372   7.702  71.382  1.00  0.00    -0.111 C  
HETATM    8  C   UNL     1     -11.524  11.341  68.108  1.00  0.00    -0.376 C  
HETATM    9  C   UNL     1      -7.566   7.024  72.467  1.00  0.00    -0.089 C  
HETATM   10  C   UNL     1     -10.163   8.362  71.463  1.00  0.00    -0.294 C  
HETATM   11  O   UNL     1     -12.101  12.393  65.517  1.00  0.00    -0.495 OA 
HETATM   12  C   UNL     1     -11.543  12.662  67.862  1.00  0.00    -0.401 C  
HETATM   13  C   UNL     1     -11.231  12.466  66.375  1.00  0.00    -0.319 C  
HETATM   14  C   UNL     1      -9.812  12.189  66.125  1.00  0.00    -0.254 C  
HETATM   15  C   UNL     1     -10.725   8.819  69.912  1.00  0.00    -0.223 C  
HETATM   16  C   UNL     1      -9.447  11.022  66.684  1.00  0.00    -0.207 C  
HETATM   17  C   UNL     1      -8.101  10.405  66.420  1.00  0.00    -0.129 C  
HETATM   18  C   UNL     1      -9.773   9.720  68.863  1.00  0.00    -0.172 C  
HETATM   19  O   UNL     1     -11.142   7.591  69.294  1.00  0.00    -0.429 OA 
HETATM   20  C   UNL     1      -7.398   9.967  67.694  1.00  0.00    -0.089 C  
HETATM   21  C   UNL     1      -8.272   9.055  68.559  1.00  0.00    -0.112 C  
HETATM   22  H   UNL     1     -11.454   7.845  68.434  1.00  0.00     0.000 HD 
ENDROOT
BRANCH   4  23
HETATM   23  C   UNL     1      -9.729   5.831  70.876  1.00  0.00    -0.174 C  
HETATM   24  O   UNL     1      -9.887   4.750  70.273  1.00  0.00    -0.203 OA 
BRANCH  23  25
HETATM   25  C   UNL     1     -10.562   5.866  72.263  1.00  0.00    -0.217 C  
BRANCH  25  26
HETATM   26  O   UNL     1     -10.061   4.765  73.224  1.00  0.00    -0.150 OA 
BRANCH  26  27
HETATM   27  C   UNL     1      -9.063   3.877  72.871  1.00  0.00    -0.107 C  
HETATM   28  O   UNL     1      -7.883   4.201  72.807  1.00  0.00    -0.078 OA 
BRANCH  27  29
HETATM   29  C   UNL     1      -9.551   2.427  72.559  1.00  0.00    -0.167 C  
HETATM   30  C   UNL     1     -10.905   2.063  73.210  1.00  0.00    -0.263 C  
ENDBRANCH  27  29
ENDBRANCH  26  27
ENDBRANCH  25  26
ENDBRANCH  23  25
ENDBRANCH   4  23
BRANCH   4  31
HETATM   31  O   UNL     1      -7.555   6.194  69.759  1.00  0.00    -0.082 OA 
BRANCH  31  32
HETATM   32  C   UNL     1      -7.400   5.531  68.554  1.00  0.00    -0.076 C  
HETATM   33  O   UNL     1      -6.553   4.686  68.316  1.00  0.00    -0.043 OA 
BRANCH  32  34
HETATM   34  O   UNL     1      -8.464   5.772  67.715  1.00  0.00    -0.104 OA 
BRANCH  34  35
HETATM   35  C   UNL     1      -8.937   4.566  67.064  1.00  0.00    -0.116 C  
HETATM   36  C   UNL     1     -10.228   4.743  66.278  1.00  0.00    -0.315 C  
ENDBRANCH  34  35
ENDBRANCH  32  34
ENDBRANCH  31  32
ENDBRANCH   4  31
TORSDOF 9
ENDMDL
MODEL      110
REMARK 921   NORMALIZED FREE ENERGY PREDICTED BY IDOCK:   -3.25 KCAL/MOL
REMARK 922        TOTAL FREE ENERGY PREDICTED BY IDOCK:   -4.82 KCAL/MOL
REMARK 923 INTER-LIGAND FREE ENERGY PREDICTED BY IDOCK:   -5.28 KCAL/MOL
REMARK 924 INTRA-LIGAND FREE ENERGY PREDICTED BY IDOCK:    0.45 KCAL/MOL
REMARK 927      BINDING AFFINITY PREDICTED BY RF-SCORE:    0.00 PKD
ROOT
HETATM    1  C   UNL     1     -10.613   7.129  68.988  1.00  0.00    -0.225 C  
HETATM    2  C   UNL     1     -11.715   7.037  69.876  1.00  0.00    -0.123 C  
HETATM    3  C   UNL     1     -10.455   7.675  70.358  1.00  0.00    -0.221 C  
HETATM    4  C   UNL     1      -9.047   8.283  68.943  1.00  0.00    -0.147 C  
HETATM    5  C   UNL     1      -6.310   4.974  70.295  1.00  0.00    -0.026 C  
HETATM    6  C   UNL     1      -7.551   4.861  71.186  1.00  0.00    -0.082 C  
HETATM    7  C   UNL     1     -10.106   8.904  69.566  1.00  0.00    -0.198 C  
HETATM    8  C   UNL     1      -7.347   4.899  72.766  1.00  0.00    -0.089 C  
HETATM    9  C   UNL     1     -11.019   9.982  69.027  1.00  0.00    -0.249 C  
HETATM   10  C   UNL     1      -8.944   8.972  71.080  1.00  0.00    -0.303 C  
HETATM   11  O   UNL     1      -6.042   2.362  72.881  1.00  0.00    -0.008 OA 
HETATM   12  C   UNL     1      -7.694   3.958  73.660  1.00  0.00    -0.079 C  
HETATM   13  C   UNL     1      -7.172   2.820  72.777  1.00  0.00    -0.040 C  
HETATM   14  C   UNL     1      -8.095   2.478  71.688  1.00  0.00    -0.057 C  
HETATM   15  C   UNL     1      -7.925   7.597  71.142  1.00  0.00    -0.091 C  
HETATM   16  C   UNL     1      -8.229   3.509  70.835  1.00  0.00    -0.080 C  
HETATM   17  C   UNL     1      -8.962   3.364  69.530  1.00  0.00    -0.177 C  
HETATM   18  C   UNL     1      -8.523   6.050  70.880  1.00  0.00    -0.127 C  
HETATM   19  O   UNL     1      -6.854   7.890  70.232  1.00  0.00    -0.038 OA 
HETATM   20  C   UNL     1      -9.969   4.478  69.298  1.00  0.00    -0.192 C  
HETATM   21  C   UNL     1      -9.344   5.869  69.438  1.00  0.00    -0.150 C  
HETATM   22  H   UNL     1      -6.290   7.128  70.266  1.00  0.00     0.000 HD 
ENDROOT
BRANCH   4  23
HETATM   23  C   UNL     1      -8.098   9.850  68.745  1.00  0.00    -0.102 C  
HETATM   24  O   UNL     1      -6.867   9.902  68.944  1.00  0.00    -0.056 OA 
BRANCH  23  25
HETATM   25  C   UNL     1      -8.708  11.310  68.410  1.00  0.00    -0.159 C  
BRANCH  25  26
HETATM   26  O   UNL     1      -8.749  11.544  66.884  1.00  0.00    -0.167 OA 
BRANCH  26  27
HETATM   27  C   UNL     1      -9.800  12.194  66.266  1.00  0.00    -0.234 C  
HETATM   28  O   UNL     1     -10.731  11.594  65.740  1.00  0.00    -0.266 OA 
BRANCH  27  29
HETATM   29  C   UNL     1      -9.715  13.753  66.286  1.00  0.00    -0.297 C  
HETATM   30  C   UNL     1     -10.485  14.443  65.136  1.00  0.00    -0.437 C  
ENDBRANCH  27  29
ENDBRANCH  26  27
ENDBRANCH  25  26
ENDBRANCH  23  25
ENDBRANCH   4  23
BRANCH   4  31
HETATM   31  O   UNL     1      -9.449   8.296  67.380  1.00  0.00    -0.144 OA 
BRANCH  31  32
HETATM   32  C   UNL     1      -8.767   7.678  66.347  1.00  0.00    -0.151 C  
HETATM   33  O   UNL     1      -8.841   6.494  66.060  1.00  0.00    -0.152 OA 
BRANCH  32  34
HETATM   34  O   UNL     1      -8.161   8.602  65.528  1.00  0.00    -0.102 OA 
BRANCH  34  35
HETATM   35  C   UNL     1      -8.233   8.232  64.128  1.00  0.00    -0.104 C  
HETATM   36  C   UNL     1      -8.451   9.402  63.181  1.00  0.00    -0.205 C  
ENDBRANCH  34  35
ENDBRANCH  32  34
ENDBRANCH  31  32
ENDBRANCH   4  31
TORSDOF 9
ENDMDL
MODEL      111
REMARK 921   NORMALIZED FREE ENERGY PREDICTED BY IDOCK:   -3.24 KCAL/MOL
REMARK 922        TOTAL FREE ENERGY PREDICTED BY IDOCK:   -4.81 KCAL/MOL
REMARK 923 INTER-LIGAND FREE ENERGY PREDICTED BY IDOCK:   -5.06 KCAL/MOL
REMARK 924 INTRA-LIGAND FREE ENERGY PREDICTED BY IDOCK:    0.24 KCAL/MOL
REMARK 927      BINDING AFFINITY PREDICTED BY RF-SCORE:    0.00 PKD
ROOT
HETATM    1  C   UNL     1     -10.557   6.451  68.262  1.00  0.00    -0.312 C  
HETATM    2  C   UNL     1     -10.930   6.520  66.895  1.00  0.00    -0.408 C  
HETATM    3  C   UNL     1      -9.480   6.454  67.243  1.00  0.00    -0.135 C  
HETATM    4  C   UNL     1      -8.948   5.829  69.161  1.00  0.00    -0.118 C  
HETATM    5  C   UNL     1      -7.611  10.021  70.118  1.00  0.00    -0.168 C  
HETATM    6  C   UNL     1      -8.093  10.072  68.664  1.00  0.00    -0.102 C  
HETATM    7  C   UNL     1      -9.130   5.180  67.962  1.00  0.00    -0.123 C  
HETATM    8  C   UNL     1      -7.082  10.615  67.558  1.00  0.00    -0.089 C  
HETATM    9  C   UNL     1      -9.633   3.776  67.713  1.00  0.00    -0.193 C  
HETATM   10  C   UNL     1      -7.440   5.941  67.499  1.00  0.00    -0.078 C  
HETATM   11  O   UNL     1      -7.132  13.305  68.515  1.00  0.00    -0.092 OA 
HETATM   12  C   UNL     1      -7.256  11.663  66.735  1.00  0.00    -0.082 C  
HETATM   13  C   UNL     1      -7.824  12.544  67.852  1.00  0.00    -0.144 C  
HETATM   14  C   UNL     1      -9.226  12.236  68.159  1.00  0.00    -0.197 C  
HETATM   15  C   UNL     1      -7.239   7.485  68.211  1.00  0.00    -0.093 C  
HETATM   16  C   UNL     1      -9.346  10.988  68.643  1.00  0.00    -0.196 C  
HETATM   17  C   UNL     1     -10.642  10.485  69.217  1.00  0.00    -0.265 C  
HETATM   18  C   UNL     1      -8.468   8.629  68.188  1.00  0.00    -0.131 C  
HETATM   19  O   UNL     1      -6.817   7.217  69.557  1.00  0.00    -0.047 OA 
HETATM   20  C   UNL     1     -11.035   9.124  68.668  1.00  0.00     0.002 C  
HETATM   21  C   UNL     1      -9.917   8.088  68.817  1.00  0.00    -0.196 C  
HETATM   22  H   UNL     1      -6.706   8.073  69.952  1.00  0.00     0.000 HD 
ENDROOT
BRANCH   4  23
HETATM   23  C   UNL     1      -7.699   4.614  69.759  1.00  0.00    -0.058 C  
HETATM   24  O   UNL     1      -7.714   3.421  69.391  1.00  0.00    -0.051 OA 
BRANCH  23  25
HETATM   25  C   UNL     1      -6.543   4.881  70.860  1.00  0.00    -0.034 C  
BRANCH  25  26
HETATM   26  O   UNL     1      -7.088   4.646  72.286  1.00  0.00    -0.061 OA 
BRANCH  26  27
HETATM   27  C   UNL     1      -6.715   5.436  73.356  1.00  0.00    -0.077 C  
HETATM   28  O   UNL     1      -6.515   4.980  74.476  1.00  0.00    -0.062 OA 
BRANCH  27  29
HETATM   29  C   UNL     1      -6.568   6.957  73.034  1.00  0.00    -0.062 C  
HETATM   30  C   UNL     1      -7.665   7.845  73.665  1.00  0.00    -0.207 C  
ENDBRANCH  27  29
ENDBRANCH  26  27
ENDBRANCH  25  26
ENDBRANCH  23  25
ENDBRANCH   4  23
BRANCH   4  31
HETATM   31  O   UNL     1     -10.073   5.190  70.127  1.00  0.00    -0.228 OA 
BRANCH  31  32
HETATM   32  C   UNL     1     -10.225   5.422  71.483  1.00  0.00    -0.219 C  
HETATM   33  O   UNL     1     -10.356   6.519  72.002  1.00  0.00    -0.197 OA 
BRANCH  32  34
HETATM   34  O   UNL     1     -10.441   4.248  72.167  1.00  0.00    -0.157 OA 
BRANCH  34  35
HETATM   35  C   UNL     1     -11.036   4.470  73.470  1.00  0.00    -0.306 C  
HETATM   36  C   UNL     1     -10.639   3.445  74.523  1.00  0.00    -0.173 C  
ENDBRANCH  34  35
ENDBRANCH  32  34
ENDBRANCH  31  32
ENDBRANCH   4  31
TORSDOF 9
ENDMDL
MODEL      112
REMARK 921   NORMALIZED FREE ENERGY PREDICTED BY IDOCK:   -3.22 KCAL/MOL
REMARK 922        TOTAL FREE ENERGY PREDICTED BY IDOCK:   -4.77 KCAL/MOL
REMARK 923 INTER-LIGAND FREE ENERGY PREDICTED BY IDOCK:   -9.18 KCAL/MOL
REMARK 924 INTRA-LIGAND FREE ENERGY PREDICTED BY IDOCK:    4.41 KCAL/MOL
REMARK 927      BINDING AFFINITY PREDICTED BY RF-SCORE:    0.00 PKD
ROOT
HETATM    1  C   UNL     1      -9.667   9.773  65.326  1.00  0.00    -0.371 C  
HETATM    2  C   UNL     1      -8.703   9.952  64.301  1.00  0.00    -0.229 C  
HETATM    3  C   UNL     1      -8.384  10.430  65.679  1.00  0.00    -0.163 C  
HETATM    4  C   UNL     1      -9.534   9.714  67.267  1.00  0.00    -0.143 C  
HETATM    5  C   UNL     1     -11.379  13.795  67.726  1.00  0.00    -0.331 C  
HETATM    6  C   UNL     1     -10.380  13.930  66.572  1.00  0.00    -0.286 C  
HETATM    7  C   UNL     1      -8.362   9.303  66.675  1.00  0.00    -0.122 C  
HETATM    8  C   UNL     1      -9.256  15.056  66.680  1.00  0.00    -0.302 C  
HETATM    9  C   UNL     1      -7.826   7.899  66.512  1.00  0.00    -0.098 C  
HETATM   10  C   UNL     1      -7.583  10.776  67.609  1.00  0.00    -0.096 C  
HETATM   11  O   UNL     1     -11.092  17.227  66.413  1.00  0.00     0.126 OA 
HETATM   12  C   UNL     1      -9.036  16.077  65.835  1.00  0.00    -0.292 C  
HETATM   13  C   UNL     1     -10.529  16.396  65.711  1.00  0.00    -0.354 C  
HETATM   14  C   UNL     1     -11.233  15.477  64.810  1.00  0.00    -0.399 C  
HETATM   15  C   UNL     1      -8.680  12.085  67.726  1.00  0.00    -0.161 C  
HETATM   16  C   UNL     1     -11.213  14.223  65.295  1.00  0.00    -0.337 C  
HETATM   17  C   UNL     1     -12.022  13.121  64.669  1.00  0.00    -0.439 C  
HETATM   18  C   UNL     1      -9.588  12.590  66.407  1.00  0.00    -0.247 C  
HETATM   19  O   UNL     1      -9.531  11.755  68.835  1.00  0.00    -0.394 OA 
HETATM   20  C   UNL     1     -11.208  11.861  64.430  1.00  0.00    -0.401 C  
HETATM   21  C   UNL     1     -10.491  11.380  65.695  1.00  0.00    -0.316 C  
HETATM   22  H   UNL     1     -10.140  12.481  68.899  1.00  0.00     0.000 HD 
ENDROOT
BRANCH   4  23
HETATM   23  C   UNL     1      -9.070   9.039  68.917  1.00  0.00    -0.140 C  
HETATM   24  O   UNL     1      -8.064   8.315  69.072  1.00  0.00    -0.114 OA 
BRANCH  23  25
HETATM   25  C   UNL     1      -9.909   9.192  70.291  1.00  0.00    -0.207 C  
BRANCH  25  26
HETATM   26  O   UNL     1     -11.237   9.938  70.036  1.00  0.00    -0.251 OA 
BRANCH  26  27
HETATM   27  C   UNL     1     -12.127  10.227  71.052  1.00  0.00    -0.386 C  
HETATM   28  O   UNL     1     -12.563  11.356  71.248  1.00  0.00    -0.394 OA 
BRANCH  27  29
HETATM   29  C   UNL     1     -12.540   9.007  71.935  1.00  0.00    -0.452 C  
HETATM   30  C   UNL     1     -13.956   8.462  71.636  1.00  0.00    -0.460 C  
ENDBRANCH  27  29
ENDBRANCH  26  27
ENDBRANCH  25  26
ENDBRANCH  23  25
ENDBRANCH   4  23
BRANCH   4  31
HETATM   31  O   UNL     1     -10.550   8.484  67.018  1.00  0.00    -0.306 OA 
BRANCH  31  32
HETATM   32  C   UNL     1     -10.423   7.197  67.510  1.00  0.00    -0.260 C  
HETATM   33  O   UNL     1      -9.405   6.525  67.476  1.00  0.00    -0.123 OA 
BRANCH  32  34
HETATM   34  O   UNL     1     -11.524   6.838  68.253  1.00  0.00    -0.039 OA 
BRANCH  34  35
HETATM   35  C   UNL     1     -11.176   6.462  69.609  1.00  0.00    -0.418 C  
HETATM   36  C   UNL     1     -10.523   5.093  69.733  1.00  0.00    -0.274 C  
ENDBRANCH  34  35
ENDBRANCH  32  34
ENDBRANCH  31  32
ENDBRANCH   4  31
TORSDOF 9
ENDMDL
MODEL      113
REMARK 921   NORMALIZED FREE ENERGY PREDICTED BY IDOCK:   -3.11 KCAL/MOL
REMARK 922        TOTAL FREE ENERGY PREDICTED BY IDOCK:   -4.62 KCAL/MOL
REMARK 923 INTER-LIGAND FREE ENERGY PREDICTED BY IDOCK:   -4.78 KCAL/MOL
REMARK 924 INTRA-LIGAND FREE ENERGY PREDICTED BY IDOCK:    0.16 KCAL/MOL
REMARK 927      BINDING AFFINITY PREDICTED BY RF-SCORE:    0.00 PKD
ROOT
HETATM    1  C   UNL     1      -9.087   7.412  69.898  1.00  0.00    -0.141 C  
HETATM    2  C   UNL     1     -10.216   7.972  70.549  1.00  0.00    -0.201 C  
HETATM    3  C   UNL     1     -10.119   8.074  69.063  1.00  0.00    -0.206 C  
HETATM    4  C   UNL     1      -8.773   6.825  68.070  1.00  0.00    -0.118 C  
HETATM    5  C   UNL     1      -6.194  10.397  67.143  1.00  0.00    -0.062 C  
HETATM    6  C   UNL     1      -7.394  10.954  67.915  1.00  0.00    -0.088 C  
HETATM    7  C   UNL     1     -10.104   6.722  68.404  1.00  0.00    -0.168 C  
HETATM    8  C   UNL     1      -8.250  12.115  67.235  1.00  0.00    -0.180 C  
HETATM    9  C   UNL     1     -10.898   5.483  68.754  1.00  0.00    -0.110 C  
HETATM   10  C   UNL     1     -10.377   7.946  66.964  1.00  0.00    -0.411 C  
HETATM   11  O   UNL     1      -6.179  14.069  67.450  1.00  0.00    -0.336 OA 
HETATM   12  C   UNL     1      -8.480  13.349  67.713  1.00  0.00    -0.181 C  
HETATM   13  C   UNL     1      -7.024  13.533  68.154  1.00  0.00    -0.118 C  
HETATM   14  C   UNL     1      -6.720  12.835  69.409  1.00  0.00    -0.018 C  
HETATM   15  C   UNL     1      -9.073   9.048  66.831  1.00  0.00    -0.132 C  
HETATM   16  C   UNL     1      -6.843  11.505  69.258  1.00  0.00    -0.114 C  
HETATM   17  C   UNL     1      -6.405  10.544  70.329  1.00  0.00    -0.137 C  
HETATM   18  C   UNL     1      -8.423   9.805  68.181  1.00  0.00    -0.114 C  
HETATM   19  O   UNL     1      -8.058   8.332  66.110  1.00  0.00    -0.103 OA 
HETATM   20  C   UNL     1      -7.458   9.494  70.639  1.00  0.00    -0.136 C  
HETATM   21  C   UNL     1      -7.934   8.756  69.384  1.00  0.00    -0.100 C  
HETATM   22  H   UNL     1      -7.335   8.943  66.037  1.00  0.00     0.000 HD 
ENDROOT
BRANCH   4  23
HETATM   23  C   UNL     1      -8.951   5.766  66.573  1.00  0.00    -0.128 C  
HETATM   24  O   UNL     1      -8.281   5.970  65.540  1.00  0.00    -0.129 OA 
BRANCH  23  25
HETATM   25  C   UNL     1     -10.013   4.563  66.364  1.00  0.00    -0.245 C  
BRANCH  25  26
HETATM   26  O   UNL     1     -10.526   4.539  64.907  1.00  0.00    -0.121 OA 
BRANCH  26  27
HETATM   27  C   UNL     1     -10.356   3.443  64.084  1.00  0.00    -0.192 C  
HETATM   28  O   UNL     1     -11.284   2.925  63.473  1.00  0.00    -0.294 OA 
BRANCH  27  29
HETATM   29  C   UNL     1      -8.892   2.910  63.988  1.00  0.00    -0.097 C  
HETATM   30  C   UNL     1      -8.608   1.679  64.879  1.00  0.00    -0.098 C  
ENDBRANCH  27  29
ENDBRANCH  26  27
ENDBRANCH  25  26
ENDBRANCH  23  25
ENDBRANCH   4  23
BRANCH   4  31
HETATM   31  O   UNL     1      -8.072   5.615  68.877  1.00  0.00    -0.098 OA 
BRANCH  31  32
HETATM   32  C   UNL     1      -6.795   5.121  68.675  1.00  0.00    -0.052 C  
HETATM   33  O   UNL     1      -5.844   5.766  68.266  1.00  0.00    -0.014 OA 
BRANCH  32  34
HETATM   34  O   UNL     1      -6.660   3.860  69.210  1.00  0.00    -0.035 OA 
BRANCH  34  35
HETATM   35  C   UNL     1      -6.691   2.824  68.196  1.00  0.00    -0.036 C  
HETATM   36  C   UNL     1      -7.935   1.948  68.232  1.00  0.00    -0.063 C  
ENDBRANCH  34  35
ENDBRANCH  32  34
ENDBRANCH  31  32
ENDBRANCH   4  31
TORSDOF 9
ENDMDL
MODEL      114
REMARK 921   NORMALIZED FREE ENERGY PREDICTED BY IDOCK:   -2.99 KCAL/MOL
REMARK 922        TOTAL FREE ENERGY PREDICTED BY IDOCK:   -4.43 KCAL/MOL
REMARK 923 INTER-LIGAND FREE ENERGY PREDICTED BY IDOCK:   -4.39 KCAL/MOL
REMARK 924 INTRA-LIGAND FREE ENERGY PREDICTED BY IDOCK:   -0.05 KCAL/MOL
REMARK 927      BINDING AFFINITY PREDICTED BY RF-SCORE:    0.00 PKD
ROOT
HETATM    1  C   UNL     1     -10.692   7.360  69.740  1.00  0.00    -0.252 C  
HETATM    2  C   UNL     1     -11.616   7.292  70.815  1.00  0.00    -0.334 C  
HETATM    3  C   UNL     1     -10.226   7.760  71.090  1.00  0.00    -0.214 C  
HETATM    4  C   UNL     1      -9.044   8.359  69.478  1.00  0.00    -0.153 C  
HETATM    5  C   UNL     1      -6.487   4.695  70.033  1.00  0.00    -0.035 C  
HETATM    6  C   UNL     1      -7.548   4.619  71.136  1.00  0.00    -0.079 C  
HETATM    7  C   UNL     1      -9.895   9.018  70.336  1.00  0.00    -0.242 C  
HETATM    8  C   UNL     1      -7.053   4.492  72.646  1.00  0.00    -0.071 C  
HETATM    9  C   UNL     1     -10.767  10.223  70.064  1.00  0.00    -0.345 C  
HETATM   10  C   UNL     1      -8.473   8.836  71.599  1.00  0.00    -0.209 C  
HETATM   11  O   UNL     1      -6.038   1.843  72.323  1.00  0.00    -0.009 OA 
HETATM   12  C   UNL     1      -7.332   3.510  73.519  1.00  0.00    -0.056 C  
HETATM   13  C   UNL     1      -7.111   2.413  72.473  1.00  0.00    -0.031 C  
HETATM   14  C   UNL     1      -8.250   2.263  71.559  1.00  0.00    -0.062 C  
HETATM   15  C   UNL     1      -7.619   7.371  71.364  1.00  0.00    -0.082 C  
HETATM   16  C   UNL     1      -8.424   3.375  70.825  1.00  0.00    -0.103 C  
HETATM   17  C   UNL     1      -9.397   3.422  69.679  1.00  0.00    -0.241 C  
HETATM   18  C   UNL     1      -8.422   5.918  71.111  1.00  0.00    -0.124 C  
HETATM   19  O   UNL     1      -6.708   7.644  70.288  1.00  0.00    -0.045 OA 
HETATM   20  C   UNL     1     -10.300   4.643  69.728  1.00  0.00     0.020 C  
HETATM   21  C   UNL     1      -9.510   5.949  69.845  1.00  0.00    -0.180 C  
HETATM   22  H   UNL     1      -6.235   6.831  70.157  1.00  0.00     0.000 HD 
ENDROOT
BRANCH   4  23
HETATM   23  C   UNL     1      -7.981   9.841  69.215  1.00  0.00    -0.112 C  
HETATM   24  O   UNL     1      -7.675  10.606  70.153  1.00  0.00    -0.032 OA 
BRANCH  23  25
HETATM   25  C   UNL     1      -7.417  10.383  67.798  1.00  0.00    -0.088 C  
BRANCH  25  26
HETATM   26  O   UNL     1      -6.276   9.477  67.286  1.00  0.00    -0.062 OA 
BRANCH  26  27
HETATM   27  C   UNL     1      -5.943   9.398  65.947  1.00  0.00    -0.055 C  
HETATM   28  O   UNL     1      -6.154   8.397  65.272  1.00  0.00    -0.045 OA 
BRANCH  27  29
HETATM   29  C   UNL     1      -5.277  10.680  65.356  1.00  0.00    -0.133 C  
HETATM   30  C   UNL     1      -5.156  10.676  63.814  1.00  0.00    -0.168 C  
ENDBRANCH  27  29
ENDBRANCH  26  27
ENDBRANCH  25  26
ENDBRANCH  23  25
ENDBRANCH   4  23
BRANCH   4  31
HETATM   31  O   UNL     1      -9.724   8.555  68.027  1.00  0.00    -0.147 OA 
BRANCH  31  32
HETATM   32  C   UNL     1      -9.277   8.026  66.829  1.00  0.00    -0.165 C  
HETATM   33  O   UNL     1      -9.451   8.522  65.728  1.00  0.00    -0.172 OA 
BRANCH  32  34
HETATM   34  O   UNL     1      -8.408   6.980  67.041  1.00  0.00    -0.118 OA 
BRANCH  34  35
HETATM   35  C   UNL     1      -8.570   5.921  66.064  1.00  0.00    -0.142 C  
HETATM   36  C   UNL     1      -8.019   4.572  66.505  1.00  0.00    -0.103 C  
ENDBRANCH  34  35
ENDBRANCH  32  34
ENDBRANCH  31  32
ENDBRANCH   4  31
TORSDOF 9
ENDMDL
MODEL      115
REMARK 921   NORMALIZED FREE ENERGY PREDICTED BY IDOCK:   -2.98 KCAL/MOL
REMARK 922        TOTAL FREE ENERGY PREDICTED BY IDOCK:   -4.42 KCAL/MOL
REMARK 923 INTER-LIGAND FREE ENERGY PREDICTED BY IDOCK:   -4.27 KCAL/MOL
REMARK 924 INTRA-LIGAND FREE ENERGY PREDICTED BY IDOCK:   -0.15 KCAL/MOL
REMARK 927      BINDING AFFINITY PREDICTED BY RF-SCORE:    0.00 PKD
ROOT
HETATM    1  C   UNL     1     -10.323   6.334  68.784  1.00  0.00    -0.245 C  
HETATM    2  C   UNL     1     -11.535   6.468  69.509  1.00  0.00    -0.384 C  
HETATM    3  C   UNL     1     -10.345   7.256  69.946  1.00  0.00    -0.226 C  
HETATM    4  C   UNL     1      -8.756   7.473  68.611  1.00  0.00    -0.128 C  
HETATM    5  C   UNL     1      -6.251   4.779  71.206  1.00  0.00    -0.019 C  
HETATM    6  C   UNL     1      -7.601   4.889  71.922  1.00  0.00    -0.097 C  
HETATM    7  C   UNL     1      -9.882   8.215  68.883  1.00  0.00    -0.178 C  
HETATM    8  C   UNL     1      -7.609   5.387  73.437  1.00  0.00    -0.096 C  
HETATM    9  C   UNL     1     -10.706   9.064  67.942  1.00  0.00    -0.200 C  
HETATM   10  C   UNL     1      -8.932   8.751  70.451  1.00  0.00    -0.188 C  
HETATM   11  O   UNL     1      -6.352   3.032  74.450  1.00  0.00    -0.022 OA 
HETATM   12  C   UNL     1      -8.080   4.733  74.511  1.00  0.00    -0.095 C  
HETATM   13  C   UNL     1      -7.455   3.405  74.072  1.00  0.00    -0.057 C  
HETATM   14  C   UNL     1      -8.227   2.737  73.017  1.00  0.00    -0.070 C  
HETATM   15  C   UNL     1      -7.943   7.484  71.040  1.00  0.00    -0.095 C  
HETATM   16  C   UNL     1      -8.237   3.473  71.893  1.00  0.00    -0.064 C  
HETATM   17  C   UNL     1      -8.792   2.937  70.602  1.00  0.00    -0.148 C  
HETATM   18  C   UNL     1      -8.513   5.910  71.162  1.00  0.00    -0.124 C  
HETATM   19  O   UNL     1      -6.757   7.536  70.231  1.00  0.00    -0.045 OA 
HETATM   20  C   UNL     1      -9.749   3.905  69.929  1.00  0.00    -0.235 C  
HETATM   21  C   UNL     1      -9.137   5.296  69.740  1.00  0.00    -0.150 C  
HETATM   22  H   UNL     1      -6.209   6.833  70.558  1.00  0.00     0.000 HD 
ENDROOT
BRANCH   4  23
HETATM   23  C   UNL     1      -7.775   8.945  68.092  1.00  0.00    -0.100 C  
HETATM   24  O   UNL     1      -6.534   8.986  68.219  1.00  0.00    -0.054 OA 
BRANCH  23  25
HETATM   25  C   UNL     1      -8.362  10.345  67.534  1.00  0.00    -0.114 C  
BRANCH  25  26
HETATM   26  O   UNL     1      -8.167  11.469  68.576  1.00  0.00    -0.145 OA 
BRANCH  26  27
HETATM   27  C   UNL     1      -7.131  12.379  68.492  1.00  0.00    -0.100 C  
HETATM   28  O   UNL     1      -6.941  13.075  67.500  1.00  0.00    -0.145 OA 
BRANCH  27  29
HETATM   29  C   UNL     1      -6.217  12.458  69.755  1.00  0.00    -0.119 C  
HETATM   30  C   UNL     1      -6.145  13.863  70.396  1.00  0.00    -0.143 C  
ENDBRANCH  27  29
ENDBRANCH  26  27
ENDBRANCH  25  26
ENDBRANCH  23  25
ENDBRANCH   4  23
BRANCH   4  31
HETATM   31  O   UNL     1      -8.946   7.023  67.072  1.00  0.00    -0.119 OA 
BRANCH  31  32
HETATM   32  C   UNL     1      -8.007   6.392  66.275  1.00  0.00    -0.111 C  
HETATM   33  O   UNL     1      -7.231   6.953  65.518  1.00  0.00    -0.072 OA 
BRANCH  32  34
HETATM   34  O   UNL     1      -7.891   5.061  66.602  1.00  0.00    -0.098 OA 
BRANCH  34  35
HETATM   35  C   UNL     1      -6.602   4.746  67.186  1.00  0.00    -0.050 C  
HETATM   36  C   UNL     1      -6.485   3.326  67.720  1.00  0.00    -0.037 C  
ENDBRANCH  34  35
ENDBRANCH  32  34
ENDBRANCH  31  32
ENDBRANCH   4  31
TORSDOF 9
ENDMDL
MODEL      116
REMARK 921   NORMALIZED FREE ENERGY PREDICTED BY IDOCK:   -2.78 KCAL/MOL
REMARK 922        TOTAL FREE ENERGY PREDICTED BY IDOCK:   -4.11 KCAL/MOL
REMARK 923 INTER-LIGAND FREE ENERGY PREDICTED BY IDOCK:   -4.37 KCAL/MOL
REMARK 924 INTRA-LIGAND FREE ENERGY PREDICTED BY IDOCK:    0.25 KCAL/MOL
REMARK 927      BINDING AFFINITY PREDICTED BY RF-SCORE:    0.00 PKD
ROOT
HETATM    1  C   UNL     1     -10.655   7.754  69.469  1.00  0.00    -0.221 C  
HETATM    2  C   UNL     1     -11.028   8.785  70.370  1.00  0.00    -0.262 C  
HETATM    3  C   UNL     1      -9.588   8.634  70.006  1.00  0.00    -0.175 C  
HETATM    4  C   UNL     1      -9.105   7.503  68.320  1.00  0.00    -0.132 C  
HETATM    5  C   UNL     1      -7.379   4.317  70.993  1.00  0.00    -0.044 C  
HETATM    6  C   UNL     1      -7.862   5.421  71.940  1.00  0.00    -0.112 C  
HETATM    7  C   UNL     1      -9.354   8.839  68.535  1.00  0.00    -0.142 C  
HETATM    8  C   UNL     1      -6.812   6.044  72.965  1.00  0.00    -0.079 C  
HETATM    9  C   UNL     1      -9.987   9.845  67.601  1.00  0.00    -0.212 C  
HETATM   10  C   UNL     1      -7.603   8.858  69.300  1.00  0.00    -0.082 C  
HETATM   11  O   UNL     1      -6.606   3.670  74.538  1.00  0.00    -0.037 OA 
HETATM   12  C   UNL     1      -6.893   6.067  74.306  1.00  0.00    -0.080 C  
HETATM   13  C   UNL     1      -7.369   4.613  74.378  1.00  0.00    -0.077 C  
HETATM   14  C   UNL     1      -8.792   4.466  74.048  1.00  0.00    -0.103 C  
HETATM   15  C   UNL     1      -7.255   7.380  70.089  1.00  0.00    -0.070 C  
HETATM   16  C   UNL     1      -9.025   4.816  72.772  1.00  0.00    -0.127 C  
HETATM   17  C   UNL     1     -10.359   4.579  72.118  1.00  0.00    -0.233 C  
HETATM   18  C   UNL     1      -8.373   6.641  71.101  1.00  0.00    -0.125 C  
HETATM   19  O   UNL     1      -6.852   6.487  69.038  1.00  0.00    -0.060 OA 
HETATM   20  C   UNL     1     -10.880   5.806  71.391  1.00  0.00    -0.316 C  
HETATM   21  C   UNL     1      -9.862   6.372  70.396  1.00  0.00    -0.193 C  
HETATM   22  H   UNL     1      -6.659   5.667  69.476  1.00  0.00     0.000 HD 
ENDROOT
BRANCH   4  23
HETATM   23  C   UNL     1      -7.971   7.826  66.905  1.00  0.00    -0.112 C  
HETATM   24  O   UNL     1      -7.597   8.980  66.611  1.00  0.00    -0.088 OA 
BRANCH  23  25
HETATM   25  C   UNL     1      -7.420   6.736  65.843  1.00  0.00    -0.081 C  
BRANCH  25  26
HETATM   26  O   UNL     1      -6.575   5.660  66.560  1.00  0.00    -0.052 OA 
BRANCH  26  27
HETATM   27  C   UNL     1      -6.072   4.556  65.898  1.00  0.00    -0.027 C  
HETATM   28  O   UNL     1      -5.773   3.518  66.478  1.00  0.00    -0.021 OA 
BRANCH  27  29
HETATM   29  C   UNL     1      -5.914   4.727  64.355  1.00  0.00    -0.018 C  
HETATM   30  C   UNL     1      -7.067   4.109  63.530  1.00  0.00    -0.045 C  
ENDBRANCH  27  29
ENDBRANCH  26  27
ENDBRANCH  25  26
ENDBRANCH  23  25
ENDBRANCH   4  23
BRANCH   4  31
HETATM   31  O   UNL     1     -10.279   7.043  67.311  1.00  0.00    -0.185 OA 
BRANCH  31  32
HETATM   32  C   UNL     1     -10.593   5.746  66.948  1.00  0.00    -0.308 C  
HETATM   33  O   UNL     1     -11.279   5.426  65.991  1.00  0.00     0.028 OA 
BRANCH  32  34
HETATM   34  O   UNL     1      -9.851   4.835  67.665  1.00  0.00    -0.164 OA 
BRANCH  34  35
HETATM   35  C   UNL     1      -9.354   3.754  66.838  1.00  0.00    -0.193 C  
HETATM   36  C   UNL     1      -9.046   2.473  67.599  1.00  0.00    -0.222 C  
ENDBRANCH  34  35
ENDBRANCH  32  34
ENDBRANCH  31  32
ENDBRANCH   4  31
TORSDOF 9
ENDMDL
MODEL      117
REMARK 921   NORMALIZED FREE ENERGY PREDICTED BY IDOCK:   -2.77 KCAL/MOL
REMARK 922        TOTAL FREE ENERGY PREDICTED BY IDOCK:   -4.09 KCAL/MOL
REMARK 923 INTER-LIGAND FREE ENERGY PREDICTED BY IDOCK:   -4.30 KCAL/MOL
REMARK 924 INTRA-LIGAND FREE ENERGY PREDICTED BY IDOCK:    0.21 KCAL/MOL
REMARK 927      BINDING AFFINITY PREDICTED BY RF-SCORE:    0.00 PKD
ROOT
HETATM    1  C   UNL     1      -8.303   8.357  66.657  1.00  0.00    -0.110 C  
HETATM    2  C   UNL     1      -8.834   8.998  65.508  1.00  0.00    -0.233 C  
HETATM    3  C   UNL     1      -9.618   7.899  66.145  1.00  0.00    -0.127 C  
HETATM    4  C   UNL     1      -9.121   7.325  68.089  1.00  0.00    -0.134 C  
HETATM    5  C   UNL     1      -7.507   3.437  66.494  1.00  0.00    -0.076 C  
HETATM    6  C   UNL     1      -8.026   4.193  65.266  1.00  0.00    -0.097 C  
HETATM    7  C   UNL     1     -10.010   8.232  67.558  1.00  0.00    -0.252 C  
HETATM    8  C   UNL     1      -9.099   3.469  64.336  1.00  0.00    -0.128 C  
HETATM    9  C   UNL     1     -10.472   9.552  68.133  1.00  0.00    -0.268 C  
HETATM   10  C   UNL     1     -11.051   6.688  67.129  1.00  0.00    -0.427 C  
HETATM   11  O   UNL     1      -7.260   1.516  63.359  1.00  0.00    -0.034 OA 
HETATM   12  C   UNL     1      -8.989   3.184  63.028  1.00  0.00    -0.092 C  
HETATM   13  C   UNL     1      -7.546   2.692  63.179  1.00  0.00    -0.062 C  
HETATM   14  C   UNL     1      -6.579   3.792  63.274  1.00  0.00    -0.030 C  
HETATM   15  C   UNL     1     -10.051   5.354  66.743  1.00  0.00    -0.214 C  
HETATM   16  C   UNL     1      -6.787   4.516  64.387  1.00  0.00    -0.045 C  
HETATM   17  C   UNL     1      -5.823   5.583  64.829  1.00  0.00    -0.021 C  
HETATM   18  C   UNL     1      -8.725   5.517  65.726  1.00  0.00    -0.151 C  
HETATM   19  O   UNL     1      -9.657   4.809  68.012  1.00  0.00    -0.138 OA 
HETATM   20  C   UNL     1      -6.515   6.889  65.178  1.00  0.00    -0.043 C  
HETATM   21  C   UNL     1      -7.644   6.698  66.196  1.00  0.00    -0.086 C  
HETATM   22  H   UNL     1      -9.102   4.069  67.797  1.00  0.00     0.000 HD 
ENDROOT
BRANCH   4  23
HETATM   23  C   UNL     1     -10.154   7.018  69.584  1.00  0.00    -0.186 C  
HETATM   24  O   UNL     1     -11.148   7.723  69.853  1.00  0.00    -0.230 OA 
BRANCH  23  25
HETATM   25  C   UNL     1      -9.870   5.924  70.743  1.00  0.00    -0.183 C  
BRANCH  25  26
HETATM   26  O   UNL     1      -9.476   6.623  72.063  1.00  0.00    -0.150 OA 
BRANCH  26  27
HETATM   27  C   UNL     1      -8.902   5.938  73.116  1.00  0.00    -0.121 C  
HETATM   28  O   UNL     1      -9.565   5.330  73.949  1.00  0.00    -0.135 OA 
BRANCH  27  29
HETATM   29  C   UNL     1      -7.343   5.992  73.167  1.00  0.00    -0.093 C  
HETATM   30  C   UNL     1      -6.645   4.874  72.357  1.00  0.00    -0.047 C  
ENDBRANCH  27  29
ENDBRANCH  26  27
ENDBRANCH  25  26
ENDBRANCH  23  25
ENDBRANCH   4  23
BRANCH   4  31
HETATM   31  O   UNL     1      -8.100   8.235  68.947  1.00  0.00    -0.112 OA 
BRANCH  31  32
HETATM   32  C   UNL     1      -7.085   7.782  69.772  1.00  0.00    -0.066 C  
HETATM   33  O   UNL     1      -6.288   6.902  69.493  1.00  0.00    -0.036 OA 
BRANCH  32  34
HETATM   34  O   UNL     1      -6.933   8.600  70.867  1.00  0.00    -0.051 OA 
BRANCH  34  35
HETATM   35  C   UNL     1      -7.246   9.984  70.572  1.00  0.00    -0.033 C  
HETATM   36  C   UNL     1      -6.173  10.714  69.776  1.00  0.00    -0.085 C  
ENDBRANCH  34  35
ENDBRANCH  32  34
ENDBRANCH  31  32
ENDBRANCH   4  31
TORSDOF 9
ENDMDL
MODEL      118
REMARK 921   NORMALIZED FREE ENERGY PREDICTED BY IDOCK:   -2.57 KCAL/MOL
REMARK 922        TOTAL FREE ENERGY PREDICTED BY IDOCK:   -3.79 KCAL/MOL
REMARK 923 INTER-LIGAND FREE ENERGY PREDICTED BY IDOCK:   -4.27 KCAL/MOL
REMARK 924 INTRA-LIGAND FREE ENERGY PREDICTED BY IDOCK:    0.48 KCAL/MOL
REMARK 927      BINDING AFFINITY PREDICTED BY RF-SCORE:    0.00 PKD
ROOT
HETATM    1  C   UNL     1      -8.784   7.425  71.256  1.00  0.00    -0.126 C  
HETATM    2  C   UNL     1      -9.678   8.402  71.766  1.00  0.00    -0.306 C  
HETATM    3  C   UNL     1      -9.796   7.998  70.334  1.00  0.00    -0.183 C  
HETATM    4  C   UNL     1      -8.872   6.229  69.724  1.00  0.00    -0.140 C  
HETATM    5  C   UNL     1      -5.863   8.642  67.402  1.00  0.00    -0.043 C  
HETATM    6  C   UNL     1      -6.807   9.671  68.032  1.00  0.00    -0.073 C  
HETATM    7  C   UNL     1     -10.131   6.539  70.186  1.00  0.00    -0.204 C  
HETATM    8  C   UNL     1      -7.533  10.713  67.068  1.00  0.00    -0.106 C  
HETATM    9  C   UNL     1     -11.072   5.689  71.009  1.00  0.00    -0.202 C  
HETATM   10  C   UNL     1     -10.397   7.265  68.440  1.00  0.00    -0.213 C  
HETATM   11  O   UNL     1      -5.134  12.117  66.415  1.00  0.00    -0.320 OA 
HETATM   12  C   UNL     1      -7.458  12.053  67.107  1.00  0.00    -0.138 C  
HETATM   13  C   UNL     1      -5.942  12.038  67.330  1.00  0.00    -0.130 C  
HETATM   14  C   UNL     1      -5.577  11.730  68.718  1.00  0.00    -0.049 C  
HETATM   15  C   UNL     1      -8.952   7.944  67.823  1.00  0.00    -0.128 C  
HETATM   16  C   UNL     1      -5.962  10.486  69.049  1.00  0.00    -0.040 C  
HETATM   17  C   UNL     1      -5.545   9.847  70.345  1.00  0.00    -0.052 C  
HETATM   18  C   UNL     1      -7.973   8.929  68.767  1.00  0.00    -0.102 C  
HETATM   19  O   UNL     1      -8.209   6.827  67.310  1.00  0.00    -0.119 OA 
HETATM   20  C   UNL     1      -6.710   9.216  71.088  1.00  0.00    -0.090 C  
HETATM   21  C   UNL     1      -7.501   8.240  70.212  1.00  0.00    -0.066 C  
HETATM   22  H   UNL     1      -7.407   7.204  66.969  1.00  0.00     0.000 HD 
ENDROOT
BRANCH   4  23
HETATM   23  C   UNL     1      -9.470   4.814  68.708  1.00  0.00    -0.148 C  
HETATM   24  O   UNL     1      -9.054   3.651  68.890  1.00  0.00    -0.115 OA 
BRANCH  23  25
HETATM   25  C   UNL     1     -10.477   4.893  67.443  1.00  0.00     0.001 C  
BRANCH  25  26
HETATM   26  O   UNL     1      -9.692   4.789  66.118  1.00  0.00    -0.160 OA 
BRANCH  26  27
HETATM   27  C   UNL     1     -10.010   3.861  65.144  1.00  0.00    -0.170 C  
HETATM   28  O   UNL     1     -10.945   4.014  64.366  1.00  0.00    -0.276 OA 
BRANCH  27  29
HETATM   29  C   UNL     1      -9.087   2.603  65.106  1.00  0.00    -0.140 C  
HETATM   30  C   UNL     1      -7.663   2.846  65.657  1.00  0.00    -0.077 C  
ENDBRANCH  27  29
ENDBRANCH  26  27
ENDBRANCH  25  26
ENDBRANCH  23  25
ENDBRANCH   4  23
BRANCH   4  31
HETATM   31  O   UNL     1      -8.285   5.217  70.837  1.00  0.00    -0.107 OA 
BRANCH  31  32
HETATM   32  C   UNL     1      -6.962   4.841  70.994  1.00  0.00    -0.043 C  
HETATM   33  O   UNL     1      -6.119   4.838  70.112  1.00  0.00    -0.020 OA 
BRANCH  32  34
HETATM   34  O   UNL     1      -6.645   4.684  72.324  1.00  0.00    -0.035 OA 
BRANCH  34  35
HETATM   35  C   UNL     1      -7.341   3.566  72.929  1.00  0.00    -0.058 C  
HETATM   36  C   UNL     1      -8.090   3.912  74.208  1.00  0.00    -0.090 C  
ENDBRANCH  34  35
ENDBRANCH  32  34
ENDBRANCH  31  32
ENDBRANCH   4  31
TORSDOF 9
ENDMDL
MODEL      119
REMARK 921   NORMALIZED FREE ENERGY PREDICTED BY IDOCK:   -1.98 KCAL/MOL
REMARK 922        TOTAL FREE ENERGY PREDICTED BY IDOCK:   -2.89 KCAL/MOL
REMARK 923 INTER-LIGAND FREE ENERGY PREDICTED BY IDOCK:   -5.53 KCAL/MOL
REMARK 924 INTRA-LIGAND FREE ENERGY PREDICTED BY IDOCK:    2.64 KCAL/MOL
REMARK 927      BINDING AFFINITY PREDICTED BY RF-SCORE:    0.00 PKD
ROOT
HETATM    1  C   UNL     1      -9.851  11.561  68.705  1.00  0.00    -0.184 C  
HETATM    2  C   UNL     1      -8.649  11.432  69.448  1.00  0.00     0.482 C  
HETATM    3  C   UNL     1      -8.635  12.242  68.194  1.00  0.00    -0.181 C  
HETATM    4  C   UNL     1     -10.460  12.868  67.398  1.00  0.00    -0.233 C  
HETATM    5  C   UNL     1      -9.906  10.006  63.967  1.00  0.00    -0.029 C  
HETATM    6  C   UNL     1      -8.655   9.841  64.837  1.00  0.00    -0.183 C  
HETATM    7  C   UNL     1      -9.560  13.425  68.277  1.00  0.00    -0.220 C  
HETATM    8  C   UNL     1      -7.231  10.043  64.150  1.00  0.00    -0.132 C  
HETATM    9  C   UNL     1      -9.826  14.347  69.446  1.00  0.00     0.137 C  
HETATM   10  C   UNL     1      -8.511  13.753  66.715  1.00  0.00     0.007 C  
HETATM   11  O   UNL     1      -7.419   7.681  62.557  1.00  0.00    -0.088 OA 
HETATM   12  C   UNL     1      -6.227   9.154  64.071  1.00  0.00    -0.083 C  
HETATM   13  C   UNL     1      -7.173   8.004  63.711  1.00  0.00    -0.092 C  
HETATM   14  C   UNL     1      -7.884   7.469  64.878  1.00  0.00    -0.128 C  
HETATM   15  C   UNL     1      -8.714  12.506  65.559  1.00  0.00     0.962 C  
HETATM   16  C   UNL     1      -8.698   8.398  65.409  1.00  0.00    -0.175 C  
HETATM   17  C   UNL     1      -9.685   8.059  66.492  1.00  0.00    -0.297 C  
HETATM   18  C   UNL     1      -8.688  10.887  66.002  1.00  0.00    -0.192 C  
HETATM   19  O   UNL     1      -9.937  12.830  64.879  1.00  0.00    -0.449 OA 
HETATM   20  C   UNL     1      -9.632   9.033  67.657  1.00  0.00    -0.183 C  
HETATM   21  C   UNL     1      -9.774  10.490  67.206  1.00  0.00    -0.197 C  
HETATM   22  H   UNL     1     -10.049  12.138  64.238  1.00  0.00     0.000 HD 
ENDROOT
BRANCH   4  23
HETATM   23  C   UNL     1     -11.035  14.503  66.774  1.00  0.00    -0.316 C  
HETATM   24  O   UNL     1     -11.890  14.597  65.869  1.00  0.00    -0.347 OA 
BRANCH  23  25
HETATM   25  C   UNL     1     -10.469  15.954  67.210  1.00  0.00    -0.310 C  
BRANCH  25  26
HETATM   26  O   UNL     1      -9.666  16.592  66.055  1.00  0.00    -0.334 OA 
BRANCH  26  27
HETATM   27  C   UNL     1      -8.801  17.651  66.256  1.00  0.00    -0.179 C  
HETATM   28  O   UNL     1      -9.040  18.784  65.854  1.00  0.00    -0.456 OA 
BRANCH  27  29
HETATM   29  C   UNL     1      -7.495  17.297  67.034  1.00  0.00    -0.223 C  
HETATM   30  C   UNL     1      -7.574  17.569  68.555  1.00  0.00    -0.266 C  
ENDBRANCH  27  29
ENDBRANCH  26  27
ENDBRANCH  25  26
ENDBRANCH  23  25
ENDBRANCH   4  23
BRANCH   4  31
HETATM   31  O   UNL     1     -11.807  12.697  68.273  1.00  0.00    -0.318 OA 
BRANCH  31  32
HETATM   32  C   UNL     1     -12.239  13.528  69.292  1.00  0.00    -0.211 C  
HETATM   33  O   UNL     1     -12.762  14.620  69.139  1.00  0.00     0.062 OA 
BRANCH  32  34
HETATM   34  O   UNL     1     -12.220  12.878  70.504  1.00  0.00    -0.368 OA 
BRANCH  34  35
HETATM   35  C   UNL     1     -12.710  13.712  71.585  1.00  0.00    -0.305 C  
HETATM   36  C   UNL     1     -13.722  13.030  72.494  1.00  0.00    -0.501 C  
ENDBRANCH  34  35
ENDBRANCH  32  34
ENDBRANCH  31  32
ENDBRANCH   4  31
TORSDOF 9
ENDMDL
MODEL      120
REMARK 921   NORMALIZED FREE ENERGY PREDICTED BY IDOCK:   -1.94 KCAL/MOL
REMARK 922        TOTAL FREE ENERGY PREDICTED BY IDOCK:   -2.82 KCAL/MOL
REMARK 923 INTER-LIGAND FREE ENERGY PREDICTED BY IDOCK:   -5.73 KCAL/MOL
REMARK 924 INTRA-LIGAND FREE ENERGY PREDICTED BY IDOCK:    2.90 KCAL/MOL
REMARK 927      BINDING AFFINITY PREDICTED BY RF-SCORE:    0.00 PKD
ROOT
HETATM    1  C   UNL     1      -9.207   8.978  69.904  1.00  0.00    -0.181 C  
HETATM    2  C   UNL     1     -10.441   9.307  70.522  1.00  0.00    -0.312 C  
HETATM    3  C   UNL     1     -10.460   8.524  69.252  1.00  0.00    -0.224 C  
HETATM    4  C   UNL     1      -8.696   7.597  68.633  1.00  0.00    -0.128 C  
HETATM    5  C   UNL     1      -8.378  10.541  65.242  1.00  0.00    -0.155 C  
HETATM    6  C   UNL     1      -9.667  10.914  65.981  1.00  0.00    -0.268 C  
HETATM    7  C   UNL     1      -9.768   7.197  69.397  1.00  0.00    -0.160 C  
HETATM    8  C   UNL     1     -11.023  10.969  65.144  1.00  0.00    -0.103 C  
HETATM    9  C   UNL     1      -9.791   6.233  70.562  1.00  0.00    -0.207 C  
HETATM   10  C   UNL     1     -10.684   7.071  67.726  1.00  0.00    -0.300 C  
HETATM   11  O   UNL     1     -10.262  13.276  63.644  1.00  0.00    -0.091 OA 
HETATM   12  C   UNL     1     -11.844  12.020  64.986  1.00  0.00    -0.291 C  
HETATM   13  C   UNL     1     -10.682  12.991  64.758  1.00  0.00    -0.352 C  
HETATM   14  C   UNL     1     -10.018  13.384  66.007  1.00  0.00    -0.300 C  
HETATM   15  C   UNL     1     -10.147   8.273  66.633  1.00  0.00    -0.281 C  
HETATM   16  C   UNL     1      -9.438  12.322  66.593  1.00  0.00    -0.227 C  
HETATM   17  C   UNL     1      -8.529  12.474  67.782  1.00  0.00    -0.171 C  
HETATM   18  C   UNL     1      -9.940   9.868  67.114  1.00  0.00    -0.252 C  
HETATM   19  O   UNL     1      -8.932   7.747  66.074  1.00  0.00    -0.169 OA 
HETATM   20  C   UNL     1      -8.873  11.514  68.908  1.00  0.00     0.030 C  
HETATM   21  C   UNL     1      -8.938  10.059  68.435  1.00  0.00    -0.121 C  
HETATM   22  H   UNL     1      -8.634   8.414  65.468  1.00  0.00     0.000 HD 
ENDROOT
BRANCH   4  23
HETATM   23  C   UNL     1      -8.347   5.892  68.027  1.00  0.00    -0.111 C  
HETATM   24  O   UNL     1      -7.299   5.615  67.408  1.00  0.00    -0.074 OA 
BRANCH  23  25
HETATM   25  C   UNL     1      -9.340   4.617  68.113  1.00  0.00    -0.135 C  
BRANCH  25  26
HETATM   26  O   UNL     1      -8.534   3.314  68.309  1.00  0.00    -0.080 OA 
BRANCH  26  27
HETATM   27  C   UNL     1      -8.256   2.455  67.263  1.00  0.00    -0.073 C  
HETATM   28  O   UNL     1      -7.501   1.496  67.378  1.00  0.00    -0.056 OA 
BRANCH  27  29
HETATM   29  C   UNL     1      -8.978   2.795  65.921  1.00  0.00    -0.142 C  
HETATM   30  C   UNL     1      -8.022   3.195  64.774  1.00  0.00    -0.086 C  
ENDBRANCH  27  29
ENDBRANCH  26  27
ENDBRANCH  25  26
ENDBRANCH  23  25
ENDBRANCH   4  23
BRANCH   4  31
HETATM   31  O   UNL     1      -7.442   7.522  69.647  1.00  0.00    -0.087 OA 
BRANCH  31  32
HETATM   32  C   UNL     1      -7.310   6.678  70.735  1.00  0.00    -0.079 C  
HETATM   33  O   UNL     1      -7.261   5.460  70.682  1.00  0.00    -0.064 OA 
BRANCH  32  34
HETATM   34  O   UNL     1      -7.009   7.383  71.878  1.00  0.00    -0.061 OA 
BRANCH  34  35
HETATM   35  C   UNL     1      -7.761   6.918  73.027  1.00  0.00    -0.088 C  
HETATM   36  C   UNL     1      -8.679   7.964  73.641  1.00  0.00    -0.329 C  
ENDBRANCH  34  35
ENDBRANCH  32  34
ENDBRANCH  31  32
ENDBRANCH   4  31
TORSDOF 9
ENDMDL
MODEL      121
REMARK 921   NORMALIZED FREE ENERGY PREDICTED BY IDOCK:   -1.90 KCAL/MOL
REMARK 922        TOTAL FREE ENERGY PREDICTED BY IDOCK:   -2.76 KCAL/MOL
REMARK 923 INTER-LIGAND FREE ENERGY PREDICTED BY IDOCK:   -7.07 KCAL/MOL
REMARK 924 INTRA-LIGAND FREE ENERGY PREDICTED BY IDOCK:    4.31 KCAL/MOL
REMARK 927      BINDING AFFINITY PREDICTED BY RF-SCORE:    0.00 PKD
ROOT
HETATM    1  C   UNL     1     -11.791  13.006  69.338  1.00  0.00    -0.380 C  
HETATM    2  C   UNL     1     -11.687  13.520  70.656  1.00  0.00    -0.054 C  
HETATM    3  C   UNL     1     -10.452  13.423  69.823  1.00  0.00     0.763 C  
HETATM    4  C   UNL     1     -10.665  13.180  67.761  1.00  0.00    -0.240 C  
HETATM    5  C   UNL     1      -9.128   8.965  68.134  1.00  0.00    -0.142 C  
HETATM    6  C   UNL     1      -9.101   9.533  69.557  1.00  0.00    -0.193 C  
HETATM    7  C   UNL     1     -10.539  14.274  68.586  1.00  0.00    -0.254 C  
HETATM    8  C   UNL     1      -7.720   9.497  70.353  1.00  0.00    -0.177 C  
HETATM    9  C   UNL     1     -11.129  15.657  68.419  1.00  0.00    -0.326 C  
HETATM   10  C   UNL     1      -8.700  13.766  68.682  1.00  0.00    -0.051 C  
HETATM   11  O   UNL     1      -7.694   6.654  70.622  1.00  0.00    -0.100 OA 
HETATM   12  C   UNL     1      -7.467   8.893  71.526  1.00  0.00    -0.084 C  
HETATM   13  C   UNL     1      -8.235   7.629  71.128  1.00  0.00    -0.100 C  
HETATM   14  C   UNL     1      -9.689   7.789  71.242  1.00  0.00    -0.179 C  
HETATM   15  C   UNL     1      -8.523  12.065  68.617  1.00  0.00    -0.022 C  
HETATM   16  C   UNL     1     -10.136   8.719  70.380  1.00  0.00    -0.223 C  
HETATM   17  C   UNL     1     -11.606   8.945  70.153  1.00  0.00     0.031 C  
HETATM   18  C   UNL     1      -9.503  11.045  69.523  1.00  0.00     0.274 C  
HETATM   19  O   UNL     1      -8.602  11.739  67.221  1.00  0.00    -0.149 OA 
HETATM   20  C   UNL     1     -11.989  10.413  70.220  1.00  0.00    -0.387 C  
HETATM   21  C   UNL     1     -11.138  11.282  69.288  1.00  0.00    -0.314 C  
HETATM   22  H   UNL     1      -8.504  10.795  67.185  1.00  0.00     0.000 HD 
ENDROOT
BRANCH   4  23
HETATM   23  C   UNL     1      -9.863  14.023  66.332  1.00  0.00    -0.296 C  
HETATM   24  O   UNL     1     -10.027  13.629  65.159  1.00  0.00    -0.279 OA 
BRANCH  23  25
HETATM   25  C   UNL     1      -8.812  15.252  66.404  1.00  0.00    -0.276 C  
BRANCH  25  26
HETATM   26  O   UNL     1      -9.468  16.556  65.898  1.00  0.00    -0.425 OA 
BRANCH  26  27
HETATM   27  C   UNL     1      -8.936  17.801  66.170  1.00  0.00    -0.094 C  
HETATM   28  O   UNL     1      -7.881  18.191  65.682  1.00  0.00    -0.520 OA 
BRANCH  27  29
HETATM   29  C   UNL     1      -9.779  18.680  67.147  1.00  0.00    -0.324 C  
HETATM   30  C   UNL     1     -10.970  19.404  66.476  1.00  0.00    -0.307 C  
ENDBRANCH  27  29
ENDBRANCH  26  27
ENDBRANCH  25  26
ENDBRANCH  23  25
ENDBRANCH   4  23
BRANCH   4  31
HETATM   31  O   UNL     1     -12.121  13.363  67.087  1.00  0.00    -0.368 OA 
BRANCH  31  32
HETATM   32  C   UNL     1     -12.439  14.187  66.023  1.00  0.00    -0.425 C  
HETATM   33  O   UNL     1     -12.057  15.338  65.880  1.00  0.00     0.156 OA 
BRANCH  32  34
HETATM   34  O   UNL     1     -13.059  13.483  65.016  1.00  0.00    -0.736 OA 
BRANCH  34  35
HETATM   35  C   UNL     1     -12.351  12.265  64.677  1.00  0.00    -0.369 C  
HETATM   36  C   UNL     1     -12.425  11.885  63.205  1.00  0.00    -0.506 C  
ENDBRANCH  34  35
ENDBRANCH  32  34
ENDBRANCH  31  32
ENDBRANCH   4  31
TORSDOF 9
ENDMDL
MODEL      122
REMARK 921   NORMALIZED FREE ENERGY PREDICTED BY IDOCK:   -1.70 KCAL/MOL
REMARK 922        TOTAL FREE ENERGY PREDICTED BY IDOCK:   -2.46 KCAL/MOL
REMARK 923 INTER-LIGAND FREE ENERGY PREDICTED BY IDOCK:   -5.84 KCAL/MOL
REMARK 924 INTRA-LIGAND FREE ENERGY PREDICTED BY IDOCK:    3.38 KCAL/MOL
REMARK 927      BINDING AFFINITY PREDICTED BY RF-SCORE:    0.00 PKD
ROOT
HETATM    1  C   UNL     1     -11.363  14.534  68.089  1.00  0.00    -0.319 C  
HETATM    2  C   UNL     1     -12.280  14.946  67.088  1.00  0.00     0.131 C  
HETATM    3  C   UNL     1     -10.900  14.550  66.679  1.00  0.00    -0.311 C  
HETATM    4  C   UNL     1      -9.740  13.464  68.031  1.00  0.00    -0.222 C  
HETATM    5  C   UNL     1      -7.096  17.063  68.602  1.00  0.00    -0.210 C  
HETATM    6  C   UNL     1      -8.150  17.494  67.577  1.00  0.00    -0.213 C  
HETATM    7  C   UNL     1     -10.602  13.116  67.017  1.00  0.00    -0.259 C  
HETATM    8  C   UNL     1      -7.645  18.060  66.175  1.00  0.00    -0.285 C  
HETATM    9  C   UNL     1     -11.503  11.906  66.915  1.00  0.00    -0.390 C  
HETATM   10  C   UNL     1      -9.171  13.638  65.864  1.00  0.00     0.170 C  
HETATM   11  O   UNL     1      -6.570  20.463  67.281  1.00  0.00    -0.207 OA 
HETATM   12  C   UNL     1      -7.898  19.267  65.641  1.00  0.00     0.076 C  
HETATM   13  C   UNL     1      -7.655  19.990  66.969  1.00  0.00    -0.282 C  
HETATM   14  C   UNL     1      -8.794  19.884  67.888  1.00  0.00    -0.365 C  
HETATM   15  C   UNL     1      -8.284  14.943  66.528  1.00  0.00     0.227 C  
HETATM   16  C   UNL     1      -8.998  18.606  68.252  1.00  0.00    -0.344 C  
HETATM   17  C   UNL     1      -9.976  18.238  69.333  1.00  0.00     0.055 C  
HETATM   18  C   UNL     1      -9.054  16.269  67.211  1.00  0.00    -0.214 C  
HETATM   19  O   UNL     1      -7.384  14.335  67.469  1.00  0.00    -0.170 OA 
HETATM   20  C   UNL     1     -10.907  17.111  68.921  1.00  0.00    -0.172 C  
HETATM   21  C   UNL     1     -10.147  15.882  68.412  1.00  0.00    -0.223 C  
HETATM   22  H   UNL     1      -6.893  15.059  67.838  1.00  0.00     0.000 HD 
ENDROOT
BRANCH   4  23
HETATM   23  C   UNL     1      -8.712  11.948  67.831  1.00  0.00    -0.167 C  
HETATM   24  O   UNL     1      -8.113  11.428  68.795  1.00  0.00    -0.145 OA 
BRANCH  23  25
HETATM   25  C   UNL     1      -8.377  11.187  66.443  1.00  0.00    -0.167 C  
BRANCH  25  26
HETATM   26  O   UNL     1      -8.170   9.676  66.689  1.00  0.00    -0.118 OA 
BRANCH  26  27
HETATM   27  C   UNL     1      -9.166   8.871  67.208  1.00  0.00    -0.138 C  
HETATM   28  O   UNL     1     -10.334   8.945  66.841  1.00  0.00    -0.262 OA 
BRANCH  27  29
HETATM   29  C   UNL     1      -8.695   7.857  68.297  1.00  0.00    -0.130 C  
HETATM   30  C   UNL     1      -9.120   8.233  69.736  1.00  0.00    -0.147 C  
ENDBRANCH  27  29
ENDBRANCH  26  27
ENDBRANCH  25  26
ENDBRANCH  23  25
ENDBRANCH   4  23
BRANCH   4  31
HETATM   31  O   UNL     1     -10.430  12.855  69.358  1.00  0.00     0.138 OA 
BRANCH  31  32
HETATM   32  C   UNL     1     -11.451  11.923  69.402  1.00  0.00    -0.302 C  
HETATM   33  O   UNL     1     -11.310  10.715  69.302  1.00  0.00    -0.244 OA 
BRANCH  32  34
HETATM   34  O   UNL     1     -12.634  12.500  69.803  1.00  0.00     0.058 OA 
BRANCH  34  35
HETATM   35  C   UNL     1     -12.717  12.647  71.243  1.00  0.00    -0.257 C  
HETATM   36  C   UNL     1     -12.908  14.080  71.717  1.00  0.00    -0.424 C  
ENDBRANCH  34  35
ENDBRANCH  32  34
ENDBRANCH  31  32
ENDBRANCH   4  31
TORSDOF 9
ENDMDL
MODEL      123
REMARK 921   NORMALIZED FREE ENERGY PREDICTED BY IDOCK:   -1.63 KCAL/MOL
REMARK 922        TOTAL FREE ENERGY PREDICTED BY IDOCK:   -2.36 KCAL/MOL
REMARK 923 INTER-LIGAND FREE ENERGY PREDICTED BY IDOCK:   -4.67 KCAL/MOL
REMARK 924 INTRA-LIGAND FREE ENERGY PREDICTED BY IDOCK:    2.31 KCAL/MOL
REMARK 927      BINDING AFFINITY PREDICTED BY RF-SCORE:    0.00 PKD
ROOT
HETATM    1  C   UNL     1      -9.811  11.269  67.727  1.00  0.00    -0.186 C  
HETATM    2  C   UNL     1     -10.364  11.702  66.494  1.00  0.00    -0.259 C  
HETATM    3  C   UNL     1      -8.888  11.506  66.590  1.00  0.00    -0.187 C  
HETATM    4  C   UNL     1      -8.138  10.390  68.186  1.00  0.00    -0.111 C  
HETATM    5  C   UNL     1      -6.406  14.148  69.959  1.00  0.00    -0.135 C  
HETATM    6  C   UNL     1      -7.080  14.589  68.655  1.00  0.00    -0.113 C  
HETATM    7  C   UNL     1      -8.527  10.080  66.903  1.00  0.00    -0.125 C  
HETATM    8  C   UNL     1      -6.198  15.373  67.582  1.00  0.00    -0.167 C  
HETATM    9  C   UNL     1      -9.152   8.804  66.386  1.00  0.00    -0.221 C  
HETATM   10  C   UNL     1      -6.871  10.887  66.397  1.00  0.00    -0.135 C  
HETATM   11  O   UNL     1      -5.936  17.721  69.185  1.00  0.00    -0.196 OA 
HETATM   12  C   UNL     1      -6.414  16.602  67.087  1.00  0.00    -0.223 C  
HETATM   13  C   UNL     1      -6.762  17.179  68.463  1.00  0.00    -0.178 C  
HETATM   14  C   UNL     1      -8.125  16.842  68.890  1.00  0.00    -0.219 C  
HETATM   15  C   UNL     1      -6.471  12.186  67.438  1.00  0.00    -0.149 C  
HETATM   16  C   UNL     1      -8.260  15.515  69.056  1.00  0.00    -0.227 C  
HETATM   17  C   UNL     1      -9.495  14.917  69.672  1.00  0.00     0.060 C  
HETATM   18  C   UNL     1      -7.612  13.331  67.891  1.00  0.00    -0.152 C  
HETATM   19  O   UNL     1      -5.885  11.565  68.593  1.00  0.00    -0.043 OA 
HETATM   20  C   UNL     1     -10.050  13.757  68.862  1.00  0.00    -0.075 C  
HETATM   21  C   UNL     1      -8.993  12.687  68.574  1.00  0.00    -0.046 C  
HETATM   22  H   UNL     1      -5.664  12.286  69.171  1.00  0.00     0.000 HD 
ENDROOT
BRANCH   4  23
HETATM   23  C   UNL     1      -6.902   9.025  68.261  1.00  0.00    -0.065 C  
HETATM   24  O   UNL     1      -6.881   8.110  67.412  1.00  0.00    -0.070 OA 
BRANCH  23  25
HETATM   25  C   UNL     1      -5.807   8.780  69.426  1.00  0.00    -0.034 C  
BRANCH  25  26
HETATM   26  O   UNL     1      -6.207   7.571  70.300  1.00  0.00    -0.033 OA 
BRANCH  26  27
HETATM   27  C   UNL     1      -5.891   6.272  69.951  1.00  0.00    -0.018 C  
HETATM   28  O   UNL     1      -5.174   6.001  68.994  1.00  0.00    -0.004 OA 
BRANCH  27  29
HETATM   29  C   UNL     1      -6.514   5.172  70.866  1.00  0.00    -0.027 C  
HETATM   30  C   UNL     1      -7.626   5.689  71.808  1.00  0.00    -0.096 C  
ENDBRANCH  27  29
ENDBRANCH  26  27
ENDBRANCH  25  26
ENDBRANCH  23  25
ENDBRANCH   4  23
BRANCH   4  31
HETATM   31  O   UNL     1      -9.159   9.554  69.117  1.00  0.00    -0.140 OA 
BRANCH  31  32
HETATM   32  C   UNL     1      -8.961   9.190  70.437  1.00  0.00    -0.229 C  
HETATM   33  O   UNL     1      -8.158   9.703  71.199  1.00  0.00    -0.259 OA 
BRANCH  32  34
HETATM   34  O   UNL     1      -9.941   8.325  70.866  1.00  0.00    -0.185 OA 
BRANCH  34  35
HETATM   35  C   UNL     1     -10.237   8.482  72.277  1.00  0.00    -0.325 C  
HETATM   36  C   UNL     1      -9.009   8.553  73.172  1.00  0.00    -0.091 C  
ENDBRANCH  34  35
ENDBRANCH  32  34
ENDBRANCH  31  32
ENDBRANCH   4  31
TORSDOF 9
ENDMDL
MODEL      124
REMARK 921   NORMALIZED FREE ENERGY PREDICTED BY IDOCK:   -1.36 KCAL/MOL
REMARK 922        TOTAL FREE ENERGY PREDICTED BY IDOCK:   -1.95 KCAL/MOL
REMARK 923 INTER-LIGAND FREE ENERGY PREDICTED BY IDOCK:   -5.12 KCAL/MOL
REMARK 924 INTRA-LIGAND FREE ENERGY PREDICTED BY IDOCK:    3.17 KCAL/MOL
REMARK 927      BINDING AFFINITY PREDICTED BY RF-SCORE:    0.00 PKD
ROOT
HETATM    1  C   UNL     1      -9.316   8.855  69.685  1.00  0.00    -0.163 C  
HETATM    2  C   UNL     1      -8.614   9.466  70.756  1.00  0.00    -0.201 C  
HETATM    3  C   UNL     1      -7.893   8.488  69.890  1.00  0.00    -0.096 C  
HETATM    4  C   UNL     1      -8.728   7.998  68.041  1.00  0.00    -0.125 C  
HETATM    5  C   UNL     1      -9.677   3.882  69.600  1.00  0.00    -0.208 C  
HETATM    6  C   UNL     1      -8.980   4.602  70.759  1.00  0.00    -0.166 C  
HETATM    7  C   UNL     1      -7.823   8.946  68.459  1.00  0.00    -0.103 C  
HETATM    8  C   UNL     1      -7.687   3.922  71.397  1.00  0.00    -0.060 C  
HETATM    9  C   UNL     1      -7.593  10.338  67.914  1.00  0.00    -0.089 C  
HETATM   10  C   UNL     1      -6.600   7.482  68.547  1.00  0.00    -0.049 C  
HETATM   11  O   UNL     1      -9.131   1.748  72.555  1.00  0.00    -0.071 OA 
HETATM   12  C   UNL     1      -7.507   3.545  72.673  1.00  0.00    -0.051 C  
HETATM   13  C   UNL     1      -8.907   2.932  72.770  1.00  0.00    -0.083 C  
HETATM   14  C   UNL     1      -9.956   3.941  72.957  1.00  0.00    -0.194 C  
HETATM   15  C   UNL     1      -7.393   6.039  69.012  1.00  0.00    -0.085 C  
HETATM   16  C   UNL     1     -10.035   4.752  71.888  1.00  0.00    -0.252 C  
HETATM   17  C   UNL     1     -11.149   5.750  71.733  1.00  0.00    -0.301 C  
HETATM   18  C   UNL     1      -8.494   6.012  70.280  1.00  0.00    -0.124 C  
HETATM   19  O   UNL     1      -7.994   5.542  67.806  1.00  0.00    -0.099 OA 
HETATM   20  C   UNL     1     -10.646   7.135  71.362  1.00  0.00    -0.234 C  
HETATM   21  C   UNL     1      -9.737   7.116  70.130  1.00  0.00    -0.171 C  
HETATM   22  H   UNL     1      -8.434   4.742  68.064  1.00  0.00     0.000 HD 
ENDROOT
BRANCH   4  23
HETATM   23  C   UNL     1      -8.000   7.884  66.352  1.00  0.00    -0.102 C  
HETATM   24  O   UNL     1      -7.151   8.704  65.945  1.00  0.00    -0.074 OA 
BRANCH  23  25
HETATM   25  C   UNL     1      -8.414   6.833  65.193  1.00  0.00    -0.028 C  
BRANCH  25  26
HETATM   26  O   UNL     1      -7.177   6.046  64.709  1.00  0.00    -0.058 OA 
BRANCH  26  27
HETATM   27  C   UNL     1      -6.910   4.758  65.134  1.00  0.00    -0.057 C  
HETATM   28  O   UNL     1      -6.105   4.510  66.025  1.00  0.00    -0.029 OA 
BRANCH  27  29
HETATM   29  C   UNL     1      -7.712   3.640  64.398  1.00  0.00    -0.081 C  
HETATM   30  C   UNL     1      -8.865   4.169  63.512  1.00  0.00    -0.123 C  
ENDBRANCH  27  29
ENDBRANCH  26  27
ENDBRANCH  25  26
ENDBRANCH  23  25
ENDBRANCH   4  23
BRANCH   4  31
HETATM   31  O   UNL     1      -9.970   8.862  67.478  1.00  0.00    -0.176 OA 
BRANCH  31  32
HETATM   32  C   UNL     1      -9.914   9.861  66.521  1.00  0.00    -0.228 C  
HETATM   33  O   UNL     1     -10.003   9.691  65.316  1.00  0.00    -0.295 OA 
BRANCH  32  34
HETATM   34  O   UNL     1      -9.972  11.107  67.100  1.00  0.00    -0.181 OA 
BRANCH  34  35
HETATM   35  C   UNL     1     -11.331  11.514  67.400  1.00  0.00    -0.298 C  
HETATM   36  C   UNL     1     -11.833  12.684  66.567  1.00  0.00    -0.463 C  
ENDBRANCH  34  35
ENDBRANCH  32  34
ENDBRANCH  31  32
ENDBRANCH   4  31
TORSDOF 9
ENDMDL
MODEL      125
REMARK 921   NORMALIZED FREE ENERGY PREDICTED BY IDOCK:   -1.22 KCAL/MOL
REMARK 922        TOTAL FREE ENERGY PREDICTED BY IDOCK:   -1.72 KCAL/MOL
REMARK 923 INTER-LIGAND FREE ENERGY PREDICTED BY IDOCK:   -3.17 KCAL/MOL
REMARK 924 INTRA-LIGAND FREE ENERGY PREDICTED BY IDOCK:    1.45 KCAL/MOL
REMARK 927      BINDING AFFINITY PREDICTED BY RF-SCORE:    0.00 PKD
ROOT
HETATM    1  C   UNL     1     -10.128   6.622  68.654  1.00  0.00    -0.169 C  
HETATM    2  C   UNL     1     -10.272   7.621  69.651  1.00  0.00    -0.204 C  
HETATM    3  C   UNL     1      -8.933   7.418  69.025  1.00  0.00    -0.131 C  
HETATM    4  C   UNL     1      -8.826   6.354  67.233  1.00  0.00    -0.108 C  
HETATM    5  C   UNL     1      -6.837   2.953  69.410  1.00  0.00    -0.037 C  
HETATM    6  C   UNL     1      -7.077   4.028  70.475  1.00  0.00    -0.038 C  
HETATM    7  C   UNL     1      -8.955   7.688  67.546  1.00  0.00    -0.128 C  
HETATM    8  C   UNL     1      -5.826   4.544  71.317  1.00  0.00    -0.016 C  
HETATM    9  C   UNL     1      -9.686   8.772  66.786  1.00  0.00    -0.286 C  
HETATM   10  C   UNL     1      -7.098   7.581  67.979  1.00  0.00    -0.084 C  
HETATM   11  O   UNL     1      -5.479   2.084  72.724  1.00  0.00     0.000 OA 
HETATM   12  C   UNL     1      -5.663   4.501  72.650  1.00  0.00    -0.012 C  
HETATM   13  C   UNL     1      -6.203   3.071  72.746  1.00  0.00    -0.009 C  
HETATM   14  C   UNL     1      -7.667   3.012  72.675  1.00  0.00    -0.058 C  
HETATM   15  C   UNL     1      -6.700   6.048  68.629  1.00  0.00    -0.061 C  
HETATM   16  C   UNL     1      -8.105   3.438  71.478  1.00  0.00    -0.061 C  
HETATM   17  C   UNL     1      -9.546   3.302  71.069  1.00  0.00    -0.234 C  
HETATM   18  C   UNL     1      -7.658   5.314  69.796  1.00  0.00    -0.069 C  
HETATM   19  O   UNL     1      -6.544   5.192  67.485  1.00  0.00    -0.050 OA 
HETATM   20  C   UNL     1     -10.117   4.590  70.501  1.00  0.00    -0.233 C  
HETATM   21  C   UNL     1      -9.263   5.156  69.363  1.00  0.00    -0.155 C  
HETATM   22  H   UNL     1      -6.324   4.342  67.846  1.00  0.00     0.000 HD 
ENDROOT
BRANCH   4  23
HETATM   23  C   UNL     1      -7.948   6.694  65.650  1.00  0.00    -0.115 C  
HETATM   24  O   UNL     1      -7.443   7.809  65.403  1.00  0.00    -0.074 OA 
BRANCH  23  25
HETATM   25  C   UNL     1      -7.811   5.688  64.389  1.00  0.00    -0.115 C  
BRANCH  25  26
HETATM   26  O   UNL     1      -6.523   4.844  64.507  1.00  0.00    -0.036 OA 
BRANCH  26  27
HETATM   27  C   UNL     1      -6.228   3.823  63.624  1.00  0.00    -0.021 C  
HETATM   28  O   UNL     1      -6.564   3.851  62.446  1.00  0.00    -0.022 OA 
BRANCH  27  29
HETATM   29  C   UNL     1      -5.431   2.629  64.238  1.00  0.00    -0.009 C  
HETATM   30  C   UNL     1      -6.323   1.486  64.777  1.00  0.00    -0.018 C  
ENDBRANCH  27  29
ENDBRANCH  26  27
ENDBRANCH  25  26
ENDBRANCH  23  25
ENDBRANCH   4  23
BRANCH   4  31
HETATM   31  O   UNL     1     -10.187   6.006  66.436  1.00  0.00    -0.153 OA 
BRANCH  31  32
HETATM   32  C   UNL     1     -10.656   4.744  66.117  1.00  0.00    -0.234 C  
HETATM   33  O   UNL     1     -11.541   4.502  65.313  1.00  0.00     0.071 OA 
BRANCH  32  34
HETATM   34  O   UNL     1      -9.848   3.765  66.647  1.00  0.00    -0.178 OA 
BRANCH  34  35
HETATM   35  C   UNL     1      -9.515   2.739  65.679  1.00  0.00     0.032 C  
HETATM   36  C   UNL     1      -9.696   3.163  64.229  1.00  0.00    -0.156 C  
ENDBRANCH  34  35
ENDBRANCH  32  34
ENDBRANCH  31  32
ENDBRANCH   4  31
TORSDOF 9
ENDMDL
MODEL      126
REMARK 921   NORMALIZED FREE ENERGY PREDICTED BY IDOCK:   -1.00 KCAL/MOL
REMARK 922        TOTAL FREE ENERGY PREDICTED BY IDOCK:   -1.39 KCAL/MOL
REMARK 923 INTER-LIGAND FREE ENERGY PREDICTED BY IDOCK:   -4.78 KCAL/MOL
REMARK 924 INTRA-LIGAND FREE ENERGY PREDICTED BY IDOCK:    3.39 KCAL/MOL
REMARK 927      BINDING AFFINITY PREDICTED BY RF-SCORE:    0.00 PKD
ROOT
HETATM    1  C   UNL     1      -9.094   8.374  70.767  1.00  0.00    -0.180 C  
HETATM    2  C   UNL     1      -8.010   8.964  71.467  1.00  0.00    -0.119 C  
HETATM    3  C   UNL     1      -7.729   7.847  70.518  1.00  0.00    -0.086 C  
HETATM    4  C   UNL     1      -9.195   7.342  69.121  1.00  0.00    -0.139 C  
HETATM    5  C   UNL     1      -9.929   3.491  71.334  1.00  0.00    -0.151 C  
HETATM    6  C   UNL     1      -8.810   4.195  72.108  1.00  0.00    -0.128 C  
HETATM    7  C   UNL     1      -8.116   8.196  69.107  1.00  0.00    -0.121 C  
HETATM    8  C   UNL     1      -7.446   3.402  72.342  1.00  0.00    -0.057 C  
HETATM    9  C   UNL     1      -7.958   9.508  68.372  1.00  0.00    -0.093 C  
HETATM   10  C   UNL     1      -7.083   6.599  68.933  1.00  0.00    -0.085 C  
HETATM   11  O   UNL     1      -8.599   1.509  74.142  1.00  0.00    -0.052 OA 
HETATM   12  C   UNL     1      -6.871   3.092  73.516  1.00  0.00    -0.035 C  
HETATM   13  C   UNL     1      -8.203   2.667  74.143  1.00  0.00    -0.067 C  
HETATM   14  C   UNL     1      -9.022   3.810  74.564  1.00  0.00    -0.099 C  
HETATM   15  C   UNL     1      -7.798   5.301  69.788  1.00  0.00    -0.073 C  
HETATM   16  C   UNL     1      -9.389   4.551  73.504  1.00  0.00    -0.125 C  
HETATM   17  C   UNL     1     -10.388   5.668  73.628  1.00  0.00    -0.260 C  
HETATM   18  C   UNL     1      -8.389   5.497  71.347  1.00  0.00    -0.126 C  
HETATM   19  O   UNL     1      -8.824   4.804  68.914  1.00  0.00    -0.091 OA 
HETATM   20  C   UNL     1      -9.916   6.951  72.966  1.00  0.00    -0.212 C  
HETATM   21  C   UNL     1      -9.496   6.735  71.508  1.00  0.00    -0.156 C  
HETATM   22  H   UNL     1      -9.221   4.084  69.388  1.00  0.00     0.000 HD 
ENDROOT
BRANCH   4  23
HETATM   23  C   UNL     1      -9.112   7.025  67.308  1.00  0.00    -0.125 C  
HETATM   24  O   UNL     1     -10.130   6.751  66.640  1.00  0.00    -0.185 OA 
BRANCH  23  25
HETATM   25  C   UNL     1      -7.772   6.957  66.402  1.00  0.00    -0.098 C  
BRANCH  25  26
HETATM   26  O   UNL     1      -7.809   8.038  65.299  1.00  0.00    -0.098 OA 
BRANCH  26  27
HETATM   27  C   UNL     1      -7.011   7.968  64.173  1.00  0.00    -0.070 C  
HETATM   28  O   UNL     1      -7.052   7.023  63.392  1.00  0.00    -0.057 OA 
BRANCH  27  29
HETATM   29  C   UNL     1      -6.054   9.183  63.966  1.00  0.00    -0.076 C  
HETATM   30  C   UNL     1      -5.949  10.121  65.191  1.00  0.00    -0.119 C  
ENDBRANCH  27  29
ENDBRANCH  26  27
ENDBRANCH  25  26
ENDBRANCH  23  25
ENDBRANCH   4  23
BRANCH   4  31
HETATM   31  O   UNL     1     -10.468   8.315  68.920  1.00  0.00    -0.221 OA 
BRANCH  31  32
HETATM   32  C   UNL     1     -11.335   8.753  69.906  1.00  0.00     0.039 C  
HETATM   33  O   UNL     1     -12.008   8.032  70.626  1.00  0.00    -0.185 OA 
BRANCH  32  34
HETATM   34  O   UNL     1     -11.184  10.100  70.139  1.00  0.00    -0.266 OA 
BRANCH  34  35
HETATM   35  C   UNL     1     -12.435  10.744  70.489  1.00  0.00    -0.360 C  
HETATM   36  C   UNL     1     -12.867  10.532  71.932  1.00  0.00    -0.509 C  
ENDBRANCH  34  35
ENDBRANCH  32  34
ENDBRANCH  31  32
ENDBRANCH   4  31
TORSDOF 9
ENDMDL
MODEL      127
REMARK 921   NORMALIZED FREE ENERGY PREDICTED BY IDOCK:   -0.87 KCAL/MOL
REMARK 922        TOTAL FREE ENERGY PREDICTED BY IDOCK:   -1.19 KCAL/MOL
REMARK 923 INTER-LIGAND FREE ENERGY PREDICTED BY IDOCK:   -3.89 KCAL/MOL
REMARK 924 INTRA-LIGAND FREE ENERGY PREDICTED BY IDOCK:    2.70 KCAL/MOL
REMARK 927      BINDING AFFINITY PREDICTED BY RF-SCORE:    0.00 PKD
ROOT
HETATM    1  C   UNL     1      -7.869   7.203  67.290  1.00  0.00    -0.111 C  
HETATM    2  C   UNL     1      -8.435   6.105  66.593  1.00  0.00    -0.116 C  
HETATM    3  C   UNL     1      -9.310   6.915  67.490  1.00  0.00    -0.130 C  
HETATM    4  C   UNL     1      -8.643   8.799  68.089  1.00  0.00    -0.134 C  
HETATM    5  C   UNL     1      -8.080   7.234  72.273  1.00  0.00    -0.109 C  
HETATM    6  C   UNL     1      -8.623   6.049  71.467  1.00  0.00    -0.132 C  
HETATM    7  C   UNL     1      -9.409   8.346  67.040  1.00  0.00    -0.202 C  
HETATM    8  C   UNL     1      -9.946   5.329  71.990  1.00  0.00    -0.238 C  
HETATM    9  C   UNL     1      -9.512   8.898  65.636  1.00  0.00    -0.230 C  
HETATM   10  C   UNL     1     -10.784   8.168  68.354  1.00  0.00    -0.066 C  
HETATM   11  O   UNL     1      -8.694   4.221  74.304  1.00  0.00    -0.096 OA 
HETATM   12  C   UNL     1     -10.095   4.039  72.333  1.00  0.00    -0.242 C  
HETATM   13  C   UNL     1      -8.770   4.011  73.101  1.00  0.00    -0.095 C  
HETATM   14  C   UNL     1      -7.604   3.898  72.216  1.00  0.00    -0.070 C  
HETATM   15  C   UNL     1     -10.134   7.725  69.875  1.00  0.00    -0.203 C  
HETATM   16  C   UNL     1      -7.495   4.982  71.429  1.00  0.00    -0.086 C  
HETATM   17  C   UNL     1      -6.286   5.214  70.565  1.00  0.00    -0.022 C  
HETATM   18  C   UNL     1      -8.973   6.521  70.016  1.00  0.00    -0.144 C  
HETATM   19  O   UNL     1      -9.663   8.956  70.447  1.00  0.00    -0.171 OA 
HETATM   20  C   UNL     1      -6.649   5.577  69.136  1.00  0.00    -0.047 C  
HETATM   21  C   UNL     1      -7.623   6.756  69.062  1.00  0.00    -0.101 C  
HETATM   22  H   UNL     1      -9.302   8.710  71.290  1.00  0.00     0.000 HD 
ENDROOT
BRANCH   4  23
HETATM   23  C   UNL     1      -9.474  10.443  68.134  1.00  0.00    -0.145 C  
HETATM   24  O   UNL     1      -9.098  11.390  67.412  1.00  0.00    -0.157 OA 
BRANCH  23  25
HETATM   25  C   UNL     1     -10.667  10.893  69.131  1.00  0.00    -0.226 C  
BRANCH  25  26
HETATM   26  O   UNL     1     -11.049  12.369  68.887  1.00  0.00    -0.241 OA 
BRANCH  26  27
HETATM   27  C   UNL     1     -10.176  13.409  69.145  1.00  0.00     0.185 C  
HETATM   28  O   UNL     1      -8.959  13.261  69.160  1.00  0.00     0.359 OA 
BRANCH  27  29
HETATM   29  C   UNL     1     -10.854  14.789  69.416  1.00  0.00    -0.269 C  
HETATM   30  C   UNL     1     -10.919  15.177  70.912  1.00  0.00    -0.239 C  
ENDBRANCH  27  29
ENDBRANCH  26  27
ENDBRANCH  25  26
ENDBRANCH  23  25
ENDBRANCH   4  23
BRANCH   4  31
HETATM   31  O   UNL     1      -7.345   9.444  67.377  1.00  0.00    -0.086 OA 
BRANCH  31  32
HETATM   32  C   UNL     1      -6.444  10.325  67.947  1.00  0.00    -0.061 C  
HETATM   33  O   UNL     1      -5.950  10.211  69.057  1.00  0.00    -0.038 OA 
BRANCH  32  34
HETATM   34  O   UNL     1      -5.988  11.236  67.023  1.00  0.00    -0.072 OA 
BRANCH  34  35
HETATM   35  C   UNL     1      -6.338  10.870  65.665  1.00  0.00     0.001 C  
HETATM   36  C   UNL     1      -5.145  10.638  64.750  1.00  0.00    -0.155 C  
ENDBRANCH  34  35
ENDBRANCH  32  34
ENDBRANCH  31  32
ENDBRANCH   4  31
TORSDOF 9
ENDMDL
MODEL      128
REMARK 921   NORMALIZED FREE ENERGY PREDICTED BY IDOCK:   -0.77 KCAL/MOL
REMARK 922        TOTAL FREE ENERGY PREDICTED BY IDOCK:   -1.04 KCAL/MOL
REMARK 923 INTER-LIGAND FREE ENERGY PREDICTED BY IDOCK:   -4.57 KCAL/MOL
REMARK 924 INTRA-LIGAND FREE ENERGY PREDICTED BY IDOCK:    3.52 KCAL/MOL
REMARK 927      BINDING AFFINITY PREDICTED BY RF-SCORE:    0.00 PKD
ROOT
HETATM    1  C   UNL     1      -9.052   8.349  70.792  1.00  0.00    -0.180 C  
HETATM    2  C   UNL     1      -8.068   8.954  71.616  1.00  0.00    -0.088 C  
HETATM    3  C   UNL     1      -7.658   7.849  70.701  1.00  0.00    -0.077 C  
HETATM    4  C   UNL     1      -8.943   7.326  69.141  1.00  0.00    -0.135 C  
HETATM    5  C   UNL     1      -9.854   3.447  71.237  1.00  0.00    -0.194 C  
HETATM    6  C   UNL     1      -8.845   4.167  72.138  1.00  0.00    -0.128 C  
HETATM    7  C   UNL     1      -7.886   8.200  69.256  1.00  0.00    -0.110 C  
HETATM    8  C   UNL     1      -7.503   3.398  72.526  1.00  0.00    -0.050 C  
HETATM    9  C   UNL     1      -7.669   9.520  68.551  1.00  0.00    -0.081 C  
HETATM   10  C   UNL     1      -6.808   6.624  69.195  1.00  0.00    -0.069 C  
HETATM   11  O   UNL     1      -8.819   1.471  74.171  1.00  0.00    -0.053 OA 
HETATM   12  C   UNL     1      -7.062   3.091  73.756  1.00  0.00    -0.037 C  
HETATM   13  C   UNL     1      -8.448   2.636  74.223  1.00  0.00    -0.068 C  
HETATM   14  C   UNL     1      -9.333   3.761  74.551  1.00  0.00    -0.125 C  
HETATM   15  C   UNL     1      -7.593   5.307  69.956  1.00  0.00    -0.068 C  
HETATM   16  C   UNL     1      -9.589   4.502  73.459  1.00  0.00    -0.133 C  
HETATM   17  C   UNL     1     -10.617   5.600  73.472  1.00  0.00    -0.300 C  
HETATM   18  C   UNL     1      -8.364   5.482  71.438  1.00  0.00    -0.126 C  
HETATM   19  O   UNL     1      -8.500   4.797  68.967  1.00  0.00    -0.081 OA 
HETATM   20  C   UNL     1     -10.096   6.896  72.874  1.00  0.00    -0.212 C  
HETATM   21  C   UNL     1      -9.506   6.698  71.475  1.00  0.00    -0.159 C  
HETATM   22  H   UNL     1      -8.936   4.067  69.389  1.00  0.00     0.000 HD 
ENDROOT
BRANCH   4  23
HETATM   23  C   UNL     1      -8.644   7.023  67.348  1.00  0.00    -0.121 C  
HETATM   24  O   UNL     1      -7.850   7.724  66.686  1.00  0.00    -0.098 OA 
BRANCH  23  25
HETATM   25  C   UNL     1      -9.402   5.941  66.414  1.00  0.00    -0.157 C  
BRANCH  25  26
HETATM   26  O   UNL     1      -8.378   5.082  65.640  1.00  0.00    -0.113 OA 
BRANCH  26  27
HETATM   27  C   UNL     1      -8.480   3.706  65.563  1.00  0.00    -0.110 C  
HETATM   28  O   UNL     1      -9.468   3.141  65.107  1.00  0.00    -0.156 OA 
BRANCH  27  29
HETATM   29  C   UNL     1      -7.241   2.922  66.098  1.00  0.00    -0.066 C  
HETATM   30  C   UNL     1      -6.094   2.775  65.071  1.00  0.00    -0.019 C  
ENDBRANCH  27  29
ENDBRANCH  26  27
ENDBRANCH  25  26
ENDBRANCH  23  25
ENDBRANCH   4  23
BRANCH   4  31
HETATM   31  O   UNL     1     -10.202   8.277  68.799  1.00  0.00    -0.202 OA 
BRANCH  31  32
HETATM   32  C   UNL     1     -11.205   8.663  69.671  1.00  0.00     0.079 C  
HETATM   33  O   UNL     1     -11.964   7.907  70.254  1.00  0.00     0.034 OA 
BRANCH  32  34
HETATM   34  O   UNL     1     -11.103   9.999  69.984  1.00  0.00    -0.256 OA 
BRANCH  34  35
HETATM   35  C   UNL     1     -12.397  10.613  70.210  1.00  0.00    -0.325 C  
HETATM   36  C   UNL     1     -12.980  10.358  71.592  1.00  0.00    -0.581 C  
ENDBRANCH  34  35
ENDBRANCH  32  34
ENDBRANCH  31  32
ENDBRANCH   4  31
TORSDOF 9
ENDMDL
MODEL      129
REMARK 921   NORMALIZED FREE ENERGY PREDICTED BY IDOCK:   -0.47 KCAL/MOL
REMARK 922        TOTAL FREE ENERGY PREDICTED BY IDOCK:   -0.59 KCAL/MOL
REMARK 923 INTER-LIGAND FREE ENERGY PREDICTED BY IDOCK:   -2.39 KCAL/MOL
REMARK 924 INTRA-LIGAND FREE ENERGY PREDICTED BY IDOCK:    1.80 KCAL/MOL
REMARK 927      BINDING AFFINITY PREDICTED BY RF-SCORE:    0.00 PKD
ROOT
HETATM    1  C   UNL     1     -11.575  16.076  68.305  1.00  0.00    -0.232 C  
HETATM    2  C   UNL     1     -12.474  15.459  69.212  1.00  0.00    -0.004 C  
HETATM    3  C   UNL     1     -11.017  15.152  69.323  1.00  0.00    -0.260 C  
HETATM    4  C   UNL     1      -9.661  16.423  68.374  1.00  0.00    -0.229 C  
HETATM    5  C   UNL     1      -8.752  13.173  65.394  1.00  0.00     1.703 C  
HETATM    6  C   UNL     1      -9.781  12.566  66.353  1.00  0.00    -0.253 C  
HETATM    7  C   UNL     1     -10.205  16.378  69.637  1.00  0.00    -0.198 C  
HETATM    8  C   UNL     1      -9.407  11.203  67.091  1.00  0.00    -0.176 C  
HETATM    9  C   UNL     1     -10.531  17.524  70.568  1.00  0.00     1.397 C  
HETATM   10  C   UNL     1      -8.995  14.926  69.911  1.00  0.00     0.346 C  
HETATM   11  O   UNL     1      -9.501   9.630  64.711  1.00  0.00    -0.267 OA 
HETATM   12  C   UNL     1     -10.066  10.034  67.035  1.00  0.00    -0.274 C  
HETATM   13  C   UNL     1     -10.269  10.135  65.519  1.00  0.00    -0.218 C  
HETATM   14  C   UNL     1     -11.357  11.049  65.152  1.00  0.00     0.236 C  
HETATM   15  C   UNL     1      -8.776  14.021  68.475  1.00  0.00    -0.156 C  
HETATM   16  C   UNL     1     -11.067  12.309  65.521  1.00  0.00    -0.348 C  
HETATM   17  C   UNL     1     -11.920  13.473  65.097  1.00  0.00    -0.391 C  
HETATM   18  C   UNL     1     -10.077  13.578  67.510  1.00  0.00    -0.234 C  
HETATM   19  O   UNL     1      -7.808  14.763  67.716  1.00  0.00    -0.125 OA 
HETATM   20  C   UNL     1     -12.275  14.390  66.254  1.00  0.00    -0.366 C  
HETATM   21  C   UNL     1     -11.040  14.855  67.031  1.00  0.00    -0.338 C  
HETATM   22  H   UNL     1      -7.688  14.261  66.919  1.00  0.00     0.000 HD 
ENDROOT
BRANCH   4  23
HETATM   23  C   UNL     1      -8.099  17.209  68.952  1.00  0.00    -0.203 C  
HETATM   24  O   UNL     1      -8.103  18.212  69.696  1.00  0.00     0.472 OA 
BRANCH  23  25
HETATM   25  C   UNL     1      -6.595  16.799  68.515  1.00  0.00    -0.161 C  
BRANCH  25  26
HETATM   26  O   UNL     1      -5.996  15.789  69.518  1.00  0.00    -0.125 OA 
BRANCH  26  27
HETATM   27  C   UNL     1      -5.554  16.168  70.771  1.00  0.00     0.010 C  
HETATM   28  O   UNL     1      -5.351  17.338  71.074  1.00  0.00    -0.225 OA 
BRANCH  27  29
HETATM   29  C   UNL     1      -5.334  14.994  71.776  1.00  0.00     0.008 C  
HETATM   30  C   UNL     1      -5.467  13.589  71.144  1.00  0.00    -0.204 C  
ENDBRANCH  27  29
ENDBRANCH  26  27
ENDBRANCH  25  26
ENDBRANCH  23  25
ENDBRANCH   4  23
BRANCH   4  31
HETATM   31  O   UNL     1     -10.180  17.830  67.775  1.00  0.00    -0.327 OA 
BRANCH  31  32
HETATM   32  C   UNL     1      -9.527  18.622  66.847  1.00  0.00    -0.301 C  
HETATM   33  O   UNL     1      -9.493  19.842  66.858  1.00  0.00    -0.330 OA 
BRANCH  32  34
HETATM   34  O   UNL     1      -8.721  17.866  66.027  1.00  0.00    -0.492 OA 
BRANCH  34  35
HETATM   35  C   UNL     1      -7.343  18.316  66.040  1.00  0.00    -0.246 C  
HETATM   36  C   UNL     1      -7.028  19.401  65.021  1.00  0.00     0.120 C  
ENDBRANCH  34  35
ENDBRANCH  32  34
ENDBRANCH  31  32
ENDBRANCH   4  31
TORSDOF 9
ENDMDL
MODEL      130
REMARK 921   NORMALIZED FREE ENERGY PREDICTED BY IDOCK:   -0.29 KCAL/MOL
REMARK 922        TOTAL FREE ENERGY PREDICTED BY IDOCK:   -0.31 KCAL/MOL
REMARK 923 INTER-LIGAND FREE ENERGY PREDICTED BY IDOCK:   -2.24 KCAL/MOL
REMARK 924 INTRA-LIGAND FREE ENERGY PREDICTED BY IDOCK:    1.93 KCAL/MOL
REMARK 927      BINDING AFFINITY PREDICTED BY RF-SCORE:    0.00 PKD
ROOT
HETATM    1  C   UNL     1      -9.441  14.438  70.032  1.00  0.00     1.031 C  
HETATM    2  C   UNL     1     -10.306  15.018  70.996  1.00  0.00     0.603 C  
HETATM    3  C   UNL     1     -10.809  14.823  69.605  1.00  0.00    -0.247 C  
HETATM    4  C   UNL     1      -9.769  13.521  68.348  1.00  0.00    -0.207 C  
HETATM    5  C   UNL     1      -8.367  17.040  65.916  1.00  0.00    -0.016 C  
HETATM    6  C   UNL     1      -9.249  17.636  67.019  1.00  0.00    -0.254 C  
HETATM    7  C   UNL     1     -10.831  13.372  69.211  1.00  0.00    -0.085 C  
HETATM    8  C   UNL     1     -10.477  18.555  66.583  1.00  0.00    -0.436 C  
HETATM    9  C   UNL     1     -11.214  12.166  70.039  1.00  0.00     0.129 C  
HETATM   10  C   UNL     1     -11.835  14.248  67.843  1.00  0.00    -0.393 C  
HETATM   11  O   UNL     1      -8.832  20.685  65.630  1.00  0.00     0.304 OA 
HETATM   12  C   UNL     1     -10.702  19.835  66.921  1.00  0.00    -0.541 C  
HETATM   13  C   UNL     1      -9.240  20.232  66.691  1.00  0.00    -0.304 C  
HETATM   14  C   UNL     1      -8.364  19.834  67.800  1.00  0.00    -0.344 C  
HETATM   15  C   UNL     1     -10.882  15.409  67.022  1.00  0.00    -0.320 C  
HETATM   16  C   UNL     1      -8.318  18.495  67.917  1.00  0.00    -0.281 C  
HETATM   17  C   UNL     1      -7.350  17.815  68.845  1.00  0.00    -0.245 C  
HETATM   18  C   UNL     1      -9.892  16.479  67.854  1.00  0.00    -0.240 C  
HETATM   19  O   UNL     1     -10.123  14.653  66.064  1.00  0.00    -0.281 OA 
HETATM   20  C   UNL     1      -8.015  16.763  69.715  1.00  0.00     0.844 C  
HETATM   21  C   UNL     1      -8.812  15.745  68.894  1.00  0.00    -0.220 C  
HETATM   22  H   UNL     1      -9.595  15.297  65.609  1.00  0.00     0.000 HD 
ENDROOT
BRANCH   4  23
HETATM   23  C   UNL     1     -10.338  12.167  67.235  1.00  0.00    -0.212 C  
HETATM   24  O   UNL     1     -10.302  10.969  67.585  1.00  0.00    -0.179 OA 
BRANCH  23  25
HETATM   25  C   UNL     1     -10.834  12.324  65.703  1.00  0.00    -0.285 C  
BRANCH  25  26
HETATM   26  O   UNL     1     -12.375  12.382  65.635  1.00  0.00    -0.639 OA 
BRANCH  26  27
HETATM   27  C   UNL     1     -13.044  13.306  64.854  1.00  0.00     0.044 C  
HETATM   28  O   UNL     1     -13.603  14.289  65.327  1.00  0.00    -0.394 OA 
BRANCH  27  29
HETATM   29  C   UNL     1     -13.034  13.006  63.323  1.00  0.00     0.526 C  
HETATM   30  C   UNL     1     -13.019  11.499  62.974  1.00  0.00     0.615 C  
ENDBRANCH  27  29
ENDBRANCH  26  27
ENDBRANCH  25  26
ENDBRANCH  23  25
ENDBRANCH   4  23
BRANCH   4  31
HETATM   31  O   UNL     1      -8.623  12.567  68.969  1.00  0.00     0.229 OA 
BRANCH  31  32
HETATM   32  C   UNL     1      -7.273  12.596  68.667  1.00  0.00    -0.108 C  
HETATM   33  O   UNL     1      -6.381  12.888  69.446  1.00  0.00    -0.103 OA 
BRANCH  32  34
HETATM   34  O   UNL     1      -7.027  12.035  67.435  1.00  0.00    -0.114 OA 
BRANCH  34  35
HETATM   35  C   UNL     1      -5.793  11.274  67.411  1.00  0.00    -0.061 C  
HETATM   36  C   UNL     1      -5.979   9.787  67.150  1.00  0.00    -0.052 C  
ENDBRANCH  34  35
ENDBRANCH  32  34
ENDBRANCH  31  32
ENDBRANCH   4  31
TORSDOF 9
ENDMDL
MODEL      131
REMARK 921   NORMALIZED FREE ENERGY PREDICTED BY IDOCK:   -0.10 KCAL/MOL
REMARK 922        TOTAL FREE ENERGY PREDICTED BY IDOCK:   -0.01 KCAL/MOL
REMARK 923 INTER-LIGAND FREE ENERGY PREDICTED BY IDOCK:   -4.86 KCAL/MOL
REMARK 924 INTRA-LIGAND FREE ENERGY PREDICTED BY IDOCK:    4.85 KCAL/MOL
REMARK 927      BINDING AFFINITY PREDICTED BY RF-SCORE:    0.00 PKD
ROOT
HETATM    1  C   UNL     1      -9.875   8.277  70.999  1.00  0.00    -0.225 C  
HETATM    2  C   UNL     1      -9.090   8.975  71.953  1.00  0.00    -0.061 C  
HETATM    3  C   UNL     1      -8.431   8.463  70.716  1.00  0.00    -0.151 C  
HETATM    4  C   UNL     1      -9.637   7.920  69.102  1.00  0.00    -0.153 C  
HETATM    5  C   UNL     1      -8.611   3.597  69.831  1.00  0.00    -0.105 C  
HETATM    6  C   UNL     1      -7.835   4.382  70.895  1.00  0.00    -0.067 C  
HETATM    7  C   UNL     1      -9.003   9.084  69.472  1.00  0.00    -0.147 C  
HETATM    8  C   UNL     1      -6.257   4.176  70.977  1.00  0.00    -0.015 C  
HETATM    9  C   UNL     1      -9.436  10.513  69.234  1.00  0.00    -0.191 C  
HETATM   10  C   UNL     1      -7.419   8.202  68.874  1.00  0.00    -0.089 C  
HETATM   11  O   UNL     1      -6.434   1.491  71.930  1.00  0.00    -0.014 OA 
HETATM   12  C   UNL     1      -5.542   3.744  72.029  1.00  0.00    -0.008 C  
HETATM   13  C   UNL     1      -6.547   2.634  72.352  1.00  0.00    -0.015 C  
HETATM   14  C   UNL     1      -7.737   3.133  73.052  1.00  0.00    -0.056 C  
HETATM   15  C   UNL     1      -7.493   6.519  69.179  1.00  0.00    -0.095 C  
HETATM   16  C   UNL     1      -8.432   3.976  72.270  1.00  0.00    -0.105 C  
HETATM   17  C   UNL     1      -9.792   4.482  72.666  1.00  0.00    -0.201 C  
HETATM   18  C   UNL     1      -8.026   5.917  70.653  1.00  0.00    -0.110 C  
HETATM   19  O   UNL     1      -8.272   5.983  68.098  1.00  0.00    -0.112 OA 
HETATM   20  C   UNL     1      -9.923   5.988  72.514  1.00  0.00    -0.195 C  
HETATM   21  C   UNL     1      -9.532   6.470  71.113  1.00  0.00    -0.173 C  
HETATM   22  H   UNL     1      -8.314   5.049  68.267  1.00  0.00     0.000 HD 
ENDROOT
BRANCH   4  23
HETATM   23  C   UNL     1      -9.531   8.302  67.303  1.00  0.00    -0.151 C  
HETATM   24  O   UNL     1      -9.884   7.479  66.433  1.00  0.00    -0.176 OA 
BRANCH  23  25
HETATM   25  C   UNL     1      -8.903   9.636  66.636  1.00  0.00    -0.138 C  
BRANCH  25  26
HETATM   26  O   UNL     1     -10.023  10.547  66.088  1.00  0.00    -0.210 OA 
BRANCH  26  27
HETATM   27  C   UNL     1      -9.845  11.905  65.905  1.00  0.00    -0.237 C  
HETATM   28  O   UNL     1      -8.830  12.493  66.261  1.00  0.00    -0.091 OA 
BRANCH  27  29
HETATM   29  C   UNL     1     -11.034  12.638  65.207  1.00  0.00    -0.320 C  
HETATM   30  C   UNL     1     -10.882  14.177  65.152  1.00  0.00    -0.380 C  
ENDBRANCH  27  29
ENDBRANCH  26  27
ENDBRANCH  25  26
ENDBRANCH  23  25
ENDBRANCH   4  23
BRANCH   4  31
HETATM   31  O   UNL     1     -11.205   8.305  69.120  1.00  0.00     0.116 OA 
BRANCH  31  32
HETATM   32  C   UNL     1     -11.937   8.733  70.213  1.00  0.00     0.252 C  
HETATM   33  O   UNL     1     -12.254   8.040  71.166  1.00  0.00    -0.302 OA 
BRANCH  32  34
HETATM   34  O   UNL     1     -12.075  10.102  70.213  1.00  0.00    -0.258 OA 
BRANCH  34  35
HETATM   35  C   UNL     1     -13.227  10.541  70.977  1.00  0.00    -0.239 C  
HETATM   36  C   UNL     1     -12.974  11.765  71.845  1.00  0.00    -0.435 C  
ENDBRANCH  34  35
ENDBRANCH  32  34
ENDBRANCH  31  32
ENDBRANCH   4  31
TORSDOF 9
ENDMDL
MODEL      132
REMARK 921   NORMALIZED FREE ENERGY PREDICTED BY IDOCK:    0.59 KCAL/MOL
REMARK 922        TOTAL FREE ENERGY PREDICTED BY IDOCK:    1.04 KCAL/MOL
REMARK 923 INTER-LIGAND FREE ENERGY PREDICTED BY IDOCK:   -3.06 KCAL/MOL
REMARK 924 INTRA-LIGAND FREE ENERGY PREDICTED BY IDOCK:    4.10 KCAL/MOL
REMARK 927      BINDING AFFINITY PREDICTED BY RF-SCORE:    0.00 PKD
ROOT
HETATM    1  C   UNL     1      -9.187  14.529  69.426  1.00  0.00     0.200 C  
HETATM    2  C   UNL     1      -8.013  14.113  70.106  1.00  0.00     1.298 C  
HETATM    3  C   UNL     1      -8.029  14.083  68.614  1.00  0.00    -0.122 C  
HETATM    4  C   UNL     1      -9.508  15.166  67.616  1.00  0.00    -0.201 C  
HETATM    5  C   UNL     1     -11.456  11.300  66.378  1.00  0.00     0.043 C  
HETATM    6  C   UNL     1     -10.217  10.890  67.182  1.00  0.00    -0.249 C  
HETATM    7  C   UNL     1      -8.225  15.452  68.024  1.00  0.00    -0.146 C  
HETATM    8  C   UNL     1      -9.163   9.915  66.491  1.00  0.00    -0.190 C  
HETATM    9  C   UNL     1      -7.651  16.776  68.477  1.00  0.00    -0.217 C  
HETATM   10  C   UNL     1      -7.702  14.370  66.540  1.00  0.00     1.109 C  
HETATM   11  O   UNL     1     -10.911   7.657  66.498  1.00  0.00     0.017 OA 
HETATM   12  C   UNL     1      -8.764   8.705  66.917  1.00  0.00    -0.133 C  
HETATM   13  C   UNL     1     -10.191   8.275  67.272  1.00  0.00    -0.274 C  
HETATM   14  C   UNL     1     -10.655   8.845  68.542  1.00  0.00    -0.183 C  
HETATM   15  C   UNL     1      -8.811  13.091  66.285  1.00  0.00     0.196 C  
HETATM   16  C   UNL     1     -10.735  10.184  68.465  1.00  0.00    -0.264 C  
HETATM   17  C   UNL     1     -11.363  11.003  69.559  1.00  0.00    -0.356 C  
HETATM   18  C   UNL     1      -9.393  12.166  67.559  1.00  0.00    -0.181 C  
HETATM   19  O   UNL     1      -9.893  13.683  65.548  1.00  0.00    -0.455 OA 
HETATM   20  C   UNL     1     -10.501  12.182  69.976  1.00  0.00     1.418 C  
HETATM   21  C   UNL     1     -10.092  13.057  68.786  1.00  0.00    -0.066 C  
HETATM   22  H   UNL     1     -10.508  12.973  65.407  1.00  0.00     0.000 HD 
ENDROOT
BRANCH   4  23
HETATM   23  C   UNL     1      -9.432  16.324  66.185  1.00  0.00    -0.339 C  
HETATM   24  O   UNL     1     -10.182  16.197  65.195  1.00  0.00    -0.542 OA 
BRANCH  23  25
HETATM   25  C   UNL     1      -8.374  17.531  65.977  1.00  0.00    -0.080 C  
BRANCH  25  26
HETATM   26  O   UNL     1      -8.472  18.544  67.138  1.00  0.00    -0.256 OA 
BRANCH  26  27
HETATM   27  C   UNL     1      -8.451  19.910  66.928  1.00  0.00    -0.327 C  
HETATM   28  O   UNL     1      -7.408  20.547  66.833  1.00  0.00    -0.288 OA 
BRANCH  27  29
HETATM   29  C   UNL     1      -9.855  20.583  66.820  1.00  0.00    -0.460 C  
HETATM   30  C   UNL     1     -10.903  19.740  66.056  1.00  0.00    -0.390 C  
ENDBRANCH  27  29
ENDBRANCH  26  27
ENDBRANCH  25  26
ENDBRANCH  23  25
ENDBRANCH   4  23
BRANCH   4  31
HETATM   31  O   UNL     1     -10.424  16.205  68.445  1.00  0.00    -0.252 OA 
BRANCH  31  32
HETATM   32  C   UNL     1     -11.140  15.935  69.598  1.00  0.00    -0.320 C  
HETATM   33  O   UNL     1     -10.931  16.433  70.692  1.00  0.00    -0.266 OA 
BRANCH  32  34
HETATM   34  O   UNL     1     -12.272  15.205  69.320  1.00  0.00    -0.262 OA 
BRANCH  34  35
HETATM   35  C   UNL     1     -13.197  15.172  70.436  1.00  0.00    -0.133 C  
HETATM   36  C   UNL     1     -13.148  13.890  71.254  1.00  0.00    -0.385 C  
ENDBRANCH  34  35
ENDBRANCH  32  34
ENDBRANCH  31  32
ENDBRANCH   4  31
TORSDOF 9
ENDMDL
MODEL      133
REMARK 921   NORMALIZED FREE ENERGY PREDICTED BY IDOCK:    0.95 KCAL/MOL
REMARK 922        TOTAL FREE ENERGY PREDICTED BY IDOCK:    1.58 KCAL/MOL
REMARK 923 INTER-LIGAND FREE ENERGY PREDICTED BY IDOCK:   -1.19 KCAL/MOL
REMARK 924 INTRA-LIGAND FREE ENERGY PREDICTED BY IDOCK:    2.77 KCAL/MOL
REMARK 927      BINDING AFFINITY PREDICTED BY RF-SCORE:    0.00 PKD
ROOT
HETATM    1  C   UNL     1      -8.468  14.085  66.217  1.00  0.00     0.674 C  
HETATM    2  C   UNL     1      -7.284  13.313  66.337  1.00  0.00     2.118 C  
HETATM    3  C   UNL     1      -8.006  13.716  67.578  1.00  0.00    -0.189 C  
HETATM    4  C   UNL     1      -9.980  14.374  67.408  1.00  0.00    -0.242 C  
HETATM    5  C   UNL     1      -8.642  18.549  68.433  1.00  0.00    -0.355 C  
HETATM    6  C   UNL     1      -7.371  17.694  68.479  1.00  0.00    -0.256 C  
HETATM    7  C   UNL     1      -9.397  13.147  67.632  1.00  0.00    -0.205 C  
HETATM    8  C   UNL     1      -6.508  17.704  69.819  1.00  0.00    -0.057 C  
HETATM    9  C   UNL     1      -9.884  11.779  67.211  1.00  0.00    -0.198 C  
HETATM   10  C   UNL     1      -9.092  13.815  69.395  1.00  0.00     0.790 C  
HETATM   11  O   UNL     1      -5.647  20.408  69.507  1.00  0.00    -0.271 OA 
HETATM   12  C   UNL     1      -5.222  18.064  69.962  1.00  0.00    -0.219 C  
HETATM   13  C   UNL     1      -5.388  19.296  69.066  1.00  0.00    -0.197 C  
HETATM   14  C   UNL     1      -5.394  18.962  67.637  1.00  0.00    -0.168 C  
HETATM   15  C   UNL     1      -8.787  15.499  69.376  1.00  0.00    -0.257 C  
HETATM   16  C   UNL     1      -6.456  18.197  67.329  1.00  0.00    -0.192 C  
HETATM   17  C   UNL     1      -6.808  17.871  65.904  1.00  0.00    -0.315 C  
HETATM   18  C   UNL     1      -7.745  16.190  68.256  1.00  0.00    -0.148 C  
HETATM   19  O   UNL     1     -10.087  16.108  69.306  1.00  0.00    -0.232 OA 
HETATM   20  C   UNL     1      -7.074  16.390  65.691  1.00  0.00     2.331 C  
HETATM   21  C   UNL     1      -8.117  15.837  66.667  1.00  0.00    -0.282 C  
HETATM   22  H   UNL     1      -9.918  17.042  69.295  1.00  0.00     0.000 HD 
ENDROOT
BRANCH   4  23
HETATM   23  C   UNL     1     -11.505  13.948  68.348  1.00  0.00    -0.311 C  
HETATM   24  O   UNL     1     -12.643  14.075  67.849  1.00  0.00     0.065 OA 
BRANCH  23  25
HETATM   25  C   UNL     1     -11.585  13.480  69.895  1.00  0.00    -0.201 C  
BRANCH  25  26
HETATM   26  O   UNL     1     -12.561  12.294  70.053  1.00  0.00    -0.014 OA 
BRANCH  26  27
HETATM   27  C   UNL     1     -12.368  11.300  70.994  1.00  0.00    -0.366 C  
HETATM   28  O   UNL     1     -13.123  11.135  71.946  1.00  0.00    -0.488 OA 
BRANCH  27  29
HETATM   29  C   UNL     1     -11.115  10.400  70.754  1.00  0.00    -0.197 C  
HETATM   30  C   UNL     1     -11.119   9.660  69.396  1.00  0.00    -0.170 C  
ENDBRANCH  27  29
ENDBRANCH  26  27
ENDBRANCH  25  26
ENDBRANCH  23  25
ENDBRANCH   4  23
BRANCH   4  31
HETATM   31  O   UNL     1     -10.759  14.187  66.005  1.00  0.00    -0.290 OA 
BRANCH  31  32
HETATM   32  C   UNL     1     -11.293  15.192  65.219  1.00  0.00    -0.318 C  
HETATM   33  O   UNL     1     -12.447  15.243  64.825  1.00  0.00    -0.106 OA 
BRANCH  32  34
HETATM   34  O   UNL     1     -10.427  16.256  65.115  1.00  0.00    -0.591 OA 
BRANCH  34  35
HETATM   35  C   UNL     1     -10.601  17.216  66.188  1.00  0.00    -0.201 C  
HETATM   36  C   UNL     1     -10.248  18.648  65.811  1.00  0.00    -0.135 C  
ENDBRANCH  34  35
ENDBRANCH  32  34
ENDBRANCH  31  32
ENDBRANCH   4  31
TORSDOF 9
ENDMDL
MODEL      134
REMARK 921   NORMALIZED FREE ENERGY PREDICTED BY IDOCK:    1.90 KCAL/MOL
REMARK 922        TOTAL FREE ENERGY PREDICTED BY IDOCK:    3.03 KCAL/MOL
REMARK 923 INTER-LIGAND FREE ENERGY PREDICTED BY IDOCK:    2.32 KCAL/MOL
REMARK 924 INTRA-LIGAND FREE ENERGY PREDICTED BY IDOCK:    0.71 KCAL/MOL
REMARK 927      BINDING AFFINITY PREDICTED BY RF-SCORE:    0.00 PKD
ROOT
HETATM    1  C   UNL     1     -10.577  11.023  68.627  1.00  0.00    -0.225 C  
HETATM    2  C   UNL     1     -11.275  11.871  69.524  1.00  0.00    -0.237 C  
HETATM    3  C   UNL     1      -9.807  11.679  69.712  1.00  0.00     1.199 C  
HETATM    4  C   UNL     1      -8.701  10.885  68.130  1.00  0.00    -0.133 C  
HETATM    5  C   UNL     1      -8.143   7.081  70.472  1.00  0.00    -0.114 C  
HETATM    6  C   UNL     1      -8.960   8.001  71.384  1.00  0.00    -0.173 C  
HETATM    7  C   UNL     1      -9.019  12.164  68.527  1.00  0.00    -0.082 C  
HETATM    8  C   UNL     1      -8.395   8.307  72.843  1.00  0.00    -0.245 C  
HETATM    9  C   UNL     1      -9.241  13.392  67.673  1.00  0.00    -0.212 C  
HETATM   10  C   UNL     1      -7.705  11.877  69.883  1.00  0.00     1.402 C  
HETATM   11  O   UNL     1      -8.810   5.650  73.801  1.00  0.00    -0.124 OA 
HETATM   12  C   UNL     1      -8.991   8.058  74.020  1.00  0.00    -0.131 C  
HETATM   13  C   UNL     1      -9.454   6.666  73.579  1.00  0.00    -0.154 C  
HETATM   14  C   UNL     1     -10.635   6.711  72.709  1.00  0.00    -0.260 C  
HETATM   15  C   UNL     1      -7.687  10.243  70.393  1.00  0.00     0.334 C  
HETATM   16  C   UNL     1     -10.354   7.336  71.552  1.00  0.00    -0.217 C  
HETATM   17  C   UNL     1     -11.326   7.353  70.406  1.00  0.00    -0.273 C  
HETATM   18  C   UNL     1      -9.108   9.407  70.711  1.00  0.00    -0.268 C  
HETATM   19  O   UNL     1      -6.903   9.557  69.404  1.00  0.00    -0.047 OA 
HETATM   20  C   UNL     1     -11.527   8.744  69.829  1.00  0.00     0.210 C  
HETATM   21  C   UNL     1     -10.203   9.417  69.451  1.00  0.00    -0.214 C  
HETATM   22  H   UNL     1      -6.893   8.651  69.686  1.00  0.00     0.000 HD 
ENDROOT
BRANCH   4  23
HETATM   23  C   UNL     1      -7.106  11.398  67.363  1.00  0.00    -0.114 C  
HETATM   24  O   UNL     1      -6.887  12.581  67.030  1.00  0.00    -0.097 OA 
BRANCH  23  25
HETATM   25  C   UNL     1      -5.883  10.426  66.942  1.00  0.00    -0.052 C  
BRANCH  25  26
HETATM   26  O   UNL     1      -5.835  10.247  65.409  1.00  0.00    -0.087 OA 
BRANCH  26  27
HETATM   27  C   UNL     1      -5.558   9.029  64.818  1.00  0.00    -0.061 C  
HETATM   28  O   UNL     1      -5.540   7.978  65.448  1.00  0.00    -0.036 OA 
BRANCH  27  29
HETATM   29  C   UNL     1      -5.268   9.091  63.285  1.00  0.00    -0.067 C  
HETATM   30  C   UNL     1      -5.661  10.431  62.621  1.00  0.00    -0.136 C  
ENDBRANCH  27  29
ENDBRANCH  26  27
ENDBRANCH  25  26
ENDBRANCH  23  25
ENDBRANCH   4  23
BRANCH   4  31
HETATM   31  O   UNL     1      -9.388  10.745  66.675  1.00  0.00    -0.162 OA 
BRANCH  31  32
HETATM   32  C   UNL     1      -9.632   9.570  65.988  1.00  0.00    -0.251 C  
HETATM   33  O   UNL     1      -8.929   8.573  66.021  1.00  0.00    -0.163 OA 
BRANCH  32  34
HETATM   34  O   UNL     1     -10.891   9.570  65.433  1.00  0.00     0.996 OA 
BRANCH  34  35
HETATM   35  C   UNL     1     -10.927  10.235  64.145  1.00  0.00     1.808 C  
HETATM   36  C   UNL     1      -9.855   9.773  63.170  1.00  0.00     0.708 C  
ENDBRANCH  34  35
ENDBRANCH  32  34
ENDBRANCH  31  32
ENDBRANCH   4  31
TORSDOF 9
ENDMDL
MODEL      135
REMARK 921   NORMALIZED FREE ENERGY PREDICTED BY IDOCK:    2.01 KCAL/MOL
REMARK 922        TOTAL FREE ENERGY PREDICTED BY IDOCK:    3.20 KCAL/MOL
REMARK 923 INTER-LIGAND FREE ENERGY PREDICTED BY IDOCK:   -1.11 KCAL/MOL
REMARK 924 INTRA-LIGAND FREE ENERGY PREDICTED BY IDOCK:    4.30 KCAL/MOL
REMARK 927      BINDING AFFINITY PREDICTED BY RF-SCORE:    0.00 PKD
ROOT
HETATM    1  C   UNL     1      -8.985  13.292  69.389  1.00  0.00     1.122 C  
HETATM    2  C   UNL     1      -9.924  13.694  70.373  1.00  0.00     2.953 C  
HETATM    3  C   UNL     1     -10.348  13.673  68.943  1.00  0.00    -0.127 C  
HETATM    4  C   UNL     1      -9.183  12.604  67.580  1.00  0.00    -0.190 C  
HETATM    5  C   UNL     1      -7.844  16.486  65.733  1.00  0.00     0.737 C  
HETATM    6  C   UNL     1      -8.808  16.884  66.856  1.00  0.00    -0.248 C  
HETATM    7  C   UNL     1     -10.276  12.291  68.354  1.00  0.00    -0.220 C  
HETATM    8  C   UNL     1     -10.058  17.799  66.482  1.00  0.00    -0.358 C  
HETATM    9  C   UNL     1     -10.638  10.966  68.986  1.00  0.00    -0.248 C  
HETATM   10  C   UNL     1     -11.255  13.304  67.064  1.00  0.00    -0.319 C  
HETATM   11  O   UNL     1      -8.479  20.111  65.922  1.00  0.00    -0.265 OA 
HETATM   12  C   UNL     1     -10.364  19.009  66.979  1.00  0.00    -0.487 C  
HETATM   13  C   UNL     1      -8.915  19.497  66.887  1.00  0.00    -0.325 C  
HETATM   14  C   UNL     1      -8.075  18.988  67.978  1.00  0.00    -0.328 C  
HETATM   15  C   UNL     1     -10.324  14.608  66.464  1.00  0.00    -0.282 C  
HETATM   16  C   UNL     1      -7.967  17.649  67.913  1.00  0.00    -0.231 C  
HETATM   17  C   UNL     1      -7.012  16.890  68.792  1.00  0.00    -0.204 C  
HETATM   18  C   UNL     1      -9.432  15.595  67.489  1.00  0.00    -0.214 C  
HETATM   19  O   UNL     1      -9.482  14.027  65.456  1.00  0.00    -0.525 OA 
HETATM   20  C   UNL     1      -7.665  15.698  69.472  1.00  0.00    -0.185 C  
HETATM   21  C   UNL     1      -8.368  14.771  68.476  1.00  0.00    -0.160 C  
HETATM   22  H   UNL     1      -8.965  14.750  65.123  1.00  0.00     0.000 HD 
ENDROOT
BRANCH   4  23
HETATM   23  C   UNL     1      -9.627  11.395  66.263  1.00  0.00    -0.213 C  
HETATM   24  O   UNL     1     -10.507  10.527  66.436  1.00  0.00    -0.235 OA 
BRANCH  23  25
HETATM   25  C   UNL     1      -8.906  11.231  64.823  1.00  0.00     0.135 C  
BRANCH  25  26
HETATM   26  O   UNL     1      -9.717  11.954  63.725  1.00  0.00    -0.271 OA 
BRANCH  26  27
HETATM   27  C   UNL     1     -10.742  11.333  63.038  1.00  0.00     0.037 C  
HETATM   28  O   UNL     1     -10.580  10.298  62.402  1.00  0.00     0.940 OA 
BRANCH  27  29
HETATM   29  C   UNL     1     -12.127  12.049  63.131  1.00  0.00    -0.347 C  
HETATM   30  C   UNL     1     -12.303  12.920  64.396  1.00  0.00    -0.468 C  
ENDBRANCH  27  29
ENDBRANCH  26  27
ENDBRANCH  25  26
ENDBRANCH  23  25
ENDBRANCH   4  23
BRANCH   4  31
HETATM   31  O   UNL     1      -8.022  11.625  68.127  1.00  0.00    -0.125 OA 
BRANCH  31  32
HETATM   32  C   UNL     1      -7.744  10.345  67.680  1.00  0.00    -0.093 C  
HETATM   33  O   UNL     1      -8.565   9.456  67.525  1.00  0.00    -0.122 OA 
BRANCH  32  34
HETATM   34  O   UNL     1      -6.455  10.253  67.207  1.00  0.00    -0.065 OA 
BRANCH  34  35
HETATM   35  C   UNL     1      -5.857  11.553  66.975  1.00  0.00    -0.120 C  
HETATM   36  C   UNL     1      -5.470  12.300  68.243  1.00  0.00    -0.055 C  
ENDBRANCH  34  35
ENDBRANCH  32  34
ENDBRANCH  31  32
ENDBRANCH   4  31
TORSDOF 9
ENDMDL
MODEL      136
REMARK 921   NORMALIZED FREE ENERGY PREDICTED BY IDOCK:    2.11 KCAL/MOL
REMARK 922        TOTAL FREE ENERGY PREDICTED BY IDOCK:    3.35 KCAL/MOL
REMARK 923 INTER-LIGAND FREE ENERGY PREDICTED BY IDOCK:   -2.13 KCAL/MOL
REMARK 924 INTRA-LIGAND FREE ENERGY PREDICTED BY IDOCK:    5.49 KCAL/MOL
REMARK 927      BINDING AFFINITY PREDICTED BY RF-SCORE:    0.00 PKD
ROOT
HETATM    1  C   UNL     1     -10.552  12.128  68.703  1.00  0.00    -0.248 C  
HETATM    2  C   UNL     1     -10.828  12.989  69.797  1.00  0.00     0.409 C  
HETATM    3  C   UNL     1      -9.473  12.371  69.693  1.00  0.00     1.797 C  
HETATM    4  C   UNL     1      -8.894  11.554  67.863  1.00  0.00    -0.152 C  
HETATM    5  C   UNL     1      -9.170   7.432  69.653  1.00  0.00    -0.146 C  
HETATM    6  C   UNL     1      -9.535   8.392  70.790  1.00  0.00    -0.199 C  
HETATM    7  C   UNL     1      -8.754  12.794  68.442  1.00  0.00    -0.119 C  
HETATM    8  C   UNL     1      -8.702   8.302  72.146  1.00  0.00    -0.259 C  
HETATM    9  C   UNL     1      -8.719  14.151  67.776  1.00  0.00    -0.182 C  
HETATM   10  C   UNL     1      -7.406  11.949  69.500  1.00  0.00     0.286 C  
HETATM   11  O   UNL     1      -9.751   5.750  72.880  1.00  0.00    -0.155 OA 
HETATM   12  C   UNL     1      -9.171   8.051  73.379  1.00  0.00    -0.332 C  
HETATM   13  C   UNL     1     -10.087   6.927  72.885  1.00  0.00    -0.189 C  
HETATM   14  C   UNL     1     -11.312   7.430  72.254  1.00  0.00    -0.323 C  
HETATM   15  C   UNL     1      -7.805  10.316  69.824  1.00  0.00    -0.139 C  
HETATM   16  C   UNL     1     -11.025   8.122  71.138  1.00  0.00    -0.271 C  
HETATM   17  C   UNL     1     -12.101   8.584  70.194  1.00  0.00     0.542 C  
HETATM   18  C   UNL     1      -9.350   9.869  70.305  1.00  0.00    -0.142 C  
HETATM   19  O   UNL     1      -7.412   9.599  68.643  1.00  0.00    -0.074 OA 
HETATM   20  C   UNL     1     -11.957  10.047  69.813  1.00  0.00    -0.027 C  
HETATM   21  C   UNL     1     -10.561  10.375  69.274  1.00  0.00    -0.259 C  
HETATM   22  H   UNL     1      -7.634   8.694  68.822  1.00  0.00     0.000 HD 
ENDROOT
BRANCH   4  23
HETATM   23  C   UNL     1      -7.345  11.715  66.877  1.00  0.00    -0.125 C  
HETATM   24  O   UNL     1      -7.105  10.971  65.904  1.00  0.00    -0.078 OA 
BRANCH  23  25
HETATM   25  C   UNL     1      -6.108  12.712  67.183  1.00  0.00     0.036 C  
BRANCH  25  26
HETATM   26  O   UNL     1      -6.515  13.779  68.223  1.00  0.00    -0.087 OA 
BRANCH  26  27
HETATM   27  C   UNL     1      -5.927  15.028  68.265  1.00  0.00    -0.122 C  
HETATM   28  O   UNL     1      -5.925  15.790  67.304  1.00  0.00    -0.303 OA 
BRANCH  27  29
HETATM   29  C   UNL     1      -5.266  15.401  69.629  1.00  0.00    -0.096 C  
HETATM   30  C   UNL     1      -5.461  16.879  70.042  1.00  0.00    -0.209 C  
ENDBRANCH  27  29
ENDBRANCH  26  27
ENDBRANCH  25  26
ENDBRANCH  23  25
ENDBRANCH   4  23
BRANCH   4  31
HETATM   31  O   UNL     1      -9.791  11.834  66.550  1.00  0.00    -0.199 OA 
BRANCH  31  32
HETATM   32  C   UNL     1     -10.809  11.035  66.061  1.00  0.00    -0.122 C  
HETATM   33  O   UNL     1     -11.994  11.329  66.045  1.00  0.00     0.073 OA 
BRANCH  32  34
HETATM   34  O   UNL     1     -10.306   9.951  65.378  1.00  0.00    -0.207 OA 
BRANCH  34  35
HETATM   35  C   UNL     1      -9.722  10.323  64.105  1.00  0.00    -0.291 C  
HETATM   36  C   UNL     1      -8.552   9.452  63.674  1.00  0.00    -0.220 C  
ENDBRANCH  34  35
ENDBRANCH  32  34
ENDBRANCH  31  32
ENDBRANCH   4  31
TORSDOF 9
ENDMDL
MODEL      137
REMARK 921   NORMALIZED FREE ENERGY PREDICTED BY IDOCK:    2.37 KCAL/MOL
REMARK 922        TOTAL FREE ENERGY PREDICTED BY IDOCK:    3.75 KCAL/MOL
REMARK 923 INTER-LIGAND FREE ENERGY PREDICTED BY IDOCK:   -2.24 KCAL/MOL
REMARK 924 INTRA-LIGAND FREE ENERGY PREDICTED BY IDOCK:    5.99 KCAL/MOL
REMARK 927      BINDING AFFINITY PREDICTED BY RF-SCORE:    0.00 PKD
ROOT
HETATM    1  C   UNL     1      -9.765  11.297  65.032  1.00  0.00    -0.293 C  
HETATM    2  C   UNL     1     -10.305  10.406  64.069  1.00  0.00     0.061 C  
HETATM    3  C   UNL     1     -10.644  10.200  65.508  1.00  0.00     0.057 C  
HETATM    4  C   UNL     1     -10.306  11.770  66.841  1.00  0.00    -0.217 C  
HETATM    5  C   UNL     1      -6.930   9.430  68.686  1.00  0.00    -0.065 C  
HETATM    6  C   UNL     1      -7.494   8.526  67.585  1.00  0.00    -0.094 C  
HETATM    7  C   UNL     1     -11.386  11.373  66.086  1.00  0.00    -0.115 C  
HETATM    8  C   UNL     1      -7.971   7.059  67.988  1.00  0.00    -0.115 C  
HETATM    9  C   UNL     1     -12.461  12.227  65.452  1.00  0.00    -0.010 C  
HETATM   10  C   UNL     1     -11.574  10.001  67.401  1.00  0.00     0.965 C  
HETATM   11  O   UNL     1      -5.332   6.113  68.532  1.00  0.00    -0.007 OA 
HETATM   12  C   UNL     1      -7.519   5.890  67.506  1.00  0.00    -0.078 C  
HETATM   13  C   UNL     1      -6.056   6.341  67.572  1.00  0.00    -0.018 C  
HETATM   14  C   UNL     1      -5.685   7.227  66.461  1.00  0.00    -0.031 C  
HETATM   15  C   UNL     1     -10.049   9.495  67.991  1.00  0.00    -0.188 C  
HETATM   16  C   UNL     1      -6.378   8.377  66.516  1.00  0.00    -0.055 C  
HETATM   17  C   UNL     1      -6.057   9.537  65.614  1.00  0.00    -0.064 C  
HETATM   18  C   UNL     1      -8.761   9.198  66.956  1.00  0.00    -0.131 C  
HETATM   19  O   UNL     1      -9.692  10.476  68.979  1.00  0.00    -0.192 OA 
HETATM   20  C   UNL     1      -7.290  10.112  64.939  1.00  0.00    -0.136 C  
HETATM   21  C   UNL     1      -8.391  10.471  65.942  1.00  0.00    -0.161 C  
HETATM   22  H   UNL     1      -8.846  10.196  69.306  1.00  0.00     0.000 HD 
ENDROOT
BRANCH   4  23
HETATM   23  C   UNL     1     -11.356  12.514  68.159  1.00  0.00    -0.295 C  
HETATM   24  O   UNL     1     -12.589  12.327  68.201  1.00  0.00     0.201 OA 
BRANCH  23  25
HETATM   25  C   UNL     1     -10.871  13.540  69.313  1.00  0.00    -0.063 C  
BRANCH  25  26
HETATM   26  O   UNL     1     -10.864  14.990  68.781  1.00  0.00    -0.233 OA 
BRANCH  26  27
HETATM   27  C   UNL     1      -9.867  15.889  69.106  1.00  0.00    -0.247 C  
HETATM   28  O   UNL     1      -8.810  15.545  69.623  1.00  0.00    -0.259 OA 
BRANCH  27  29
HETATM   29  C   UNL     1     -10.185  17.379  68.766  1.00  0.00    -0.361 C  
HETATM   30  C   UNL     1      -9.084  18.087  67.941  1.00  0.00    -0.269 C  
ENDBRANCH  27  29
ENDBRANCH  26  27
ENDBRANCH  25  26
ENDBRANCH  23  25
ENDBRANCH   4  23
BRANCH   4  31
HETATM   31  O   UNL     1      -9.941  13.234  66.265  1.00  0.00    -0.279 OA 
BRANCH  31  32
HETATM   32  C   UNL     1     -10.637  13.935  65.296  1.00  0.00    -0.361 C  
HETATM   33  O   UNL     1     -10.885  13.530  64.171  1.00  0.00    -0.372 OA 
BRANCH  32  34
HETATM   34  O   UNL     1     -11.221  15.064  65.822  1.00  0.00    -0.340 OA 
BRANCH  34  35
HETATM   35  C   UNL     1     -12.421  15.450  65.107  1.00  0.00     0.543 C  
HETATM   36  C   UNL     1     -12.191  15.822  63.650  1.00  0.00     0.982 C  
ENDBRANCH  34  35
ENDBRANCH  32  34
ENDBRANCH  31  32
ENDBRANCH   4  31
TORSDOF 9
ENDMDL
MODEL      138
REMARK 921   NORMALIZED FREE ENERGY PREDICTED BY IDOCK:    2.76 KCAL/MOL
REMARK 922        TOTAL FREE ENERGY PREDICTED BY IDOCK:    4.35 KCAL/MOL
REMARK 923 INTER-LIGAND FREE ENERGY PREDICTED BY IDOCK:   -1.38 KCAL/MOL
REMARK 924 INTRA-LIGAND FREE ENERGY PREDICTED BY IDOCK:    5.73 KCAL/MOL
REMARK 927      BINDING AFFINITY PREDICTED BY RF-SCORE:    0.00 PKD
ROOT
HETATM    1  C   UNL     1     -11.773  14.449  68.521  1.00  0.00    -0.370 C  
HETATM    2  C   UNL     1     -12.079  13.357  69.374  1.00  0.00    -0.321 C  
HETATM    3  C   UNL     1     -10.661  13.571  68.961  1.00  0.00    -0.126 C  
HETATM    4  C   UNL     1     -10.129  15.427  68.168  1.00  0.00    -0.222 C  
HETATM    5  C   UNL     1      -9.610  13.512  64.126  1.00  0.00     1.568 C  
HETATM    6  C   UNL     1     -10.015  12.371  65.065  1.00  0.00    -0.219 C  
HETATM    7  C   UNL     1     -10.129  14.895  69.437  1.00  0.00    -0.166 C  
HETATM    8  C   UNL     1      -9.060  11.098  65.155  1.00  0.00    -0.161 C  
HETATM    9  C   UNL     1     -10.361  15.597  70.756  1.00  0.00     0.254 C  
HETATM   10  C   UNL     1      -8.579  13.948  68.847  1.00  0.00     0.098 C  
HETATM   11  O   UNL     1      -9.637  10.202  62.506  1.00  0.00    -0.291 OA 
HETATM   12  C   UNL     1      -9.373   9.819  64.887  1.00  0.00    -0.327 C  
HETATM   13  C   UNL     1     -10.146  10.195  63.619  1.00  0.00     0.382 C  
HETATM   14  C   UNL     1     -11.486  10.721  63.907  1.00  0.00     1.220 C  
HETATM   15  C   UNL     1      -8.693  13.545  67.187  1.00  0.00    -0.215 C  
HETATM   16  C   UNL     1     -11.409  11.877  64.589  1.00  0.00    -0.355 C  
HETATM   17  C   UNL     1     -12.623  12.726  64.846  1.00  0.00    -0.541 C  
HETATM   18  C   UNL     1     -10.102  12.909  66.533  1.00  0.00    -0.263 C  
HETATM   19  O   UNL     1      -8.302  14.739  66.490  1.00  0.00    -0.410 OA 
HETATM   20  C   UNL     1     -12.739  13.157  66.298  1.00  0.00     0.202 C  
HETATM   21  C   UNL     1     -11.464  13.834  66.810  1.00  0.00    -0.367 C  
HETATM   22  H   UNL     1      -8.366  14.516  65.570  1.00  0.00     0.000 HD 
ENDROOT
BRANCH   4  23
HETATM   23  C   UNL     1      -8.717  16.558  68.519  1.00  0.00    -0.228 C  
HETATM   24  O   UNL     1      -7.995  16.414  69.528  1.00  0.00    -0.117 OA 
BRANCH  23  25
HETATM   25  C   UNL     1      -8.308  17.878  67.679  1.00  0.00    -0.234 C  
BRANCH  25  26
HETATM   26  O   UNL     1      -8.561  17.661  66.171  1.00  0.00    -0.445 OA 
BRANCH  26  27
HETATM   27  C   UNL     1      -9.817  17.785  65.609  1.00  0.00     0.263 C  
HETATM   28  O   UNL     1     -10.280  18.864  65.256  1.00  0.00    -0.197 OA 
BRANCH  27  29
HETATM   29  C   UNL     1     -10.606  16.447  65.455  1.00  0.00    -0.346 C  
HETATM   30  C   UNL     1     -11.389  16.324  64.127  1.00  0.00     0.183 C  
ENDBRANCH  27  29
ENDBRANCH  26  27
ENDBRANCH  25  26
ENDBRANCH  23  25
ENDBRANCH   4  23
BRANCH   4  31
HETATM   31  O   UNL     1     -11.172  16.656  68.258  1.00  0.00    -0.349 OA 
BRANCH  31  32
HETATM   32  C   UNL     1     -10.946  17.888  68.844  1.00  0.00     0.606 C  
HETATM   33  O   UNL     1     -10.451  18.067  69.945  1.00  0.00     0.355 OA 
BRANCH  32  34
HETATM   34  O   UNL     1     -11.136  18.910  67.942  1.00  0.00    -0.200 OA 
BRANCH  34  35
HETATM   35  C   UNL     1     -10.735  20.198  68.473  1.00  0.00     0.243 C  
HETATM   36  C   UNL     1      -9.555  20.833  67.752  1.00  0.00    -0.288 C  
ENDBRANCH  34  35
ENDBRANCH  32  34
ENDBRANCH  31  32
ENDBRANCH   4  31
TORSDOF 9
ENDMDL
MODEL      139
REMARK 921   NORMALIZED FREE ENERGY PREDICTED BY IDOCK:    2.82 KCAL/MOL
REMARK 922        TOTAL FREE ENERGY PREDICTED BY IDOCK:    4.44 KCAL/MOL
REMARK 923 INTER-LIGAND FREE ENERGY PREDICTED BY IDOCK:   -0.56 KCAL/MOL
REMARK 924 INTRA-LIGAND FREE ENERGY PREDICTED BY IDOCK:    5.00 KCAL/MOL
REMARK 927      BINDING AFFINITY PREDICTED BY RF-SCORE:    0.00 PKD
ROOT
HETATM    1  C   UNL     1     -11.812  12.369  67.452  1.00  0.00    -0.360 C  
HETATM    2  C   UNL     1     -12.469  12.160  68.692  1.00  0.00     0.630 C  
HETATM    3  C   UNL     1     -11.270  13.047  68.655  1.00  0.00    -0.316 C  
HETATM    4  C   UNL     1     -10.630  13.772  66.805  1.00  0.00    -0.273 C  
HETATM    5  C   UNL     1      -7.000  11.121  67.059  1.00  0.00    -0.123 C  
HETATM    6  C   UNL     1      -7.778  10.867  68.355  1.00  0.00    -0.116 C  
HETATM    7  C   UNL     1     -11.483  14.248  67.775  1.00  0.00    -0.354 C  
HETATM    8  C   UNL     1      -7.016  11.073  69.740  1.00  0.00    -0.092 C  
HETATM    9  C   UNL     1     -12.722  15.100  67.609  1.00  0.00     1.498 C  
HETATM   10  C   UNL     1      -9.882  14.646  68.736  1.00  0.00    -0.227 C  
HETATM   11  O   UNL     1      -5.295   8.824  69.382  1.00  0.00    -0.034 OA 
HETATM   12  C   UNL     1      -6.820  10.164  70.709  1.00  0.00     0.082 C  
HETATM   13  C   UNL     1      -6.449   9.065  69.708  1.00  0.00    -0.038 C  
HETATM   14  C   UNL     1      -7.624   8.477  69.053  1.00  0.00    -0.094 C  
HETATM   15  C   UNL     1      -8.666  13.481  68.424  1.00  0.00    -0.140 C  
HETATM   16  C   UNL     1      -8.260   9.392  68.302  1.00  0.00    -0.118 C  
HETATM   17  C   UNL     1      -9.381   9.012  67.373  1.00  0.00    -0.167 C  
HETATM   18  C   UNL     1      -9.005  11.837  68.426  1.00  0.00    -0.168 C  
HETATM   19  O   UNL     1      -8.085  13.881  67.173  1.00  0.00    -0.287 OA 
HETATM   20  C   UNL     1     -10.598   9.908  67.527  1.00  0.00    -0.333 C  
HETATM   21  C   UNL     1     -10.248  11.394  67.404  1.00  0.00    -0.221 C  
HETATM   22  H   UNL     1      -7.411  13.235  67.000  1.00  0.00     0.000 HD 
ENDROOT
BRANCH   4  23
HETATM   23  C   UNL     1     -10.145  15.459  66.245  1.00  0.00    -0.292 C  
HETATM   24  O   UNL     1      -9.778  15.682  65.072  1.00  0.00    -0.272 OA 
BRANCH  23  25
HETATM   25  C   UNL     1     -10.033  16.785  67.165  1.00  0.00    -0.274 C  
BRANCH  25  26
HETATM   26  O   UNL     1     -11.079  16.748  68.300  1.00  0.00    -0.361 OA 
BRANCH  26  27
HETATM   27  C   UNL     1     -10.874  17.379  69.512  1.00  0.00     0.371 C  
HETATM   28  O   UNL     1     -11.155  16.857  70.585  1.00  0.00    -0.016 OA 
BRANCH  27  29
HETATM   29  C   UNL     1     -10.256  18.809  69.414  1.00  0.00     0.182 C  
HETATM   30  C   UNL     1     -10.689  19.600  68.158  1.00  0.00    -0.255 C  
ENDBRANCH  27  29
ENDBRANCH  26  27
ENDBRANCH  25  26
ENDBRANCH  23  25
ENDBRANCH   4  23
BRANCH   4  31
HETATM   31  O   UNL     1     -11.576  13.583  65.510  1.00  0.00    -0.310 OA 
BRANCH  31  32
HETATM   32  C   UNL     1     -11.158  13.409  64.202  1.00  0.00    -0.327 C  
HETATM   33  O   UNL     1     -11.172  14.268  63.336  1.00  0.00     0.970 OA 
BRANCH  32  34
HETATM   34  O   UNL     1     -10.505  12.208  64.044  1.00  0.00    -0.322 OA 
BRANCH  34  35
HETATM   35  C   UNL     1      -9.112  12.380  63.683  1.00  0.00     1.234 C  
HETATM   36  C   UNL     1      -8.296  11.095  63.704  1.00  0.00     0.365 C  
ENDBRANCH  34  35
ENDBRANCH  32  34
ENDBRANCH  31  32
ENDBRANCH   4  31
TORSDOF 9
ENDMDL
MODEL      140
REMARK 921   NORMALIZED FREE ENERGY PREDICTED BY IDOCK:    3.02 KCAL/MOL
REMARK 922        TOTAL FREE ENERGY PREDICTED BY IDOCK:    4.74 KCAL/MOL
REMARK 923 INTER-LIGAND FREE ENERGY PREDICTED BY IDOCK:    1.88 KCAL/MOL
REMARK 924 INTRA-LIGAND FREE ENERGY PREDICTED BY IDOCK:    2.87 KCAL/MOL
REMARK 927      BINDING AFFINITY PREDICTED BY RF-SCORE:    0.00 PKD
ROOT
HETATM    1  C   UNL     1     -10.737   5.557  67.274  1.00  0.00    -0.243 C  
HETATM    2  C   UNL     1     -12.027   5.529  66.684  1.00  0.00     3.089 C  
HETATM    3  C   UNL     1     -10.879   6.040  65.879  1.00  0.00     0.814 C  
HETATM    4  C   UNL     1      -8.943   5.602  66.523  1.00  0.00    -0.126 C  
HETATM    5  C   UNL     1      -8.364   9.929  67.623  1.00  0.00    -0.114 C  
HETATM    6  C   UNL     1      -9.782   9.844  67.047  1.00  0.00    -0.230 C  
HETATM    7  C   UNL     1      -9.826   4.988  65.665  1.00  0.00    -0.107 C  
HETATM    8  C   UNL     1     -10.154  10.798  65.825  1.00  0.00    -0.320 C  
HETATM    9  C   UNL     1      -9.998   3.513  65.381  1.00  0.00     0.034 C  
HETATM   10  C   UNL     1      -9.348   6.387  64.456  1.00  0.00     1.351 C  
HETATM   11  O   UNL     1     -10.059  13.192  67.378  1.00  0.00    -0.225 OA 
HETATM   12  C   UNL     1     -11.129  11.721  65.774  1.00  0.00    -0.351 C  
HETATM   13  C   UNL     1     -10.809  12.246  67.177  1.00  0.00    -0.244 C  
HETATM   14  C   UNL     1     -11.340  11.384  68.240  1.00  0.00    -0.354 C  
HETATM   15  C   UNL     1      -9.032   7.847  65.292  1.00  0.00     0.175 C  
HETATM   16  C   UNL     1     -10.755  10.174  68.211  1.00  0.00    -0.277 C  
HETATM   17  C   UNL     1     -10.973   9.164  69.304  1.00  0.00    -0.081 C  
HETATM   18  C   UNL     1     -10.043   8.395  66.515  1.00  0.00    -0.317 C  
HETATM   19  O   UNL     1      -7.683   7.715  65.768  1.00  0.00    -0.091 OA 
HETATM   20  C   UNL     1     -11.320   7.786  68.766  1.00  0.00     0.592 C  
HETATM   21  C   UNL     1     -10.301   7.287  67.737  1.00  0.00    -0.267 C  
HETATM   22  H   UNL     1      -7.507   8.524  66.232  1.00  0.00     0.000 HD 
ENDROOT
BRANCH   4  23
HETATM   23  C   UNL     1      -7.461   4.971  65.628  1.00  0.00    -0.081 C  
HETATM   24  O   UNL     1      -7.466   3.870  65.041  1.00  0.00    -0.074 OA 
BRANCH  23  25
HETATM   25  C   UNL     1      -6.001   5.666  65.573  1.00  0.00    -0.025 C  
BRANCH  25  26
HETATM   26  O   UNL     1      -5.602   6.202  66.965  1.00  0.00    -0.009 OA 
BRANCH  26  27
HETATM   27  C   UNL     1      -5.936   7.474  67.388  1.00  0.00    -0.046 C  
HETATM   28  O   UNL     1      -6.748   7.681  68.283  1.00  0.00    -0.058 OA 
BRANCH  27  29
HETATM   29  C   UNL     1      -5.201   8.632  66.643  1.00  0.00    -0.035 C  
HETATM   30  C   UNL     1      -5.317  10.007  67.341  1.00  0.00    -0.041 C  
ENDBRANCH  27  29
ENDBRANCH  26  27
ENDBRANCH  25  26
ENDBRANCH  23  25
ENDBRANCH   4  23
BRANCH   4  31
HETATM   31  O   UNL     1      -8.726   4.520  67.702  1.00  0.00    -0.103 OA 
BRANCH  31  32
HETATM   32  C   UNL     1      -8.107   4.740  68.919  1.00  0.00    -0.082 C  
HETATM   33  O   UNL     1      -8.559   5.414  69.831  1.00  0.00    -0.104 OA 
BRANCH  32  34
HETATM   34  O   UNL     1      -7.013   3.920  69.076  1.00  0.00    -0.045 OA 
BRANCH  34  35
HETATM   35  C   UNL     1      -7.292   2.785  69.934  1.00  0.00    -0.044 C  
HETATM   36  C   UNL     1      -8.419   1.889  69.442  1.00  0.00    -0.084 C  
ENDBRANCH  34  35
ENDBRANCH  32  34
ENDBRANCH  31  32
ENDBRANCH   4  31
TORSDOF 9
ENDMDL
MODEL      141
REMARK 921   NORMALIZED FREE ENERGY PREDICTED BY IDOCK:    3.37 KCAL/MOL
REMARK 922        TOTAL FREE ENERGY PREDICTED BY IDOCK:    5.28 KCAL/MOL
REMARK 923 INTER-LIGAND FREE ENERGY PREDICTED BY IDOCK:    0.77 KCAL/MOL
REMARK 924 INTRA-LIGAND FREE ENERGY PREDICTED BY IDOCK:    4.51 KCAL/MOL
REMARK 927      BINDING AFFINITY PREDICTED BY RF-SCORE:    0.00 PKD
ROOT
HETATM    1  C   UNL     1     -10.723  11.876  67.342  1.00  0.00    -0.271 C  
HETATM    2  C   UNL     1     -11.928  11.991  68.083  1.00  0.00    -0.231 C  
HETATM    3  C   UNL     1     -11.866  12.584  66.715  1.00  0.00    -0.416 C  
HETATM    4  C   UNL     1     -10.331  11.977  65.439  1.00  0.00    -0.266 C  
HETATM    5  C   UNL     1      -8.442  16.046  65.832  1.00  0.00     0.136 C  
HETATM    6  C   UNL     1      -9.715  16.106  66.683  1.00  0.00    -0.260 C  
HETATM    7  C   UNL     1     -11.617  11.543  65.659  1.00  0.00     0.034 C  
HETATM    8  C   UNL     1     -10.772  17.259  66.372  1.00  0.00    -0.072 C  
HETATM    9  C   UNL     1     -12.173  10.140  65.555  1.00  0.00     6.353 C  
HETATM   10  C   UNL     1     -12.121  13.101  64.677  1.00  0.00    -0.462 C  
HETATM   11  O   UNL     1      -9.082  19.365  67.301  1.00  0.00    -0.288 OA 
HETATM   12  C   UNL     1     -11.214  18.212  67.209  1.00  0.00     0.371 C  
HETATM   13  C   UNL     1      -9.810  18.491  67.754  1.00  0.00    -0.312 C  
HETATM   14  C   UNL     1      -9.371  17.488  68.732  1.00  0.00    -0.239 C  
HETATM   15  C   UNL     1     -11.037  14.394  64.967  1.00  0.00    -0.380 C  
HETATM   16  C   UNL     1      -9.256  16.279  68.157  1.00  0.00    -0.199 C  
HETATM   17  C   UNL     1      -8.641  15.114  68.882  1.00  0.00    -0.200 C  
HETATM   18  C   UNL     1     -10.518  14.773  66.518  1.00  0.00    -0.291 C  
HETATM   19  O   UNL     1      -9.918  14.138  64.103  1.00  0.00    -0.490 OA 
HETATM   20  C   UNL     1      -9.486  13.855  68.789  1.00  0.00    -0.045 C  
HETATM   21  C   UNL     1      -9.836  13.492  67.342  1.00  0.00    -0.227 C  
HETATM   22  H   UNL     1      -9.317  14.855  64.264  1.00  0.00     0.000 HD 
ENDROOT
BRANCH   4  23
HETATM   23  C   UNL     1     -10.332  11.447  63.675  1.00  0.00    -0.410 C  
HETATM   24  O   UNL     1     -11.364  11.016  63.119  1.00  0.00     0.160 OA 
BRANCH  23  25
HETATM   25  C   UNL     1      -9.051  11.369  62.691  1.00  0.00    -0.192 C  
BRANCH  25  26
HETATM   26  O   UNL     1      -7.754  11.161  63.504  1.00  0.00     0.419 OA 
BRANCH  26  27
HETATM   27  C   UNL     1      -6.740  10.327  63.074  1.00  0.00    -0.126 C  
HETATM   28  O   UNL     1      -5.554  10.603  63.213  1.00  0.00    -0.156 OA 
BRANCH  27  29
HETATM   29  C   UNL     1      -7.217   9.004  62.396  1.00  0.00    -0.097 C  
HETATM   30  C   UNL     1      -7.919   8.019  63.359  1.00  0.00    -0.133 C  
ENDBRANCH  27  29
ENDBRANCH  26  27
ENDBRANCH  25  26
ENDBRANCH  23  25
ENDBRANCH   4  23
BRANCH   4  31
HETATM   31  O   UNL     1      -9.415  10.712  65.848  1.00  0.00    -0.180 OA 
BRANCH  31  32
HETATM   32  C   UNL     1      -9.851   9.524  66.407  1.00  0.00    -0.253 C  
HETATM   33  O   UNL     1     -10.028   8.480  65.799  1.00  0.00    -0.004 OA 
BRANCH  32  34
HETATM   34  O   UNL     1      -9.849   9.590  67.781  1.00  0.00    -0.150 OA 
BRANCH  34  35
HETATM   35  C   UNL     1      -9.408   8.352  68.393  1.00  0.00    -0.135 C  
HETATM   36  C   UNL     1     -10.512   7.568  69.088  1.00  0.00    -0.220 C  
ENDBRANCH  34  35
ENDBRANCH  32  34
ENDBRANCH  31  32
ENDBRANCH   4  31
TORSDOF 9
ENDMDL
MODEL      142
REMARK 921   NORMALIZED FREE ENERGY PREDICTED BY IDOCK:    3.39 KCAL/MOL
REMARK 922        TOTAL FREE ENERGY PREDICTED BY IDOCK:    5.30 KCAL/MOL
REMARK 923 INTER-LIGAND FREE ENERGY PREDICTED BY IDOCK:    3.52 KCAL/MOL
REMARK 924 INTRA-LIGAND FREE ENERGY PREDICTED BY IDOCK:    1.78 KCAL/MOL
REMARK 927      BINDING AFFINITY PREDICTED BY RF-SCORE:    0.00 PKD
ROOT
HETATM    1  C   UNL     1     -11.227  11.427  67.516  1.00  0.00    -0.356 C  
HETATM    2  C   UNL     1     -12.141  12.031  68.419  1.00  0.00    -0.090 C  
HETATM    3  C   UNL     1     -11.569  12.857  67.314  1.00  0.00    -0.416 C  
HETATM    4  C   UNL     1     -10.668  11.875  65.708  1.00  0.00    -0.284 C  
HETATM    5  C   UNL     1      -6.652  13.366  67.095  1.00  0.00     0.377 C  
HETATM    6  C   UNL     1      -7.664  13.940  68.093  1.00  0.00    -0.142 C  
HETATM    7  C   UNL     1     -11.945  12.323  65.959  1.00  0.00    -0.342 C  
HETATM    8  C   UNL     1      -7.686  15.518  68.315  1.00  0.00    -0.115 C  
HETATM    9  C   UNL     1     -13.260  11.738  65.496  1.00  0.00     3.991 C  
HETATM   10  C   UNL     1     -11.217  14.052  65.601  1.00  0.00    -0.310 C  
HETATM   11  O   UNL     1      -5.144  15.595  69.612  1.00  0.00    -0.095 OA 
HETATM   12  C   UNL     1      -7.492  16.186  69.464  1.00  0.00    -0.084 C  
HETATM   13  C   UNL     1      -6.306  15.304  69.865  1.00  0.00    -0.164 C  
HETATM   14  C   UNL     1      -6.723  14.003  70.403  1.00  0.00     0.197 C  
HETATM   15  C   UNL     1      -9.592  14.162  66.128  1.00  0.00    -0.254 C  
HETATM   16  C   UNL     1      -7.358  13.279  69.465  1.00  0.00     0.433 C  
HETATM   17  C   UNL     1      -7.721  11.838  69.690  1.00  0.00     0.722 C  
HETATM   18  C   UNL     1      -9.115  13.581  67.630  1.00  0.00    -0.205 C  
HETATM   19  O   UNL     1      -8.822  13.554  65.079  1.00  0.00     0.999 OA 
HETATM   20  C   UNL     1      -9.164  11.533  69.324  1.00  0.00     0.392 C  
HETATM   21  C   UNL     1      -9.512  11.983  67.902  1.00  0.00    -0.196 C  
HETATM   22  H   UNL     1      -7.921  13.615  65.372  1.00  0.00     0.000 HD 
ENDROOT
BRANCH   4  23
HETATM   23  C   UNL     1     -10.829  12.091  63.885  1.00  0.00    -0.399 C  
HETATM   24  O   UNL     1     -11.938  12.272  63.340  1.00  0.00    -0.485 OA 
BRANCH  23  25
HETATM   25  C   UNL     1      -9.642  11.975  62.792  1.00  0.00     0.596 C  
BRANCH  25  26
HETATM   26  O   UNL     1      -8.373  11.369  63.431  1.00  0.00     0.305 OA 
BRANCH  26  27
HETATM   27  C   UNL     1      -7.712  10.291  62.876  1.00  0.00    -0.149 C  
HETATM   28  O   UNL     1      -6.489  10.226  62.815  1.00  0.00    -0.128 OA 
BRANCH  27  29
HETATM   29  C   UNL     1      -8.637   9.158  62.330  1.00  0.00    -0.226 C  
HETATM   30  C   UNL     1      -8.678   7.893  63.219  1.00  0.00     0.503 C  
ENDBRANCH  27  29
ENDBRANCH  26  27
ENDBRANCH  25  26
ENDBRANCH  23  25
ENDBRANCH   4  23
BRANCH   4  31
HETATM   31  O   UNL     1     -10.835  10.276  65.561  1.00  0.00     0.055 OA 
BRANCH  31  32
HETATM   32  C   UNL     1     -10.362   9.314  66.436  1.00  0.00    -0.168 C  
HETATM   33  O   UNL     1     -11.029   8.419  66.931  1.00  0.00    -0.086 OA 
BRANCH  32  34
HETATM   34  O   UNL     1      -8.989   9.342  66.511  1.00  0.00    -0.141 OA 
BRANCH  34  35
HETATM   35  C   UNL     1      -8.447   8.178  67.184  1.00  0.00    -0.124 C  
HETATM   36  C   UNL     1      -7.201   8.454  68.011  1.00  0.00    -0.091 C  
ENDBRANCH  34  35
ENDBRANCH  32  34
ENDBRANCH  31  32
ENDBRANCH   4  31
TORSDOF 9
ENDMDL
MODEL      143
REMARK 921   NORMALIZED FREE ENERGY PREDICTED BY IDOCK:    4.40 KCAL/MOL
REMARK 922        TOTAL FREE ENERGY PREDICTED BY IDOCK:    6.84 KCAL/MOL
REMARK 923 INTER-LIGAND FREE ENERGY PREDICTED BY IDOCK:    2.01 KCAL/MOL
REMARK 924 INTRA-LIGAND FREE ENERGY PREDICTED BY IDOCK:    4.84 KCAL/MOL
REMARK 927      BINDING AFFINITY PREDICTED BY RF-SCORE:    0.00 PKD
ROOT
HETATM    1  C   UNL     1      -6.270  11.800  68.420  1.00  0.00    -0.050 C  
HETATM    2  C   UNL     1      -5.850  11.085  67.269  1.00  0.00    -0.053 C  
HETATM    3  C   UNL     1      -7.256  11.582  67.333  1.00  0.00    -0.119 C  
HETATM    4  C   UNL     1      -7.724  13.054  68.736  1.00  0.00     0.004 C  
HETATM    5  C   UNL     1     -10.107  10.027  71.066  1.00  0.00     0.414 C  
HETATM    6  C   UNL     1      -9.572   9.269  69.847  1.00  0.00    -0.217 C  
HETATM    7  C   UNL     1      -7.320  13.082  67.421  1.00  0.00    -0.122 C  
HETATM    8  C   UNL     1     -10.622   8.523  68.907  1.00  0.00    -0.166 C  
HETATM    9  C   UNL     1      -6.472  14.115  66.714  1.00  0.00     1.922 C  
HETATM   10  C   UNL     1      -9.117  12.553  67.045  1.00  0.00    -0.213 C  
HETATM   11  O   UNL     1     -11.293   6.544  70.853  1.00  0.00    -0.298 OA 
HETATM   12  C   UNL     1     -10.667   7.214  68.607  1.00  0.00    -0.198 C  
HETATM   13  C   UNL     1     -10.398   6.796  70.056  1.00  0.00    -0.199 C  
HETATM   14  C   UNL     1      -8.983   6.915  70.428  1.00  0.00    -0.152 C  
HETATM   15  C   UNL     1      -9.733  11.533  68.273  1.00  0.00    -0.198 C  
HETATM   16  C   UNL     1      -8.585   8.198  70.387  1.00  0.00    -0.131 C  
HETATM   17  C   UNL     1      -7.240   8.626  70.904  1.00  0.00    -0.073 C  
HETATM   18  C   UNL     1      -8.826  10.266  68.898  1.00  0.00    -0.157 C  
HETATM   19  O   UNL     1     -10.151  12.425  69.318  1.00  0.00    -0.389 OA 
HETATM   20  C   UNL     1      -6.492   9.515  69.926  1.00  0.00    -0.053 C  
HETATM   21  C   UNL     1      -7.326  10.718  69.475  1.00  0.00    -0.125 C  
HETATM   22  H   UNL     1     -10.492  11.859  69.999  1.00  0.00     0.000 HD 
ENDROOT
BRANCH   4  23
HETATM   23  C   UNL     1      -8.665  14.632  68.598  1.00  0.00    -0.174 C  
HETATM   24  O   UNL     1      -8.847  15.378  69.583  1.00  0.00    -0.256 OA 
BRANCH  23  25
HETATM   25  C   UNL     1      -9.433  15.185  67.285  1.00  0.00    -0.210 C  
BRANCH  25  26
HETATM   26  O   UNL     1     -10.494  14.169  66.810  1.00  0.00    -0.273 OA 
BRANCH  26  27
HETATM   27  C   UNL     1     -11.804  14.214  67.247  1.00  0.00    -0.419 C  
HETATM   28  O   UNL     1     -12.131  14.745  68.302  1.00  0.00    -0.258 OA 
BRANCH  27  29
HETATM   29  C   UNL     1     -12.841  13.539  66.294  1.00  0.00     0.045 C  
HETATM   30  C   UNL     1     -13.134  14.344  65.007  1.00  0.00     0.220 C  
ENDBRANCH  27  29
ENDBRANCH  26  27
ENDBRANCH  25  26
ENDBRANCH  23  25
ENDBRANCH   4  23
BRANCH   4  31
HETATM   31  O   UNL     1      -6.532  13.802  69.528  1.00  0.00    -0.110 OA 
BRANCH  31  32
HETATM   32  C   UNL     1      -6.672  14.786  70.490  1.00  0.00     0.123 C  
HETATM   33  O   UNL     1      -6.418  15.970  70.332  1.00  0.00     0.059 OA 
BRANCH  32  34
HETATM   34  O   UNL     1      -7.351  14.315  71.589  1.00  0.00     1.924 OA 
BRANCH  34  35
HETATM   35  C   UNL     1      -6.549  14.362  72.796  1.00  0.00     1.902 C  
HETATM   36  C   UNL     1      -5.207  15.060  72.631  1.00  0.00     0.007 C  
ENDBRANCH  34  35
ENDBRANCH  32  34
ENDBRANCH  31  32
ENDBRANCH   4  31
TORSDOF 9
ENDMDL
MODEL      144
REMARK 921   NORMALIZED FREE ENERGY PREDICTED BY IDOCK:    7.58 KCAL/MOL
REMARK 922        TOTAL FREE ENERGY PREDICTED BY IDOCK:   11.70 KCAL/MOL
REMARK 923 INTER-LIGAND FREE ENERGY PREDICTED BY IDOCK:    4.51 KCAL/MOL
REMARK 924 INTRA-LIGAND FREE ENERGY PREDICTED BY IDOCK:    7.19 KCAL/MOL
REMARK 927      BINDING AFFINITY PREDICTED BY RF-SCORE:    0.00 PKD
ROOT
HETATM    1  C   UNL     1      -7.295  12.197  66.128  1.00  0.00     0.961 C  
HETATM    2  C   UNL     1      -6.129  11.762  65.447  1.00  0.00     2.017 C  
HETATM    3  C   UNL     1      -7.212  10.773  65.722  1.00  0.00    -0.057 C  
HETATM    4  C   UNL     1      -9.105  11.490  66.229  1.00  0.00    -0.208 C  
HETATM    5  C   UNL     1      -8.510   9.994  70.433  1.00  0.00     0.193 C  
HETATM    6  C   UNL     1      -7.232   9.607  69.681  1.00  0.00    -0.084 C  
HETATM    7  C   UNL     1      -8.501  11.144  65.042  1.00  0.00     0.175 C  
HETATM    8  C   UNL     1      -6.795   8.074  69.685  1.00  0.00    -0.042 C  
HETATM    9  C   UNL     1      -8.717  11.728  63.664  1.00  0.00     0.716 C  
HETATM   10  C   UNL     1      -8.777   9.348  65.632  1.00  0.00    -0.179 C  
HETATM   11  O   UNL     1      -6.135   8.040  72.463  1.00  0.00    -0.045 OA 
HETATM   12  C   UNL     1      -5.643   7.552  70.139  1.00  0.00    -0.023 C  
HETATM   13  C   UNL     1      -5.659   8.419  71.401  1.00  0.00    -0.035 C  
HETATM   14  C   UNL     1      -5.223   9.798  71.148  1.00  0.00    -0.054 C  
HETATM   15  C   UNL     1      -8.637   9.227  67.334  1.00  0.00    -0.122 C  
HETATM   16  C   UNL     1      -6.076  10.424  70.319  1.00  0.00    -0.107 C  
HETATM   17  C   UNL     1      -5.973  11.899  70.046  1.00  0.00    -0.159 C  
HETATM   18  C   UNL     1      -7.386   9.974  68.167  1.00  0.00    -0.083 C  
HETATM   19  O   UNL     1      -9.912   9.653  67.840  1.00  0.00    -0.153 OA 
HETATM   20  C   UNL     1      -6.028  12.225  68.563  1.00  0.00    -0.054 C  
HETATM   21  C   UNL     1      -7.252  11.612  67.875  1.00  0.00    -0.083 C  
HETATM   22  H   UNL     1      -9.835   9.586  68.784  1.00  0.00     0.000 HD 
ENDROOT
BRANCH   4  23
HETATM   23  C   UNL     1     -10.790  11.047  65.630  1.00  0.00    -0.090 C  
HETATM   24  O   UNL     1     -11.028  10.852  64.421  1.00  0.00    -0.231 OA 
BRANCH  23  25
HETATM   25  C   UNL     1     -12.137  10.960  66.522  1.00  0.00     2.263 C  
BRANCH  25  26
HETATM   26  O   UNL     1     -12.040   9.803  67.540  1.00  0.00     1.759 OA 
BRANCH  26  27
HETATM   27  C   UNL     1     -11.622  10.000  68.842  1.00  0.00     0.093 C  
HETATM   28  O   UNL     1     -10.662   9.410  69.324  1.00  0.00    -0.227 OA 
BRANCH  27  29
HETATM   29  C   UNL     1     -12.465  11.031  69.657  1.00  0.00    -0.208 C  
HETATM   30  C   UNL     1     -11.706  12.334  70.001  1.00  0.00    -0.319 C  
ENDBRANCH  27  29
ENDBRANCH  26  27
ENDBRANCH  25  26
ENDBRANCH  23  25
ENDBRANCH   4  23
BRANCH   4  31
HETATM   31  O   UNL     1      -9.428  13.063  66.059  1.00  0.00    -0.209 OA 
BRANCH  31  32
HETATM   32  C   UNL     1      -9.638  13.977  67.077  1.00  0.00    -0.253 C  
HETATM   33  O   UNL     1      -9.691  13.709  68.266  1.00  0.00    -0.223 OA 
BRANCH  32  34
HETATM   34  O   UNL     1      -9.555  15.268  66.611  1.00  0.00    -0.231 OA 
BRANCH  34  35
HETATM   35  C   UNL     1     -10.853  15.907  66.518  1.00  0.00    -0.198 C  
HETATM   36  C   UNL     1     -11.056  16.736  65.259  1.00  0.00     0.005 C  
ENDBRANCH  34  35
ENDBRANCH  32  34
ENDBRANCH  31  32
ENDBRANCH   4  31
TORSDOF 9
ENDMDL
MODEL      145
REMARK 921   NORMALIZED FREE ENERGY PREDICTED BY IDOCK:    8.84 KCAL/MOL
REMARK 922        TOTAL FREE ENERGY PREDICTED BY IDOCK:   13.63 KCAL/MOL
REMARK 923 INTER-LIGAND FREE ENERGY PREDICTED BY IDOCK:    7.55 KCAL/MOL
REMARK 924 INTRA-LIGAND FREE ENERGY PREDICTED BY IDOCK:    6.08 KCAL/MOL
REMARK 927      BINDING AFFINITY PREDICTED BY RF-SCORE:    0.00 PKD
ROOT
HETATM    1  C   UNL     1     -11.754  13.465  68.397  1.00  0.00    -0.390 C  
HETATM    2  C   UNL     1     -12.130  14.246  69.520  1.00  0.00    -0.376 C  
HETATM    3  C   UNL     1     -10.724  13.755  69.425  1.00  0.00    -0.014 C  
HETATM    4  C   UNL     1     -10.033  13.080  67.575  1.00  0.00    -0.212 C  
HETATM    5  C   UNL     1      -9.979   8.870  69.168  1.00  0.00    -0.192 C  
HETATM    6  C   UNL     1     -10.454   9.739  70.338  1.00  0.00    -0.358 C  
HETATM    7  C   UNL     1     -10.018  14.299  68.214  1.00  0.00    -0.239 C  
HETATM    8  C   UNL     1      -9.647   9.658  71.710  1.00  0.00     1.163 C  
HETATM    9  C   UNL     1     -10.089  15.684  67.611  1.00  0.00    -0.248 C  
HETATM   10  C   UNL     1      -8.624  13.527  69.268  1.00  0.00     0.705 C  
HETATM   11  O   UNL     1     -10.480   6.991  72.299  1.00  0.00    -0.202 OA 
HETATM   12  C   UNL     1     -10.119   9.308  72.918  1.00  0.00     2.149 C  
HETATM   13  C   UNL     1     -10.919   8.132  72.349  1.00  0.00    -0.345 C  
HETATM   14  C   UNL     1     -12.170   8.555  71.709  1.00  0.00    -0.388 C  
HETATM   15  C   UNL     1      -8.882  11.852  69.506  1.00  0.00     1.272 C  
HETATM   16  C   UNL     1     -11.921   9.322  70.633  1.00  0.00    -0.206 C  
HETATM   17  C   UNL     1     -13.013   9.731  69.684  1.00  0.00     1.404 C  
HETATM   18  C   UNL     1     -10.392  11.248  69.926  1.00  0.00     0.512 C  
HETATM   19  O   UNL     1      -8.400  11.230  68.305  1.00  0.00    -0.135 OA 
HETATM   20  C   UNL     1     -12.992  11.218  69.373  1.00  0.00     0.929 C  
HETATM   21  C   UNL     1     -11.619  11.693  68.886  1.00  0.00    -0.377 C  
HETATM   22  H   UNL     1      -8.544  10.301  68.437  1.00  0.00     0.000 HD 
ENDROOT
BRANCH   4  23
HETATM   23  C   UNL     1      -8.484  13.424  66.639  1.00  0.00     0.159 C  
HETATM   24  O   UNL     1      -8.206  12.821  65.582  1.00  0.00     1.390 OA 
BRANCH  23  25
HETATM   25  C   UNL     1      -7.288  14.419  67.087  1.00  0.00     0.124 C  
BRANCH  25  26
HETATM   26  O   UNL     1      -7.363  15.745  66.299  1.00  0.00     0.145 OA 
BRANCH  26  27
HETATM   27  C   UNL     1      -6.610  16.851  66.644  1.00  0.00    -0.217 C  
HETATM   28  O   UNL     1      -5.384  16.831  66.676  1.00  0.00    -0.320 OA 
BRANCH  27  29
HETATM   29  C   UNL     1      -7.435  18.130  66.990  1.00  0.00    -0.227 C  
HETATM   30  C   UNL     1      -7.777  19.011  65.766  1.00  0.00    -0.065 C  
ENDBRANCH  27  29
ENDBRANCH  26  27
ENDBRANCH  25  26
ENDBRANCH  23  25
ENDBRANCH   4  23
BRANCH   4  31
HETATM   31  O   UNL     1     -10.922  13.343  66.253  1.00  0.00    -0.286 OA 
BRANCH  31  32
HETATM   32  C   UNL     1     -12.292  13.182  66.135  1.00  0.00    -0.315 C  
HETATM   33  O   UNL     1     -13.055  12.927  67.053  1.00  0.00     1.110 OA 
BRANCH  32  34
HETATM   34  O   UNL     1     -12.732  13.568  64.890  1.00  0.00    -0.632 OA 
BRANCH  34  35
HETATM   35  C   UNL     1     -12.149  14.825  64.464  1.00  0.00    -0.446 C  
HETATM   36  C   UNL     1     -12.707  15.363  63.154  1.00  0.00     2.679 C  
ENDBRANCH  34  35
ENDBRANCH  32  34
ENDBRANCH  31  32
ENDBRANCH   4  31
TORSDOF 9
ENDMDL
MODEL      146
REMARK 921   NORMALIZED FREE ENERGY PREDICTED BY IDOCK:    9.23 KCAL/MOL
REMARK 922        TOTAL FREE ENERGY PREDICTED BY IDOCK:   14.23 KCAL/MOL
REMARK 923 INTER-LIGAND FREE ENERGY PREDICTED BY IDOCK:    7.96 KCAL/MOL
REMARK 924 INTRA-LIGAND FREE ENERGY PREDICTED BY IDOCK:    6.27 KCAL/MOL
REMARK 927      BINDING AFFINITY PREDICTED BY RF-SCORE:    0.00 PKD
ROOT
HETATM    1  C   UNL     1      -8.934  14.630  68.883  1.00  0.00    -0.136 C  
HETATM    2  C   UNL     1      -8.196  15.059  70.017  1.00  0.00     0.373 C  
HETATM    3  C   UNL     1      -9.546  15.646  69.774  1.00  0.00    -0.192 C  
HETATM    4  C   UNL     1     -10.831  14.666  68.453  1.00  0.00    -0.245 C  
HETATM    5  C   UNL     1     -10.313  18.031  65.507  1.00  0.00     0.104 C  
HETATM    6  C   UNL     1      -9.467  18.424  66.723  1.00  0.00    -0.297 C  
HETATM    7  C   UNL     1     -10.630  14.604  69.813  1.00  0.00    -0.071 C  
HETATM    8  C   UNL     1      -9.751  19.834  67.410  1.00  0.00    -0.498 C  
HETATM    9  C   UNL     1     -10.777  13.416  70.737  1.00  0.00     2.732 C  
HETATM   10  C   UNL     1     -11.571  16.266  69.847  1.00  0.00    -0.140 C  
HETATM   11  O   UNL     1      -8.754  21.357  65.211  1.00  0.00     2.357 OA 
HETATM   12  C   UNL     1      -8.890  20.850  67.579  1.00  0.00    -0.124 C  
HETATM   13  C   UNL     1      -8.330  20.711  66.160  1.00  0.00     0.318 C  
HETATM   14  C   UNL     1      -7.378  19.601  66.032  1.00  0.00    -0.308 C  
HETATM   15  C   UNL     1     -11.239  17.195  68.449  1.00  0.00     0.036 C  
HETATM   16  C   UNL     1      -7.987  18.423  66.253  1.00  0.00    -0.264 C  
HETATM   17  C   UNL     1      -7.291  17.114  65.998  1.00  0.00    -0.170 C  
HETATM   18  C   UNL     1      -9.675  17.374  67.865  1.00  0.00    -0.272 C  
HETATM   19  O   UNL     1     -12.103  16.658  67.435  1.00  0.00     1.006 OA 
HETATM   20  C   UNL     1      -7.425  16.145  67.161  1.00  0.00    -0.248 C  
HETATM   21  C   UNL     1      -8.883  15.932  67.579  1.00  0.00    -0.199 C  
HETATM   22  H   UNL     1     -11.919  17.173  66.660  1.00  0.00     0.000 HD 
ENDROOT
BRANCH   4  23
HETATM   23  C   UNL     1     -12.609  14.203  68.581  1.00  0.00     0.481 C  
HETATM   24  O   UNL     1     -13.134  13.386  67.796  1.00  0.00     1.386 OA 
BRANCH  23  25
HETATM   25  C   UNL     1     -13.699  14.832  69.599  1.00  0.00     2.390 C  
BRANCH  25  26
HETATM   26  O   UNL     1     -13.035  15.873  70.527  1.00  0.00    -0.438 OA 
BRANCH  26  27
HETATM   27  C   UNL     1     -13.229  15.869  71.895  1.00  0.00    -0.281 C  
HETATM   28  O   UNL     1     -14.318  15.638  72.408  1.00  0.00    -0.546 OA 
BRANCH  27  29
HETATM   29  C   UNL     1     -11.955  16.180  72.743  1.00  0.00    -0.638 C  
HETATM   30  C   UNL     1     -12.202  16.201  74.269  1.00  0.00    -0.593 C  
ENDBRANCH  27  29
ENDBRANCH  26  27
ENDBRANCH  25  26
ENDBRANCH  23  25
ENDBRANCH   4  23
BRANCH   4  31
HETATM   31  O   UNL     1     -10.453  13.184  67.934  1.00  0.00    -0.229 OA 
BRANCH  31  32
HETATM   32  C   UNL     1     -10.207  12.807  66.625  1.00  0.00    -0.238 C  
HETATM   33  O   UNL     1      -9.446  13.373  65.858  1.00  0.00    -0.166 OA 
BRANCH  32  34
HETATM   34  O   UNL     1     -10.752  11.574  66.353  1.00  0.00    -0.254 OA 
BRANCH  34  35
HETATM   35  C   UNL     1     -11.545  11.576  65.139  1.00  0.00     0.051 C  
HETATM   36  C   UNL     1     -11.437  10.300  64.317  1.00  0.00     3.270 C  
ENDBRANCH  34  35
ENDBRANCH  32  34
ENDBRANCH  31  32
ENDBRANCH   4  31
TORSDOF 9
ENDMDL
MODEL      147
REMARK 921   NORMALIZED FREE ENERGY PREDICTED BY IDOCK:    9.78 KCAL/MOL
REMARK 922        TOTAL FREE ENERGY PREDICTED BY IDOCK:   15.06 KCAL/MOL
REMARK 923 INTER-LIGAND FREE ENERGY PREDICTED BY IDOCK:    5.92 KCAL/MOL
REMARK 924 INTRA-LIGAND FREE ENERGY PREDICTED BY IDOCK:    9.14 KCAL/MOL
REMARK 927      BINDING AFFINITY PREDICTED BY RF-SCORE:    0.00 PKD
ROOT
HETATM    1  C   UNL     1     -10.355  13.333  68.578  1.00  0.00    -0.244 C  
HETATM    2  C   UNL     1      -9.594  12.861  69.679  1.00  0.00     1.737 C  
HETATM    3  C   UNL     1      -8.879  13.288  68.440  1.00  0.00    -0.124 C  
HETATM    4  C   UNL     1      -9.912  14.453  67.050  1.00  0.00    -0.257 C  
HETATM    5  C   UNL     1      -9.960  10.960  64.210  1.00  0.00    -0.392 C  
HETATM    6  C   UNL     1      -9.206  10.464  65.448  1.00  0.00    -0.233 C  
HETATM    7  C   UNL     1      -9.108  14.742  68.129  1.00  0.00    -0.180 C  
HETATM    8  C   UNL     1      -7.740   9.872  65.247  1.00  0.00    -0.129 C  
HETATM    9  C   UNL     1      -9.183  15.918  69.076  1.00  0.00    -0.242 C  
HETATM   10  C   UNL     1      -7.677  14.231  66.972  1.00  0.00     0.105 C  
HETATM   11  O   UNL     1      -8.632   7.540  63.862  1.00  0.00     0.206 OA 
HETATM   12  C   UNL     1      -7.303   8.642  65.565  1.00  0.00    -0.084 C  
HETATM   13  C   UNL     1      -8.560   7.968  65.006  1.00  0.00    -0.011 C  
HETATM   14  C   UNL     1      -9.708   8.065  65.916  1.00  0.00     0.133 C  
HETATM   15  C   UNL     1      -8.156  12.976  65.910  1.00  0.00     1.962 C  
HETATM   16  C   UNL     1     -10.079   9.346  66.082  1.00  0.00    -0.324 C  
HETATM   17  C   UNL     1     -11.343   9.716  66.809  1.00  0.00     1.020 C  
HETATM   18  C   UNL     1      -9.024  11.647  66.457  1.00  0.00    -0.191 C  
HETATM   19  O   UNL     1      -8.858  13.641  64.847  1.00  0.00     1.281 OA 
HETATM   20  C   UNL     1     -11.123  10.799  67.851  1.00  0.00    -0.369 C  
HETATM   21  C   UNL     1     -10.429  12.035  67.271  1.00  0.00    -0.241 C  
HETATM   22  H   UNL     1      -9.124  12.945  64.259  1.00  0.00     0.000 HD 
ENDROOT
BRANCH   4  23
HETATM   23  C   UNL     1      -9.454  15.994  66.152  1.00  0.00    -0.336 C  
HETATM   24  O   UNL     1      -8.920  15.964  65.024  1.00  0.00     0.700 OA 
BRANCH  23  25
HETATM   25  C   UNL     1      -9.574  17.508  66.712  1.00  0.00    -0.282 C  
BRANCH  25  26
HETATM   26  O   UNL     1     -10.901  17.700  67.477  1.00  0.00    -0.325 OA 
BRANCH  26  27
HETATM   27  C   UNL     1     -11.283  18.922  67.994  1.00  0.00     0.491 C  
HETATM   28  O   UNL     1     -11.864  19.033  69.068  1.00  0.00     3.565 OA 
BRANCH  27  29
HETATM   29  C   UNL     1     -10.920  20.156  67.109  1.00  0.00     0.060 C  
HETATM   30  C   UNL     1     -11.059  19.906  65.589  1.00  0.00    -0.006 C  
ENDBRANCH  27  29
ENDBRANCH  26  27
ENDBRANCH  25  26
ENDBRANCH  23  25
ENDBRANCH   4  23
BRANCH   4  31
HETATM   31  O   UNL     1     -11.345  15.079  67.451  1.00  0.00    -0.329 OA 
BRANCH  31  32
HETATM   32  C   UNL     1     -12.210  14.606  68.423  1.00  0.00    -0.094 C  
HETATM   33  O   UNL     1     -12.349  13.435  68.735  1.00  0.00    -0.205 OA 
BRANCH  32  34
HETATM   34  O   UNL     1     -12.738  15.638  69.163  1.00  0.00     0.143 OA 
BRANCH  34  35
HETATM   35  C   UNL     1     -12.766  15.342  70.582  1.00  0.00    -0.437 C  
HETATM   36  C   UNL     1     -12.469  13.890  70.926  1.00  0.00    -0.447 C  
ENDBRANCH  34  35
ENDBRANCH  32  34
ENDBRANCH  31  32
ENDBRANCH   4  31
TORSDOF 9
ENDMDL
MODEL      148
REMARK 921   NORMALIZED FREE ENERGY PREDICTED BY IDOCK:   13.24 KCAL/MOL
REMARK 922        TOTAL FREE ENERGY PREDICTED BY IDOCK:   20.34 KCAL/MOL
REMARK 923 INTER-LIGAND FREE ENERGY PREDICTED BY IDOCK:   18.56 KCAL/MOL
REMARK 924 INTRA-LIGAND FREE ENERGY PREDICTED BY IDOCK:    1.78 KCAL/MOL
REMARK 927      BINDING AFFINITY PREDICTED BY RF-SCORE:    0.00 PKD
ROOT
HETATM    1  C   UNL     1      -7.533  12.315  69.033  1.00  0.00     0.058 C  
HETATM    2  C   UNL     1      -6.778  11.972  70.185  1.00  0.00     0.434 C  
HETATM    3  C   UNL     1      -7.794  11.004  69.677  1.00  0.00     0.201 C  
HETATM    4  C   UNL     1      -8.513  11.250  67.734  1.00  0.00    -0.126 C  
HETATM    5  C   UNL     1     -12.502  12.503  69.403  1.00  0.00     0.241 C  
HETATM    6  C   UNL     1     -11.631  12.194  70.625  1.00  0.00     0.380 C  
HETATM    7  C   UNL     1      -7.477  10.532  68.285  1.00  0.00    -0.090 C  
HETATM    8  C   UNL     1     -12.170  11.127  71.680  1.00  0.00     0.014 C  
HETATM    9  C   UNL     1      -6.135  10.189  67.678  1.00  0.00    -0.057 C  
HETATM   10  C   UNL     1      -8.852   9.349  68.884  1.00  0.00    -0.136 C  
HETATM   11  O   UNL     1     -14.298  12.788  72.608  1.00  0.00    -0.362 OA 
HETATM   12  C   UNL     1     -12.407  11.317  72.988  1.00  0.00     5.350 C  
HETATM   13  C   UNL     1     -13.088  12.668  72.746  1.00  0.00     0.794 C  
HETATM   14  C   UNL     1     -12.127  13.752  72.510  1.00  0.00     0.675 C  
HETATM   15  C   UNL     1     -10.286  10.205  69.260  1.00  0.00    -0.223 C  
HETATM   16  C   UNL     1     -11.432  13.537  71.379  1.00  0.00     1.596 C  
HETATM   17  C   UNL     1     -10.520  14.583  70.801  1.00  0.00     0.915 C  
HETATM   18  C   UNL     1     -10.251  11.627  70.152  1.00  0.00     1.705 C  
HETATM   19  O   UNL     1     -10.933  10.414  67.994  1.00  0.00    -0.252 OA 
HETATM   20  C   UNL     1      -9.152  14.031  70.438  1.00  0.00     2.983 C  
HETATM   21  C   UNL     1      -9.241  12.801  69.529  1.00  0.00     1.592 C  
HETATM   22  H   UNL     1     -11.728  10.890  68.203  1.00  0.00     0.000 HD 
ENDROOT
BRANCH   4  23
HETATM   23  C   UNL     1      -8.751  10.058  66.349  1.00  0.00    -0.129 C  
HETATM   24  O   UNL     1      -8.824  10.436  65.161  1.00  0.00    -0.172 OA 
BRANCH  23  25
HETATM   25  C   UNL     1      -8.992   8.463  66.480  1.00  0.00    -0.157 C  
BRANCH  25  26
HETATM   26  O   UNL     1      -7.682   7.693  66.205  1.00  0.00    -0.085 OA 
BRANCH  26  27
HETATM   27  C   UNL     1      -7.659   6.512  65.487  1.00  0.00    -0.088 C  
HETATM   28  O   UNL     1      -8.564   6.181  64.729  1.00  0.00    -0.062 OA 
BRANCH  27  29
HETATM   29  C   UNL     1      -6.392   5.628  65.713  1.00  0.00    -0.039 C  
HETATM   30  C   UNL     1      -5.398   5.635  64.528  1.00  0.00    -0.013 C  
ENDBRANCH  27  29
ENDBRANCH  26  27
ENDBRANCH  25  26
ENDBRANCH  23  25
ENDBRANCH   4  23
BRANCH   4  31
HETATM   31  O   UNL     1      -7.782  12.296  66.744  1.00  0.00    -0.062 OA 
BRANCH  31  32
HETATM   32  C   UNL     1      -8.363  13.384  66.119  1.00  0.00     1.142 C  
HETATM   33  O   UNL     1      -9.175  13.326  65.210  1.00  0.00     0.393 OA 
BRANCH  32  34
HETATM   34  O   UNL     1      -8.091  14.550  66.796  1.00  0.00    -0.077 OA 
BRANCH  34  35
HETATM   35  C   UNL     1      -6.731  15.006  66.587  1.00  0.00     1.654 C  
HETATM   36  C   UNL     1      -5.672  14.150  67.266  1.00  0.00     0.562 C  
ENDBRANCH  34  35
ENDBRANCH  32  34
ENDBRANCH  31  32
ENDBRANCH   4  31
TORSDOF 9
ENDMDL
MODEL      149
REMARK 921   NORMALIZED FREE ENERGY PREDICTED BY IDOCK:   13.48 KCAL/MOL
REMARK 922        TOTAL FREE ENERGY PREDICTED BY IDOCK:   20.71 KCAL/MOL
REMARK 923 INTER-LIGAND FREE ENERGY PREDICTED BY IDOCK:   15.71 KCAL/MOL
REMARK 924 INTRA-LIGAND FREE ENERGY PREDICTED BY IDOCK:    5.00 KCAL/MOL
REMARK 927      BINDING AFFINITY PREDICTED BY RF-SCORE:    0.00 PKD
ROOT
HETATM    1  C   UNL     1      -7.542  12.851  70.070  1.00  0.00     1.815 C  
HETATM    2  C   UNL     1      -8.382  13.442  71.049  1.00  0.00     7.625 C  
HETATM    3  C   UNL     1      -8.938  13.177  69.689  1.00  0.00     1.897 C  
HETATM    4  C   UNL     1      -7.912  11.859  68.438  1.00  0.00    -0.154 C  
HETATM    5  C   UNL     1      -6.729  15.321  65.815  1.00  0.00     6.175 C  
HETATM    6  C   UNL     1      -7.581  15.933  66.932  1.00  0.00    -0.255 C  
HETATM    7  C   UNL     1      -8.930  11.712  69.352  1.00  0.00     0.737 C  
HETATM    8  C   UNL     1      -8.856  16.796  66.516  1.00  0.00    -0.311 C  
HETATM    9  C   UNL     1      -9.239  10.528  70.241  1.00  0.00     0.828 C  
HETATM   10  C   UNL     1     -10.020  12.503  67.997  1.00  0.00    -0.219 C  
HETATM   11  O   UNL     1      -7.322  18.936  65.412  1.00  0.00    -0.478 OA 
HETATM   12  C   UNL     1      -9.106  18.081  66.815  1.00  0.00    -0.280 C  
HETATM   13  C   UNL     1      -7.669  18.512  66.507  1.00  0.00    -0.255 C  
HETATM   14  C   UNL     1      -6.734  18.185  67.590  1.00  0.00    -0.199 C  
HETATM   15  C   UNL     1      -9.141  13.659  67.092  1.00  0.00    -0.239 C  
HETATM   16  C   UNL     1      -6.641  16.855  67.755  1.00  0.00    -0.158 C  
HETATM   17  C   UNL     1      -5.612  16.241  68.665  1.00  0.00    -0.105 C  
HETATM   18  C   UNL     1      -8.151  14.791  67.839  1.00  0.00    -0.146 C  
HETATM   19  O   UNL     1      -8.400  12.889  66.131  1.00  0.00    -0.125 OA 
HETATM   20  C   UNL     1      -6.206  15.204  69.603  1.00  0.00    -0.135 C  
HETATM   21  C   UNL     1      -7.004  14.131  68.857  1.00  0.00    -0.109 C  
HETATM   22  H   UNL     1      -7.912  13.531  65.629  1.00  0.00     0.000 HD 
ENDROOT
BRANCH   4  23
HETATM   23  C   UNL     1      -8.484  10.446  67.404  1.00  0.00    -0.121 C  
HETATM   24  O   UNL     1      -9.420   9.703  67.765  1.00  0.00    -0.128 OA 
BRANCH  23  25
HETATM   25  C   UNL     1      -7.824   9.937  66.017  1.00  0.00    -0.111 C  
BRANCH  25  26
HETATM   26  O   UNL     1      -7.746  11.094  64.997  1.00  0.00     0.289 OA 
BRANCH  26  27
HETATM   27  C   UNL     1      -7.301  10.906  63.702  1.00  0.00     0.509 C  
HETATM   28  O   UNL     1      -6.229  10.372  63.443  1.00  0.00    -0.142 OA 
BRANCH  27  29
HETATM   29  C   UNL     1      -8.267  11.425  62.591  1.00  0.00     0.142 C  
HETATM   30  C   UNL     1      -9.753  11.470  63.016  1.00  0.00    -0.382 C  
ENDBRANCH  27  29
ENDBRANCH  26  27
ENDBRANCH  25  26
ENDBRANCH  23  25
ENDBRANCH   4  23
BRANCH   4  31
HETATM   31  O   UNL     1      -6.711  10.966  69.044  1.00  0.00    -0.058 OA 
BRANCH  31  32
HETATM   32  C   UNL     1      -6.569   9.593  68.938  1.00  0.00    -0.046 C  
HETATM   33  O   UNL     1      -6.882   8.782  69.794  1.00  0.00    -0.044 OA 
BRANCH  32  34
HETATM   34  O   UNL     1      -6.242   9.225  67.653  1.00  0.00    -0.056 OA 
BRANCH  34  35
HETATM   35  C   UNL     1      -5.319   8.108  67.617  1.00  0.00    -0.034 C  
HETATM   36  C   UNL     1      -5.849   6.834  68.257  1.00  0.00    -0.017 C  
ENDBRANCH  34  35
ENDBRANCH  32  34
ENDBRANCH  31  32
ENDBRANCH   4  31
TORSDOF 9
ENDMDL
MODEL      150
REMARK 921   NORMALIZED FREE ENERGY PREDICTED BY IDOCK:   15.86 KCAL/MOL
REMARK 922        TOTAL FREE ENERGY PREDICTED BY IDOCK:   24.33 KCAL/MOL
REMARK 923 INTER-LIGAND FREE ENERGY PREDICTED BY IDOCK:   21.17 KCAL/MOL
REMARK 924 INTRA-LIGAND FREE ENERGY PREDICTED BY IDOCK:    3.17 KCAL/MOL
REMARK 927      BINDING AFFINITY PREDICTED BY RF-SCORE:    0.00 PKD
ROOT
HETATM    1  C   UNL     1      -9.152  12.180  67.341  1.00  0.00    -0.181 C  
HETATM    2  C   UNL     1      -8.504  12.877  66.289  1.00  0.00     0.489 C  
HETATM    3  C   UNL     1      -7.676  12.075  67.236  1.00  0.00    -0.168 C  
HETATM    4  C   UNL     1      -8.632  10.654  68.430  1.00  0.00    -0.134 C  
HETATM    5  C   UNL     1      -7.868  13.226  72.045  1.00  0.00    10.735 C  
HETATM    6  C   UNL     1      -7.244  13.986  70.869  1.00  0.00     1.778 C  
HETATM    7  C   UNL     1      -8.028  10.613  67.194  1.00  0.00    -0.121 C  
HETATM    8  C   UNL     1      -5.705  14.389  70.968  1.00  0.00    -0.188 C  
HETATM    9  C   UNL     1      -8.373   9.750  66.001  1.00  0.00    -0.123 C  
HETATM   10  C   UNL     1      -6.398  10.678  68.187  1.00  0.00    -0.058 C  
HETATM   11  O   UNL     1      -6.113  16.311  73.040  1.00  0.00     2.250 OA 
HETATM   12  C   UNL     1      -5.177  15.623  70.911  1.00  0.00    -0.145 C  
HETATM   13  C   UNL     1      -6.254  16.209  71.828  1.00  0.00     2.181 C  
HETATM   14  C   UNL     1      -7.523  16.451  71.130  1.00  0.00     4.533 C  
HETATM   15  C   UNL     1      -6.571  11.625  69.602  1.00  0.00    -0.096 C  
HETATM   16  C   UNL     1      -8.061  15.296  70.703  1.00  0.00     1.613 C  
HETATM   17  C   UNL     1      -9.449  15.236  70.128  1.00  0.00     0.272 C  
HETATM   18  C   UNL     1      -7.346  13.115  69.572  1.00  0.00     0.456 C  
HETATM   19  O   UNL     1      -7.189  10.749  70.559  1.00  0.00    -0.442 OA 
HETATM   20  C   UNL     1      -9.507  14.467  68.819  1.00  0.00    -0.161 C  
HETATM   21  C   UNL     1      -8.888  13.071  68.934  1.00  0.00     0.316 C  
HETATM   22  H   UNL     1      -7.286  11.275  71.343  1.00  0.00     0.000 HD 
ENDROOT
BRANCH   4  23
HETATM   23  C   UNL     1      -8.234   8.895  68.808  1.00  0.00    -0.115 C  
HETATM   24  O   UNL     1      -8.446   7.981  67.984  1.00  0.00    -0.125 OA 
BRANCH  23  25
HETATM   25  C   UNL     1      -7.688   8.311  70.215  1.00  0.00    -0.084 C  
BRANCH  25  26
HETATM   26  O   UNL     1      -8.851   7.731  71.049  1.00  0.00    -0.138 OA 
BRANCH  26  27
HETATM   27  C   UNL     1      -8.785   6.481  71.634  1.00  0.00    -0.132 C  
HETATM   28  O   UNL     1      -8.008   6.218  72.545  1.00  0.00    -0.103 OA 
BRANCH  27  29
HETATM   29  C   UNL     1      -9.776   5.426  71.051  1.00  0.00    -0.235 C  
HETATM   30  C   UNL     1      -9.153   4.027  70.832  1.00  0.00    -0.178 C  
ENDBRANCH  27  29
ENDBRANCH  26  27
ENDBRANCH  25  26
ENDBRANCH  23  25
ENDBRANCH   4  23
BRANCH   4  31
HETATM   31  O   UNL     1     -10.171  10.270  68.126  1.00  0.00    -0.152 OA 
BRANCH  31  32
HETATM   32  C   UNL     1     -10.846   9.151  68.580  1.00  0.00    -0.049 C  
HETATM   33  O   UNL     1     -11.345   8.291  67.872  1.00  0.00     0.474 OA 
BRANCH  32  34
HETATM   34  O   UNL     1     -10.696   8.997  69.939  1.00  0.00    -0.223 OA 
BRANCH  34  35
HETATM   35  C   UNL     1     -11.968   8.890  70.627  1.00  0.00    -0.073 C  
HETATM   36  C   UNL     1     -12.329  10.104  71.470  1.00  0.00    -0.505 C  
ENDBRANCH  34  35
ENDBRANCH  32  34
ENDBRANCH  31  32
ENDBRANCH   4  31
TORSDOF 9
ENDMDL
MODEL      151
REMARK 921   NORMALIZED FREE ENERGY PREDICTED BY IDOCK:   16.13 KCAL/MOL
REMARK 922        TOTAL FREE ENERGY PREDICTED BY IDOCK:   24.75 KCAL/MOL
REMARK 923 INTER-LIGAND FREE ENERGY PREDICTED BY IDOCK:   11.24 KCAL/MOL
REMARK 924 INTRA-LIGAND FREE ENERGY PREDICTED BY IDOCK:   13.51 KCAL/MOL
REMARK 927      BINDING AFFINITY PREDICTED BY RF-SCORE:    0.00 PKD
ROOT
HETATM    1  C   UNL     1      -7.351  12.277  66.143  1.00  0.00     1.169 C  
HETATM    2  C   UNL     1      -6.190  11.754  65.517  1.00  0.00     1.788 C  
HETATM    3  C   UNL     1      -7.251  10.807  65.968  1.00  0.00    -0.105 C  
HETATM    4  C   UNL     1      -9.146  11.570  66.393  1.00  0.00    -0.200 C  
HETATM    5  C   UNL     1      -8.451  10.774  70.769  1.00  0.00     3.095 C  
HETATM    6  C   UNL     1      -7.180  10.288  70.063  1.00  0.00    -0.164 C  
HETATM    7  C   UNL     1      -8.558  11.047  65.264  1.00  0.00    -0.048 C  
HETATM    8  C   UNL     1      -6.718   8.782  70.302  1.00  0.00    -0.041 C  
HETATM    9  C   UNL     1      -8.809  11.401  63.816  1.00  0.00     0.255 C  
HETATM   10  C   UNL     1      -8.794   9.365  66.139  1.00  0.00    -0.178 C  
HETATM   11  O   UNL     1      -6.007   9.201  73.035  1.00  0.00    -0.260 OA 
HETATM   12  C   UNL     1      -5.549   8.355  70.809  1.00  0.00    -0.028 C  
HETATM   13  C   UNL     1      -5.557   9.413  71.917  1.00  0.00    -0.065 C  
HETATM   14  C   UNL     1      -5.149  10.739  71.438  1.00  0.00    -0.079 C  
HETATM   15  C   UNL     1      -8.621   9.519  67.835  1.00  0.00    -0.119 C  
HETATM   16  C   UNL     1      -6.027  11.213  70.538  1.00  0.00    -0.114 C  
HETATM   17  C   UNL     1      -5.954  12.627  70.031  1.00  0.00    -0.145 C  
HETATM   18  C   UNL     1      -7.367  10.407  68.513  1.00  0.00    -0.086 C  
HETATM   19  O   UNL     1      -9.894  10.004  68.293  1.00  0.00    -0.143 OA 
HETATM   20  C   UNL     1      -6.041  12.710  68.516  1.00  0.00    -0.062 C  
HETATM   21  C   UNL     1      -7.266  11.979  67.960  1.00  0.00    -0.096 C  
HETATM   22  H   UNL     1      -9.798  10.090  69.233  1.00  0.00     0.000 HD 
ENDROOT
BRANCH   4  23
HETATM   23  C   UNL     1     -10.834  11.015  65.907  1.00  0.00    -0.115 C  
HETATM   24  O   UNL     1     -11.789  11.814  65.818  1.00  0.00    -0.379 OA 
BRANCH  23  25
HETATM   25  C   UNL     1     -11.310   9.489  65.650  1.00  0.00     3.354 C  
BRANCH  25  26
HETATM   26  O   UNL     1     -10.597   8.901  64.413  1.00  0.00     3.926 OA 
BRANCH  26  27
HETATM   27  C   UNL     1      -9.292   8.448  64.461  1.00  0.00     1.105 C  
HETATM   28  O   UNL     1      -8.410   8.900  63.740  1.00  0.00    -0.173 OA 
BRANCH  27  29
HETATM   29  C   UNL     1      -9.024   7.318  65.504  1.00  0.00     0.082 C  
HETATM   30  C   UNL     1     -10.304   6.627  66.030  1.00  0.00     0.606 C  
ENDBRANCH  27  29
ENDBRANCH  26  27
ENDBRANCH  25  26
ENDBRANCH  23  25
ENDBRANCH   4  23
BRANCH   4  31
HETATM   31  O   UNL     1      -9.498  13.091  65.981  1.00  0.00    -0.209 OA 
BRANCH  31  32
HETATM   32  C   UNL     1      -9.479  14.197  66.813  1.00  0.00    -0.279 C  
HETATM   33  O   UNL     1      -8.567  14.499  67.565  1.00  0.00    -0.167 OA 
BRANCH  32  34
HETATM   34  O   UNL     1     -10.520  15.051  66.529  1.00  0.00    -0.273 OA 
BRANCH  34  35
HETATM   35  C   UNL     1     -10.142  16.089  65.590  1.00  0.00    -0.354 C  
HETATM   36  C   UNL     1      -9.597  17.353  66.239  1.00  0.00    -0.260 C  
ENDBRANCH  34  35
ENDBRANCH  32  34
ENDBRANCH  31  32
ENDBRANCH   4  31
TORSDOF 9
ENDMDL
MODEL      152
REMARK 921   NORMALIZED FREE ENERGY PREDICTED BY IDOCK:   18.19 KCAL/MOL
REMARK 922        TOTAL FREE ENERGY PREDICTED BY IDOCK:   27.90 KCAL/MOL
REMARK 923 INTER-LIGAND FREE ENERGY PREDICTED BY IDOCK:   23.52 KCAL/MOL
REMARK 924 INTRA-LIGAND FREE ENERGY PREDICTED BY IDOCK:    4.38 KCAL/MOL
REMARK 927      BINDING AFFINITY PREDICTED BY RF-SCORE:    0.00 PKD
ROOT
HETATM    1  C   UNL     1     -11.091   9.869  67.833  1.00  0.00    -0.216 C  
HETATM    2  C   UNL     1     -12.162  10.762  68.097  1.00  0.00     0.736 C  
HETATM    3  C   UNL     1     -11.202  11.094  67.003  1.00  0.00    -0.291 C  
HETATM    4  C   UNL     1      -9.973   9.576  66.268  1.00  0.00    -0.274 C  
HETATM    5  C   UNL     1      -6.418  11.575  68.174  1.00  0.00    -0.053 C  
HETATM    6  C   UNL     1      -7.614  12.477  68.502  1.00  0.00    -0.119 C  
HETATM    7  C   UNL     1     -11.211  10.060  65.911  1.00  0.00     1.144 C  
HETATM    8  C   UNL     1      -7.532  14.013  68.085  1.00  0.00    -0.131 C  
HETATM    9  C   UNL     1     -12.383   9.312  65.317  1.00  0.00    13.049 C  
HETATM   10  C   UNL     1     -10.228  11.521  65.171  1.00  0.00    -0.322 C  
HETATM   11  O   UNL     1      -5.499  14.649  69.987  1.00  0.00    -0.099 OA 
HETATM   12  C   UNL     1      -7.618  15.085  68.890  1.00  0.00    -0.144 C  
HETATM   13  C   UNL     1      -6.707  14.458  69.950  1.00  0.00    -0.101 C  
HETATM   14  C   UNL     1      -7.404  13.468  70.782  1.00  0.00     2.725 C  
HETATM   15  C   UNL     1      -8.833  11.864  66.101  1.00  0.00    -0.063 C  
HETATM   16  C   UNL     1      -7.804  12.419  70.042  1.00  0.00     2.342 C  
HETATM   17  C   UNL     1      -8.370  11.177  70.673  1.00  0.00     3.769 C  
HETATM   18  C   UNL     1      -8.891  11.934  67.777  1.00  0.00    -0.166 C  
HETATM   19  O   UNL     1      -7.854  10.906  65.665  1.00  0.00    -0.296 OA 
HETATM   20  C   UNL     1      -9.662  10.723  70.015  1.00  0.00     0.591 C  
HETATM   21  C   UNL     1      -9.520  10.566  68.498  1.00  0.00    -0.164 C  
HETATM   22  H   UNL     1      -7.081  11.096  66.181  1.00  0.00     0.000 HD 
ENDROOT
BRANCH   4  23
HETATM   23  C   UNL     1      -9.560   9.049  64.551  1.00  0.00     0.778 C  
HETATM   24  O   UNL     1     -10.116   9.557  63.556  1.00  0.00     1.152 OA 
BRANCH  23  25
HETATM   25  C   UNL     1      -8.557   7.853  64.125  1.00  0.00     0.299 C  
BRANCH  25  26
HETATM   26  O   UNL     1      -8.807   6.601  64.994  1.00  0.00     0.091 OA 
BRANCH  26  27
HETATM   27  C   UNL     1      -7.827   6.057  65.802  1.00  0.00    -0.104 C  
HETATM   28  O   UNL     1      -7.131   6.739  66.546  1.00  0.00    -0.068 OA 
BRANCH  27  29
HETATM   29  C   UNL     1      -7.672   4.507  65.700  1.00  0.00    -0.093 C  
HETATM   30  C   UNL     1      -8.510   3.719  66.733  1.00  0.00    -0.105 C  
ENDBRANCH  27  29
ENDBRANCH  26  27
ENDBRANCH  25  26
ENDBRANCH  23  25
ENDBRANCH   4  23
BRANCH   4  31
HETATM   31  O   UNL     1     -10.260   8.046  66.698  1.00  0.00    -0.285 OA 
BRANCH  31  32
HETATM   32  C   UNL     1     -10.505   7.581  67.978  1.00  0.00    -0.197 C  
HETATM   33  O   UNL     1     -11.605   7.491  68.498  1.00  0.00     0.670 OA 
BRANCH  32  34
HETATM   34  O   UNL     1      -9.377   7.013  68.524  1.00  0.00    -0.137 OA 
BRANCH  34  35
HETATM   35  C   UNL     1      -9.660   6.294  69.751  1.00  0.00    -0.151 C  
HETATM   36  C   UNL     1     -10.603   7.018  70.700  1.00  0.00    -0.246 C  
ENDBRANCH  34  35
ENDBRANCH  32  34
ENDBRANCH  31  32
ENDBRANCH   4  31
TORSDOF 9
ENDMDL
MODEL      153
REMARK 921   NORMALIZED FREE ENERGY PREDICTED BY IDOCK:   19.21 KCAL/MOL
REMARK 922        TOTAL FREE ENERGY PREDICTED BY IDOCK:   29.45 KCAL/MOL
REMARK 923 INTER-LIGAND FREE ENERGY PREDICTED BY IDOCK:   21.86 KCAL/MOL
REMARK 924 INTRA-LIGAND FREE ENERGY PREDICTED BY IDOCK:    7.59 KCAL/MOL
REMARK 927      BINDING AFFINITY PREDICTED BY RF-SCORE:    0.00 PKD
ROOT
HETATM    1  C   UNL     1      -8.319  13.646  70.715  1.00  0.00     5.210 C  
HETATM    2  C   UNL     1      -8.921  14.398  71.757  1.00  0.00     6.462 C  
HETATM    3  C   UNL     1      -9.688  14.173  70.497  1.00  0.00     2.484 C  
HETATM    4  C   UNL     1      -9.052  12.664  69.204  1.00  0.00     0.721 C  
HETATM    5  C   UNL     1      -7.724  15.797  66.255  1.00  0.00     0.444 C  
HETATM    6  C   UNL     1      -8.316  16.576  67.435  1.00  0.00    -0.188 C  
HETATM    7  C   UNL     1      -9.948  12.713  70.247  1.00  0.00     3.642 C  
HETATM    8  C   UNL     1      -9.489  17.613  67.136  1.00  0.00    -0.267 C  
HETATM    9  C   UNL     1     -10.309  11.627  71.235  1.00  0.00     6.376 C  
HETATM   10  C   UNL     1     -11.078  13.614  68.998  1.00  0.00    -0.295 C  
HETATM   11  O   UNL     1      -7.814  19.442  65.723  1.00  0.00    -0.426 OA 
HETATM   12  C   UNL     1      -9.501  18.932  67.389  1.00  0.00    -0.334 C  
HETATM   13  C   UNL     1      -8.070  19.120  66.876  1.00  0.00    -0.263 C  
HETATM   14  C   UNL     1      -7.058  18.690  67.848  1.00  0.00    -0.245 C  
HETATM   15  C   UNL     1     -10.165  14.583  67.923  1.00  0.00    -0.231 C  
HETATM   16  C   UNL     1      -7.144  17.368  68.076  1.00  0.00    -0.185 C  
HETATM   17  C   UNL     1      -6.107  16.635  68.881  1.00  0.00    -0.154 C  
HETATM   18  C   UNL     1      -8.924  15.572  68.471  1.00  0.00    -0.191 C  
HETATM   19  O   UNL     1      -9.685  13.671  66.922  1.00  0.00    -0.245 OA 
HETATM   20  C   UNL     1      -6.718  15.740  69.946  1.00  0.00    -0.077 C  
HETATM   21  C   UNL     1      -7.763  14.779  69.371  1.00  0.00    -0.104 C  
HETATM   22  H   UNL     1      -9.178  14.209  66.326  1.00  0.00     0.000 HD 
ENDROOT
BRANCH   4  23
HETATM   23  C   UNL     1      -9.965  11.321  68.334  1.00  0.00    -0.197 C  
HETATM   24  O   UNL     1     -10.064  10.174  68.816  1.00  0.00    -0.171 OA 
BRANCH  23  25
HETATM   25  C   UNL     1     -10.634  11.407  66.863  1.00  0.00    -0.252 C  
BRANCH  25  26
HETATM   26  O   UNL     1      -9.907  10.462  65.881  1.00  0.00    -0.208 OA 
BRANCH  26  27
HETATM   27  C   UNL     1      -9.365   9.257  66.283  1.00  0.00    -0.200 C  
HETATM   28  O   UNL     1      -8.568   8.628  65.595  1.00  0.00    -0.149 OA 
BRANCH  27  29
HETATM   29  C   UNL     1      -9.842   8.752  67.681  1.00  0.00    -0.228 C  
HETATM   30  C   UNL     1     -11.339   8.370  67.737  1.00  0.00     0.955 C  
ENDBRANCH  27  29
ENDBRANCH  26  27
ENDBRANCH  25  26
ENDBRANCH  23  25
ENDBRANCH   4  23
BRANCH   4  31
HETATM   31  O   UNL     1      -7.928  11.616  69.701  1.00  0.00     0.449 OA 
BRANCH  31  32
HETATM   32  C   UNL     1      -6.744  11.308  69.056  1.00  0.00    -0.089 C  
HETATM   33  O   UNL     1      -5.904  10.519  69.457  1.00  0.00    -0.038 OA 
BRANCH  32  34
HETATM   34  O   UNL     1      -6.722  11.829  67.782  1.00  0.00    -0.070 OA 
BRANCH  34  35
HETATM   35  C   UNL     1      -6.011  10.977  66.849  1.00  0.00    -0.088 C  
HETATM   36  C   UNL     1      -6.711  10.792  65.511  1.00  0.00     0.014 C  
ENDBRANCH  34  35
ENDBRANCH  32  34
ENDBRANCH  31  32
ENDBRANCH   4  31
TORSDOF 9
ENDMDL
MODEL      154
REMARK 921   NORMALIZED FREE ENERGY PREDICTED BY IDOCK:   22.58 KCAL/MOL
REMARK 922        TOTAL FREE ENERGY PREDICTED BY IDOCK:   34.59 KCAL/MOL
REMARK 923 INTER-LIGAND FREE ENERGY PREDICTED BY IDOCK:   21.38 KCAL/MOL
REMARK 924 INTRA-LIGAND FREE ENERGY PREDICTED BY IDOCK:   13.21 KCAL/MOL
REMARK 927      BINDING AFFINITY PREDICTED BY RF-SCORE:    0.00 PKD
ROOT
HETATM    1  C   UNL     1     -11.532  13.814  68.426  1.00  0.00    -0.351 C  
HETATM    2  C   UNL     1     -12.634  14.525  68.966  1.00  0.00     0.213 C  
HETATM    3  C   UNL     1     -11.999  15.028  67.713  1.00  0.00    -0.120 C  
HETATM    4  C   UNL     1     -10.758  13.736  66.642  1.00  0.00    -0.277 C  
HETATM    5  C   UNL     1      -7.195  16.208  67.853  1.00  0.00    -0.144 C  
HETATM    6  C   UNL     1      -8.405  16.906  68.483  1.00  0.00    -0.257 C  
HETATM    7  C   UNL     1     -12.101  14.033  66.590  1.00  0.00    -0.487 C  
HETATM    8  C   UNL     1      -8.639  18.447  68.150  1.00  0.00    -0.301 C  
HETATM    9  C   UNL     1     -13.255  13.131  66.219  1.00  0.00     1.708 C  
HETATM   10  C   UNL     1     -11.527  15.646  65.742  1.00  0.00     0.146 C  
HETATM   11  O   UNL     1      -6.350  19.339  69.604  1.00  0.00    -0.284 OA 
HETATM   12  C   UNL     1      -8.699  19.472  69.016  1.00  0.00    -0.217 C  
HETATM   13  C   UNL     1      -7.495  18.965  69.816  1.00  0.00     0.420 C  
HETATM   14  C   UNL     1      -7.840  17.860  70.718  1.00  0.00     4.878 C  
HETATM   15  C   UNL     1     -10.025  16.175  66.369  1.00  0.00    -0.299 C  
HETATM   16  C   UNL     1      -8.239  16.781  70.022  1.00  0.00     1.640 C  
HETATM   17  C   UNL     1      -8.466  15.451  70.686  1.00  0.00     1.804 C  
HETATM   18  C   UNL     1      -9.719  16.193  68.020  1.00  0.00    -0.229 C  
HETATM   19  O   UNL     1      -9.040  15.391  65.677  1.00  0.00    -0.377 OA 
HETATM   20  C   UNL     1      -9.792  14.821  70.296  1.00  0.00     0.584 C  
HETATM   21  C   UNL     1      -9.969  14.727  68.777  1.00  0.00    -0.234 C  
HETATM   22  H   UNL     1      -8.207  15.684  66.025  1.00  0.00     0.000 HD 
ENDROOT
BRANCH   4  23
HETATM   23  C   UNL     1     -10.664  13.323  64.849  1.00  0.00    -0.351 C  
HETATM   24  O   UNL     1      -9.618  12.880  64.331  1.00  0.00     0.086 OA 
BRANCH  23  25
HETATM   25  C   UNL     1     -11.820  13.564  63.743  1.00  0.00    -0.381 C  
BRANCH  25  26
HETATM   26  O   UNL     1     -11.539  12.729  62.475  1.00  0.00     0.752 OA 
BRANCH  26  27
HETATM   27  C   UNL     1     -10.601  11.714  62.454  1.00  0.00     1.427 C  
HETATM   28  O   UNL     1      -9.395  11.931  62.403  1.00  0.00     0.033 OA 
BRANCH  27  29
HETATM   29  C   UNL     1     -11.190  10.270  62.499  1.00  0.00     3.088 C  
HETATM   30  C   UNL     1     -12.182  10.029  63.661  1.00  0.00     7.764 C  
ENDBRANCH  27  29
ENDBRANCH  26  27
ENDBRANCH  25  26
ENDBRANCH  23  25
ENDBRANCH   4  23
BRANCH   4  31
HETATM   31  O   UNL     1     -10.719  12.170  67.033  1.00  0.00    -0.226 OA 
BRANCH  31  32
HETATM   32  C   UNL     1     -11.810  11.350  67.263  1.00  0.00     0.119 C  
HETATM   33  O   UNL     1     -12.783  11.640  67.940  1.00  0.00     0.757 OA 
BRANCH  32  34
HETATM   34  O   UNL     1     -11.778  10.241  66.448  1.00  0.00     0.782 OA 
BRANCH  34  35
HETATM   35  C   UNL     1     -10.428   9.875  66.066  1.00  0.00    -0.042 C  
HETATM   36  C   UNL     1      -9.505  11.057  65.814  1.00  0.00    -0.242 C  
ENDBRANCH  34  35
ENDBRANCH  32  34
ENDBRANCH  31  32
ENDBRANCH   4  31
TORSDOF 9
ENDMDL
MODEL      155
REMARK 921   NORMALIZED FREE ENERGY PREDICTED BY IDOCK:   37.63 KCAL/MOL
REMARK 922        TOTAL FREE ENERGY PREDICTED BY IDOCK:   57.56 KCAL/MOL
REMARK 923 INTER-LIGAND FREE ENERGY PREDICTED BY IDOCK:   47.53 KCAL/MOL
REMARK 924 INTRA-LIGAND FREE ENERGY PREDICTED BY IDOCK:   10.03 KCAL/MOL
REMARK 927      BINDING AFFINITY PREDICTED BY RF-SCORE:    0.00 PKD
ROOT
HETATM    1  C   UNL     1     -12.109  12.404  66.999  1.00  0.00    -0.081 C  
HETATM    2  C   UNL     1     -12.095  12.324  68.416  1.00  0.00    -0.107 C  
HETATM    3  C   UNL     1     -11.136  13.245  67.739  1.00  0.00    -0.289 C  
HETATM    4  C   UNL     1     -11.493  13.761  65.748  1.00  0.00    -0.318 C  
HETATM    5  C   UNL     1      -7.933  11.301  64.506  1.00  0.00     0.832 C  
HETATM    6  C   UNL     1      -7.996  11.179  66.032  1.00  0.00    -0.041 C  
HETATM    7  C   UNL     1     -11.841  14.319  66.957  1.00  0.00    -0.455 C  
HETATM    8  C   UNL     1      -6.703  11.583  66.872  1.00  0.00    -0.139 C  
HETATM    9  C   UNL     1     -13.087  15.096  67.316  1.00  0.00     3.026 C  
HETATM   10  C   UNL     1     -10.020  14.893  67.012  1.00  0.00    -0.240 C  
HETATM   11  O   UNL     1      -5.145   9.374  65.953  1.00  0.00    -0.035 OA 
HETATM   12  C   UNL     1      -5.998  10.808  67.713  1.00  0.00    -0.043 C  
HETATM   13  C   UNL     1      -6.034   9.609  66.760  1.00  0.00    -0.059 C  
HETATM   14  C   UNL     1      -7.319   8.900  66.789  1.00  0.00    -0.082 C  
HETATM   15  C   UNL     1      -8.986  13.746  66.273  1.00  0.00     0.130 C  
HETATM   16  C   UNL     1      -8.312   9.691  66.346  1.00  0.00    -0.120 C  
HETATM   17  C   UNL     1      -9.694   9.157  66.092  1.00  0.00    -0.357 C  
HETATM   18  C   UNL     1      -9.134  12.103  66.583  1.00  0.00    -0.206 C  
HETATM   19  O   UNL     1      -9.089  14.011  64.865  1.00  0.00     0.592 OA 
HETATM   20  C   UNL     1     -10.778  10.019  66.718  1.00  0.00    -0.172 C  
HETATM   21  C   UNL     1     -10.663  11.491  66.311  1.00  0.00    -0.321 C  
HETATM   22  H   UNL     1      -8.516  13.374  64.455  1.00  0.00     0.000 HD 
ENDROOT
BRANCH   4  23
HETATM   23  C   UNL     1     -11.479  15.383  64.875  1.00  0.00    -0.311 C  
HETATM   24  O   UNL     1     -12.535  15.953  64.530  1.00  0.00    -0.018 OA 
BRANCH  23  25
HETATM   25  C   UNL     1     -10.174  16.194  64.369  1.00  0.00     1.707 C  
BRANCH  25  26
HETATM   26  O   UNL     1      -8.912  15.711  65.117  1.00  0.00     0.493 OA 
BRANCH  26  27
HETATM   27  C   UNL     1      -7.651  15.777  64.555  1.00  0.00    12.083 C  
HETATM   28  O   UNL     1      -6.933  14.792  64.427  1.00  0.00    15.340 OA 
BRANCH  27  29
HETATM   29  C   UNL     1      -7.209  17.201  64.093  1.00  0.00     9.583 C  
HETATM   30  C   UNL     1      -7.657  18.339  65.038  1.00  0.00     1.923 C  
ENDBRANCH  27  29
ENDBRANCH  26  27
ENDBRANCH  25  26
ENDBRANCH  23  25
ENDBRANCH   4  23
BRANCH   4  31
HETATM   31  O   UNL     1     -12.909  13.378  65.072  1.00  0.00    -0.685 OA 
BRANCH  31  32
HETATM   32  C   UNL     1     -13.121  13.006  63.757  1.00  0.00     0.640 C  
HETATM   33  O   UNL     1     -13.535  13.740  62.873  1.00  0.00     1.613 OA 
BRANCH  32  34
HETATM   34  O   UNL     1     -12.593  11.762  63.500  1.00  0.00    -0.523 OA 
BRANCH  34  35
HETATM   35  C   UNL     1     -11.391  11.828  62.692  1.00  0.00     0.975 C  
HETATM   36  C   UNL     1     -10.645  13.151  62.785  1.00  0.00     3.194 C  
ENDBRANCH  34  35
ENDBRANCH  32  34
ENDBRANCH  31  32
ENDBRANCH   4  31
TORSDOF 9
ENDMDL
