MODEL        1
REMARK 921   NORMALIZED FREE ENERGY PREDICTED BY IDOCK:   -6.80 KCAL/MOL
REMARK 922        TOTAL FREE ENERGY PREDICTED BY IDOCK:   -6.29 KCAL/MOL
REMARK 923 INTER-LIGAND FREE ENERGY PREDICTED BY IDOCK:   -7.19 KCAL/MOL
REMARK 924 INTRA-LIGAND FREE ENERGY PREDICTED BY IDOCK:    0.90 KCAL/MOL
REMARK 927      BINDING AFFINITY PREDICTED BY RF-SCORE:    0.00 PKD
ROOT
HETATM    1  C   UNL     1     -11.642  16.007  68.804  1.00  0.00    -0.352 C  
HETATM    2  C   UNL     1     -10.827  16.449  69.882  1.00  0.00    -0.333 C  
HETATM    3  C   UNL     1      -9.953  15.730  68.900  1.00  0.00    -0.223 C  
HETATM    4  C   UNL     1     -10.936  15.326  67.153  1.00  0.00    -0.331 C  
HETATM    5  C   UNL     1     -11.530  11.366  67.304  1.00  0.00    -0.301 C  
HETATM    6  C   UNL     1     -10.445  16.575  67.454  1.00  0.00    -0.310 C  
HETATM    7  C   UNL     1      -8.900  15.600  67.030  1.00  0.00    -0.250 C  
HETATM    8  C   UNL     1     -10.622  17.999  67.038  1.00  0.00    -0.320 C  
HETATM    9  C   UNL     1     -10.655  11.702  68.525  1.00  0.00    -0.241 C  
HETATM   10  H   UNL     1      -8.481   8.625  70.866  1.00  0.00     0.000 HD 
HETATM   11  C   UNL     1      -9.118  13.837  67.436  1.00  0.00    -0.221 C  
HETATM   12  C   UNL     1     -10.304  13.251  68.574  1.00  0.00    -0.244 C  
HETATM   13  C   UNL     1     -11.719  14.153  68.958  1.00  0.00    -0.361 C  
HETATM   14  C   UNL     1     -12.230  13.703  70.329  1.00  0.00    -0.423 C  
HETATM   15  C   UNL     1     -12.096  12.229  70.567  1.00  0.00    -0.371 C  
HETATM   16  C   UNL     1     -11.425  11.330  69.815  1.00  0.00    -0.386 C  
HETATM   17  C   UNL     1     -11.447   9.876  70.272  1.00  0.00    -0.349 C  
HETATM   18  C   UNL     1     -10.200   9.034  69.981  1.00  0.00    -0.203 C  
HETATM   19  C   UNL     1      -9.522   9.371  68.659  1.00  0.00    -0.147 C  
HETATM   20  O   UNL     1      -9.253   9.148  71.047  1.00  0.00    -0.244 OA 
HETATM   21  C   UNL     1      -9.338  10.879  68.456  1.00  0.00    -0.181 C  
ENDROOT
BRANCH   4  22
HETATM   22  C   UNL     1     -10.840  15.284  65.531  1.00  0.00    -0.372 C  
HETATM   23  C   UNL     1     -11.017  13.959  64.802  1.00  0.00    -0.407 C  
HETATM   24  O   UNL     1     -10.483  16.252  64.853  1.00  0.00    -0.624 OA 
ENDBRANCH   4  22
TORSDOF 1
ENDMDL
MODEL        2
REMARK 921   NORMALIZED FREE ENERGY PREDICTED BY IDOCK:   -6.63 KCAL/MOL
REMARK 922        TOTAL FREE ENERGY PREDICTED BY IDOCK:   -6.12 KCAL/MOL
REMARK 923 INTER-LIGAND FREE ENERGY PREDICTED BY IDOCK:   -6.91 KCAL/MOL
REMARK 924 INTRA-LIGAND FREE ENERGY PREDICTED BY IDOCK:    0.79 KCAL/MOL
REMARK 927      BINDING AFFINITY PREDICTED BY RF-SCORE:    0.00 PKD
ROOT
HETATM    1  C   UNL     1     -11.937   7.971  72.310  1.00  0.00    -0.412 C  
HETATM    2  C   UNL     1     -13.277   7.653  71.953  1.00  0.00    -0.293 C  
HETATM    3  C   UNL     1     -12.377   7.215  70.836  1.00  0.00    -0.335 C  
HETATM    4  C   UNL     1     -10.403   7.318  71.358  1.00  0.00    -0.212 C  
HETATM    5  C   UNL     1      -9.043  10.457  69.270  1.00  0.00    -0.188 C  
HETATM    6  C   UNL     1     -11.227   6.300  71.778  1.00  0.00    -0.334 C  
HETATM    7  C   UNL     1     -10.924   5.886  69.974  1.00  0.00    -0.430 C  
HETATM    8  C   UNL     1     -11.286   5.245  72.833  1.00  0.00    -0.368 C  
HETATM    9  C   UNL     1     -10.491  10.237  68.796  1.00  0.00    -0.222 C  
HETATM   10  H   UNL     1     -12.141  12.089  65.118  1.00  0.00     0.000 HD 
HETATM   11  C   UNL     1     -10.637   7.402  69.003  1.00  0.00    -0.203 C  
HETATM   12  C   UNL     1     -11.152   8.987  69.519  1.00  0.00    -0.039 C  
HETATM   13  C   UNL     1     -11.429   9.358  71.177  1.00  0.00    -0.422 C  
HETATM   14  C   UNL     1     -12.380  10.556  71.260  1.00  0.00    -0.502 C  
HETATM   15  C   UNL     1     -12.131  11.594  70.207  1.00  0.00    -0.443 C  
HETATM   16  C   UNL     1     -11.326  11.498  69.127  1.00  0.00    -0.351 C  
HETATM   17  C   UNL     1     -11.242  12.707  68.204  1.00  0.00    -0.311 C  
HETATM   18  C   UNL     1     -11.024  12.433  66.713  1.00  0.00    -0.263 C  
HETATM   19  C   UNL     1     -10.124  11.237  66.428  1.00  0.00    -0.260 C  
HETATM   20  O   UNL     1     -12.276  12.259  66.043  1.00  0.00    -0.646 OA 
HETATM   21  C   UNL     1     -10.499  10.004  67.258  1.00  0.00    -0.313 C  
ENDROOT
BRANCH   4  22
HETATM   22  C   UNL     1      -8.950   6.594  71.282  1.00  0.00    -0.144 C  
HETATM   23  C   UNL     1      -7.709   7.429  70.996  1.00  0.00    -0.091 C  
HETATM   24  O   UNL     1      -8.807   5.368  71.299  1.00  0.00    -0.128 OA 
ENDBRANCH   4  22
TORSDOF 1
ENDMDL
MODEL        3
REMARK 921   NORMALIZED FREE ENERGY PREDICTED BY IDOCK:   -6.61 KCAL/MOL
REMARK 922        TOTAL FREE ENERGY PREDICTED BY IDOCK:   -6.09 KCAL/MOL
REMARK 923 INTER-LIGAND FREE ENERGY PREDICTED BY IDOCK:   -6.88 KCAL/MOL
REMARK 924 INTRA-LIGAND FREE ENERGY PREDICTED BY IDOCK:    0.79 KCAL/MOL
REMARK 927      BINDING AFFINITY PREDICTED BY RF-SCORE:    0.00 PKD
ROOT
HETATM    1  C   UNL     1     -10.613  12.963  64.130  1.00  0.00    -0.442 C  
HETATM    2  C   UNL     1     -11.816  12.470  63.551  1.00  0.00    -0.616 C  
HETATM    3  C   UNL     1     -12.061  12.707  65.011  1.00  0.00    -0.497 C  
HETATM    4  C   UNL     1     -10.518  13.717  65.893  1.00  0.00    -0.297 C  
HETATM    5  C   UNL     1      -8.730  10.922  68.141  1.00  0.00    -0.133 C  
HETATM    6  C   UNL     1     -11.459  14.342  65.110  1.00  0.00    -0.362 C  
HETATM    7  C   UNL     1     -12.391  13.995  66.700  1.00  0.00    -0.408 C  
HETATM    8  C   UNL     1     -11.643  15.612  64.345  1.00  0.00    -0.250 C  
HETATM    9  C   UNL     1      -9.995  10.253  67.573  1.00  0.00    -0.226 C  
HETATM   10  H   UNL     1     -11.638   6.449  69.155  1.00  0.00     0.000 HD 
HETATM   11  C   UNL     1     -11.740  12.502  67.516  1.00  0.00    -0.439 C  
HETATM   12  C   UNL     1     -10.833  11.266  66.682  1.00  0.00    -0.325 C  
HETATM   13  C   UNL     1      -9.982  11.593  65.222  1.00  0.00    -0.292 C  
HETATM   14  C   UNL     1      -9.794  10.279  64.459  1.00  0.00    -0.384 C  
HETATM   15  C   UNL     1      -9.501   9.106  65.345  1.00  0.00    -0.231 C  
HETATM   16  C   UNL     1      -9.576   9.051  66.692  1.00  0.00    -0.274 C  
HETATM   17  C   UNL     1      -9.218   7.730  67.362  1.00  0.00    -0.156 C  
HETATM   18  C   UNL     1      -9.966   7.376  68.651  1.00  0.00    -0.169 C  
HETATM   19  C   UNL     1     -10.281   8.576  69.534  1.00  0.00    -0.206 C  
HETATM   20  O   UNL     1     -11.174   6.669  68.356  1.00  0.00    -0.230 OA 
HETATM   21  C   UNL     1     -10.880   9.747  68.747  1.00  0.00    -0.219 C  
ENDROOT
BRANCH   4  22
HETATM   22  C   UNL     1     -10.097  14.882  66.946  1.00  0.00    -0.242 C  
HETATM   23  C   UNL     1      -8.907  14.664  67.870  1.00  0.00    -0.170 C  
HETATM   24  O   UNL     1     -10.782  15.889  67.144  1.00  0.00    -0.316 OA 
ENDBRANCH   4  22
TORSDOF 1
ENDMDL
MODEL        4
REMARK 921   NORMALIZED FREE ENERGY PREDICTED BY IDOCK:   -6.60 KCAL/MOL
REMARK 922        TOTAL FREE ENERGY PREDICTED BY IDOCK:   -6.09 KCAL/MOL
REMARK 923 INTER-LIGAND FREE ENERGY PREDICTED BY IDOCK:   -6.88 KCAL/MOL
REMARK 924 INTRA-LIGAND FREE ENERGY PREDICTED BY IDOCK:    0.79 KCAL/MOL
REMARK 927      BINDING AFFINITY PREDICTED BY RF-SCORE:    0.00 PKD
ROOT
HETATM    1  C   UNL     1     -11.077  11.833  65.786  1.00  0.00    -0.351 C  
HETATM    2  C   UNL     1      -9.982  11.562  64.920  1.00  0.00    -0.303 C  
HETATM    3  C   UNL     1      -9.434  11.991  66.247  1.00  0.00    -0.237 C  
HETATM    4  C   UNL     1     -10.889  12.098  67.679  1.00  0.00    -0.272 C  
HETATM    5  C   UNL     1     -11.361  16.037  68.244  1.00  0.00    -0.326 C  
HETATM    6  C   UNL     1     -10.346  10.905  67.264  1.00  0.00    -0.255 C  
HETATM    7  C   UNL     1      -8.986  11.646  68.321  1.00  0.00    -0.185 C  
HETATM    8  C   UNL     1     -10.657   9.444  67.284  1.00  0.00    -0.314 C  
HETATM    9  C   UNL     1     -10.165  15.895  67.285  1.00  0.00    -0.278 C  
HETATM   10  H   UNL     1      -7.351  19.212  66.416  1.00  0.00     0.000 HD 
HETATM   11  C   UNL     1      -9.051  13.467  68.271  1.00  0.00    -0.189 C  
HETATM   12  C   UNL     1      -9.834  14.368  66.998  1.00  0.00    -0.252 C  
HETATM   13  C   UNL     1     -11.081  13.678  66.032  1.00  0.00    -0.297 C  
HETATM   14  C   UNL     1     -11.153  14.442  64.706  1.00  0.00    -0.402 C  
HETATM   15  C   UNL     1     -10.935  15.918  64.850  1.00  0.00    -0.427 C  
HETATM   16  C   UNL     1     -10.509  16.586  65.944  1.00  0.00    -0.335 C  
HETATM   17  C   UNL     1     -10.374  18.100  65.834  1.00  0.00    -0.284 C  
HETATM   18  C   UNL     1      -9.262  18.763  66.653  1.00  0.00    -0.329 C  
HETATM   19  C   UNL     1      -9.014  18.108  68.005  1.00  0.00    -0.289 C  
HETATM   20  O   UNL     1      -8.041  18.800  65.909  1.00  0.00    -0.476 OA 
HETATM   21  C   UNL     1      -8.918  16.581  67.913  1.00  0.00    -0.205 C  
ENDROOT
BRANCH   4  22
HETATM   22  C   UNL     1     -11.282  11.794  69.227  1.00  0.00    -0.256 C  
HETATM   23  C   UNL     1     -12.083  12.822  70.014  1.00  0.00    -0.355 C  
HETATM   24  O   UNL     1     -10.840  10.829  69.856  1.00  0.00    -0.261 OA 
ENDBRANCH   4  22
TORSDOF 1
ENDMDL
MODEL        5
REMARK 921   NORMALIZED FREE ENERGY PREDICTED BY IDOCK:   -6.45 KCAL/MOL
REMARK 922        TOTAL FREE ENERGY PREDICTED BY IDOCK:   -5.93 KCAL/MOL
REMARK 923 INTER-LIGAND FREE ENERGY PREDICTED BY IDOCK:   -6.77 KCAL/MOL
REMARK 924 INTRA-LIGAND FREE ENERGY PREDICTED BY IDOCK:    0.84 KCAL/MOL
REMARK 927      BINDING AFFINITY PREDICTED BY RF-SCORE:    0.00 PKD
ROOT
HETATM    1  C   UNL     1     -11.503  16.187  68.680  1.00  0.00    -0.340 C  
HETATM    2  C   UNL     1     -10.546  16.512  69.681  1.00  0.00    -0.302 C  
HETATM    3  C   UNL     1      -9.827  15.859  68.539  1.00  0.00    -0.210 C  
HETATM    4  C   UNL     1     -11.032  15.636  66.903  1.00  0.00    -0.243 C  
HETATM    5  C   UNL     1     -11.748  11.694  66.796  1.00  0.00    -0.099 C  
HETATM    6  C   UNL     1     -10.462  16.840  67.242  1.00  0.00    -0.310 C  
HETATM    7  C   UNL     1      -9.017  15.866  66.547  1.00  0.00    -0.331 C  
HETATM    8  C   UNL     1     -10.636  18.299  66.973  1.00  0.00    -0.375 C  
HETATM    9  C   UNL     1     -10.717  11.899  67.921  1.00  0.00    -0.239 C  
HETATM   10  H   UNL     1      -8.386   8.574  69.704  1.00  0.00     0.000 HD 
HETATM   11  C   UNL     1      -9.249  14.080  66.829  1.00  0.00    -0.280 C  
HETATM   12  C   UNL     1     -10.306  13.428  68.054  1.00  0.00    -0.242 C  
HETATM   13  C   UNL     1     -11.629  14.330  68.687  1.00  0.00    -0.352 C  
HETATM   14  C   UNL     1     -11.984  13.775  70.070  1.00  0.00    -0.407 C  
HETATM   15  C   UNL     1     -11.875  12.283  70.165  1.00  0.00    -0.352 C  
HETATM   16  C   UNL     1     -11.336  11.436  69.262  1.00  0.00    -0.355 C  
HETATM   17  C   UNL     1     -11.355   9.949  69.595  1.00  0.00    -0.212 C  
HETATM   18  C   UNL     1     -10.186   9.103  69.079  1.00  0.00    -0.207 C  
HETATM   19  C   UNL     1      -9.663   9.536  67.716  1.00  0.00    -0.176 C  
HETATM   20  O   UNL     1      -9.111   9.099  70.024  1.00  0.00    -0.163 OA 
HETATM   21  C   UNL     1      -9.450  11.051  67.618  1.00  0.00    -0.173 C  
ENDROOT
BRANCH   4  22
HETATM   22  C   UNL     1     -11.137  15.734  65.283  1.00  0.00    -0.273 C  
HETATM   23  C   UNL     1     -11.614  14.526  64.488  1.00  0.00    -0.385 C  
HETATM   24  O   UNL     1     -10.710  16.695  64.638  1.00  0.00    -0.742 OA 
ENDBRANCH   4  22
TORSDOF 1
ENDMDL
MODEL        6
REMARK 921   NORMALIZED FREE ENERGY PREDICTED BY IDOCK:   -6.43 KCAL/MOL
REMARK 922        TOTAL FREE ENERGY PREDICTED BY IDOCK:   -5.90 KCAL/MOL
REMARK 923 INTER-LIGAND FREE ENERGY PREDICTED BY IDOCK:   -6.69 KCAL/MOL
REMARK 924 INTRA-LIGAND FREE ENERGY PREDICTED BY IDOCK:    0.79 KCAL/MOL
REMARK 927      BINDING AFFINITY PREDICTED BY RF-SCORE:    0.00 PKD
ROOT
HETATM    1  C   UNL     1     -10.896  11.019  65.412  1.00  0.00    -0.168 C  
HETATM    2  C   UNL     1      -9.805  10.884  64.510  1.00  0.00    -0.356 C  
HETATM    3  C   UNL     1      -9.258  11.264  65.853  1.00  0.00    -0.229 C  
HETATM    4  C   UNL     1     -10.685  11.174  67.314  1.00  0.00    -0.304 C  
HETATM    5  C   UNL     1     -11.418  15.025  68.147  1.00  0.00    -0.355 C  
HETATM    6  C   UNL     1     -10.069  10.052  66.812  1.00  0.00    -0.286 C  
HETATM    7  C   UNL     1      -8.741  10.819  67.892  1.00  0.00    -0.129 C  
HETATM    8  C   UNL     1     -10.276   8.574  66.741  1.00  0.00    -0.370 C  
HETATM    9  C   UNL     1     -10.237  15.031  67.160  1.00  0.00    -0.249 C  
HETATM   10  H   UNL     1      -7.682  18.589  66.461  1.00  0.00     0.000 HD 
HETATM   11  C   UNL     1      -8.934  12.630  67.963  1.00  0.00    -0.200 C  
HETATM   12  C   UNL     1      -9.807  13.553  66.767  1.00  0.00    -0.267 C  
HETATM   13  C   UNL     1     -11.023  12.840  65.779  1.00  0.00    -0.306 C  
HETATM   14  C   UNL     1     -11.178  13.681  64.508  1.00  0.00    -0.395 C  
HETATM   15  C   UNL     1     -11.061  15.157  64.746  1.00  0.00    -0.395 C  
HETATM   16  C   UNL     1     -10.658  15.781  65.873  1.00  0.00    -0.350 C  
HETATM   17  C   UNL     1     -10.633  17.304  65.861  1.00  0.00    -0.206 C  
HETATM   18  C   UNL     1      -9.551  17.991  66.702  1.00  0.00    -0.315 C  
HETATM   19  C   UNL     1      -9.228  17.269  68.003  1.00  0.00    -0.256 C  
HETATM   20  O   UNL     1      -8.353  18.163  65.940  1.00  0.00    -0.513 OA 
HETATM   21  C   UNL     1      -9.027  15.762  67.809  1.00  0.00    -0.176 C  
ENDROOT
BRANCH   4  22
HETATM   22  C   UNL     1     -11.020  10.744  68.845  1.00  0.00    -0.241 C  
HETATM   23  C   UNL     1     -11.885  11.652  69.708  1.00  0.00    -0.428 C  
HETATM   24  O   UNL     1     -10.489   9.781  69.406  1.00  0.00    -0.199 OA 
ENDBRANCH   4  22
TORSDOF 1
ENDMDL
MODEL        7
REMARK 921   NORMALIZED FREE ENERGY PREDICTED BY IDOCK:   -6.25 KCAL/MOL
REMARK 922        TOTAL FREE ENERGY PREDICTED BY IDOCK:   -5.71 KCAL/MOL
REMARK 923 INTER-LIGAND FREE ENERGY PREDICTED BY IDOCK:   -6.56 KCAL/MOL
REMARK 924 INTRA-LIGAND FREE ENERGY PREDICTED BY IDOCK:    0.85 KCAL/MOL
REMARK 927      BINDING AFFINITY PREDICTED BY RF-SCORE:    0.00 PKD
ROOT
HETATM    1  C   UNL     1     -12.031  13.116  68.098  1.00  0.00    -0.333 C  
HETATM    2  C   UNL     1     -11.619  14.160  68.972  1.00  0.00    -0.342 C  
HETATM    3  C   UNL     1     -10.394  13.445  68.487  1.00  0.00    -0.240 C  
HETATM    4  C   UNL     1     -10.820  12.135  66.977  1.00  0.00    -0.289 C  
HETATM    5  C   UNL     1     -10.447   8.544  68.715  1.00  0.00    -0.208 C  
HETATM    6  C   UNL     1     -10.731  13.493  66.775  1.00  0.00    -0.278 C  
HETATM    7  C   UNL     1      -8.940  12.974  66.976  1.00  0.00    -0.225 C  
HETATM    8  C   UNL     1     -11.150  14.526  65.782  1.00  0.00    -0.324 C  
HETATM    9  C   UNL     1      -9.986   9.566  69.770  1.00  0.00    -0.234 C  
HETATM   10  H   UNL     1      -7.725   8.434  73.413  1.00  0.00     0.000 HD 
HETATM   11  C   UNL     1      -8.809  11.515  68.060  1.00  0.00    -0.158 C  
HETATM   12  C   UNL     1     -10.044  11.048  69.200  1.00  0.00    -0.167 C  
HETATM   13  C   UNL     1     -11.686  11.530  69.009  1.00  0.00    -0.400 C  
HETATM   14  C   UNL     1     -12.373  11.482  70.376  1.00  0.00    -0.390 C  
HETATM   15  C   UNL     1     -11.942  10.325  71.226  1.00  0.00    -0.457 C  
HETATM   16  C   UNL     1     -10.917   9.474  71.002  1.00  0.00    -0.424 C  
HETATM   17  C   UNL     1     -10.688   8.367  72.024  1.00  0.00    -0.387 C  
HETATM   18  C   UNL     1      -9.241   7.918  72.254  1.00  0.00    -0.165 C  
HETATM   19  C   UNL     1      -8.380   7.938  70.998  1.00  0.00    -0.112 C  
HETATM   20  O   UNL     1      -8.622   8.712  73.271  1.00  0.00    -0.375 OA 
HETATM   21  C   UNL     1      -8.528   9.239  70.200  1.00  0.00    -0.206 C  
ENDROOT
BRANCH   4  22
HETATM   22  C   UNL     1     -10.346  11.529  65.545  1.00  0.00    -0.273 C  
HETATM   23  C   UNL     1     -10.158  10.026  65.390  1.00  0.00    -0.317 C  
HETATM   24  O   UNL     1      -9.983  12.238  64.601  1.00  0.00    -0.256 OA 
ENDBRANCH   4  22
TORSDOF 1
ENDMDL
MODEL        8
REMARK 921   NORMALIZED FREE ENERGY PREDICTED BY IDOCK:   -6.24 KCAL/MOL
REMARK 922        TOTAL FREE ENERGY PREDICTED BY IDOCK:   -5.71 KCAL/MOL
REMARK 923 INTER-LIGAND FREE ENERGY PREDICTED BY IDOCK:   -6.51 KCAL/MOL
REMARK 924 INTRA-LIGAND FREE ENERGY PREDICTED BY IDOCK:    0.80 KCAL/MOL
REMARK 927      BINDING AFFINITY PREDICTED BY RF-SCORE:    0.00 PKD
ROOT
HETATM    1  C   UNL     1     -11.168  10.816  70.573  1.00  0.00    -0.188 C  
HETATM    2  C   UNL     1     -12.496  10.308  70.584  1.00  0.00    -0.407 C  
HETATM    3  C   UNL     1     -11.702   9.521  69.585  1.00  0.00     0.199 C  
HETATM    4  C   UNL     1      -9.703   9.931  69.703  1.00  0.00    -0.252 C  
HETATM    5  C   UNL     1      -8.989  12.076  66.394  1.00  0.00    -0.161 C  
HETATM    6  C   UNL     1     -10.344   9.113  70.603  1.00  0.00    -0.306 C  
HETATM    7  C   UNL     1     -10.227   8.045  69.066  1.00  0.00    -0.217 C  
HETATM    8  C   UNL     1     -10.147   8.553  71.974  1.00  0.00    -0.386 C  
HETATM    9  C   UNL     1     -10.451  11.607  66.279  1.00  0.00    -0.286 C  
HETATM   10  H   UNL     1     -12.756  11.779  62.493  1.00  0.00     0.000 HD 
HETATM   11  C   UNL     1     -10.242   9.075  67.562  1.00  0.00    -0.302 C  
HETATM   12  C   UNL     1     -10.866  10.704  67.517  1.00  0.00    -0.351 C  
HETATM   13  C   UNL     1     -10.971  11.677  68.934  1.00  0.00    -0.282 C  
HETATM   14  C   UNL     1     -12.035  12.755  68.710  1.00  0.00    -0.278 C  
HETATM   15  C   UNL     1     -12.043  13.312  67.318  1.00  0.00    -0.341 C  
HETATM   16  C   UNL     1     -11.376  12.848  66.240  1.00  0.00    -0.364 C  
HETATM   17  C   UNL     1     -11.549  13.603  64.928  1.00  0.00    -0.360 C  
HETATM   18  C   UNL     1     -11.493  12.781  63.636  1.00  0.00    -0.481 C  
HETATM   19  C   UNL     1     -10.505  11.622  63.683  1.00  0.00    -0.483 C  
HETATM   20  O   UNL     1     -12.791  12.288  63.294  1.00  0.00    -0.719 OA 
HETATM   21  C   UNL     1     -10.628  10.792  64.966  1.00  0.00    -0.243 C  
ENDROOT
BRANCH   4  22
HETATM   22  C   UNL     1      -8.197   9.319  69.672  1.00  0.00    -0.126 C  
HETATM   23  C   UNL     1      -7.080  10.105  68.999  1.00  0.00    -0.072 C  
HETATM   24  O   UNL     1      -7.929   8.171  70.040  1.00  0.00    -0.100 OA 
ENDBRANCH   4  22
TORSDOF 1
ENDMDL
MODEL        9
REMARK 921   NORMALIZED FREE ENERGY PREDICTED BY IDOCK:   -6.22 KCAL/MOL
REMARK 922        TOTAL FREE ENERGY PREDICTED BY IDOCK:   -5.68 KCAL/MOL
REMARK 923 INTER-LIGAND FREE ENERGY PREDICTED BY IDOCK:   -6.54 KCAL/MOL
REMARK 924 INTRA-LIGAND FREE ENERGY PREDICTED BY IDOCK:    0.85 KCAL/MOL
REMARK 927      BINDING AFFINITY PREDICTED BY RF-SCORE:    0.00 PKD
ROOT
HETATM    1  C   UNL     1      -7.089  15.301  68.962  1.00  0.00    -0.141 C  
HETATM    2  C   UNL     1      -6.002  14.784  68.203  1.00  0.00    -0.146 C  
HETATM    3  C   UNL     1      -6.773  15.731  67.333  1.00  0.00    -0.228 C  
HETATM    4  C   UNL     1      -8.164  16.787  68.395  1.00  0.00    -0.224 C  
HETATM    5  C   UNL     1     -11.648  15.186  67.229  1.00  0.00    -0.231 C  
HETATM    6  C   UNL     1      -6.824  17.094  68.422  1.00  0.00    -0.191 C  
HETATM    7  C   UNL     1      -7.368  17.709  66.735  1.00  0.00    -0.245 C  
HETATM    8  C   UNL     1      -5.845  17.848  69.261  1.00  0.00    -0.221 C  
HETATM    9  C   UNL     1     -10.572  14.532  66.343  1.00  0.00    -0.302 C  
HETATM   10  H   UNL     1     -11.526  12.274  62.646  1.00  0.00     0.000 HD 
HETATM   11  C   UNL     1      -8.759  16.714  66.105  1.00  0.00    -0.322 C  
HETATM   12  C   UNL     1      -9.128  15.106  66.671  1.00  0.00    -0.310 C  
HETATM   13  C   UNL     1      -8.623  14.550  68.221  1.00  0.00    -0.171 C  
HETATM   14  C   UNL     1      -8.571  13.020  68.200  1.00  0.00    -0.188 C  
HETATM   15  C   UNL     1      -9.683  12.391  67.414  1.00  0.00    -0.193 C  
HETATM   16  C   UNL     1     -10.568  13.006  66.600  1.00  0.00    -0.275 C  
HETATM   17  C   UNL     1     -11.614  12.135  65.916  1.00  0.00    -0.425 C  
HETATM   18  C   UNL     1     -12.079  12.569  64.521  1.00  0.00    -0.425 C  
HETATM   19  C   UNL     1     -12.155  14.079  64.336  1.00  0.00    -0.486 C  
HETATM   20  O   UNL     1     -11.237  12.006  63.511  1.00  0.00    -0.417 OA 
HETATM   21  C   UNL     1     -10.904  14.801  64.848  1.00  0.00    -0.433 C  
ENDROOT
BRANCH   4  22
HETATM   22  C   UNL     1      -8.868  18.234  68.629  1.00  0.00    -0.275 C  
HETATM   23  C   UNL     1     -10.381  18.359  68.517  1.00  0.00    -0.326 C  
HETATM   24  O   UNL     1      -8.227  19.282  68.750  1.00  0.00    -0.360 OA 
ENDBRANCH   4  22
TORSDOF 1
ENDMDL
MODEL       10
REMARK 921   NORMALIZED FREE ENERGY PREDICTED BY IDOCK:   -6.19 KCAL/MOL
REMARK 922        TOTAL FREE ENERGY PREDICTED BY IDOCK:   -5.65 KCAL/MOL
REMARK 923 INTER-LIGAND FREE ENERGY PREDICTED BY IDOCK:   -6.45 KCAL/MOL
REMARK 924 INTRA-LIGAND FREE ENERGY PREDICTED BY IDOCK:    0.80 KCAL/MOL
REMARK 927      BINDING AFFINITY PREDICTED BY RF-SCORE:    0.00 PKD
ROOT
HETATM    1  C   UNL     1     -10.776  10.497  65.393  1.00  0.00    -0.038 C  
HETATM    2  C   UNL     1      -9.641  10.304  64.556  1.00  0.00    -0.378 C  
HETATM    3  C   UNL     1      -9.160  10.756  65.902  1.00  0.00    -0.208 C  
HETATM    4  C   UNL     1     -10.659  10.758  67.291  1.00  0.00    -0.304 C  
HETATM    5  C   UNL     1     -11.400  14.655  67.867  1.00  0.00    -0.332 C  
HETATM    6  C   UNL     1     -10.029   9.606  66.885  1.00  0.00    -0.272 C  
HETATM    7  C   UNL     1      -8.751  10.424  67.986  1.00  0.00    -0.123 C  
HETATM    8  C   UNL     1     -10.246   8.128  66.887  1.00  0.00    -0.387 C  
HETATM    9  C   UNL     1     -10.170  14.597  66.943  1.00  0.00    -0.262 C  
HETATM   10  H   UNL     1      -7.551  18.094  66.177  1.00  0.00     0.000 HD 
HETATM   11  C   UNL     1      -8.931  12.238  67.945  1.00  0.00    -0.186 C  
HETATM   12  C   UNL     1      -9.734  13.096  66.656  1.00  0.00    -0.261 C  
HETATM   13  C   UNL     1     -10.905  12.337  65.649  1.00  0.00    -0.321 C  
HETATM   14  C   UNL     1     -10.988  13.105  64.327  1.00  0.00    -0.428 C  
HETATM   15  C   UNL     1     -10.870  14.591  64.487  1.00  0.00    -0.239 C  
HETATM   16  C   UNL     1     -10.519  15.276  65.596  1.00  0.00    -0.377 C  
HETATM   17  C   UNL     1     -10.479  16.796  65.500  1.00  0.00    -0.254 C  
HETATM   18  C   UNL     1      -9.435  17.522  66.355  1.00  0.00    -0.259 C  
HETATM   19  C   UNL     1      -9.185  16.873  67.710  1.00  0.00    -0.230 C  
HETATM   20  O   UNL     1      -8.198  17.643  65.647  1.00  0.00    -0.501 OA 
HETATM   21  C   UNL     1      -8.988  15.356  67.611  1.00  0.00    -0.185 C  
ENDROOT
BRANCH   4  22
HETATM   22  C   UNL     1     -11.076  10.417  68.825  1.00  0.00    -0.250 C  
HETATM   23  C   UNL     1     -11.862  11.440  69.634  1.00  0.00    -0.431 C  
HETATM   24  O   UNL     1     -10.663   9.424  69.430  1.00  0.00    -0.223 OA 
ENDBRANCH   4  22
TORSDOF 1
ENDMDL
MODEL       11
REMARK 921   NORMALIZED FREE ENERGY PREDICTED BY IDOCK:   -6.13 KCAL/MOL
REMARK 922        TOTAL FREE ENERGY PREDICTED BY IDOCK:   -5.59 KCAL/MOL
REMARK 923 INTER-LIGAND FREE ENERGY PREDICTED BY IDOCK:   -6.49 KCAL/MOL
REMARK 924 INTRA-LIGAND FREE ENERGY PREDICTED BY IDOCK:    0.90 KCAL/MOL
REMARK 927      BINDING AFFINITY PREDICTED BY RF-SCORE:    0.00 PKD
ROOT
HETATM    1  C   UNL     1     -11.909  14.222  67.944  1.00  0.00    -0.393 C  
HETATM    2  C   UNL     1     -11.289  15.118  68.859  1.00  0.00    -0.314 C  
HETATM    3  C   UNL     1     -10.221  14.271  68.236  1.00  0.00    -0.244 C  
HETATM    4  C   UNL     1     -10.934  13.167  66.671  1.00  0.00    -0.301 C  
HETATM    5  C   UNL     1     -11.012   9.430  68.117  1.00  0.00    -0.102 C  
HETATM    6  C   UNL     1     -10.651  14.508  66.561  1.00  0.00    -0.297 C  
HETATM    7  C   UNL     1      -8.952  13.715  66.592  1.00  0.00    -0.138 C  
HETATM    8  C   UNL     1     -10.966  15.670  65.677  1.00  0.00    -0.276 C  
HETATM    9  C   UNL     1     -10.335  10.283  69.205  1.00  0.00    -0.241 C  
HETATM   10  H   UNL     1      -8.055   8.534  72.584  1.00  0.00     0.000 HD 
HETATM   11  C   UNL     1      -8.980  12.169  67.557  1.00  0.00    -0.177 C  
HETATM   12  C   UNL     1     -10.200  11.799  68.748  1.00  0.00    -0.175 C  
HETATM   13  C   UNL     1     -11.757  12.533  68.713  1.00  0.00    -0.371 C  
HETATM   14  C   UNL     1     -12.358  12.476  70.120  1.00  0.00    -0.210 C  
HETATM   15  C   UNL     1     -12.058  11.202  70.851  1.00  0.00    -0.427 C  
HETATM   16  C   UNL     1     -11.192  10.230  70.493  1.00  0.00    -0.408 C  
HETATM   17  C   UNL     1     -11.073   9.022  71.413  1.00  0.00    -0.399 C  
HETATM   18  C   UNL     1      -9.701   8.346  71.504  1.00  0.00    -0.210 C  
HETATM   19  C   UNL     1      -8.926   8.340  70.193  1.00  0.00    -0.142 C  
HETATM   20  O   UNL     1      -8.906   8.953  72.527  1.00  0.00    -0.381 OA 
HETATM   21  C   UNL     1      -8.921   9.709  69.503  1.00  0.00    -0.203 C  
ENDROOT
BRANCH   4  22
HETATM   22  C   UNL     1     -10.648  12.616  65.168  1.00  0.00    -0.298 C  
HETATM   23  C   UNL     1     -10.579  11.116  64.919  1.00  0.00    -0.356 C  
HETATM   24  O   UNL     1     -10.334  13.354  64.229  1.00  0.00    -0.420 OA 
ENDBRANCH   4  22
TORSDOF 1
ENDMDL
MODEL       12
REMARK 921   NORMALIZED FREE ENERGY PREDICTED BY IDOCK:   -6.11 KCAL/MOL
REMARK 922        TOTAL FREE ENERGY PREDICTED BY IDOCK:   -5.57 KCAL/MOL
REMARK 923 INTER-LIGAND FREE ENERGY PREDICTED BY IDOCK:   -6.38 KCAL/MOL
REMARK 924 INTRA-LIGAND FREE ENERGY PREDICTED BY IDOCK:    0.81 KCAL/MOL
REMARK 927      BINDING AFFINITY PREDICTED BY RF-SCORE:    0.00 PKD
ROOT
HETATM    1  C   UNL     1      -8.872  12.793  66.844  1.00  0.00    -0.194 C  
HETATM    2  C   UNL     1      -8.553  12.551  68.209  1.00  0.00    -0.173 C  
HETATM    3  C   UNL     1      -9.903  13.202  68.151  1.00  0.00    -0.228 C  
HETATM    4  C   UNL     1     -10.620  13.309  66.239  1.00  0.00    -0.294 C  
HETATM    5  C   UNL     1     -10.320  17.203  65.340  1.00  0.00    -0.038 C  
HETATM    6  C   UNL     1     -10.645  12.147  66.975  1.00  0.00    -0.256 C  
HETATM    7  C   UNL     1     -12.014  13.170  67.747  1.00  0.00    -0.352 C  
HETATM    8  C   UNL     1     -10.776  10.673  66.771  1.00  0.00    -0.272 C  
HETATM    9  C   UNL     1      -9.938  17.088  66.827  1.00  0.00    -0.297 C  
HETATM   10  H   UNL     1      -9.711  20.586  69.545  1.00  0.00     0.000 HD 
HETATM   11  C   UNL     1     -11.652  14.950  67.597  1.00  0.00    -0.357 C  
HETATM   12  C   UNL     1     -10.049  15.588  67.338  1.00  0.00    -0.246 C  
HETATM   13  C   UNL     1      -8.798  14.642  66.629  1.00  0.00    -0.240 C  
HETATM   14  C   UNL     1      -7.445  15.223  67.049  1.00  0.00    -0.125 C  
HETATM   15  C   UNL     1      -7.425  16.721  67.100  1.00  0.00    -0.216 C  
HETATM   16  C   UNL     1      -8.476  17.564  67.010  1.00  0.00    -0.252 C  
HETATM   17  C   UNL     1      -8.187  19.058  67.084  1.00  0.00    -0.286 C  
HETATM   18  C   UNL     1      -9.256  19.945  67.731  1.00  0.00    -0.338 C  
HETATM   19  C   UNL     1     -10.684  19.494  67.455  1.00  0.00    -0.589 C  
HETATM   20  O   UNL     1      -9.048  20.036  69.144  1.00  0.00    -0.022 OA 
HETATM   21  C   UNL     1     -10.882  17.990  67.672  1.00  0.00    -0.257 C  
ENDROOT
BRANCH   4  22
HETATM   22  C   UNL     1     -11.921  13.152  65.277  1.00  0.00    -0.398 C  
HETATM   23  C   UNL     1     -12.257  14.255  64.283  1.00  0.00    -0.451 C  
HETATM   24  O   UNL     1     -12.747  12.244  65.406  1.00  0.00    -0.500 OA 
ENDBRANCH   4  22
TORSDOF 1
ENDMDL
MODEL       13
REMARK 921   NORMALIZED FREE ENERGY PREDICTED BY IDOCK:   -6.11 KCAL/MOL
REMARK 922        TOTAL FREE ENERGY PREDICTED BY IDOCK:   -5.57 KCAL/MOL
REMARK 923 INTER-LIGAND FREE ENERGY PREDICTED BY IDOCK:   -6.37 KCAL/MOL
REMARK 924 INTRA-LIGAND FREE ENERGY PREDICTED BY IDOCK:    0.80 KCAL/MOL
REMARK 927      BINDING AFFINITY PREDICTED BY RF-SCORE:    0.00 PKD
ROOT
HETATM    1  C   UNL     1     -10.370   9.780  65.964  1.00  0.00    -0.184 C  
HETATM    2  C   UNL     1      -9.102   9.633  65.337  1.00  0.00    -0.265 C  
HETATM    3  C   UNL     1      -8.892  10.286  66.670  1.00  0.00    -0.148 C  
HETATM    4  C   UNL     1     -10.589  10.263  67.810  1.00  0.00    -0.296 C  
HETATM    5  C   UNL     1     -11.803  14.082  67.766  1.00  0.00    -0.419 C  
HETATM    6  C   UNL     1      -9.788   9.156  67.653  1.00  0.00    -0.217 C  
HETATM    7  C   UNL     1      -8.794  10.239  68.817  1.00  0.00    -0.148 C  
HETATM    8  C   UNL     1      -9.852   7.672  67.812  1.00  0.00    -0.196 C  
HETATM    9  C   UNL     1     -10.441  14.070  67.049  1.00  0.00    -0.275 C  
HETATM   10  H   UNL     1      -8.100  17.749  66.237  1.00  0.00     0.000 HD 
HETATM   11  C   UNL     1      -9.147  12.002  68.518  1.00  0.00    -0.107 C  
HETATM   12  C   UNL     1      -9.814  12.610  67.025  1.00  0.00    -0.225 C  
HETATM   13  C   UNL     1     -10.725  11.608  65.961  1.00  0.00    -0.328 C  
HETATM   14  C   UNL     1     -10.671  12.210  64.554  1.00  0.00    -0.353 C  
HETATM   15  C   UNL     1     -10.731  13.708  64.538  1.00  0.00    -0.420 C  
HETATM   16  C   UNL     1     -10.635  14.548  65.590  1.00  0.00    -0.343 C  
HETATM   17  C   UNL     1     -10.734  16.042  65.307  1.00  0.00    -0.417 C  
HETATM   18  C   UNL     1      -9.921  16.979  66.207  1.00  0.00    -0.310 C  
HETATM   19  C   UNL     1      -9.828  16.518  67.655  1.00  0.00    -0.247 C  
HETATM   20  O   UNL     1      -8.605  17.168  65.680  1.00  0.00    -0.470 OA 
HETATM   21  C   UNL     1      -9.465  15.034  67.782  1.00  0.00    -0.195 C  
ENDROOT
BRANCH   4  22
HETATM   22  C   UNL     1     -11.211  10.046  69.296  1.00  0.00    -0.166 C  
HETATM   23  C   UNL     1     -12.237  11.035  69.832  1.00  0.00    -0.408 C  
HETATM   24  O   UNL     1     -10.789   9.196  70.086  1.00  0.00    -0.228 OA 
ENDBRANCH   4  22
TORSDOF 1
ENDMDL
MODEL       14
REMARK 921   NORMALIZED FREE ENERGY PREDICTED BY IDOCK:   -5.96 KCAL/MOL
REMARK 922        TOTAL FREE ENERGY PREDICTED BY IDOCK:   -5.41 KCAL/MOL
REMARK 923 INTER-LIGAND FREE ENERGY PREDICTED BY IDOCK:   -6.49 KCAL/MOL
REMARK 924 INTRA-LIGAND FREE ENERGY PREDICTED BY IDOCK:    1.09 KCAL/MOL
REMARK 927      BINDING AFFINITY PREDICTED BY RF-SCORE:    0.00 PKD
ROOT
HETATM    1  C   UNL     1      -7.492  16.338  68.977  1.00  0.00    -0.220 C  
HETATM    2  C   UNL     1      -6.229  16.094  68.370  1.00  0.00    -0.113 C  
HETATM    3  C   UNL     1      -7.148  16.656  67.328  1.00  0.00    -0.208 C  
HETATM    4  C   UNL     1      -8.891  17.351  68.139  1.00  0.00    -0.253 C  
HETATM    5  C   UNL     1     -11.610  14.643  66.984  1.00  0.00    -0.385 C  
HETATM    6  C   UNL     1      -7.711  18.053  68.210  1.00  0.00    -0.285 C  
HETATM    7  C   UNL     1      -8.232  18.277  66.422  1.00  0.00    -0.276 C  
HETATM    8  C   UNL     1      -7.089  19.160  68.998  1.00  0.00    -0.377 C  
HETATM    9  C   UNL     1     -10.304  14.252  66.270  1.00  0.00    -0.297 C  
HETATM   10  H   UNL     1     -10.162  11.406  62.871  1.00  0.00     0.000 HD 
HETATM   11  C   UNL     1      -9.197  16.841  65.848  1.00  0.00    -0.142 C  
HETATM   12  C   UNL     1      -9.134  15.272  66.608  1.00  0.00    -0.312 C  
HETATM   13  C   UNL     1      -8.652  15.076  68.250  1.00  0.00    -0.156 C  
HETATM   14  C   UNL     1      -8.151  13.642  68.446  1.00  0.00    -0.146 C  
HETATM   15  C   UNL     1      -8.941  12.620  67.685  1.00  0.00    -0.186 C  
HETATM   16  C   UNL     1      -9.878  12.839  66.738  1.00  0.00    -0.242 C  
HETATM   17  C   UNL     1     -10.545  11.619  66.115  1.00  0.00    -0.306 C  
HETATM   18  C   UNL     1     -10.969  11.730  64.646  1.00  0.00    -0.310 C  
HETATM   19  C   UNL     1     -11.466  13.113  64.248  1.00  0.00    -0.428 C  
HETATM   20  O   UNL     1      -9.899  11.338  63.781  1.00  0.00    -0.263 OA 
HETATM   21  C   UNL     1     -10.542  14.236  64.734  1.00  0.00    -0.434 C  
ENDROOT
BRANCH   4  22
HETATM   22  C   UNL     1     -10.009  18.532  68.122  1.00  0.00    -0.361 C  
HETATM   23  C   UNL     1      -9.985  19.604  69.203  1.00  0.00    -0.416 C  
HETATM   24  O   UNL     1     -10.979  18.529  67.358  1.00  0.00    -0.376 OA 
ENDBRANCH   4  22
TORSDOF 1
ENDMDL
MODEL       15
REMARK 921   NORMALIZED FREE ENERGY PREDICTED BY IDOCK:   -5.93 KCAL/MOL
REMARK 922        TOTAL FREE ENERGY PREDICTED BY IDOCK:   -5.37 KCAL/MOL
REMARK 923 INTER-LIGAND FREE ENERGY PREDICTED BY IDOCK:   -6.53 KCAL/MOL
REMARK 924 INTRA-LIGAND FREE ENERGY PREDICTED BY IDOCK:    1.16 KCAL/MOL
REMARK 927      BINDING AFFINITY PREDICTED BY RF-SCORE:    0.00 PKD
ROOT
HETATM    1  C   UNL     1      -9.087  13.127  66.886  1.00  0.00    -0.231 C  
HETATM    2  C   UNL     1      -9.224  12.607  68.203  1.00  0.00    -0.209 C  
HETATM    3  C   UNL     1     -10.009  13.882  68.118  1.00  0.00    -0.240 C  
HETATM    4  C   UNL     1     -10.162  14.561  66.196  1.00  0.00    -0.317 C  
HETATM    5  C   UNL     1      -7.743  17.757  66.135  1.00  0.00    -0.280 C  
HETATM    6  C   UNL     1     -10.925  13.523  66.677  1.00  0.00    -0.293 C  
HETATM    7  C   UNL     1     -11.707  15.031  67.472  1.00  0.00    -0.270 C  
HETATM    8  C   UNL     1     -11.744  12.382  66.169  1.00  0.00    -0.460 C  
HETATM    9  C   UNL     1      -7.787  17.296  67.603  1.00  0.00    -0.192 C  
HETATM   10  H   UNL     1      -6.374  19.811  70.973  1.00  0.00     0.000 HD 
HETATM   11  C   UNL     1     -10.467  16.343  67.724  1.00  0.00    -0.300 C  
HETATM   12  C   UNL     1      -8.749  16.045  67.787  1.00  0.00    -0.170 C  
HETATM   13  C   UNL     1      -8.040  14.658  67.055  1.00  0.00    -0.153 C  
HETATM   14  C   UNL     1      -6.699  14.374  67.738  1.00  0.00    -0.191 C  
HETATM   15  C   UNL     1      -5.930  15.612  68.090  1.00  0.00    -0.138 C  
HETATM   16  C   UNL     1      -6.361  16.891  68.047  1.00  0.00    -0.151 C  
HETATM   17  C   UNL     1      -5.373  17.978  68.452  1.00  0.00    -0.157 C  
HETATM   18  C   UNL     1      -5.948  19.225  69.133  1.00  0.00    -0.250 C  
HETATM   19  C   UNL     1      -7.315  19.643  68.607  1.00  0.00    -0.375 C  
HETATM   20  O   UNL     1      -6.018  19.038  70.550  1.00  0.00    -0.185 OA 
HETATM   21  C   UNL     1      -8.291  18.466  68.495  1.00  0.00    -0.344 C  
ENDROOT
BRANCH   4  22
HETATM   22  C   UNL     1     -11.131  15.231  65.076  1.00  0.00    -0.426 C  
HETATM   23  C   UNL     1     -12.149  14.363  64.349  1.00  0.00    -0.491 C  
HETATM   24  O   UNL     1     -10.991  16.388  64.670  1.00  0.00    -0.707 OA 
ENDBRANCH   4  22
TORSDOF 1
ENDMDL
MODEL       16
REMARK 921   NORMALIZED FREE ENERGY PREDICTED BY IDOCK:   -5.83 KCAL/MOL
REMARK 922        TOTAL FREE ENERGY PREDICTED BY IDOCK:   -5.27 KCAL/MOL
REMARK 923 INTER-LIGAND FREE ENERGY PREDICTED BY IDOCK:   -6.10 KCAL/MOL
REMARK 924 INTRA-LIGAND FREE ENERGY PREDICTED BY IDOCK:    0.83 KCAL/MOL
REMARK 927      BINDING AFFINITY PREDICTED BY RF-SCORE:    0.00 PKD
ROOT
HETATM    1  C   UNL     1      -9.797   9.583  70.261  1.00  0.00    -0.313 C  
HETATM    2  C   UNL     1     -10.961   8.777  70.387  1.00  0.00    -0.262 C  
HETATM    3  C   UNL     1     -10.291   8.432  69.091  1.00  0.00    -0.229 C  
HETATM    4  C   UNL     1      -8.438   9.283  68.938  1.00  0.00    -0.129 C  
HETATM    5  C   UNL     1      -8.956  12.179  66.217  1.00  0.00    -0.094 C  
HETATM    6  C   UNL     1      -8.677   8.164  69.702  1.00  0.00    -0.142 C  
HETATM    7  C   UNL     1      -8.726   7.501  67.948  1.00  0.00    -0.124 C  
HETATM    8  C   UNL     1      -8.057   7.396  70.822  1.00  0.00    -0.110 C  
HETATM    9  C   UNL     1     -10.285  11.403  66.257  1.00  0.00    -0.274 C  
HETATM   10  H   UNL     1     -13.412  11.794  63.136  1.00  0.00     0.000 HD 
HETATM   11  C   UNL     1      -9.295   8.787  66.788  1.00  0.00    -0.229 C  
HETATM   12  C   UNL     1     -10.213  10.187  67.278  1.00  0.00    -0.273 C  
HETATM   13  C   UNL     1     -10.163  10.788  68.890  1.00  0.00    -0.219 C  
HETATM   14  C   UNL     1     -11.437  11.598  69.151  1.00  0.00    -0.364 C  
HETATM   15  C   UNL     1     -11.883  12.414  67.975  1.00  0.00    -0.376 C  
HETATM   16  C   UNL     1     -11.414  12.361  66.710  1.00  0.00    -0.423 C  
HETATM   17  C   UNL     1     -12.036  13.308  65.691  1.00  0.00    -0.455 C  
HETATM   18  C   UNL     1     -12.130  12.812  64.244  1.00  0.00    -0.425 C  
HETATM   19  C   UNL     1     -10.956  11.945  63.809  1.00  0.00    -0.494 C  
HETATM   20  O   UNL     1     -13.353  12.101  64.033  1.00  0.00    -0.706 OA 
HETATM   21  C   UNL     1     -10.608  10.861  64.836  1.00  0.00    -0.304 C  
ENDROOT
BRANCH   4  22
HETATM   22  C   UNL     1      -6.894   9.075  68.474  1.00  0.00    -0.064 C  
HETATM   23  C   UNL     1      -6.252  10.082  67.529  1.00  0.00    -0.058 C  
HETATM   24  O   UNL     1      -6.245   8.057  68.730  1.00  0.00    -0.038 OA 
ENDBRANCH   4  22
TORSDOF 1
ENDMDL
MODEL       17
REMARK 921   NORMALIZED FREE ENERGY PREDICTED BY IDOCK:   -5.78 KCAL/MOL
REMARK 922        TOTAL FREE ENERGY PREDICTED BY IDOCK:   -5.22 KCAL/MOL
REMARK 923 INTER-LIGAND FREE ENERGY PREDICTED BY IDOCK:   -6.02 KCAL/MOL
REMARK 924 INTRA-LIGAND FREE ENERGY PREDICTED BY IDOCK:    0.81 KCAL/MOL
REMARK 927      BINDING AFFINITY PREDICTED BY RF-SCORE:    0.00 PKD
ROOT
HETATM    1  C   UNL     1     -10.885   7.203  71.482  1.00  0.00    -0.250 C  
HETATM    2  C   UNL     1     -12.232   6.796  71.276  1.00  0.00    -0.415 C  
HETATM    3  C   UNL     1     -11.480   6.594  69.995  1.00  0.00    -0.434 C  
HETATM    4  C   UNL     1      -9.465   6.832  70.244  1.00  0.00    -0.164 C  
HETATM    5  C   UNL     1      -8.703  10.326  68.436  1.00  0.00    -0.129 C  
HETATM    6  C   UNL     1     -10.128   5.692  70.632  1.00  0.00    -0.274 C  
HETATM    7  C   UNL     1     -10.070   5.536  68.764  1.00  0.00    -0.256 C  
HETATM    8  C   UNL     1      -9.939   4.514  71.531  1.00  0.00    -0.259 C  
HETATM    9  C   UNL     1     -10.183  10.021  68.143  1.00  0.00    -0.205 C  
HETATM   10  H   UNL     1     -12.520  12.133  65.021  1.00  0.00     0.000 HD 
HETATM   11  C   UNL     1     -10.060   7.181  67.979  1.00  0.00    -0.201 C  
HETATM   12  C   UNL     1     -10.620   8.630  68.774  1.00  0.00    -0.169 C  
HETATM   13  C   UNL     1     -10.671   8.764  70.490  1.00  0.00    -0.259 C  
HETATM   14  C   UNL     1     -11.694   9.839  70.868  1.00  0.00    -0.429 C  
HETATM   15  C   UNL     1     -11.696  11.019  69.943  1.00  0.00    -0.424 C  
HETATM   16  C   UNL     1     -11.059  11.139  68.758  1.00  0.00    -0.291 C  
HETATM   17  C   UNL     1     -11.217  12.455  68.007  1.00  0.00    -0.317 C  
HETATM   18  C   UNL     1     -11.206  12.390  66.476  1.00  0.00    -0.319 C  
HETATM   19  C   UNL     1     -10.264  11.337  65.908  1.00  0.00    -0.298 C  
HETATM   20  O   UNL     1     -12.527  12.173  65.971  1.00  0.00    -0.421 OA 
HETATM   21  C   UNL     1     -10.406   9.979  66.605  1.00  0.00    -0.281 C  
ENDROOT
BRANCH   4  22
HETATM   22  C   UNL     1      -7.985   6.275  69.867  1.00  0.00    -0.115 C  
HETATM   23  C   UNL     1      -6.906   7.252  69.420  1.00  0.00    -0.050 C  
HETATM   24  O   UNL     1      -7.720   5.072  69.781  1.00  0.00    -0.062 OA 
ENDBRANCH   4  22
TORSDOF 1
ENDMDL
MODEL       18
REMARK 921   NORMALIZED FREE ENERGY PREDICTED BY IDOCK:   -5.70 KCAL/MOL
REMARK 922        TOTAL FREE ENERGY PREDICTED BY IDOCK:   -5.13 KCAL/MOL
REMARK 923 INTER-LIGAND FREE ENERGY PREDICTED BY IDOCK:   -6.30 KCAL/MOL
REMARK 924 INTRA-LIGAND FREE ENERGY PREDICTED BY IDOCK:    1.17 KCAL/MOL
REMARK 927      BINDING AFFINITY PREDICTED BY RF-SCORE:    0.00 PKD
ROOT
HETATM    1  C   UNL     1     -12.103  12.425  68.455  1.00  0.00    -0.126 C  
HETATM    2  C   UNL     1     -11.646  13.501  69.267  1.00  0.00    -0.369 C  
HETATM    3  C   UNL     1     -10.455  12.698  68.839  1.00  0.00    -0.109 C  
HETATM    4  C   UNL     1     -10.934  11.318  67.409  1.00  0.00    -0.337 C  
HETATM    5  C   UNL     1     -10.750   7.829  69.373  1.00  0.00    -0.177 C  
HETATM    6  C   UNL     1     -10.778  12.654  67.124  1.00  0.00    -0.264 C  
HETATM    7  C   UNL     1      -9.016  12.062  67.374  1.00  0.00    -0.176 C  
HETATM    8  C   UNL     1     -11.139  13.642  66.064  1.00  0.00    -0.297 C  
HETATM    9  C   UNL     1     -10.246   8.892  70.366  1.00  0.00    -0.236 C  
HETATM   10  H   UNL     1      -8.067   7.883  74.095  1.00  0.00     0.000 HD 
HETATM   11  C   UNL     1      -8.963  10.670  68.549  1.00  0.00    -0.156 C  
HETATM   12  C   UNL     1     -10.227  10.337  69.704  1.00  0.00    -0.268 C  
HETATM   13  C   UNL     1     -11.842  10.885  69.468  1.00  0.00    -0.404 C  
HETATM   14  C   UNL     1     -12.540  10.957  70.829  1.00  0.00    -0.470 C  
HETATM   15  C   UNL     1     -12.171   9.836  71.753  1.00  0.00    -0.449 C  
HETATM   16  C   UNL     1     -11.188   8.924  71.593  1.00  0.00    -0.415 C  
HETATM   17  C   UNL     1     -11.021   7.873  72.684  1.00  0.00    -0.440 C  
HETATM   18  C   UNL     1      -9.599   7.370  72.956  1.00  0.00    -0.194 C  
HETATM   19  C   UNL     1      -8.730   7.269  71.709  1.00  0.00    -0.123 C  
HETATM   20  O   UNL     1      -8.948   8.195  73.926  1.00  0.00    -0.242 OA 
HETATM   21  C   UNL     1      -8.808   8.522  70.830  1.00  0.00    -0.187 C  
ENDROOT
BRANCH   4  22
HETATM   22  C   UNL     1     -10.481  10.600  66.023  1.00  0.00    -0.183 C  
HETATM   23  C   UNL     1     -10.631  11.349  64.706  1.00  0.00    -0.377 C  
HETATM   24  O   UNL     1     -10.153   9.412  65.956  1.00  0.00    -0.300 OA 
ENDBRANCH   4  22
TORSDOF 1
ENDMDL
MODEL       19
REMARK 921   NORMALIZED FREE ENERGY PREDICTED BY IDOCK:   -5.66 KCAL/MOL
REMARK 922        TOTAL FREE ENERGY PREDICTED BY IDOCK:   -5.09 KCAL/MOL
REMARK 923 INTER-LIGAND FREE ENERGY PREDICTED BY IDOCK:   -5.91 KCAL/MOL
REMARK 924 INTRA-LIGAND FREE ENERGY PREDICTED BY IDOCK:    0.81 KCAL/MOL
REMARK 927      BINDING AFFINITY PREDICTED BY RF-SCORE:    0.00 PKD
ROOT
HETATM    1  C   UNL     1      -6.601  17.672  69.208  1.00  0.00    -0.233 C  
HETATM    2  C   UNL     1      -5.493  16.855  68.849  1.00  0.00    -0.134 C  
HETATM    3  C   UNL     1      -6.103  17.397  67.591  1.00  0.00    -0.159 C  
HETATM    4  C   UNL     1      -7.498  18.840  67.977  1.00  0.00    -0.273 C  
HETATM    5  C   UNL     1     -10.975  17.027  67.147  1.00  0.00     0.031 C  
HETATM    6  C   UNL     1      -6.147  19.085  68.035  1.00  0.00    -0.228 C  
HETATM    7  C   UNL     1      -6.483  18.985  66.192  1.00  0.00    -0.233 C  
HETATM    8  C   UNL     1      -5.193  20.078  68.613  1.00  0.00    -0.218 C  
HETATM    9  C   UNL     1      -9.877  16.034  66.725  1.00  0.00    -0.260 C  
HETATM   10  H   UNL     1     -10.660  12.512  64.146  1.00  0.00     0.000 HD 
HETATM   11  C   UNL     1      -7.884  17.870  65.852  1.00  0.00    -0.097 C  
HETATM   12  C   UNL     1      -8.428  16.641  66.964  1.00  0.00    -0.225 C  
HETATM   13  C   UNL     1      -8.114  16.740  68.654  1.00  0.00    -0.251 C  
HETATM   14  C   UNL     1      -8.181  15.330  69.249  1.00  0.00    -0.244 C  
HETATM   15  C   UNL     1      -9.261  14.477  68.654  1.00  0.00    -0.192 C  
HETATM   16  C   UNL     1     -10.016  14.742  67.566  1.00  0.00    -0.219 C  
HETATM   17  C   UNL     1     -11.060  13.707  67.167  1.00  0.00    -0.311 C  
HETATM   18  C   UNL     1     -11.359  13.557  65.672  1.00  0.00    -0.298 C  
HETATM   19  C   UNL     1     -11.299  14.866  64.895  1.00  0.00    -0.415 C  
HETATM   20  O   UNL     1     -10.475  12.605  65.073  1.00  0.00    -0.293 OA 
HETATM   21  C   UNL     1     -10.047  15.689  65.219  1.00  0.00    -0.305 C  
ENDROOT
BRANCH   4  22
HETATM   22  C   UNL     1      -8.105  20.282  67.533  1.00  0.00    -0.310 C  
HETATM   23  C   UNL     1      -9.608  20.440  67.353  1.00  0.00    -0.584 C  
HETATM   24  O   UNL     1      -7.397  21.232  67.188  1.00  0.00    -0.454 OA 
ENDBRANCH   4  22
TORSDOF 1
ENDMDL
MODEL       20
REMARK 921   NORMALIZED FREE ENERGY PREDICTED BY IDOCK:   -5.66 KCAL/MOL
REMARK 922        TOTAL FREE ENERGY PREDICTED BY IDOCK:   -5.09 KCAL/MOL
REMARK 923 INTER-LIGAND FREE ENERGY PREDICTED BY IDOCK:   -5.90 KCAL/MOL
REMARK 924 INTRA-LIGAND FREE ENERGY PREDICTED BY IDOCK:    0.81 KCAL/MOL
REMARK 927      BINDING AFFINITY PREDICTED BY RF-SCORE:    0.00 PKD
ROOT
HETATM    1  C   UNL     1      -9.556  17.463  66.102  1.00  0.00    -0.213 C  
HETATM    2  C   UNL     1     -10.745  18.106  65.660  1.00  0.00    -0.045 C  
HETATM    3  C   UNL     1     -10.473  18.541  67.069  1.00  0.00    -0.440 C  
HETATM    4  C   UNL     1      -8.625  17.947  67.710  1.00  0.00    -0.242 C  
HETATM    5  C   UNL     1      -9.436  15.017  70.322  1.00  0.00     0.569 C  
HETATM    6  C   UNL     1      -8.806  19.020  66.870  1.00  0.00    -0.314 C  
HETATM    7  C   UNL     1      -9.380  19.677  68.531  1.00  0.00    -0.412 C  
HETATM    8  C   UNL     1      -8.027  19.861  65.913  1.00  0.00    -0.288 C  
HETATM    9  C   UNL     1     -10.800  15.608  69.922  1.00  0.00    -0.324 C  
HETATM   10  H   UNL     1     -14.536  14.813  72.177  1.00  0.00     0.000 HD 
HETATM   11  C   UNL     1     -10.053  18.331  69.559  1.00  0.00     0.232 C  
HETATM   12  C   UNL     1     -10.630  16.819  68.908  1.00  0.00    -0.350 C  
HETATM   13  C   UNL     1     -10.098  16.224  67.382  1.00  0.00    -0.260 C  
HETATM   14  C   UNL     1     -11.150  15.251  66.842  1.00  0.00    -0.288 C  
HETATM   15  C   UNL     1     -11.769  14.387  67.899  1.00  0.00    -0.388 C  
HETATM   16  C   UNL     1     -11.645  14.506  69.238  1.00  0.00    -0.339 C  
HETATM   17  C   UNL     1     -12.377  13.488  70.104  1.00  0.00    -0.345 C  
HETATM   18  C   UNL     1     -12.896  13.972  71.463  1.00  0.00    -0.362 C  
HETATM   19  C   UNL     1     -11.991  14.989  72.144  1.00  0.00    -0.456 C  
HETATM   20  O   UNL     1     -14.214  14.513  71.335  1.00  0.00    -0.397 OA 
HETATM   21  C   UNL     1     -11.538  16.106  71.197  1.00  0.00    -0.453 C  
ENDROOT
BRANCH   4  22
HETATM   22  C   UNL     1      -7.288  18.361  68.537  1.00  0.00    -0.287 C  
HETATM   23  C   UNL     1      -6.551  17.305  69.350  1.00  0.00    -0.218 C  
HETATM   24  O   UNL     1      -6.910  19.529  68.664  1.00  0.00    -0.281 OA 
ENDBRANCH   4  22
TORSDOF 1
ENDMDL
MODEL       21
REMARK 921   NORMALIZED FREE ENERGY PREDICTED BY IDOCK:   -5.63 KCAL/MOL
REMARK 922        TOTAL FREE ENERGY PREDICTED BY IDOCK:   -5.06 KCAL/MOL
REMARK 923 INTER-LIGAND FREE ENERGY PREDICTED BY IDOCK:   -5.86 KCAL/MOL
REMARK 924 INTRA-LIGAND FREE ENERGY PREDICTED BY IDOCK:    0.80 KCAL/MOL
REMARK 927      BINDING AFFINITY PREDICTED BY RF-SCORE:    0.00 PKD
ROOT
HETATM    1  C   UNL     1     -11.174   6.075  69.929  1.00  0.00    -0.438 C  
HETATM    2  C   UNL     1      -9.966   5.327  69.994  1.00  0.00    -0.315 C  
HETATM    3  C   UNL     1      -9.715   6.674  70.601  1.00  0.00    -0.183 C  
HETATM    4  C   UNL     1     -11.446   7.729  70.865  1.00  0.00    -0.294 C  
HETATM    5  C   UNL     1     -11.247  10.578  68.053  1.00  0.00    -0.361 C  
HETATM    6  C   UNL     1     -11.065   6.711  71.707  1.00  0.00    -0.287 C  
HETATM    7  C   UNL     1      -9.915   8.113  72.186  1.00  0.00    -0.315 C  
HETATM    8  C   UNL     1     -11.659   5.792  72.724  1.00  0.00    -0.266 C  
HETATM    9  C   UNL     1      -9.893   9.847  68.002  1.00  0.00    -0.170 C  
HETATM   10  H   UNL     1      -6.340  11.477  65.906  1.00  0.00     0.000 HD 
HETATM   11  C   UNL     1      -9.595   9.201  70.759  1.00  0.00    -0.338 C  
HETATM   12  C   UNL     1      -9.813   8.702  69.101  1.00  0.00    -0.185 C  
HETATM   13  C   UNL     1     -10.870   7.414  68.671  1.00  0.00    -0.073 C  
HETATM   14  C   UNL     1     -10.431   6.851  67.316  1.00  0.00    -0.357 C  
HETATM   15  C   UNL     1      -9.966   7.900  66.351  1.00  0.00    -0.192 C  
HETATM   16  C   UNL     1      -9.720   9.203  66.605  1.00  0.00    -0.287 C  
HETATM   17  C   UNL     1      -9.259  10.071  65.440  1.00  0.00    -0.259 C  
HETATM   18  C   UNL     1      -8.294  11.217  65.763  1.00  0.00    -0.041 C  
HETATM   19  C   UNL     1      -8.553  11.883  67.108  1.00  0.00    -0.172 C  
HETATM   20  O   UNL     1      -6.938  10.766  65.706  1.00  0.00    -0.122 OA 
HETATM   21  C   UNL     1      -8.746  10.870  68.242  1.00  0.00    -0.140 C  
ENDROOT
BRANCH   4  22
HETATM   22  C   UNL     1     -12.290   8.711  71.848  1.00  0.00    -0.354 C  
HETATM   23  C   UNL     1     -12.960   9.952  71.276  1.00  0.00    -0.488 C  
HETATM   24  O   UNL     1     -12.299   8.587  73.077  1.00  0.00    -0.218 OA 
ENDBRANCH   4  22
TORSDOF 1
ENDMDL
MODEL       22
REMARK 921   NORMALIZED FREE ENERGY PREDICTED BY IDOCK:   -5.59 KCAL/MOL
REMARK 922        TOTAL FREE ENERGY PREDICTED BY IDOCK:   -5.01 KCAL/MOL
REMARK 923 INTER-LIGAND FREE ENERGY PREDICTED BY IDOCK:   -5.82 KCAL/MOL
REMARK 924 INTRA-LIGAND FREE ENERGY PREDICTED BY IDOCK:    0.81 KCAL/MOL
REMARK 927      BINDING AFFINITY PREDICTED BY RF-SCORE:    0.00 PKD
ROOT
HETATM    1  C   UNL     1     -10.899  12.307  68.931  1.00  0.00    -0.238 C  
HETATM    2  C   UNL     1     -12.274  12.354  68.571  1.00  0.00     0.076 C  
HETATM    3  C   UNL     1     -11.462  12.729  67.368  1.00  0.00    -0.396 C  
HETATM    4  C   UNL     1      -9.467  12.389  67.654  1.00  0.00    -0.190 C  
HETATM    5  C   UNL     1      -7.932  16.073  68.027  1.00  0.00    -0.142 C  
HETATM    6  C   UNL     1     -10.357  11.379  67.374  1.00  0.00    -0.232 C  
HETATM    7  C   UNL     1     -10.165  12.247  65.723  1.00  0.00    -0.281 C  
HETATM    8  C   UNL     1     -10.462   9.893  67.480  1.00  0.00    -0.310 C  
HETATM    9  C   UNL     1      -9.412  16.274  67.654  1.00  0.00    -0.221 C  
HETATM   10  H   UNL     1     -11.048  20.152  66.253  1.00  0.00     0.000 HD 
HETATM   11  C   UNL     1      -9.790  14.015  65.964  1.00  0.00    -0.316 C  
HETATM   12  C   UNL     1     -10.146  14.883  67.434  1.00  0.00    -0.228 C  
HETATM   13  C   UNL     1     -10.322  14.077  68.946  1.00  0.00    -0.183 C  
HETATM   14  C   UNL     1     -11.163  14.957  69.876  1.00  0.00    -0.307 C  
HETATM   15  C   UNL     1     -10.870  16.421  69.745  1.00  0.00    -0.343 C  
HETATM   16  C   UNL     1     -10.122  17.032  68.802  1.00  0.00    -0.307 C  
HETATM   17  C   UNL     1      -9.973  18.546  68.895  1.00  0.00    -0.383 C  
HETATM   18  C   UNL     1      -9.840  19.316  67.577  1.00  0.00    -0.340 C  
HETATM   19  C   UNL     1      -9.059  18.573  66.501  1.00  0.00    -0.299 C  
HETATM   20  O   UNL     1     -11.130  19.674  67.070  1.00  0.00    -0.412 OA 
HETATM   21  C   UNL     1      -9.503  17.115  66.348  1.00  0.00    -0.290 C  
ENDROOT
BRANCH   4  22
HETATM   22  C   UNL     1      -8.085  11.843  66.996  1.00  0.00    -0.167 C  
HETATM   23  C   UNL     1      -6.767  12.521  67.345  1.00  0.00    -0.147 C  
HETATM   24  O   UNL     1      -8.056  10.990  66.104  1.00  0.00    -0.164 OA 
ENDBRANCH   4  22
TORSDOF 1
ENDMDL
MODEL       23
REMARK 921   NORMALIZED FREE ENERGY PREDICTED BY IDOCK:   -5.58 KCAL/MOL
REMARK 922        TOTAL FREE ENERGY PREDICTED BY IDOCK:   -5.01 KCAL/MOL
REMARK 923 INTER-LIGAND FREE ENERGY PREDICTED BY IDOCK:   -5.92 KCAL/MOL
REMARK 924 INTRA-LIGAND FREE ENERGY PREDICTED BY IDOCK:    0.92 KCAL/MOL
REMARK 927      BINDING AFFINITY PREDICTED BY RF-SCORE:    0.00 PKD
ROOT
HETATM    1  C   UNL     1      -7.949  12.400  66.743  1.00  0.00     0.040 C  
HETATM    2  C   UNL     1      -7.314  11.630  67.756  1.00  0.00    -0.106 C  
HETATM    3  C   UNL     1      -8.775  11.298  67.762  1.00  0.00    -0.134 C  
HETATM    4  C   UNL     1      -9.747  12.090  66.147  1.00  0.00    -0.254 C  
HETATM    5  C   UNL     1     -11.911  15.072  67.724  1.00  0.00    -0.228 C  
HETATM    6  C   UNL     1      -8.968  10.960  66.060  1.00  0.00    -0.200 C  
HETATM    7  C   UNL     1     -10.513  10.346  66.928  1.00  0.00    -0.300 C  
HETATM    8  C   UNL     1      -8.259  10.142  65.031  1.00  0.00    -0.152 C  
HETATM    9  C   UNL     1     -11.277  14.340  68.921  1.00  0.00    -0.289 C  
HETATM   10  H   UNL     1     -12.630  14.916  73.105  1.00  0.00     0.000 HD 
HETATM   11  C   UNL     1     -11.277  11.680  67.907  1.00  0.00    -0.334 C  
HETATM   12  C   UNL     1     -10.411  13.096  68.444  1.00  0.00    -0.257 C  
HETATM   13  C   UNL     1      -8.993  13.653  67.642  1.00  0.00    -0.202 C  
HETATM   14  C   UNL     1      -8.174  14.497  68.623  1.00  0.00    -0.152 C  
HETATM   15  C   UNL     1      -9.012  15.358  69.520  1.00  0.00    -0.229 C  
HETATM   16  C   UNL     1     -10.352  15.323  69.680  1.00  0.00    -0.271 C  
HETATM   17  C   UNL     1     -10.969  16.316  70.657  1.00  0.00    -0.179 C  
HETATM   18  C   UNL     1     -12.219  15.862  71.419  1.00  0.00    -0.448 C  
HETATM   19  C   UNL     1     -13.147  14.969  70.608  1.00  0.00    -0.365 C  
HETATM   20  O   UNL     1     -11.856  15.198  72.633  1.00  0.00    -0.399 OA 
HETATM   21  C   UNL     1     -12.400  13.847  69.877  1.00  0.00    -0.358 C  
ENDROOT
BRANCH   4  22
HETATM   22  C   UNL     1     -10.865  11.844  64.993  1.00  0.00    -0.300 C  
HETATM   23  C   UNL     1     -12.118  12.708  64.964  1.00  0.00    -0.497 C  
HETATM   24  O   UNL     1     -10.828  10.888  64.213  1.00  0.00    -0.309 OA 
ENDBRANCH   4  22
TORSDOF 1
ENDMDL
MODEL       24
REMARK 921   NORMALIZED FREE ENERGY PREDICTED BY IDOCK:   -5.58 KCAL/MOL
REMARK 922        TOTAL FREE ENERGY PREDICTED BY IDOCK:   -5.01 KCAL/MOL
REMARK 923 INTER-LIGAND FREE ENERGY PREDICTED BY IDOCK:   -6.11 KCAL/MOL
REMARK 924 INTRA-LIGAND FREE ENERGY PREDICTED BY IDOCK:    1.11 KCAL/MOL
REMARK 927      BINDING AFFINITY PREDICTED BY RF-SCORE:    0.00 PKD
ROOT
HETATM    1  C   UNL     1     -10.011  12.047  65.206  1.00  0.00    -0.273 C  
HETATM    2  C   UNL     1     -11.183  11.672  64.491  1.00  0.00    -0.335 C  
HETATM    3  C   UNL     1     -11.595  12.142  65.854  1.00  0.00    -0.425 C  
HETATM    4  C   UNL     1     -10.047  13.011  66.866  1.00  0.00    -0.243 C  
HETATM    5  C   UNL     1      -9.127  10.306  69.677  1.00  0.00    -0.149 C  
HETATM    6  C   UNL     1     -10.738  13.662  65.871  1.00  0.00    -0.281 C  
HETATM    7  C   UNL     1     -11.940  13.685  67.311  1.00  0.00    -0.420 C  
HETATM    8  C   UNL     1     -10.581  14.828  64.952  1.00  0.00    -0.431 C  
HETATM    9  C   UNL     1     -10.392   9.770  68.982  1.00  0.00    -0.222 C  
HETATM   10  H   UNL     1     -12.893   6.521  70.674  1.00  0.00     0.000 HD 
HETATM   11  C   UNL     1     -11.688  12.234  68.385  1.00  0.00    -0.390 C  
HETATM   12  C   UNL     1     -10.899  10.770  67.856  1.00  0.00    -0.313 C  
HETATM   13  C   UNL     1      -9.798  10.758  66.533  1.00  0.00    -0.246 C  
HETATM   14  C   UNL     1      -9.733   9.339  65.962  1.00  0.00    -0.359 C  
HETATM   15  C   UNL     1      -9.784   8.267  67.009  1.00  0.00    -0.274 C  
HETATM   16  C   UNL     1     -10.066   8.409  68.322  1.00  0.00    -0.232 C  
HETATM   17  C   UNL     1     -10.047   7.152  69.184  1.00  0.00    -0.183 C  
HETATM   18  C   UNL     1     -11.028   7.099  70.360  1.00  0.00    -0.265 C  
HETATM   19  C   UNL     1     -11.254   8.443  71.039  1.00  0.00    -0.304 C  
HETATM   20  O   UNL     1     -12.284   6.555  69.945  1.00  0.00    -0.097 OA 
HETATM   21  C   UNL     1     -11.516   9.574  70.038  1.00  0.00    -0.149 C  
ENDROOT
BRANCH   4  22
HETATM   22  C   UNL     1      -9.587  14.229  67.840  1.00  0.00    -0.221 C  
HETATM   23  C   UNL     1      -9.090  15.532  67.229  1.00  0.00    -0.215 C  
HETATM   24  O   UNL     1      -9.479  14.109  69.063  1.00  0.00    -0.084 OA 
ENDBRANCH   4  22
TORSDOF 1
ENDMDL
MODEL       25
REMARK 921   NORMALIZED FREE ENERGY PREDICTED BY IDOCK:   -5.53 KCAL/MOL
REMARK 922        TOTAL FREE ENERGY PREDICTED BY IDOCK:   -4.95 KCAL/MOL
REMARK 923 INTER-LIGAND FREE ENERGY PREDICTED BY IDOCK:   -6.06 KCAL/MOL
REMARK 924 INTRA-LIGAND FREE ENERGY PREDICTED BY IDOCK:    1.10 KCAL/MOL
REMARK 927      BINDING AFFINITY PREDICTED BY RF-SCORE:    0.00 PKD
ROOT
HETATM    1  C   UNL     1     -11.457  16.112  69.189  1.00  0.00    -0.311 C  
HETATM    2  C   UNL     1     -11.058  15.870  70.533  1.00  0.00    -0.381 C  
HETATM    3  C   UNL     1      -9.842  15.790  69.661  1.00  0.00    -0.275 C  
HETATM    4  C   UNL     1     -10.219  16.434  67.758  1.00  0.00    -0.274 C  
HETATM    5  C   UNL     1     -10.195  13.057  65.601  1.00  0.00    -0.296 C  
HETATM    6  C   UNL     1     -10.036  17.301  68.810  1.00  0.00    -0.337 C  
HETATM    7  C   UNL     1      -8.300  16.685  68.460  1.00  0.00    -0.228 C  
HETATM    8  C   UNL     1     -10.313  18.723  69.175  1.00  0.00     0.061 C  
HETATM    9  C   UNL     1      -9.762  12.647  67.020  1.00  0.00    -0.225 C  
HETATM   10  H   UNL     1      -7.871   8.742  67.942  1.00  0.00     0.000 HD 
HETATM   11  C   UNL     1      -8.340  14.994  67.781  1.00  0.00    -0.158 C  
HETATM   12  C   UNL     1      -9.688  13.906  67.987  1.00  0.00    -0.226 C  
HETATM   13  C   UNL     1     -11.279  14.480  68.309  1.00  0.00    -0.295 C  
HETATM   14  C   UNL     1     -12.076  13.363  68.988  1.00  0.00    -0.299 C  
HETATM   15  C   UNL     1     -11.782  11.998  68.442  1.00  0.00    -0.390 C  
HETATM   16  C   UNL     1     -10.793  11.645  67.592  1.00  0.00    -0.273 C  
HETATM   17  C   UNL     1     -10.711  10.180  67.180  1.00  0.00    -0.286 C  
HETATM   18  C   UNL     1      -9.315   9.609  66.908  1.00  0.00    -0.146 C  
HETATM   19  C   UNL     1      -8.356  10.600  66.263  1.00  0.00    -0.155 C  
HETATM   20  O   UNL     1      -8.736   9.097  68.111  1.00  0.00    -0.128 OA 
HETATM   21  C   UNL     1      -8.364  11.968  66.956  1.00  0.00    -0.178 C  
ENDROOT
BRANCH   4  22
HETATM   22  C   UNL     1      -9.666  17.288  66.490  1.00  0.00    -0.288 C  
HETATM   23  C   UNL     1     -10.370  18.577  66.089  1.00  0.00    -0.457 C  
HETATM   24  O   UNL     1      -8.785  16.873  65.732  1.00  0.00    -0.512 OA 
ENDBRANCH   4  22
TORSDOF 1
ENDMDL
MODEL       26
REMARK 921   NORMALIZED FREE ENERGY PREDICTED BY IDOCK:   -5.53 KCAL/MOL
REMARK 922        TOTAL FREE ENERGY PREDICTED BY IDOCK:   -4.95 KCAL/MOL
REMARK 923 INTER-LIGAND FREE ENERGY PREDICTED BY IDOCK:   -5.77 KCAL/MOL
REMARK 924 INTRA-LIGAND FREE ENERGY PREDICTED BY IDOCK:    0.82 KCAL/MOL
REMARK 927      BINDING AFFINITY PREDICTED BY RF-SCORE:    0.00 PKD
ROOT
HETATM    1  C   UNL     1      -9.306   8.417  68.287  1.00  0.00    -0.139 C  
HETATM    2  C   UNL     1     -10.439   7.638  67.923  1.00  0.00    -0.270 C  
HETATM    3  C   UNL     1      -9.859   8.232  66.675  1.00  0.00    -0.337 C  
HETATM    4  C   UNL     1      -8.043   9.107  67.016  1.00  0.00    -0.109 C  
HETATM    5  C   UNL     1      -8.830  13.029  66.770  1.00  0.00    -0.144 C  
HETATM    6  C   UNL     1      -8.199   7.745  66.907  1.00  0.00    -0.116 C  
HETATM    7  C   UNL     1      -8.364   8.335  65.134  1.00  0.00    -0.167 C  
HETATM    8  C   UNL     1      -7.479   6.484  67.259  1.00  0.00    -0.088 C  
HETATM    9  C   UNL     1     -10.134  12.317  66.368  1.00  0.00    -0.245 C  
HETATM   10  H   UNL     1     -13.494  14.383  64.339  1.00  0.00     0.000 HD 
HETATM   11  C   UNL     1      -9.047  10.023  65.077  1.00  0.00    -0.255 C  
HETATM   12  C   UNL     1      -9.958  10.738  66.383  1.00  0.00    -0.264 C  
HETATM   13  C   UNL     1      -9.802  10.189  68.007  1.00  0.00    -0.169 C  
HETATM   14  C   UNL     1     -11.070  10.568  68.777  1.00  0.00    -0.315 C  
HETATM   15  C   UNL     1     -11.621  11.911  68.404  1.00  0.00    -0.376 C  
HETATM   16  C   UNL     1     -11.248  12.699  67.373  1.00  0.00    -0.337 C  
HETATM   17  C   UNL     1     -11.965  14.033  67.212  1.00  0.00    -0.448 C  
HETATM   18  C   UNL     1     -12.156  14.556  65.784  1.00  0.00    -0.279 C  
HETATM   19  C   UNL     1     -10.998  14.236  64.848  1.00  0.00    -0.413 C  
HETATM   20  O   UNL     1     -13.375  14.059  65.224  1.00  0.00    -0.741 OA 
HETATM   21  C   UNL     1     -10.550  12.773  64.940  1.00  0.00    -0.336 C  
ENDROOT
BRANCH   4  22
HETATM   22  C   UNL     1      -6.534   9.340  66.459  1.00  0.00    -0.067 C  
HETATM   23  C   UNL     1      -5.977  10.754  66.369  1.00  0.00    -0.110 C  
HETATM   24  O   UNL     1      -5.854   8.438  65.960  1.00  0.00    -0.042 OA 
ENDBRANCH   4  22
TORSDOF 1
ENDMDL
MODEL       27
REMARK 921   NORMALIZED FREE ENERGY PREDICTED BY IDOCK:   -5.52 KCAL/MOL
REMARK 922        TOTAL FREE ENERGY PREDICTED BY IDOCK:   -4.94 KCAL/MOL
REMARK 923 INTER-LIGAND FREE ENERGY PREDICTED BY IDOCK:   -5.75 KCAL/MOL
REMARK 924 INTRA-LIGAND FREE ENERGY PREDICTED BY IDOCK:    0.80 KCAL/MOL
REMARK 927      BINDING AFFINITY PREDICTED BY RF-SCORE:    0.00 PKD
ROOT
HETATM    1  C   UNL     1     -10.574  14.395  65.491  1.00  0.00    -0.360 C  
HETATM    2  C   UNL     1     -11.954  14.299  65.159  1.00  0.00    -0.395 C  
HETATM    3  C   UNL     1     -11.794  13.937  66.605  1.00  0.00    -0.447 C  
HETATM    4  C   UNL     1      -9.913  14.345  67.292  1.00  0.00    -0.247 C  
HETATM    5  C   UNL     1      -8.259  10.718  67.710  1.00  0.00    -0.112 C  
HETATM    6  C   UNL     1     -10.863  15.323  67.114  1.00  0.00    -0.322 C  
HETATM    7  C   UNL     1     -11.444  14.443  68.665  1.00  0.00    -0.316 C  
HETATM    8  C   UNL     1     -10.956  16.806  66.963  1.00  0.00     0.043 C  
HETATM    9  C   UNL     1      -9.732  10.464  67.341  1.00  0.00    -0.191 C  
HETATM   10  H   UNL     1     -11.703   6.520  67.825  1.00  0.00     0.000 HD 
HETATM   11  C   UNL     1     -10.940  12.691  68.639  1.00  0.00    -0.292 C  
HETATM   12  C   UNL     1     -10.530  11.829  67.179  1.00  0.00    -0.250 C  
HETATM   13  C   UNL     1      -9.998  12.645  65.760  1.00  0.00    -0.266 C  
HETATM   14  C   UNL     1     -10.271  11.749  64.548  1.00  0.00    -0.327 C  
HETATM   15  C   UNL     1     -10.025  10.293  64.809  1.00  0.00    -0.392 C  
HETATM   16  C   UNL     1      -9.790   9.697  65.998  1.00  0.00    -0.345 C  
HETATM   17  C   UNL     1      -9.563   8.190  65.995  1.00  0.00    -0.113 C  
HETATM   18  C   UNL     1     -10.043   7.409  67.223  1.00  0.00    -0.228 C  
HETATM   19  C   UNL     1      -9.887   8.165  68.536  1.00  0.00    -0.190 C  
HETATM   20  O   UNL     1     -11.406   7.005  67.063  1.00  0.00    -0.238 OA 
HETATM   21  C   UNL     1     -10.401   9.607  68.453  1.00  0.00    -0.233 C  
ENDROOT
BRANCH   4  22
HETATM   22  C   UNL     1      -9.024  14.929  68.522  1.00  0.00    -0.179 C  
HETATM   23  C   UNL     1      -7.681  14.291  68.848  1.00  0.00    -0.112 C  
HETATM   24  O   UNL     1      -9.446  15.779  69.313  1.00  0.00    -0.238 OA 
ENDBRANCH   4  22
TORSDOF 1
ENDMDL
MODEL       28
REMARK 921   NORMALIZED FREE ENERGY PREDICTED BY IDOCK:   -5.50 KCAL/MOL
REMARK 922        TOTAL FREE ENERGY PREDICTED BY IDOCK:   -4.92 KCAL/MOL
REMARK 923 INTER-LIGAND FREE ENERGY PREDICTED BY IDOCK:   -5.72 KCAL/MOL
REMARK 924 INTRA-LIGAND FREE ENERGY PREDICTED BY IDOCK:    0.79 KCAL/MOL
REMARK 927      BINDING AFFINITY PREDICTED BY RF-SCORE:    0.00 PKD
ROOT
HETATM    1  C   UNL     1     -10.941  13.432  68.987  1.00  0.00    -0.265 C  
HETATM    2  C   UNL     1     -12.275  13.630  68.533  1.00  0.00    -0.183 C  
HETATM    3  C   UNL     1     -11.355  13.774  67.359  1.00  0.00    -0.348 C  
HETATM    4  C   UNL     1      -9.445  13.196  67.806  1.00  0.00    -0.209 C  
HETATM    5  C   UNL     1      -7.429  16.656  67.954  1.00  0.00    -0.169 C  
HETATM    6  C   UNL     1     -10.452  12.293  67.558  1.00  0.00    -0.230 C  
HETATM    7  C   UNL     1     -10.051  12.964  65.853  1.00  0.00    -0.295 C  
HETATM    8  C   UNL     1     -10.771  10.852  67.786  1.00  0.00    -0.279 C  
HETATM    9  C   UNL     1      -8.843  17.020  67.466  1.00  0.00    -0.214 C  
HETATM   10  H   UNL     1      -9.839  20.929  65.623  1.00  0.00     0.000 HD 
HETATM   11  C   UNL     1      -9.445  14.679  65.961  1.00  0.00    -0.273 C  
HETATM   12  C   UNL     1      -9.754  15.726  67.322  1.00  0.00    -0.223 C  
HETATM   13  C   UNL     1     -10.122  15.101  68.884  1.00  0.00    -0.238 C  
HETATM   14  C   UNL     1     -10.879  16.172  69.674  1.00  0.00    -0.338 C  
HETATM   15  C   UNL     1     -10.377  17.564  69.435  1.00  0.00    -0.067 C  
HETATM   16  C   UNL     1      -9.500  17.974  68.493  1.00  0.00    -0.326 C  
HETATM   17  C   UNL     1      -9.145  19.455  68.462  1.00  0.00    -0.426 C  
HETATM   18  C   UNL     1      -8.834  20.070  67.093  1.00  0.00    -0.344 C  
HETATM   19  C   UNL     1      -8.108  19.128  66.142  1.00  0.00    -0.277 C  
HETATM   20  O   UNL     1     -10.031  20.548  66.472  1.00  0.00    -0.381 OA 
HETATM   21  C   UNL     1      -8.745  17.734  66.089  1.00  0.00    -0.125 C  
ENDROOT
BRANCH   4  22
HETATM   22  C   UNL     1      -8.121  12.407  67.292  1.00  0.00    -0.182 C  
HETATM   23  C   UNL     1      -6.742  12.981  67.588  1.00  0.00    -0.158 C  
HETATM   24  O   UNL     1      -8.169  11.429  66.540  1.00  0.00    -0.166 OA 
ENDBRANCH   4  22
TORSDOF 1
ENDMDL
MODEL       29
REMARK 921   NORMALIZED FREE ENERGY PREDICTED BY IDOCK:   -5.50 KCAL/MOL
REMARK 922        TOTAL FREE ENERGY PREDICTED BY IDOCK:   -4.92 KCAL/MOL
REMARK 923 INTER-LIGAND FREE ENERGY PREDICTED BY IDOCK:   -5.71 KCAL/MOL
REMARK 924 INTRA-LIGAND FREE ENERGY PREDICTED BY IDOCK:    0.79 KCAL/MOL
REMARK 927      BINDING AFFINITY PREDICTED BY RF-SCORE:    0.00 PKD
ROOT
HETATM    1  C   UNL     1      -9.145   9.621  63.466  1.00  0.00    -0.211 C  
HETATM    2  C   UNL     1      -8.228  10.483  62.802  1.00  0.00    -0.171 C  
HETATM    3  C   UNL     1      -7.865  10.443  64.256  1.00  0.00    -0.058 C  
HETATM    4  C   UNL     1      -8.897   8.994  65.264  1.00  0.00    -0.234 C  
HETATM    5  C   UNL     1     -11.514  11.074  67.476  1.00  0.00    -0.266 C  
HETATM    6  C   UNL     1      -7.818   8.710  64.460  1.00  0.00    -0.132 C  
HETATM    7  C   UNL     1      -7.028   9.471  65.981  1.00  0.00    -0.091 C  
HETATM    8  C   UNL     1      -7.205   7.551  63.745  1.00  0.00    -0.078 C  
HETATM    9  C   UNL     1     -10.604  12.123  66.811  1.00  0.00    -0.256 C  
HETATM   10  H   UNL     1     -10.425  16.354  68.131  1.00  0.00     0.000 HD 
HETATM   11  C   UNL     1      -8.156  10.670  66.763  1.00  0.00    -0.131 C  
HETATM   12  C   UNL     1      -9.481  11.434  65.924  1.00  0.00    -0.251 C  
HETATM   13  C   UNL     1     -10.200  10.729  64.527  1.00  0.00    -0.428 C  
HETATM   14  C   UNL     1     -10.884  11.834  63.717  1.00  0.00    -0.490 C  
HETATM   15  C   UNL     1     -11.558  12.871  64.563  1.00  0.00    -0.400 C  
HETATM   16  C   UNL     1     -11.464  13.032  65.901  1.00  0.00    -0.374 C  
HETATM   17  C   UNL     1     -12.262  14.169  66.529  1.00  0.00    -0.463 C  
HETATM   18  C   UNL     1     -11.654  14.851  67.759  1.00  0.00    -0.339 C  
HETATM   19  C   UNL     1     -10.890  13.906  68.677  1.00  0.00    -0.278 C  
HETATM   20  O   UNL     1     -10.801  15.931  67.368  1.00  0.00    -0.316 OA 
HETATM   21  C   UNL     1      -9.928  12.989  67.913  1.00  0.00    -0.230 C  
ENDROOT
BRANCH   4  22
HETATM   22  C   UNL     1      -8.825   7.823  66.389  1.00  0.00    -0.155 C  
HETATM   23  C   UNL     1      -9.981   7.646  67.363  1.00  0.00    -0.252 C  
HETATM   24  O   UNL     1      -7.811   7.151  66.597  1.00  0.00    -0.105 OA 
ENDBRANCH   4  22
TORSDOF 1
ENDMDL
MODEL       30
REMARK 921   NORMALIZED FREE ENERGY PREDICTED BY IDOCK:   -5.50 KCAL/MOL
REMARK 922        TOTAL FREE ENERGY PREDICTED BY IDOCK:   -4.92 KCAL/MOL
REMARK 923 INTER-LIGAND FREE ENERGY PREDICTED BY IDOCK:   -5.90 KCAL/MOL
REMARK 924 INTRA-LIGAND FREE ENERGY PREDICTED BY IDOCK:    0.99 KCAL/MOL
REMARK 927      BINDING AFFINITY PREDICTED BY RF-SCORE:    0.00 PKD
ROOT
HETATM    1  C   UNL     1     -11.064  12.913  64.040  1.00  0.00    -0.455 C  
HETATM    2  C   UNL     1     -12.325  12.291  64.255  1.00  0.00    -0.519 C  
HETATM    3  C   UNL     1     -11.899  12.941  65.537  1.00  0.00    -0.455 C  
HETATM    4  C   UNL     1     -10.265  14.143  65.279  1.00  0.00    -0.400 C  
HETATM    5  C   UNL     1      -7.305  12.091  67.039  1.00  0.00    -0.097 C  
HETATM    6  C   UNL     1     -11.532  14.528  64.909  1.00  0.00    -0.396 C  
HETATM    7  C   UNL     1     -11.575  14.666  66.778  1.00  0.00    -0.370 C  
HETATM    8  C   UNL     1     -12.206  15.526  64.025  1.00  0.00     0.090 C  
HETATM    9  C   UNL     1      -8.593  11.303  67.339  1.00  0.00    -0.136 C  
HETATM   10  H   UNL     1      -8.829   8.139  70.438  1.00  0.00     0.000 HD 
HETATM   11  C   UNL     1     -10.438  13.463  67.540  1.00  0.00    -0.236 C  
HETATM   12  C   UNL     1      -9.868  12.028  66.728  1.00  0.00    -0.218 C  
HETATM   13  C   UNL     1      -9.833  11.909  65.011  1.00  0.00    -0.234 C  
HETATM   14  C   UNL     1      -9.853  10.428  64.621  1.00  0.00    -0.405 C  
HETATM   15  C   UNL     1      -9.040   9.556  65.530  1.00  0.00    -0.262 C  
HETATM   16  C   UNL     1      -8.479   9.893  66.711  1.00  0.00    -0.125 C  
HETATM   17  C   UNL     1      -7.688   8.817  67.445  1.00  0.00    -0.097 C  
HETATM   18  C   UNL     1      -7.708   8.859  68.977  1.00  0.00    -0.090 C  
HETATM   19  C   UNL     1      -7.731  10.267  69.557  1.00  0.00    -0.167 C  
HETATM   20  O   UNL     1      -8.816   8.113  69.488  1.00  0.00    -0.141 OA 
HETATM   21  C   UNL     1      -8.768  11.169  68.878  1.00  0.00    -0.086 C  
ENDROOT
BRANCH   4  22
HETATM   22  C   UNL     1      -9.558  15.556  65.660  1.00  0.00    -0.293 C  
HETATM   23  C   UNL     1      -8.326  15.562  66.556  1.00  0.00    -0.234 C  
HETATM   24  O   UNL     1     -10.052  16.652  65.381  1.00  0.00    -0.578 OA 
ENDBRANCH   4  22
TORSDOF 1
ENDMDL
MODEL       31
REMARK 921   NORMALIZED FREE ENERGY PREDICTED BY IDOCK:   -5.47 KCAL/MOL
REMARK 922        TOTAL FREE ENERGY PREDICTED BY IDOCK:   -4.88 KCAL/MOL
REMARK 923 INTER-LIGAND FREE ENERGY PREDICTED BY IDOCK:   -5.68 KCAL/MOL
REMARK 924 INTRA-LIGAND FREE ENERGY PREDICTED BY IDOCK:    0.80 KCAL/MOL
REMARK 927      BINDING AFFINITY PREDICTED BY RF-SCORE:    0.00 PKD
ROOT
HETATM    1  C   UNL     1      -9.046   6.124  67.292  1.00  0.00    -0.115 C  
HETATM    2  C   UNL     1     -10.170   5.665  66.552  1.00  0.00    -0.259 C  
HETATM    3  C   UNL     1     -10.232   7.161  66.617  1.00  0.00    -0.224 C  
HETATM    4  C   UNL     1      -8.511   7.966  67.371  1.00  0.00    -0.122 C  
HETATM    5  C   UNL     1      -9.583   9.220  71.024  1.00  0.00    -0.329 C  
HETATM    6  C   UNL     1      -8.609   7.508  66.079  1.00  0.00    -0.164 C  
HETATM    7  C   UNL     1      -9.567   9.120  66.032  1.00  0.00    -0.342 C  
HETATM    8  C   UNL     1      -7.726   7.079  64.953  1.00  0.00    -0.114 C  
HETATM    9  C   UNL     1     -10.882   8.743  70.350  1.00  0.00    -0.256 C  
HETATM   10  H   UNL     1     -14.918   9.718  71.910  1.00  0.00     0.000 HD 
HETATM   11  C   UNL     1     -10.317   9.471  67.656  1.00  0.00    -0.299 C  
HETATM   12  C   UNL     1     -10.613   8.248  68.864  1.00  0.00    -0.160 C  
HETATM   13  C   UNL     1      -9.730   6.771  68.898  1.00  0.00    -0.137 C  
HETATM   14  C   UNL     1     -10.559   5.720  69.643  1.00  0.00    -0.396 C  
HETATM   15  C   UNL     1     -11.304   6.269  70.823  1.00  0.00    -0.397 C  
HETATM   16  C   UNL     1     -11.470   7.565  71.164  1.00  0.00    -0.295 C  
HETATM   17  C   UNL     1     -12.272   7.862  72.425  1.00  0.00    -0.295 C  
HETATM   18  C   UNL     1     -13.099   9.152  72.438  1.00  0.00    -0.423 C  
HETATM   19  C   UNL     1     -12.446  10.313  71.701  1.00  0.00    -0.491 C  
HETATM   20  O   UNL     1     -14.405   8.919  71.901  1.00  0.00    -0.368 OA 
HETATM   21  C   UNL     1     -11.907   9.912  70.323  1.00  0.00    -0.255 C  
ENDROOT
BRANCH   4  22
HETATM   22  C   UNL     1      -7.414   9.159  67.247  1.00  0.00    -0.088 C  
HETATM   23  C   UNL     1      -6.954   9.891  68.500  1.00  0.00    -0.067 C  
HETATM   24  O   UNL     1      -7.033   9.613  66.164  1.00  0.00    -0.088 OA 
ENDBRANCH   4  22
TORSDOF 1
ENDMDL
MODEL       32
REMARK 921   NORMALIZED FREE ENERGY PREDICTED BY IDOCK:   -5.45 KCAL/MOL
REMARK 922        TOTAL FREE ENERGY PREDICTED BY IDOCK:   -4.87 KCAL/MOL
REMARK 923 INTER-LIGAND FREE ENERGY PREDICTED BY IDOCK:   -5.70 KCAL/MOL
REMARK 924 INTRA-LIGAND FREE ENERGY PREDICTED BY IDOCK:    0.83 KCAL/MOL
REMARK 927      BINDING AFFINITY PREDICTED BY RF-SCORE:    0.00 PKD
ROOT
HETATM    1  C   UNL     1     -11.022  12.712  63.671  1.00  0.00    -0.464 C  
HETATM    2  C   UNL     1     -12.248  12.065  63.355  1.00  0.00    -0.627 C  
HETATM    3  C   UNL     1     -11.910  11.754  64.782  1.00  0.00    -0.174 C  
HETATM    4  C   UNL     1     -10.346  12.882  65.460  1.00  0.00    -0.304 C  
HETATM    5  C   UNL     1      -7.329  10.254  65.702  1.00  0.00    -0.149 C  
HETATM    6  C   UNL     1     -11.620  13.384  65.336  1.00  0.00    -0.335 C  
HETATM    7  C   UNL     1     -11.739  12.292  66.856  1.00  0.00    -0.404 C  
HETATM    8  C   UNL     1     -12.322  14.699  65.249  1.00  0.00    -0.215 C  
HETATM    9  C   UNL     1      -8.576   9.425  65.343  1.00  0.00    -0.176 C  
HETATM   10  H   UNL     1      -8.725   5.006  65.688  1.00  0.00     0.000 HD 
HETATM   11  C   UNL     1     -10.557  10.909  66.751  1.00  0.00    -0.313 C  
HETATM   12  C   UNL     1      -9.871  10.341  65.250  1.00  0.00    -0.372 C  
HETATM   13  C   UNL     1      -9.767  11.350  63.859  1.00  0.00    -0.299 C  
HETATM   14  C   UNL     1      -9.680  10.462  62.614  1.00  0.00    -0.191 C  
HETATM   15  C   UNL     1      -8.847   9.231  62.811  1.00  0.00    -0.198 C  
HETATM   16  C   UNL     1      -8.351   8.747  63.970  1.00  0.00    -0.146 C  
HETATM   17  C   UNL     1      -7.522   7.470  63.900  1.00  0.00    -0.108 C  
HETATM   18  C   UNL     1      -7.600   6.522  65.101  1.00  0.00    -0.090 C  
HETATM   19  C   UNL     1      -7.731   7.231  66.443  1.00  0.00    -0.093 C  
HETATM   20  O   UNL     1      -8.677   5.594  64.944  1.00  0.00    -0.127 OA 
HETATM   21  C   UNL     1      -8.797   8.333  66.427  1.00  0.00    -0.180 C  
ENDROOT
BRANCH   4  22
HETATM   22  C   UNL     1      -9.742  13.741  66.701  1.00  0.00    -0.289 C  
HETATM   23  C   UNL     1      -8.343  13.434  67.217  1.00  0.00    -0.183 C  
HETATM   24  O   UNL     1     -10.415  14.544  67.355  1.00  0.00    -0.261 OA 
ENDBRANCH   4  22
TORSDOF 1
ENDMDL
MODEL       33
REMARK 921   NORMALIZED FREE ENERGY PREDICTED BY IDOCK:   -5.36 KCAL/MOL
REMARK 922        TOTAL FREE ENERGY PREDICTED BY IDOCK:   -4.77 KCAL/MOL
REMARK 923 INTER-LIGAND FREE ENERGY PREDICTED BY IDOCK:   -5.58 KCAL/MOL
REMARK 924 INTRA-LIGAND FREE ENERGY PREDICTED BY IDOCK:    0.82 KCAL/MOL
REMARK 927      BINDING AFFINITY PREDICTED BY RF-SCORE:    0.00 PKD
ROOT
HETATM    1  C   UNL     1      -9.338  18.018  65.862  1.00  0.00     0.123 C  
HETATM    2  C   UNL     1     -10.636  18.493  66.196  1.00  0.00    -0.377 C  
HETATM    3  C   UNL     1     -10.024  17.898  67.428  1.00  0.00    -0.325 C  
HETATM    4  C   UNL     1      -8.041  17.472  67.169  1.00  0.00    -0.229 C  
HETATM    5  C   UNL     1      -7.959  13.470  66.967  1.00  0.00     0.031 C  
HETATM    6  C   UNL     1      -8.500  18.749  67.393  1.00  0.00    -0.288 C  
HETATM    7  C   UNL     1      -8.648  17.941  69.080  1.00  0.00    -0.006 C  
HETATM    8  C   UNL     1      -8.054  20.165  67.230  1.00  0.00    -0.369 C  
HETATM    9  C   UNL     1      -9.412  13.840  67.318  1.00  0.00    -0.236 C  
HETATM   10  H   UNL     1     -12.360  10.892  68.831  1.00  0.00     0.000 HD 
HETATM   11  C   UNL     1      -8.945  16.151  68.913  1.00  0.00    -0.247 C  
HETATM   12  C   UNL     1      -9.587  15.411  67.470  1.00  0.00    -0.206 C  
HETATM   13  C   UNL     1      -9.448  16.160  65.926  1.00  0.00    -0.337 C  
HETATM   14  C   UNL     1     -10.548  15.611  65.013  1.00  0.00    -0.422 C  
HETATM   15  C   UNL     1     -10.813  14.148  65.205  1.00  0.00    -0.380 C  
HETATM   16  C   UNL     1     -10.344  13.346  66.185  1.00  0.00    -0.295 C  
HETATM   17  C   UNL     1     -10.759  11.880  66.152  1.00  0.00    -0.318 C  
HETATM   18  C   UNL     1     -10.925  11.171  67.501  1.00  0.00    -0.275 C  
HETATM   19  C   UNL     1      -9.931  11.622  68.563  1.00  0.00    -0.198 C  
HETATM   20  O   UNL     1     -12.258  11.332  67.995  1.00  0.00    -0.621 OA 
HETATM   21  C   UNL     1      -9.811  13.147  68.652  1.00  0.00    -0.089 C  
ENDROOT
BRANCH   4  22
HETATM   22  C   UNL     1      -6.558  17.503  67.834  1.00  0.00    -0.174 C  
HETATM   23  C   UNL     1      -5.698  16.247  67.810  1.00  0.00    -0.158 C  
HETATM   24  O   UNL     1      -6.137  18.457  68.496  1.00  0.00    -0.186 OA 
ENDBRANCH   4  22
TORSDOF 1
ENDMDL
MODEL       34
REMARK 921   NORMALIZED FREE ENERGY PREDICTED BY IDOCK:   -5.34 KCAL/MOL
REMARK 922        TOTAL FREE ENERGY PREDICTED BY IDOCK:   -4.75 KCAL/MOL
REMARK 923 INTER-LIGAND FREE ENERGY PREDICTED BY IDOCK:   -5.55 KCAL/MOL
REMARK 924 INTRA-LIGAND FREE ENERGY PREDICTED BY IDOCK:    0.80 KCAL/MOL
REMARK 927      BINDING AFFINITY PREDICTED BY RF-SCORE:    0.00 PKD
ROOT
HETATM    1  C   UNL     1     -11.698  10.912  68.817  1.00  0.00    -0.355 C  
HETATM    2  C   UNL     1     -10.820  10.685  69.913  1.00  0.00    -0.301 C  
HETATM    3  C   UNL     1     -10.163  11.657  68.980  1.00  0.00    -0.077 C  
HETATM    4  C   UNL     1     -11.447  12.318  67.534  1.00  0.00    -0.414 C  
HETATM    5  C   UNL     1     -10.140  10.494  64.213  1.00  0.00    -0.380 C  
HETATM    6  C   UNL     1     -11.480  12.792  68.824  1.00  0.00    -0.347 C  
HETATM    7  C   UNL     1      -9.952  13.611  68.109  1.00  0.00    -0.246 C  
HETATM    8  C   UNL     1     -12.405  13.512  69.750  1.00  0.00    -0.249 C  
HETATM    9  C   UNL     1      -9.112  10.153  65.308  1.00  0.00    -0.234 C  
HETATM   10  H   UNL     1      -5.106   8.465  64.425  1.00  0.00     0.000 HD 
HETATM   11  C   UNL     1      -9.204  12.565  66.817  1.00  0.00    -0.217 C  
HETATM   12  C   UNL     1      -9.485  10.848  66.687  1.00  0.00    -0.204 C  
HETATM   13  C   UNL     1     -10.890  10.104  67.347  1.00  0.00    -0.323 C  
HETATM   14  C   UNL     1     -10.593   8.621  67.588  1.00  0.00    -0.272 C  
HETATM   15  C   UNL     1      -9.747   7.996  66.519  1.00  0.00    -0.297 C  
HETATM   16  C   UNL     1      -9.090   8.620  65.518  1.00  0.00    -0.190 C  
HETATM   17  C   UNL     1      -8.298   7.750  64.549  1.00  0.00     0.001 C  
HETATM   18  C   UNL     1      -7.023   8.353  63.952  1.00  0.00    -0.079 C  
HETATM   19  C   UNL     1      -7.115   9.848  63.677  1.00  0.00    -0.121 C  
HETATM   20  O   UNL     1      -5.898   8.091  64.796  1.00  0.00    -0.044 OA 
HETATM   21  C   UNL     1      -7.703  10.631  64.857  1.00  0.00     0.067 C  
ENDROOT
BRANCH   4  22
HETATM   22  C   UNL     1     -11.963  13.595  66.670  1.00  0.00    -0.415 C  
HETATM   23  C   UNL     1     -12.315  13.415  65.200  1.00  0.00    -0.501 C  
HETATM   24  O   UNL     1     -11.947  14.751  67.104  1.00  0.00    -0.351 OA 
ENDBRANCH   4  22
TORSDOF 1
ENDMDL
MODEL       35
REMARK 921   NORMALIZED FREE ENERGY PREDICTED BY IDOCK:   -5.32 KCAL/MOL
REMARK 922        TOTAL FREE ENERGY PREDICTED BY IDOCK:   -4.73 KCAL/MOL
REMARK 923 INTER-LIGAND FREE ENERGY PREDICTED BY IDOCK:   -5.57 KCAL/MOL
REMARK 924 INTRA-LIGAND FREE ENERGY PREDICTED BY IDOCK:    0.84 KCAL/MOL
REMARK 927      BINDING AFFINITY PREDICTED BY RF-SCORE:    0.00 PKD
ROOT
HETATM    1  C   UNL     1      -7.755   8.943  66.661  1.00  0.00    -0.100 C  
HETATM    2  C   UNL     1      -6.754   9.531  65.837  1.00  0.00    -0.082 C  
HETATM    3  C   UNL     1      -7.067  10.486  66.949  1.00  0.00    -0.101 C  
HETATM    4  C   UNL     1      -8.249   9.633  68.382  1.00  0.00    -0.106 C  
HETATM    5  C   UNL     1     -11.809  11.390  67.831  1.00  0.00    -0.239 C  
HETATM    6  C   UNL     1      -6.901   9.382  68.291  1.00  0.00    -0.063 C  
HETATM    7  C   UNL     1      -6.963  11.116  69.002  1.00  0.00    -0.101 C  
HETATM    8  C   UNL     1      -5.896   8.375  68.747  1.00  0.00    -0.043 C  
HETATM    9  C   UNL     1     -10.838  12.109  66.877  1.00  0.00    -0.291 C  
HETATM   10  H   UNL     1     -11.787  15.973  64.917  1.00  0.00     0.000 HD 
HETATM   11  C   UNL     1      -8.460  11.991  68.439  1.00  0.00    -0.147 C  
HETATM   12  C   UNL     1      -9.363  11.536  67.016  1.00  0.00    -0.185 C  
HETATM   13  C   UNL     1      -9.298   9.942  66.369  1.00  0.00    -0.213 C  
HETATM   14  C   UNL     1      -9.686   9.997  64.889  1.00  0.00    -0.377 C  
HETATM   15  C   UNL     1     -10.788  10.969  64.592  1.00  0.00    -0.248 C  
HETATM   16  C   UNL     1     -11.314  11.898  65.419  1.00  0.00    -0.334 C  
HETATM   17  C   UNL     1     -12.441  12.766  64.874  1.00  0.00    -0.563 C  
HETATM   18  C   UNL     1     -12.529  14.205  65.396  1.00  0.00    -0.472 C  
HETATM   19  C   UNL     1     -12.137  14.357  66.860  1.00  0.00    -0.386 C  
HETATM   20  O   UNL     1     -11.732  15.082  64.594  1.00  0.00    -0.414 OA 
HETATM   21  C   UNL     1     -10.831  13.630  67.201  1.00  0.00    -0.292 C  
ENDROOT
BRANCH   4  22
HETATM   22  C   UNL     1      -8.536   9.476  69.975  1.00  0.00    -0.195 C  
HETATM   23  C   UNL     1      -9.960   9.252  70.463  1.00  0.00    -0.307 C  
HETATM   24  O   UNL     1      -7.674   9.673  70.836  1.00  0.00    -0.314 OA 
ENDBRANCH   4  22
TORSDOF 1
ENDMDL
MODEL       36
REMARK 921   NORMALIZED FREE ENERGY PREDICTED BY IDOCK:   -5.28 KCAL/MOL
REMARK 922        TOTAL FREE ENERGY PREDICTED BY IDOCK:   -4.68 KCAL/MOL
REMARK 923 INTER-LIGAND FREE ENERGY PREDICTED BY IDOCK:   -5.63 KCAL/MOL
REMARK 924 INTRA-LIGAND FREE ENERGY PREDICTED BY IDOCK:    0.95 KCAL/MOL
REMARK 927      BINDING AFFINITY PREDICTED BY RF-SCORE:    0.00 PKD
ROOT
HETATM    1  C   UNL     1      -8.937  14.852  67.903  1.00  0.00    -0.177 C  
HETATM    2  C   UNL     1      -8.794  15.183  66.527  1.00  0.00    -0.312 C  
HETATM    3  C   UNL     1     -10.062  14.400  66.691  1.00  0.00    -0.276 C  
HETATM    4  C   UNL     1     -10.552  14.141  68.659  1.00  0.00    -0.253 C  
HETATM    5  C   UNL     1      -9.791  10.260  69.312  1.00  0.00    -0.244 C  
HETATM    6  C   UNL     1     -10.767  15.325  67.993  1.00  0.00    -0.268 C  
HETATM    7  C   UNL     1     -12.110  14.205  67.315  1.00  0.00    -0.407 C  
HETATM    8  C   UNL     1     -11.013  16.768  68.287  1.00  0.00    -0.327 C  
HETATM    9  C   UNL     1      -9.586  10.476  67.801  1.00  0.00    -0.173 C  
HETATM   10  H   UNL     1      -9.330   7.138  64.892  1.00  0.00     0.000 HD 
HETATM   11  C   UNL     1     -11.568  12.465  67.330  1.00  0.00    -0.433 C  
HETATM   12  C   UNL     1      -9.894  11.979  67.386  1.00  0.00    -0.191 C  
HETATM   13  C   UNL     1      -8.667  13.013  68.010  1.00  0.00    -0.187 C  
HETATM   14  C   UNL     1      -7.319  12.587  67.420  1.00  0.00    -0.147 C  
HETATM   15  C   UNL     1      -7.164  11.102  67.287  1.00  0.00    -0.113 C  
HETATM   16  C   UNL     1      -8.115  10.156  67.442  1.00  0.00    -0.114 C  
HETATM   17  C   UNL     1      -7.696   8.703  67.258  1.00  0.00    -0.097 C  
HETATM   18  C   UNL     1      -8.742   7.743  66.679  1.00  0.00    -0.140 C  
HETATM   19  C   UNL     1     -10.167   8.038  67.128  1.00  0.00    -0.362 C  
HETATM   20  O   UNL     1      -8.682   7.734  65.250  1.00  0.00    -0.096 OA 
HETATM   21  C   UNL     1     -10.528   9.523  67.013  1.00  0.00    -0.302 C  
ENDROOT
BRANCH   4  22
HETATM   22  C   UNL     1     -11.749  14.126  69.759  1.00  0.00    -0.311 C  
HETATM   23  C   UNL     1     -12.125  12.819  70.443  1.00  0.00    -0.382 C  
HETATM   24  O   UNL     1     -12.480  15.098  69.971  1.00  0.00    -0.322 OA 
ENDBRANCH   4  22
TORSDOF 1
ENDMDL
MODEL       37
REMARK 921   NORMALIZED FREE ENERGY PREDICTED BY IDOCK:   -5.22 KCAL/MOL
REMARK 922        TOTAL FREE ENERGY PREDICTED BY IDOCK:   -4.63 KCAL/MOL
REMARK 923 INTER-LIGAND FREE ENERGY PREDICTED BY IDOCK:   -5.72 KCAL/MOL
REMARK 924 INTRA-LIGAND FREE ENERGY PREDICTED BY IDOCK:    1.09 KCAL/MOL
REMARK 927      BINDING AFFINITY PREDICTED BY RF-SCORE:    0.00 PKD
ROOT
HETATM    1  C   UNL     1      -6.817  17.833  67.982  1.00  0.00    -0.191 C  
HETATM    2  C   UNL     1      -6.119  17.485  66.793  1.00  0.00    -0.219 C  
HETATM    3  C   UNL     1      -7.530  17.831  66.423  1.00  0.00    -0.314 C  
HETATM    4  C   UNL     1      -8.551  18.658  67.989  1.00  0.00    -0.321 C  
HETATM    5  C   UNL     1     -11.094  15.762  69.087  1.00  0.00    -0.283 C  
HETATM    6  C   UNL     1      -7.640  19.368  67.243  1.00  0.00    -0.268 C  
HETATM    7  C   UNL     1      -9.120  19.240  66.098  1.00  0.00    -0.277 C  
HETATM    8  C   UNL     1      -6.814  20.609  67.333  1.00  0.00    -0.389 C  
HETATM    9  C   UNL     1     -10.405  15.249  67.809  1.00  0.00    -0.244 C  
HETATM   10  H   UNL     1     -11.918  11.803  65.461  1.00  0.00     0.000 HD 
HETATM   11  C   UNL     1     -10.061  17.715  66.429  1.00  0.00    -0.356 C  
HETATM   12  C   UNL     1      -9.385  16.322  67.233  1.00  0.00    -0.231 C  
HETATM   13  C   UNL     1      -8.025  16.448  68.281  1.00  0.00    -0.170 C  
HETATM   14  C   UNL     1      -7.337  15.082  68.359  1.00  0.00    -0.112 C  
HETATM   15  C   UNL     1      -8.294  13.928  68.376  1.00  0.00    -0.157 C  
HETATM   16  C   UNL     1      -9.624  13.955  68.143  1.00  0.00    -0.218 C  
HETATM   17  C   UNL     1     -10.378  12.634  68.228  1.00  0.00    -0.246 C  
HETATM   18  C   UNL     1     -11.582  12.457  67.296  1.00  0.00    -0.365 C  
HETATM   19  C   UNL     1     -12.377  13.735  67.063  1.00  0.00    -0.289 C  
HETATM   20  O   UNL     1     -11.171  11.913  66.038  1.00  0.00    -0.318 OA 
HETATM   21  C   UNL     1     -11.484  14.936  66.734  1.00  0.00    -0.304 C  
ENDROOT
BRANCH   4  22
HETATM   22  C   UNL     1      -9.603  19.806  68.456  1.00  0.00    -0.342 C  
HETATM   23  C   UNL     1     -10.115  19.818  69.890  1.00  0.00     0.264 C  
HETATM   24  O   UNL     1     -10.132  20.595  67.667  1.00  0.00    -0.368 OA 
ENDBRANCH   4  22
TORSDOF 1
ENDMDL
MODEL       38
REMARK 921   NORMALIZED FREE ENERGY PREDICTED BY IDOCK:   -5.20 KCAL/MOL
REMARK 922        TOTAL FREE ENERGY PREDICTED BY IDOCK:   -4.60 KCAL/MOL
REMARK 923 INTER-LIGAND FREE ENERGY PREDICTED BY IDOCK:   -5.40 KCAL/MOL
REMARK 924 INTRA-LIGAND FREE ENERGY PREDICTED BY IDOCK:    0.80 KCAL/MOL
REMARK 927      BINDING AFFINITY PREDICTED BY RF-SCORE:    0.00 PKD
ROOT
HETATM    1  C   UNL     1     -11.013  11.538  68.944  1.00  0.00    -0.279 C  
HETATM    2  C   UNL     1     -12.016  11.230  67.982  1.00  0.00    -0.132 C  
HETATM    3  C   UNL     1     -10.741  11.528  67.251  1.00  0.00    -0.286 C  
HETATM    4  C   UNL     1      -9.145  11.668  68.521  1.00  0.00    -0.157 C  
HETATM    5  C   UNL     1      -8.324  15.591  68.566  1.00  0.00    -0.161 C  
HETATM    6  C   UNL     1      -9.682  10.462  68.139  1.00  0.00    -0.165 C  
HETATM    7  C   UNL     1      -8.754  11.019  66.607  1.00  0.00    -0.160 C  
HETATM    8  C   UNL     1      -9.701   9.034  68.577  1.00  0.00    -0.171 C  
HETATM    9  C   UNL     1      -9.422  15.408  67.503  1.00  0.00    -0.205 C  
HETATM   10  H   UNL     1     -10.442  18.523  64.515  1.00  0.00     0.000 HD 
HETATM   11  C   UNL     1      -8.702  12.838  66.511  1.00  0.00     0.015 C  
HETATM   12  C   UNL     1      -9.825  13.879  67.347  1.00  0.00    -0.237 C  
HETATM   13  C   UNL     1     -10.674  13.359  68.752  1.00  0.00    -0.257 C  
HETATM   14  C   UNL     1     -11.940  14.206  68.902  1.00  0.00    -0.376 C  
HETATM   15  C   UNL     1     -11.746  15.647  68.537  1.00  0.00    -0.339 C  
HETATM   16  C   UNL     1     -10.677  16.208  67.931  1.00  0.00    -0.321 C  
HETATM   17  C   UNL     1     -10.723  17.709  67.673  1.00  0.00    -0.318 C  
HETATM   18  C   UNL     1     -10.006  18.223  66.420  1.00  0.00    -0.380 C  
HETATM   19  C   UNL     1      -8.729  17.466  66.082  1.00  0.00    -0.182 C  
HETATM   20  O   UNL     1     -10.886  18.203  65.292  1.00  0.00    -0.628 OA 
HETATM   21  C   UNL     1      -8.910  15.945  66.137  1.00  0.00    -0.363 C  
ENDROOT
BRANCH   4  22
HETATM   22  C   UNL     1      -7.580  11.303  68.764  1.00  0.00    -0.130 C  
HETATM   23  C   UNL     1      -6.633  12.371  69.294  1.00  0.00    -0.093 C  
HETATM   24  O   UNL     1      -7.073  10.237  68.402  1.00  0.00    -0.075 OA 
ENDBRANCH   4  22
TORSDOF 1
ENDMDL
MODEL       39
REMARK 921   NORMALIZED FREE ENERGY PREDICTED BY IDOCK:   -5.17 KCAL/MOL
REMARK 922        TOTAL FREE ENERGY PREDICTED BY IDOCK:   -4.57 KCAL/MOL
REMARK 923 INTER-LIGAND FREE ENERGY PREDICTED BY IDOCK:   -5.42 KCAL/MOL
REMARK 924 INTRA-LIGAND FREE ENERGY PREDICTED BY IDOCK:    0.85 KCAL/MOL
REMARK 927      BINDING AFFINITY PREDICTED BY RF-SCORE:    0.00 PKD
ROOT
HETATM    1  C   UNL     1      -7.914   8.341  70.207  1.00  0.00    -0.102 C  
HETATM    2  C   UNL     1      -7.688   8.937  71.479  1.00  0.00    -0.097 C  
HETATM    3  C   UNL     1      -9.160   8.978  71.197  1.00  0.00    -0.316 C  
HETATM    4  C   UNL     1      -9.656   7.868  69.554  1.00  0.00    -0.160 C  
HETATM    5  C   UNL     1     -10.531  10.631  66.786  1.00  0.00    -0.303 C  
HETATM    6  C   UNL     1      -9.386   7.299  70.776  1.00  0.00    -0.160 C  
HETATM    7  C   UNL     1     -11.089   8.046  71.021  1.00  0.00    -0.275 C  
HETATM    8  C   UNL     1      -9.011   5.976  71.359  1.00  0.00    -0.145 C  
HETATM    9  C   UNL     1     -10.300  11.410  68.093  1.00  0.00    -0.206 C  
HETATM   10  H   UNL     1     -11.518  15.640  68.637  1.00  0.00     0.000 HD 
HETATM   11  C   UNL     1     -11.307   9.515  69.963  1.00  0.00    -0.204 C  
HETATM   12  C   UNL     1      -9.977  10.429  69.300  1.00  0.00    -0.246 C  
HETATM   13  C   UNL     1      -8.417   9.736  69.081  1.00  0.00    -0.143 C  
HETATM   14  C   UNL     1      -7.380  10.862  69.048  1.00  0.00    -0.113 C  
HETATM   15  C   UNL     1      -7.850  12.092  68.331  1.00  0.00    -0.147 C  
HETATM   16  C   UNL     1      -9.100  12.369  67.902  1.00  0.00    -0.191 C  
HETATM   17  C   UNL     1      -9.318  13.697  67.188  1.00  0.00    -0.240 C  
HETATM   18  C   UNL     1     -10.681  14.373  67.372  1.00  0.00    -0.280 C  
HETATM   19  C   UNL     1     -11.847  13.398  67.466  1.00  0.00    -0.408 C  
HETATM   20  O   UNL     1     -10.673  15.221  68.523  1.00  0.00    -0.235 OA 
HETATM   21  C   UNL     1     -11.572  12.238  68.430  1.00  0.00    -0.377 C  
ENDROOT
BRANCH   4  22
HETATM   22  C   UNL     1     -10.721   6.828  68.901  1.00  0.00    -0.240 C  
HETATM   23  C   UNL     1     -10.933   6.816  67.394  1.00  0.00    -0.407 C  
HETATM   24  O   UNL     1     -11.487   6.135  69.578  1.00  0.00    -0.429 OA 
ENDBRANCH   4  22
TORSDOF 1
ENDMDL
MODEL       40
REMARK 921   NORMALIZED FREE ENERGY PREDICTED BY IDOCK:   -5.15 KCAL/MOL
REMARK 922        TOTAL FREE ENERGY PREDICTED BY IDOCK:   -4.54 KCAL/MOL
REMARK 923 INTER-LIGAND FREE ENERGY PREDICTED BY IDOCK:   -5.88 KCAL/MOL
REMARK 924 INTRA-LIGAND FREE ENERGY PREDICTED BY IDOCK:    1.33 KCAL/MOL
REMARK 927      BINDING AFFINITY PREDICTED BY RF-SCORE:    0.00 PKD
ROOT
HETATM    1  C   UNL     1      -6.938  17.218  67.618  1.00  0.00    -0.169 C  
HETATM    2  C   UNL     1      -6.312  17.254  66.342  1.00  0.00    -0.258 C  
HETATM    3  C   UNL     1      -7.794  17.346  66.139  1.00  0.00    -0.293 C  
HETATM    4  C   UNL     1      -8.792  17.630  67.900  1.00  0.00    -0.246 C  
HETATM    5  C   UNL     1     -10.571  14.098  68.551  1.00  0.00    -0.257 C  
HETATM    6  C   UNL     1      -8.125  18.646  67.256  1.00  0.00    -0.249 C  
HETATM    7  C   UNL     1      -9.661  18.411  66.205  1.00  0.00    -0.298 C  
HETATM    8  C   UNL     1      -7.561  19.999  67.542  1.00  0.00    -0.327 C  
HETATM    9  C   UNL     1      -9.930  13.991  67.156  1.00  0.00    -0.252 C  
HETATM   10  H   UNL     1     -10.955  10.789  64.262  1.00  0.00     0.000 HD 
HETATM   11  C   UNL     1     -10.236  16.683  66.281  1.00  0.00    -0.344 C  
HETATM   12  C   UNL     1      -9.213  15.347  66.744  1.00  0.00    -0.273 C  
HETATM   13  C   UNL     1      -7.805  15.572  67.708  1.00  0.00    -0.158 C  
HETATM   14  C   UNL     1      -6.852  14.398  67.466  1.00  0.00    -0.162 C  
HETATM   15  C   UNL     1      -7.549  13.080  67.310  1.00  0.00    -0.097 C  
HETATM   16  C   UNL     1      -8.874  12.859  67.172  1.00  0.00    -0.210 C  
HETATM   17  C   UNL     1      -9.334  11.413  67.037  1.00  0.00    -0.183 C  
HETATM   18  C   UNL     1     -10.568  11.152  66.167  1.00  0.00    -0.248 C  
HETATM   19  C   UNL     1     -11.624  12.247  66.246  1.00  0.00    -0.446 C  
HETATM   20  O   UNL     1     -10.190  10.951  64.802  1.00  0.00    -0.293 OA 
HETATM   21  C   UNL     1     -11.030  13.653  66.109  1.00  0.00    -0.285 C  
ENDROOT
BRANCH   4  22
HETATM   22  C   UNL     1      -9.999  18.416  68.654  1.00  0.00    -0.387 C  
HETATM   23  C   UNL     1     -10.090  19.932  68.548  1.00  0.00    -0.538 C  
HETATM   24  O   UNL     1     -10.776  17.863  69.439  1.00  0.00     0.096 OA 
ENDBRANCH   4  22
TORSDOF 1
ENDMDL
MODEL       41
REMARK 921   NORMALIZED FREE ENERGY PREDICTED BY IDOCK:   -5.10 KCAL/MOL
REMARK 922        TOTAL FREE ENERGY PREDICTED BY IDOCK:   -4.50 KCAL/MOL
REMARK 923 INTER-LIGAND FREE ENERGY PREDICTED BY IDOCK:   -5.74 KCAL/MOL
REMARK 924 INTRA-LIGAND FREE ENERGY PREDICTED BY IDOCK:    1.24 KCAL/MOL
REMARK 927      BINDING AFFINITY PREDICTED BY RF-SCORE:    0.00 PKD
ROOT
HETATM    1  C   UNL     1     -10.391  12.633  64.337  1.00  0.00    -0.386 C  
HETATM    2  C   UNL     1     -11.542  12.019  63.769  1.00  0.00    -0.565 C  
HETATM    3  C   UNL     1     -11.732  12.087  65.254  1.00  0.00    -0.312 C  
HETATM    4  C   UNL     1     -10.302  13.235  66.157  1.00  0.00    -0.290 C  
HETATM    5  C   UNL     1      -8.000  10.552  68.045  1.00  0.00    -0.106 C  
HETATM    6  C   UNL     1     -11.368  13.779  65.481  1.00  0.00    -0.313 C  
HETATM    7  C   UNL     1     -12.145  13.159  67.071  1.00  0.00    -0.366 C  
HETATM    8  C   UNL     1     -11.778  15.070  64.850  1.00  0.00    -0.336 C  
HETATM    9  C   UNL     1      -9.187   9.754  67.474  1.00  0.00    -0.145 C  
HETATM   10  H   UNL     1     -10.169   5.624  68.759  1.00  0.00     0.000 HD 
HETATM   11  C   UNL     1     -11.238  11.713  67.711  1.00  0.00    -0.333 C  
HETATM   12  C   UNL     1     -10.213  10.705  66.723  1.00  0.00    -0.284 C  
HETATM   13  C   UNL     1      -9.505  11.282  65.263  1.00  0.00    -0.248 C  
HETATM   14  C   UNL     1      -9.175  10.083  64.371  1.00  0.00    -0.316 C  
HETATM   15  C   UNL     1      -8.664   8.893  65.127  1.00  0.00    -0.213 C  
HETATM   16  C   UNL     1      -8.652   8.709  66.464  1.00  0.00    -0.124 C  
HETATM   17  C   UNL     1      -8.068   7.403  66.988  1.00  0.00    -0.113 C  
HETATM   18  C   UNL     1      -8.680   6.829  68.271  1.00  0.00    -0.123 C  
HETATM   19  C   UNL     1      -9.113   7.887  69.277  1.00  0.00    -0.148 C  
HETATM   20  O   UNL     1      -9.789   5.980  67.964  1.00  0.00    -0.116 OA 
HETATM   21  C   UNL     1      -9.920   9.021  68.633  1.00  0.00    -0.187 C  
ENDROOT
BRANCH   4  22
HETATM   22  C   UNL     1      -9.992  14.353  67.296  1.00  0.00    -0.247 C  
HETATM   23  C   UNL     1      -8.863  15.351  67.081  1.00  0.00    -0.234 C  
HETATM   24  O   UNL     1     -10.531  14.350  68.407  1.00  0.00    -0.233 OA 
ENDBRANCH   4  22
TORSDOF 1
ENDMDL
MODEL       42
REMARK 921   NORMALIZED FREE ENERGY PREDICTED BY IDOCK:   -5.04 KCAL/MOL
REMARK 922        TOTAL FREE ENERGY PREDICTED BY IDOCK:   -4.43 KCAL/MOL
REMARK 923 INTER-LIGAND FREE ENERGY PREDICTED BY IDOCK:   -5.51 KCAL/MOL
REMARK 924 INTRA-LIGAND FREE ENERGY PREDICTED BY IDOCK:    1.09 KCAL/MOL
REMARK 927      BINDING AFFINITY PREDICTED BY RF-SCORE:    0.00 PKD
ROOT
HETATM    1  C   UNL     1      -9.454   8.035  66.629  1.00  0.00    -0.273 C  
HETATM    2  C   UNL     1      -8.113   8.105  66.159  1.00  0.00    -0.109 C  
HETATM    3  C   UNL     1      -8.196   8.855  67.454  1.00  0.00    -0.108 C  
HETATM    4  C   UNL     1      -9.986   8.562  68.397  1.00  0.00    -0.208 C  
HETATM    5  C   UNL     1     -11.876  12.065  67.932  1.00  0.00    -0.320 C  
HETATM    6  C   UNL     1      -8.979   7.625  68.413  1.00  0.00    -0.128 C  
HETATM    7  C   UNL     1      -8.356   8.940  69.596  1.00  0.00    -0.123 C  
HETATM    8  C   UNL     1      -8.784   6.167  68.675  1.00  0.00    -0.112 C  
HETATM    9  C   UNL     1     -10.458  12.280  67.374  1.00  0.00    -0.228 C  
HETATM   10  H   UNL     1      -8.763  16.296  66.554  1.00  0.00     0.000 HD 
HETATM   11  C   UNL     1      -8.993  10.582  69.128  1.00  0.00    -0.171 C  
HETATM   12  C   UNL     1      -9.572  10.970  67.529  1.00  0.00    -0.178 C  
HETATM   13  C   UNL     1     -10.141   9.757  66.449  1.00  0.00    -0.313 C  
HETATM   14  C   UNL     1     -10.026  10.283  65.015  1.00  0.00    -0.393 C  
HETATM   15  C   UNL     1     -10.362  11.737  64.880  1.00  0.00    -0.334 C  
HETATM   16  C   UNL     1     -10.556  12.635  65.871  1.00  0.00    -0.297 C  
HETATM   17  C   UNL     1     -10.896  14.064  65.467  1.00  0.00    -0.311 C  
HETATM   18  C   UNL     1     -10.390  15.187  66.379  1.00  0.00    -0.286 C  
HETATM   19  C   UNL     1     -10.392  14.829  67.859  1.00  0.00    -0.240 C  
HETATM   20  O   UNL     1      -9.077  15.600  65.989  1.00  0.00    -0.334 OA 
HETATM   21  C   UNL     1      -9.778  13.453  68.136  1.00  0.00    -0.226 C  
ENDROOT
BRANCH   4  22
HETATM   22  C   UNL     1     -10.735   8.306  69.817  1.00  0.00    -0.221 C  
HETATM   23  C   UNL     1     -11.186   6.900  70.186  1.00  0.00    -0.361 C  
HETATM   24  O   UNL     1     -11.097   9.223  70.561  1.00  0.00    -0.240 OA 
ENDBRANCH   4  22
TORSDOF 1
ENDMDL
MODEL       43
REMARK 921   NORMALIZED FREE ENERGY PREDICTED BY IDOCK:   -5.03 KCAL/MOL
REMARK 922        TOTAL FREE ENERGY PREDICTED BY IDOCK:   -4.42 KCAL/MOL
REMARK 923 INTER-LIGAND FREE ENERGY PREDICTED BY IDOCK:   -5.25 KCAL/MOL
REMARK 924 INTRA-LIGAND FREE ENERGY PREDICTED BY IDOCK:    0.84 KCAL/MOL
REMARK 927      BINDING AFFINITY PREDICTED BY RF-SCORE:    0.00 PKD
ROOT
HETATM    1  C   UNL     1      -7.197  16.489  68.162  1.00  0.00    -0.156 C  
HETATM    2  C   UNL     1      -6.296  16.774  67.099  1.00  0.00    -0.223 C  
HETATM    3  C   UNL     1      -7.673  16.637  66.522  1.00  0.00    -0.337 C  
HETATM    4  C   UNL     1      -9.107  16.550  67.976  1.00  0.00    -0.209 C  
HETATM    5  C   UNL     1     -10.282  12.718  67.905  1.00  0.00    -0.229 C  
HETATM    6  C   UNL     1      -8.510  17.729  67.596  1.00  0.00    -0.229 C  
HETATM    7  C   UNL     1      -9.667  17.359  66.167  1.00  0.00    -0.235 C  
HETATM    8  C   UNL     1      -8.302  19.116  68.108  1.00  0.00    -0.351 C  
HETATM    9  C   UNL     1      -9.310  12.878  66.721  1.00  0.00    -0.243 C  
HETATM   10  H   UNL     1      -8.962   9.896  63.456  1.00  0.00     0.000 HD 
HETATM   11  C   UNL     1      -9.901  15.561  65.976  1.00  0.00    -0.364 C  
HETATM   12  C   UNL     1      -8.787  14.373  66.602  1.00  0.00    -0.188 C  
HETATM   13  C   UNL     1      -7.728  14.722  67.913  1.00  0.00    -0.146 C  
HETATM   14  C   UNL     1      -6.538  13.760  67.852  1.00  0.00    -0.164 C  
HETATM   15  C   UNL     1      -6.910  12.369  67.433  1.00  0.00    -0.147 C  
HETATM   16  C   UNL     1      -8.094  11.945  66.939  1.00  0.00    -0.146 C  
HETATM   17  C   UNL     1      -8.221  10.467  66.593  1.00  0.00    -0.129 C  
HETATM   18  C   UNL     1      -9.131  10.102  65.415  1.00  0.00    -0.188 C  
HETATM   19  C   UNL     1     -10.363  10.987  65.288  1.00  0.00    -0.338 C  
HETATM   20  O   UNL     1      -8.398  10.122  64.187  1.00  0.00    -0.155 OA 
HETATM   21  C   UNL     1     -10.034  12.480  65.404  1.00  0.00    -0.236 C  
ENDROOT
BRANCH   4  22
HETATM   22  C   UNL     1     -10.589  17.031  68.437  1.00  0.00    -0.375 C  
HETATM   23  C   UNL     1     -11.436  16.119  69.315  1.00  0.00    -0.304 C  
HETATM   24  O   UNL     1     -11.136  18.045  67.993  1.00  0.00    -0.161 OA 
ENDBRANCH   4  22
TORSDOF 1
ENDMDL
MODEL       44
REMARK 921   NORMALIZED FREE ENERGY PREDICTED BY IDOCK:   -5.02 KCAL/MOL
REMARK 922        TOTAL FREE ENERGY PREDICTED BY IDOCK:   -4.41 KCAL/MOL
REMARK 923 INTER-LIGAND FREE ENERGY PREDICTED BY IDOCK:   -5.66 KCAL/MOL
REMARK 924 INTRA-LIGAND FREE ENERGY PREDICTED BY IDOCK:    1.25 KCAL/MOL
REMARK 927      BINDING AFFINITY PREDICTED BY RF-SCORE:    0.00 PKD
ROOT
HETATM    1  C   UNL     1     -12.202  15.156  69.642  1.00  0.00    -0.292 C  
HETATM    2  C   UNL     1     -11.419  15.606  70.741  1.00  0.00    -0.409 C  
HETATM    3  C   UNL     1     -10.514  14.893  69.782  1.00  0.00    -0.151 C  
HETATM    4  C   UNL     1     -11.448  14.481  68.011  1.00  0.00    -0.345 C  
HETATM    5  C   UNL     1     -12.014  10.516  68.148  1.00  0.00     0.485 C  
HETATM    6  C   UNL     1     -10.975  15.734  68.323  1.00  0.00    -0.325 C  
HETATM    7  C   UNL     1      -9.411  14.772  67.940  1.00  0.00    -0.201 C  
HETATM    8  C   UNL     1     -11.153  17.156  67.902  1.00  0.00    -0.087 C  
HETATM    9  C   UNL     1     -11.173  10.860  69.391  1.00  0.00    -0.335 C  
HETATM   10  H   UNL     1      -9.035   7.801  71.789  1.00  0.00     0.000 HD 
HETATM   11  C   UNL     1      -9.626  13.007  68.341  1.00  0.00    -0.178 C  
HETATM   12  C   UNL     1     -10.836  12.411  69.448  1.00  0.00     0.011 C  
HETATM   13  C   UNL     1     -12.268  13.302  69.795  1.00  0.00    -0.285 C  
HETATM   14  C   UNL     1     -12.811  12.848  71.153  1.00  0.00    -0.326 C  
HETATM   15  C   UNL     1     -12.671  11.375  71.395  1.00  0.00    -0.489 C  
HETATM   16  C   UNL     1     -11.973  10.481  70.661  1.00  0.00    -0.455 C  
HETATM   17  C   UNL     1     -11.995   9.028  71.118  1.00  0.00    -0.356 C  
HETATM   18  C   UNL     1     -10.735   8.196  70.859  1.00  0.00    -0.221 C  
HETATM   19  C   UNL     1     -10.025   8.537  69.556  1.00  0.00    -0.193 C  
HETATM   20  O   UNL     1      -9.817   8.318  71.949  1.00  0.00    -0.188 OA 
HETATM   21  C   UNL     1      -9.848  10.047  69.357  1.00  0.00    -0.240 C  
ENDROOT
BRANCH   4  22
HETATM   22  C   UNL     1     -11.310  14.440  66.391  1.00  0.00    -0.350 C  
HETATM   23  C   UNL     1     -12.559  14.295  65.534  1.00  0.00    -0.429 C  
HETATM   24  O   UNL     1     -10.222  14.372  65.810  1.00  0.00    -0.305 OA 
ENDBRANCH   4  22
TORSDOF 1
ENDMDL
MODEL       45
REMARK 921   NORMALIZED FREE ENERGY PREDICTED BY IDOCK:   -4.99 KCAL/MOL
REMARK 922        TOTAL FREE ENERGY PREDICTED BY IDOCK:   -4.38 KCAL/MOL
REMARK 923 INTER-LIGAND FREE ENERGY PREDICTED BY IDOCK:   -5.18 KCAL/MOL
REMARK 924 INTRA-LIGAND FREE ENERGY PREDICTED BY IDOCK:    0.79 KCAL/MOL
REMARK 927      BINDING AFFINITY PREDICTED BY RF-SCORE:    0.00 PKD
ROOT
HETATM    1  C   UNL     1      -7.871  10.331  68.837  1.00  0.00    -0.106 C  
HETATM    2  C   UNL     1      -7.008   9.381  68.223  1.00  0.00    -0.071 C  
HETATM    3  C   UNL     1      -8.423   8.933  68.012  1.00  0.00    -0.126 C  
HETATM    4  C   UNL     1      -9.770  10.369  68.561  1.00  0.00    -0.174 C  
HETATM    5  C   UNL     1     -11.358   8.922  71.945  1.00  0.00    -0.446 C  
HETATM    6  C   UNL     1      -9.071  10.425  67.379  1.00  0.00    -0.144 C  
HETATM    7  C   UNL     1     -10.344   9.084  67.059  1.00  0.00    -0.339 C  
HETATM    8  C   UNL     1      -8.684  11.415  66.330  1.00  0.00    -0.173 C  
HETATM    9  C   UNL     1     -10.445   7.806  71.403  1.00  0.00    -0.237 C  
HETATM   10  H   UNL     1     -10.617   3.619  72.855  1.00  0.00     0.000 HD 
HETATM   11  C   UNL     1     -10.783   8.230  68.608  1.00  0.00    -0.068 C  
HETATM   12  C   UNL     1      -9.770   8.230  70.028  1.00  0.00    -0.176 C  
HETATM   13  C   UNL     1      -8.604   9.464  70.313  1.00  0.00    -0.249 C  
HETATM   14  C   UNL     1      -7.532   8.917  71.260  1.00  0.00    -0.127 C  
HETATM   15  C   UNL     1      -8.078   8.026  72.335  1.00  0.00    -0.175 C  
HETATM   16  C   UNL     1      -9.327   7.524  72.435  1.00  0.00    -0.192 C  
HETATM   17  C   UNL     1      -9.635   6.642  73.639  1.00  0.00    -0.207 C  
HETATM   18  C   UNL     1     -10.647   5.509  73.434  1.00  0.00    -0.258 C  
HETATM   19  C   UNL     1     -11.781   5.858  72.479  1.00  0.00    -0.288 C  
HETATM   20  O   UNL     1      -9.990   4.321  72.982  1.00  0.00    -0.137 OA 
HETATM   21  C   UNL     1     -11.284   6.515  71.186  1.00  0.00    -0.353 C  
ENDROOT
BRANCH   4  22
HETATM   22  C   UNL     1     -11.162  11.124  68.191  1.00  0.00    -0.292 C  
HETATM   23  C   UNL     1     -12.147  11.468  69.299  1.00  0.00    -0.344 C  
HETATM   24  O   UNL     1     -11.539  11.308  67.030  1.00  0.00    -0.496 OA 
ENDBRANCH   4  22
TORSDOF 1
ENDMDL
MODEL       46
REMARK 921   NORMALIZED FREE ENERGY PREDICTED BY IDOCK:   -4.97 KCAL/MOL
REMARK 922        TOTAL FREE ENERGY PREDICTED BY IDOCK:   -4.35 KCAL/MOL
REMARK 923 INTER-LIGAND FREE ENERGY PREDICTED BY IDOCK:   -5.15 KCAL/MOL
REMARK 924 INTRA-LIGAND FREE ENERGY PREDICTED BY IDOCK:    0.79 KCAL/MOL
REMARK 927      BINDING AFFINITY PREDICTED BY RF-SCORE:    0.00 PKD
ROOT
HETATM    1  C   UNL     1     -10.696  16.013  69.016  1.00  0.00    -0.274 C  
HETATM    2  C   UNL     1     -11.763  16.332  68.130  1.00  0.00     0.060 C  
HETATM    3  C   UNL     1     -10.639  15.754  67.323  1.00  0.00    -0.313 C  
HETATM    4  C   UNL     1      -9.176  14.957  68.507  1.00  0.00    -0.192 C  
HETATM    5  C   UNL     1      -6.153  17.563  68.147  1.00  0.00    -0.164 C  
HETATM    6  C   UNL     1     -10.365  14.310  68.264  1.00  0.00    -0.242 C  
HETATM    7  C   UNL     1      -9.431  14.108  66.650  1.00  0.00    -0.303 C  
HETATM    8  C   UNL     1     -11.203  13.214  68.836  1.00  0.00    -0.324 C  
HETATM    9  C   UNL     1      -7.229  18.033  67.152  1.00  0.00    -0.213 C  
HETATM   10  H   UNL     1      -6.424  20.969  63.925  1.00  0.00     0.000 HD 
HETATM   11  C   UNL     1      -8.300  15.511  66.379  1.00  0.00    -0.153 C  
HETATM   12  C   UNL     1      -8.486  17.061  67.158  1.00  0.00    -0.222 C  
HETATM   13  C   UNL     1      -9.345  17.237  68.639  1.00  0.00    -0.267 C  
HETATM   14  C   UNL     1      -9.822  18.687  68.760  1.00  0.00    -0.422 C  
HETATM   15  C   UNL     1      -8.831  19.691  68.252  1.00  0.00    -0.361 C  
HETATM   16  C   UNL     1      -7.700  19.452  67.553  1.00  0.00    -0.289 C  
HETATM   17  C   UNL     1      -6.853  20.655  67.155  1.00  0.00    -0.363 C  
HETATM   18  C   UNL     1      -6.088  20.563  65.831  1.00  0.00    -0.211 C  
HETATM   19  C   UNL     1      -5.564  19.168  65.515  1.00  0.00    -0.200 C  
HETATM   20  O   UNL     1      -6.898  21.026  64.747  1.00  0.00    -0.090 OA 
HETATM   21  C   UNL     1      -6.622  18.078  65.721  1.00  0.00    -0.298 C  
ENDROOT
BRANCH   4  22
HETATM   22  C   UNL     1      -8.135  13.726  68.720  1.00  0.00    -0.022 C  
HETATM   23  C   UNL     1      -6.724  14.013  69.215  1.00  0.00    -0.120 C  
HETATM   24  O   UNL     1      -8.377  12.570  68.361  1.00  0.00    -0.167 OA 
ENDBRANCH   4  22
TORSDOF 1
ENDMDL
MODEL       47
REMARK 921   NORMALIZED FREE ENERGY PREDICTED BY IDOCK:   -4.93 KCAL/MOL
REMARK 922        TOTAL FREE ENERGY PREDICTED BY IDOCK:   -4.32 KCAL/MOL
REMARK 923 INTER-LIGAND FREE ENERGY PREDICTED BY IDOCK:   -5.11 KCAL/MOL
REMARK 924 INTRA-LIGAND FREE ENERGY PREDICTED BY IDOCK:    0.79 KCAL/MOL
REMARK 927      BINDING AFFINITY PREDICTED BY RF-SCORE:    0.00 PKD
ROOT
HETATM    1  C   UNL     1     -12.354   9.093  70.596  1.00  0.00     0.001 C  
HETATM    2  C   UNL     1     -12.146   9.778  71.825  1.00  0.00    -0.425 C  
HETATM    3  C   UNL     1     -10.814   9.584  71.165  1.00  0.00    -0.425 C  
HETATM    4  C   UNL     1     -11.002   8.904  69.246  1.00  0.00    -0.026 C  
HETATM    5  C   UNL     1      -9.803   5.087  69.481  1.00  0.00    -0.281 C  
HETATM    6  C   UNL     1     -11.215  10.219  69.589  1.00  0.00    -0.322 C  
HETATM    7  C   UNL     1      -9.348  10.056  69.665  1.00  0.00    -0.242 C  
HETATM    8  C   UNL     1     -11.881  11.443  69.052  1.00  0.00    -0.415 C  
HETATM    9  C   UNL     1      -9.535   5.694  70.870  1.00  0.00    -0.202 C  
HETATM   10  H   UNL     1      -6.953   3.745  73.905  1.00  0.00     0.000 HD 
HETATM   11  C   UNL     1      -8.866   8.354  70.108  1.00  0.00    -0.141 C  
HETATM   12  C   UNL     1      -9.931   7.232  70.914  1.00  0.00    -0.186 C  
HETATM   13  C   UNL     1     -11.643   7.390  70.840  1.00  0.00    -0.318 C  
HETATM   14  C   UNL     1     -12.255   6.671  72.047  1.00  0.00    -0.337 C  
HETATM   15  C   UNL     1     -11.554   5.395  72.405  1.00  0.00    -0.167 C  
HETATM   16  C   UNL     1     -10.379   4.936  71.923  1.00  0.00    -0.259 C  
HETATM   17  C   UNL     1      -9.881   3.595  72.448  1.00  0.00    -0.226 C  
HETATM   18  C   UNL     1      -8.363   3.410  72.560  1.00  0.00    -0.084 C  
HETATM   19  C   UNL     1      -7.573   4.098  71.455  1.00  0.00    -0.064 C  
HETATM   20  O   UNL     1      -7.894   3.860  73.835  1.00  0.00    -0.077 OA 
HETATM   21  C   UNL     1      -8.026   5.542  71.215  1.00  0.00    -0.111 C  
ENDROOT
BRANCH   4  22
HETATM   22  C   UNL     1     -10.460   9.016  67.718  1.00  0.00    -0.245 C  
HETATM   23  C   UNL     1     -10.255   7.749  66.899  1.00  0.00    -0.373 C  
HETATM   24  O   UNL     1     -10.061  10.073  67.221  1.00  0.00    -0.187 OA 
ENDBRANCH   4  22
TORSDOF 1
ENDMDL
MODEL       48
REMARK 921   NORMALIZED FREE ENERGY PREDICTED BY IDOCK:   -4.92 KCAL/MOL
REMARK 922        TOTAL FREE ENERGY PREDICTED BY IDOCK:   -4.30 KCAL/MOL
REMARK 923 INTER-LIGAND FREE ENERGY PREDICTED BY IDOCK:   -5.10 KCAL/MOL
REMARK 924 INTRA-LIGAND FREE ENERGY PREDICTED BY IDOCK:    0.79 KCAL/MOL
REMARK 927      BINDING AFFINITY PREDICTED BY RF-SCORE:    0.00 PKD
ROOT
HETATM    1  C   UNL     1      -8.228   8.060  66.749  1.00  0.00    -0.111 C  
HETATM    2  C   UNL     1      -9.194   7.881  65.720  1.00  0.00    -0.033 C  
HETATM    3  C   UNL     1      -9.474   9.185  66.404  1.00  0.00    -0.288 C  
HETATM    4  C   UNL     1      -7.972   9.718  67.684  1.00  0.00    -0.105 C  
HETATM    5  C   UNL     1      -9.580   9.144  71.310  1.00  0.00    -0.331 C  
HETATM    6  C   UNL     1      -7.870   9.868  66.321  1.00  0.00    -0.108 C  
HETATM    7  C   UNL     1      -9.037  11.250  66.815  1.00  0.00    -0.181 C  
HETATM    8  C   UNL     1      -6.824  10.053  65.271  1.00  0.00    -0.128 C  
HETATM    9  C   UNL     1     -10.722   8.906  70.305  1.00  0.00    -0.248 C  
HETATM   10  H   UNL     1     -14.995   8.757  71.488  1.00  0.00     0.000 HD 
HETATM   11  C   UNL     1      -9.992  10.788  68.298  1.00  0.00    -0.182 C  
HETATM   12  C   UNL     1     -10.234   9.138  68.811  1.00  0.00    -0.228 C  
HETATM   13  C   UNL     1      -9.158   7.876  68.351  1.00  0.00    -0.135 C  
HETATM   14  C   UNL     1      -9.902   6.540  68.442  1.00  0.00    -0.137 C  
HETATM   15  C   UNL     1     -10.835   6.450  69.612  1.00  0.00    -0.380 C  
HETATM   16  C   UNL     1     -11.217   7.445  70.441  1.00  0.00    -0.284 C  
HETATM   17  C   UNL     1     -12.179   7.090  71.569  1.00  0.00    -0.407 C  
HETATM   18  C   UNL     1     -13.178   8.169  72.000  1.00  0.00    -0.283 C  
HETATM   19  C   UNL     1     -12.624   9.586  71.936  1.00  0.00    -0.479 C  
HETATM   20  O   UNL     1     -14.375   8.088  71.221  1.00  0.00    -0.366 OA 
HETATM   21  C   UNL     1     -11.895   9.878  70.619  1.00  0.00    -0.386 C  
ENDROOT
BRANCH   4  22
HETATM   22  C   UNL     1      -7.048  10.931  68.248  1.00  0.00    -0.075 C  
HETATM   23  C   UNL     1      -6.763  11.026  69.741  1.00  0.00    -0.136 C  
HETATM   24  O   UNL     1      -6.677  11.876  67.547  1.00  0.00    -0.087 OA 
ENDBRANCH   4  22
TORSDOF 1
ENDMDL
MODEL       49
REMARK 921   NORMALIZED FREE ENERGY PREDICTED BY IDOCK:   -4.90 KCAL/MOL
REMARK 922        TOTAL FREE ENERGY PREDICTED BY IDOCK:   -4.29 KCAL/MOL
REMARK 923 INTER-LIGAND FREE ENERGY PREDICTED BY IDOCK:   -5.08 KCAL/MOL
REMARK 924 INTRA-LIGAND FREE ENERGY PREDICTED BY IDOCK:    0.79 KCAL/MOL
REMARK 927      BINDING AFFINITY PREDICTED BY RF-SCORE:    0.00 PKD
ROOT
HETATM    1  C   UNL     1      -8.153  12.096  68.113  1.00  0.00    -0.161 C  
HETATM    2  C   UNL     1      -7.579  11.487  66.963  1.00  0.00    -0.154 C  
HETATM    3  C   UNL     1      -9.042  11.158  66.987  1.00  0.00    -0.158 C  
HETATM    4  C   UNL     1     -10.046  12.234  68.405  1.00  0.00    -0.215 C  
HETATM    5  C   UNL     1     -10.879   9.517  71.230  1.00  0.00    -0.413 C  
HETATM    6  C   UNL     1      -9.664  12.775  67.199  1.00  0.00    -0.216 C  
HETATM    7  C   UNL     1     -11.113  11.677  66.735  1.00  0.00    -0.366 C  
HETATM    8  C   UNL     1      -9.449  14.111  66.567  1.00  0.00    -0.303 C  
HETATM    9  C   UNL     1     -10.258   8.727  70.063  1.00  0.00    -0.208 C  
HETATM   10  H   UNL     1     -10.508   4.312  69.723  1.00  0.00     0.000 HD 
HETATM   11  C   UNL     1     -11.239  10.260  67.874  1.00  0.00    -0.290 C  
HETATM   12  C   UNL     1      -9.908   9.682  68.843  1.00  0.00    -0.179 C  
HETATM   13  C   UNL     1      -8.582  10.696  69.263  1.00  0.00    -0.096 C  
HETATM   14  C   UNL     1      -7.372   9.814  69.583  1.00  0.00    -0.103 C  
HETATM   15  C   UNL     1      -7.722   8.557  70.322  1.00  0.00    -0.077 C  
HETATM   16  C   UNL     1      -8.953   8.051  70.551  1.00  0.00    -0.152 C  
HETATM   17  C   UNL     1      -9.042   6.751  71.340  1.00  0.00    -0.142 C  
HETATM   18  C   UNL     1     -10.189   5.797  70.988  1.00  0.00    -0.217 C  
HETATM   19  C   UNL     1     -11.482   6.502  70.599  1.00  0.00    -0.433 C  
HETATM   20  O   UNL     1      -9.798   4.904  69.941  1.00  0.00    -0.184 OA 
HETATM   21  C   UNL     1     -11.258   7.635  69.591  1.00  0.00     0.009 C  
ENDROOT
BRANCH   4  22
HETATM   22  C   UNL     1     -11.396  13.067  68.759  1.00  0.00    -0.289 C  
HETATM   23  C   UNL     1     -12.034  12.914  70.134  1.00  0.00    -0.373 C  
HETATM   24  O   UNL     1     -12.027  13.715  67.919  1.00  0.00    -0.358 OA 
ENDBRANCH   4  22
TORSDOF 1
ENDMDL
MODEL       50
REMARK 921   NORMALIZED FREE ENERGY PREDICTED BY IDOCK:   -4.89 KCAL/MOL
REMARK 922        TOTAL FREE ENERGY PREDICTED BY IDOCK:   -4.27 KCAL/MOL
REMARK 923 INTER-LIGAND FREE ENERGY PREDICTED BY IDOCK:   -5.17 KCAL/MOL
REMARK 924 INTRA-LIGAND FREE ENERGY PREDICTED BY IDOCK:    0.89 KCAL/MOL
REMARK 927      BINDING AFFINITY PREDICTED BY RF-SCORE:    0.00 PKD
ROOT
HETATM    1  C   UNL     1     -11.460  13.134  68.390  1.00  0.00    -0.350 C  
HETATM    2  C   UNL     1     -12.388  13.288  67.323  1.00  0.00    -0.126 C  
HETATM    3  C   UNL     1     -11.010  13.214  66.738  1.00  0.00    -0.298 C  
HETATM    4  C   UNL     1      -9.616  12.670  68.130  1.00  0.00    -0.219 C  
HETATM    5  C   UNL     1      -7.574  16.055  68.787  1.00  0.00    -0.184 C  
HETATM    6  C   UNL     1     -10.467  11.764  67.544  1.00  0.00    -0.228 C  
HETATM    7  C   UNL     1      -9.236  12.136  66.179  1.00  0.00    -0.155 C  
HETATM    8  C   UNL     1     -11.002  10.388  67.774  1.00  0.00    -0.369 C  
HETATM    9  C   UNL     1      -8.539  16.369  67.630  1.00  0.00    -0.181 C  
HETATM   10  H   UNL     1      -8.132  19.948  65.042  1.00  0.00     0.000 HD 
HETATM   11  C   UNL     1      -8.584  13.830  66.343  1.00  0.00     0.344 C  
HETATM   12  C   UNL     1      -9.397  15.093  67.231  1.00  0.00    -0.210 C  
HETATM   13  C   UNL     1     -10.527  14.742  68.482  1.00  0.00    -0.249 C  
HETATM   14  C   UNL     1     -11.456  15.946  68.655  1.00  0.00    -0.391 C  
HETATM   15  C   UNL     1     -10.762  17.267  68.511  1.00  0.00    -0.305 C  
HETATM   16  C   UNL     1      -9.506  17.495  68.072  1.00  0.00    -0.280 C  
HETATM   17  C   UNL     1      -9.030  18.942  68.024  1.00  0.00    -0.338 C  
HETATM   18  C   UNL     1      -8.044  19.316  66.913  1.00  0.00    -0.267 C  
HETATM   19  C   UNL     1      -7.052  18.213  66.569  1.00  0.00    -0.260 C  
HETATM   20  O   UNL     1      -8.743  19.716  65.731  1.00  0.00    -0.398 OA 
HETATM   21  C   UNL     1      -7.724  16.846  66.395  1.00  0.00    -0.345 C  
ENDROOT
BRANCH   4  22
HETATM   22  C   UNL     1      -8.294  11.773  68.435  1.00  0.00    -0.153 C  
HETATM   23  C   UNL     1      -6.999  12.460  68.847  1.00  0.00    -0.091 C  
HETATM   24  O   UNL     1      -8.236  10.561  68.210  1.00  0.00    -0.110 OA 
ENDBRANCH   4  22
TORSDOF 1
ENDMDL
MODEL       51
REMARK 921   NORMALIZED FREE ENERGY PREDICTED BY IDOCK:   -4.85 KCAL/MOL
REMARK 922        TOTAL FREE ENERGY PREDICTED BY IDOCK:   -4.23 KCAL/MOL
REMARK 923 INTER-LIGAND FREE ENERGY PREDICTED BY IDOCK:   -5.04 KCAL/MOL
REMARK 924 INTRA-LIGAND FREE ENERGY PREDICTED BY IDOCK:    0.81 KCAL/MOL
REMARK 927      BINDING AFFINITY PREDICTED BY RF-SCORE:    0.00 PKD
ROOT
HETATM    1  C   UNL     1     -10.098   6.262  69.144  1.00  0.00    -0.204 C  
HETATM    2  C   UNL     1      -8.730   6.029  68.831  1.00  0.00    -0.122 C  
HETATM    3  C   UNL     1      -8.798   7.128  69.849  1.00  0.00    -0.142 C  
HETATM    4  C   UNL     1     -10.677   7.339  70.624  1.00  0.00    -0.252 C  
HETATM    5  C   UNL     1     -11.986  10.758  68.992  1.00  0.00    -0.258 C  
HETATM    6  C   UNL     1      -9.826   6.333  71.015  1.00  0.00    -0.206 C  
HETATM    7  C   UNL     1      -9.105   7.849  71.851  1.00  0.00    -0.192 C  
HETATM    8  C   UNL     1      -9.869   5.002  71.691  1.00  0.00    -0.239 C  
HETATM    9  C   UNL     1     -10.513  10.629  68.564  1.00  0.00    -0.212 C  
HETATM   10  H   UNL     1      -8.183  13.999  66.863  1.00  0.00     0.000 HD 
HETATM   11  C   UNL     1      -9.453   9.350  70.876  1.00  0.00    -0.279 C  
HETATM   12  C   UNL     1      -9.846   9.324  69.176  1.00  0.00    -0.167 C  
HETATM   13  C   UNL     1     -10.506   7.927  68.417  1.00  0.00    -0.207 C  
HETATM   14  C   UNL     1     -10.206   7.996  66.916  1.00  0.00    -0.385 C  
HETATM   15  C   UNL     1     -10.311   9.378  66.346  1.00  0.00    -0.237 C  
HETATM   16  C   UNL     1     -10.443  10.541  67.020  1.00  0.00    -0.304 C  
HETATM   17  C   UNL     1     -10.536  11.822  66.199  1.00  0.00    -0.301 C  
HETATM   18  C   UNL     1      -9.939  13.091  66.817  1.00  0.00    -0.245 C  
HETATM   19  C   UNL     1     -10.106  13.182  68.327  1.00  0.00    -0.247 C  
HETATM   20  O   UNL     1      -8.554  13.212  66.481  1.00  0.00    -0.020 OA 
HETATM   21  C   UNL     1      -9.726  11.881  69.044  1.00  0.00     0.159 C  
ENDROOT
BRANCH   4  22
HETATM   22  C   UNL     1     -11.562   7.600  71.963  1.00  0.00    -0.291 C  
HETATM   23  C   UNL     1     -12.836   8.428  71.872  1.00  0.00    -0.384 C  
HETATM   24  O   UNL     1     -11.181   7.283  73.093  1.00  0.00    -0.302 OA 
ENDBRANCH   4  22
TORSDOF 1
ENDMDL
MODEL       52
REMARK 921   NORMALIZED FREE ENERGY PREDICTED BY IDOCK:   -4.82 KCAL/MOL
REMARK 922        TOTAL FREE ENERGY PREDICTED BY IDOCK:   -4.20 KCAL/MOL
REMARK 923 INTER-LIGAND FREE ENERGY PREDICTED BY IDOCK:   -4.99 KCAL/MOL
REMARK 924 INTRA-LIGAND FREE ENERGY PREDICTED BY IDOCK:    0.79 KCAL/MOL
REMARK 927      BINDING AFFINITY PREDICTED BY RF-SCORE:    0.00 PKD
ROOT
HETATM    1  C   UNL     1     -11.355   7.631  71.903  1.00  0.00    -0.308 C  
HETATM    2  C   UNL     1     -12.665   7.458  71.376  1.00  0.00    -0.408 C  
HETATM    3  C   UNL     1     -11.728   6.584  70.599  1.00  0.00    -0.436 C  
HETATM    4  C   UNL     1      -9.876   6.490  71.459  1.00  0.00    -0.182 C  
HETATM    5  C   UNL     1      -7.582   8.654  68.985  1.00  0.00    -0.090 C  
HETATM    6  C   UNL     1     -10.952   5.783  71.941  1.00  0.00    -0.318 C  
HETATM    7  C   UNL     1     -10.486   4.842  70.387  1.00  0.00    -0.164 C  
HETATM    8  C   UNL     1     -11.390   5.086  73.187  1.00  0.00    -0.397 C  
HETATM    9  C   UNL     1      -8.959   8.561  68.302  1.00  0.00    -0.139 C  
HETATM   10  H   UNL     1      -9.617   9.578  64.035  1.00  0.00     0.000 HD 
HETATM   11  C   UNL     1      -9.741   5.960  69.156  1.00  0.00    -0.176 C  
HETATM   12  C   UNL     1      -9.972   7.689  69.161  1.00  0.00    -0.181 C  
HETATM   13  C   UNL     1     -10.400   8.545  70.592  1.00  0.00    -0.232 C  
HETATM   14  C   UNL     1     -11.073   9.862  70.193  1.00  0.00    -0.353 C  
HETATM   15  C   UNL     1     -10.456  10.512  68.991  1.00  0.00    -0.238 C  
HETATM   16  C   UNL     1      -9.542   9.986  68.147  1.00  0.00    -0.152 C  
HETATM   17  C   UNL     1      -9.065  10.862  66.995  1.00  0.00    -0.158 C  
HETATM   18  C   UNL     1      -8.696  10.154  65.687  1.00  0.00    -0.158 C  
HETATM   19  C   UNL     1      -8.044   8.792  65.883  1.00  0.00    -0.110 C  
HETATM   20  O   UNL     1      -9.845  10.017  64.846  1.00  0.00    -0.317 OA 
HETATM   21  C   UNL     1      -8.793   7.918  66.895  1.00  0.00    -0.146 C  
ENDROOT
BRANCH   4  22
HETATM   22  C   UNL     1      -8.617   5.538  71.848  1.00  0.00    -0.131 C  
HETATM   23  C   UNL     1      -7.198   6.064  71.682  1.00  0.00    -0.087 C  
HETATM   24  O   UNL     1      -8.741   4.345  72.139  1.00  0.00    -0.110 OA 
ENDBRANCH   4  22
TORSDOF 1
ENDMDL
MODEL       53
REMARK 921   NORMALIZED FREE ENERGY PREDICTED BY IDOCK:   -4.81 KCAL/MOL
REMARK 922        TOTAL FREE ENERGY PREDICTED BY IDOCK:   -4.19 KCAL/MOL
REMARK 923 INTER-LIGAND FREE ENERGY PREDICTED BY IDOCK:   -5.04 KCAL/MOL
REMARK 924 INTRA-LIGAND FREE ENERGY PREDICTED BY IDOCK:    0.84 KCAL/MOL
REMARK 927      BINDING AFFINITY PREDICTED BY RF-SCORE:    0.00 PKD
ROOT
HETATM    1  C   UNL     1      -9.624   6.383  68.068  1.00  0.00    -0.118 C  
HETATM    2  C   UNL     1     -10.868   6.028  67.476  1.00  0.00    -0.393 C  
HETATM    3  C   UNL     1     -11.146   6.649  68.812  1.00  0.00    -0.297 C  
HETATM    4  C   UNL     1      -9.472   7.495  69.625  1.00  0.00    -0.156 C  
HETATM    5  C   UNL     1      -8.517   5.002  72.614  1.00  0.00    -0.116 C  
HETATM    6  C   UNL     1     -10.194   8.099  68.623  1.00  0.00    -0.226 C  
HETATM    7  C   UNL     1     -11.280   8.340  70.133  1.00  0.00    -0.132 C  
HETATM    8  C   UNL     1     -10.033   9.163  67.586  1.00  0.00    -0.245 C  
HETATM    9  C   UNL     1      -9.863   4.495  72.063  1.00  0.00    -0.240 C  
HETATM   10  H   UNL     1     -12.430   1.600  74.231  1.00  0.00     0.000 HD 
HETATM   11  C   UNL     1     -11.040   6.979  71.322  1.00  0.00    -0.282 C  
HETATM   12  C   UNL     1     -10.389   5.421  70.884  1.00  0.00    -0.312 C  
HETATM   13  C   UNL     1      -9.394   5.210  69.495  1.00  0.00    -0.181 C  
HETATM   14  C   UNL     1      -9.463   3.743  69.061  1.00  0.00    -0.233 C  
HETATM   15  C   UNL     1      -9.503   2.778  70.207  1.00  0.00    -0.183 C  
HETATM   16  C   UNL     1      -9.675   3.059  71.517  1.00  0.00    -0.223 C  
HETATM   17  C   UNL     1      -9.671   1.889  72.493  1.00  0.00    -0.168 C  
HETATM   18  C   UNL     1     -10.562   2.013  73.734  1.00  0.00    -0.134 C  
HETATM   19  C   UNL     1     -10.650   3.426  74.294  1.00  0.00    -0.253 C  
HETATM   20  O   UNL     1     -11.878   1.524  73.461  1.00  0.00    -0.193 OA 
HETATM   21  C   UNL     1     -10.914   4.477  73.209  1.00  0.00    -0.369 C  
ENDROOT
BRANCH   4  22
HETATM   22  C   UNL     1      -8.864   8.762  70.442  1.00  0.00    -0.168 C  
HETATM   23  C   UNL     1      -8.082   8.522  71.726  1.00  0.00    -0.191 C  
HETATM   24  O   UNL     1      -9.125   9.935  70.158  1.00  0.00    -0.223 OA 
ENDBRANCH   4  22
TORSDOF 1
ENDMDL
MODEL       54
REMARK 921   NORMALIZED FREE ENERGY PREDICTED BY IDOCK:   -4.79 KCAL/MOL
REMARK 922        TOTAL FREE ENERGY PREDICTED BY IDOCK:   -4.17 KCAL/MOL
REMARK 923 INTER-LIGAND FREE ENERGY PREDICTED BY IDOCK:   -4.96 KCAL/MOL
REMARK 924 INTRA-LIGAND FREE ENERGY PREDICTED BY IDOCK:    0.80 KCAL/MOL
REMARK 927      BINDING AFFINITY PREDICTED BY RF-SCORE:    0.00 PKD
ROOT
HETATM    1  C   UNL     1      -9.710   9.649  67.102  1.00  0.00    -0.222 C  
HETATM    2  C   UNL     1      -8.668  10.553  67.447  1.00  0.00    -0.125 C  
HETATM    3  C   UNL     1      -8.177   9.157  67.689  1.00  0.00    -0.108 C  
HETATM    4  C   UNL     1      -9.455   7.754  66.930  1.00  0.00    -0.238 C  
HETATM    5  C   UNL     1     -11.145   6.160  70.196  1.00  0.00    -0.448 C  
HETATM    6  C   UNL     1      -8.588   8.469  66.138  1.00  0.00    -0.154 C  
HETATM    7  C   UNL     1      -7.461   7.248  67.006  1.00  0.00    -0.105 C  
HETATM    8  C   UNL     1      -8.399   8.840  64.704  1.00  0.00    -0.175 C  
HETATM    9  C   UNL     1     -10.057   7.118  70.715  1.00  0.00    -0.197 C  
HETATM   10  H   UNL     1      -8.578   7.062  74.897  1.00  0.00     0.000 HD 
HETATM   11  C   UNL     1      -8.125   6.812  68.647  1.00  0.00    -0.120 C  
HETATM   12  C   UNL     1      -9.269   7.801  69.517  1.00  0.00    -0.149 C  
HETATM   13  C   UNL     1     -10.299   8.920  68.711  1.00  0.00    -0.232 C  
HETATM   14  C   UNL     1     -10.734   9.994  69.712  1.00  0.00    -0.304 C  
HETATM   15  C   UNL     1     -11.003   9.461  71.088  1.00  0.00    -0.430 C  
HETATM   16  C   UNL     1     -10.725   8.228  71.562  1.00  0.00    -0.295 C  
HETATM   17  C   UNL     1     -11.107   7.930  73.007  1.00  0.00    -0.379 C  
HETATM   18  C   UNL     1     -10.207   6.960  73.781  1.00  0.00    -0.363 C  
HETATM   19  C   UNL     1      -9.640   5.831  72.931  1.00  0.00    -0.163 C  
HETATM   20  O   UNL     1      -9.136   7.663  74.417  1.00  0.00    -0.166 OA 
HETATM   21  C   UNL     1      -9.055   6.326  71.603  1.00  0.00    -0.145 C  
ENDROOT
BRANCH   4  22
HETATM   22  C   UNL     1      -9.589   6.344  66.131  1.00  0.00     0.006 C  
HETATM   23  C   UNL     1     -10.663   5.346  66.544  1.00  0.00    -0.309 C  
HETATM   24  O   UNL     1      -8.767   5.965  65.292  1.00  0.00    -0.144 OA 
ENDBRANCH   4  22
TORSDOF 1
ENDMDL
MODEL       55
REMARK 921   NORMALIZED FREE ENERGY PREDICTED BY IDOCK:   -4.78 KCAL/MOL
REMARK 922        TOTAL FREE ENERGY PREDICTED BY IDOCK:   -4.16 KCAL/MOL
REMARK 923 INTER-LIGAND FREE ENERGY PREDICTED BY IDOCK:   -4.97 KCAL/MOL
REMARK 924 INTRA-LIGAND FREE ENERGY PREDICTED BY IDOCK:    0.81 KCAL/MOL
REMARK 927      BINDING AFFINITY PREDICTED BY RF-SCORE:    0.00 PKD
ROOT
HETATM    1  C   UNL     1     -11.541   6.672  70.198  1.00  0.00    -0.446 C  
HETATM    2  C   UNL     1     -10.736   5.788  70.968  1.00  0.00    -0.326 C  
HETATM    3  C   UNL     1      -9.988   7.076  70.800  1.00  0.00    -0.197 C  
HETATM    4  C   UNL     1     -11.160   8.543  69.991  1.00  0.00    -0.152 C  
HETATM    5  C   UNL     1      -9.745   8.926  66.261  1.00  0.00    -0.345 C  
HETATM    6  C   UNL     1     -11.246   8.172  71.312  1.00  0.00    -0.297 C  
HETATM    7  C   UNL     1      -9.648   9.151  71.248  1.00  0.00    -0.331 C  
HETATM    8  C   UNL     1     -12.191   8.273  72.465  1.00  0.00    -0.367 C  
HETATM    9  C   UNL     1      -8.796   7.942  66.967  1.00  0.00    -0.140 C  
HETATM   10  H   UNL     1      -4.820   6.828  65.346  1.00  0.00     0.000 HD 
HETATM   11  C   UNL     1      -8.873   9.013  69.604  1.00  0.00    -0.145 C  
HETATM   12  C   UNL     1      -9.217   7.721  68.483  1.00  0.00    -0.137 C  
HETATM   13  C   UNL     1     -10.686   6.826  68.551  1.00  0.00    -0.280 C  
HETATM   14  C   UNL     1     -10.464   5.467  67.880  1.00  0.00    -0.244 C  
HETATM   15  C   UNL     1      -9.587   5.532  66.666  1.00  0.00    -0.163 C  
HETATM   16  C   UNL     1      -8.849   6.578  66.237  1.00  0.00    -0.154 C  
HETATM   17  C   UNL     1      -8.041   6.390  64.959  1.00  0.00    -0.135 C  
HETATM   18  C   UNL     1      -6.710   7.142  64.857  1.00  0.00    -0.047 C  
HETATM   19  C   UNL     1      -6.725   8.517  65.512  1.00  0.00    -0.059 C  
HETATM   20  O   UNL     1      -5.646   6.361  65.409  1.00  0.00    -0.020 OA 
HETATM   21  C   UNL     1      -7.344   8.498  66.914  1.00  0.00    -0.083 C  
ENDROOT
BRANCH   4  22
HETATM   22  C   UNL     1     -11.573  10.115  70.033  1.00  0.00    -0.253 C  
HETATM   23  C   UNL     1     -11.628  10.911  68.736  1.00  0.00    -0.378 C  
HETATM   24  O   UNL     1     -11.707  10.748  71.084  1.00  0.00    -0.268 OA 
ENDBRANCH   4  22
TORSDOF 1
ENDMDL
MODEL       56
REMARK 921   NORMALIZED FREE ENERGY PREDICTED BY IDOCK:   -4.72 KCAL/MOL
REMARK 922        TOTAL FREE ENERGY PREDICTED BY IDOCK:   -4.09 KCAL/MOL
REMARK 923 INTER-LIGAND FREE ENERGY PREDICTED BY IDOCK:   -5.19 KCAL/MOL
REMARK 924 INTRA-LIGAND FREE ENERGY PREDICTED BY IDOCK:    1.10 KCAL/MOL
REMARK 927      BINDING AFFINITY PREDICTED BY RF-SCORE:    0.00 PKD
ROOT
HETATM    1  C   UNL     1      -8.349  15.452  68.378  1.00  0.00    -0.147 C  
HETATM    2  C   UNL     1      -7.986  16.076  67.153  1.00  0.00    -0.234 C  
HETATM    3  C   UNL     1      -9.300  15.383  66.954  1.00  0.00    -0.255 C  
HETATM    4  C   UNL     1     -10.091  14.721  68.719  1.00  0.00    -0.237 C  
HETATM    5  C   UNL     1      -9.625  10.745  68.523  1.00  0.00    -0.183 C  
HETATM    6  C   UNL     1     -10.147  16.039  68.332  1.00  0.00    -0.229 C  
HETATM    7  C   UNL     1     -11.426  15.219  67.233  1.00  0.00    -0.227 C  
HETATM    8  C   UNL     1     -10.364  17.392  68.927  1.00  0.00    -0.340 C  
HETATM    9  C   UNL     1      -9.185  11.284  67.149  1.00  0.00    -0.169 C  
HETATM   10  H   UNL     1      -8.659   8.692  63.588  1.00  0.00     0.000 HD 
HETATM   11  C   UNL     1     -10.977  13.483  66.905  1.00  0.00    -0.296 C  
HETATM   12  C   UNL     1      -9.355  12.861  67.067  1.00  0.00    -0.235 C  
HETATM   13  C   UNL     1      -8.187  13.621  68.078  1.00  0.00    -0.162 C  
HETATM   14  C   UNL     1      -6.788  13.233  67.590  1.00  0.00    -0.168 C  
HETATM   15  C   UNL     1      -6.686  11.810  67.128  1.00  0.00    -0.145 C  
HETATM   16  C   UNL     1      -7.694  10.935  66.924  1.00  0.00    -0.135 C  
HETATM   17  C   UNL     1      -7.323   9.533  66.456  1.00  0.00    -0.090 C  
HETATM   18  C   UNL     1      -8.316   8.820  65.531  1.00  0.00    -0.147 C  
HETATM   19  C   UNL     1      -9.776   9.120  65.842  1.00  0.00    -0.336 C  
HETATM   20  O   UNL     1      -8.044   9.134  64.162  1.00  0.00    -0.132 OA 
HETATM   21  C   UNL     1     -10.044  10.617  66.037  1.00  0.00    -0.308 C  
ENDROOT
BRANCH   4  22
HETATM   22  C   UNL     1     -11.438  14.553  69.613  1.00  0.00    -0.288 C  
HETATM   23  C   UNL     1     -11.803  15.625  70.630  1.00  0.00    -0.409 C  
HETATM   24  O   UNL     1     -12.118  13.522  69.620  1.00  0.00    -0.316 OA 
ENDBRANCH   4  22
TORSDOF 1
ENDMDL
MODEL       57
REMARK 921   NORMALIZED FREE ENERGY PREDICTED BY IDOCK:   -4.69 KCAL/MOL
REMARK 922        TOTAL FREE ENERGY PREDICTED BY IDOCK:   -4.06 KCAL/MOL
REMARK 923 INTER-LIGAND FREE ENERGY PREDICTED BY IDOCK:   -4.86 KCAL/MOL
REMARK 924 INTRA-LIGAND FREE ENERGY PREDICTED BY IDOCK:    0.80 KCAL/MOL
REMARK 927      BINDING AFFINITY PREDICTED BY RF-SCORE:    0.00 PKD
ROOT
HETATM    1  C   UNL     1     -11.036   5.856  67.571  1.00  0.00    -0.249 C  
HETATM    2  C   UNL     1     -10.664   7.147  67.104  1.00  0.00    -0.422 C  
HETATM    3  C   UNL     1      -9.429   6.452  67.591  1.00  0.00    -0.120 C  
HETATM    4  C   UNL     1      -9.768   4.476  67.988  1.00  0.00    -0.192 C  
HETATM    5  C   UNL     1      -9.685   4.293  71.990  1.00  0.00    -0.227 C  
HETATM    6  C   UNL     1      -9.612   4.957  66.709  1.00  0.00    -0.170 C  
HETATM    7  C   UNL     1      -7.866   4.990  67.393  1.00  0.00    -0.095 C  
HETATM    8  C   UNL     1      -9.902   4.560  65.299  1.00  0.00    -0.182 C  
HETATM    9  C   UNL     1      -9.280   5.735  71.631  1.00  0.00    -0.158 C  
HETATM   10  H   UNL     1      -7.393   8.513  74.528  1.00  0.00     0.000 HD 
HETATM   11  C   UNL     1      -7.885   5.245  69.198  1.00  0.00    -0.085 C  
HETATM   12  C   UNL     1      -9.233   5.945  70.057  1.00  0.00    -0.164 C  
HETATM   13  C   UNL     1     -10.832   5.912  69.421  1.00  0.00    -0.422 C  
HETATM   14  C   UNL     1     -11.639   7.044  70.062  1.00  0.00    -0.226 C  
HETATM   15  C   UNL     1     -11.327   7.258  71.513  1.00  0.00    -0.280 C  
HETATM   16  C   UNL     1     -10.320   6.714  72.228  1.00  0.00    -0.219 C  
HETATM   17  C   UNL     1     -10.223   7.089  73.702  1.00  0.00    -0.396 C  
HETATM   18  C   UNL     1      -8.819   7.161  74.314  1.00  0.00    -0.213 C  
HETATM   19  C   UNL     1      -7.851   6.123  73.763  1.00  0.00    -0.097 C  
HETATM   20  O   UNL     1      -8.263   8.469  74.149  1.00  0.00    -0.334 OA 
HETATM   21  C   UNL     1      -7.879   6.041  72.232  1.00  0.00    -0.102 C  
ENDROOT
BRANCH   4  22
HETATM   22  C   UNL     1      -9.193   2.960  67.873  1.00  0.00    -0.205 C  
HETATM   23  C   UNL     1      -9.276   2.031  69.076  1.00  0.00    -0.202 C  
HETATM   24  O   UNL     1      -8.551   2.556  66.899  1.00  0.00    -0.097 OA 
ENDBRANCH   4  22
TORSDOF 1
ENDMDL
MODEL       58
REMARK 921   NORMALIZED FREE ENERGY PREDICTED BY IDOCK:   -4.67 KCAL/MOL
REMARK 922        TOTAL FREE ENERGY PREDICTED BY IDOCK:   -4.04 KCAL/MOL
REMARK 923 INTER-LIGAND FREE ENERGY PREDICTED BY IDOCK:   -4.89 KCAL/MOL
REMARK 924 INTRA-LIGAND FREE ENERGY PREDICTED BY IDOCK:    0.85 KCAL/MOL
REMARK 927      BINDING AFFINITY PREDICTED BY RF-SCORE:    0.00 PKD
ROOT
HETATM    1  C   UNL     1      -8.300  12.236  68.380  1.00  0.00    -0.144 C  
HETATM    2  C   UNL     1      -7.758  12.495  67.091  1.00  0.00    -0.109 C  
HETATM    3  C   UNL     1      -9.165  12.007  66.918  1.00  0.00    -0.197 C  
HETATM    4  C   UNL     1     -10.164  11.906  68.699  1.00  0.00    -0.202 C  
HETATM    5  C   UNL     1     -10.435   7.970  69.402  1.00  0.00    -0.223 C  
HETATM    6  C   UNL     1      -9.951  13.092  68.036  1.00  0.00    -0.233 C  
HETATM    7  C   UNL     1     -11.296  12.272  67.019  1.00  0.00    -0.395 C  
HETATM    8  C   UNL     1      -9.946  14.562  68.305  1.00  0.00    -0.229 C  
HETATM    9  C   UNL     1      -9.826   8.100  67.994  1.00  0.00    -0.200 C  
HETATM   10  H   UNL     1      -9.590   4.716  65.136  1.00  0.00     0.000 HD 
HETATM   11  C   UNL     1     -11.160  10.457  67.114  1.00  0.00    -0.195 C  
HETATM   12  C   UNL     1      -9.694   9.623  67.561  1.00  0.00    -0.195 C  
HETATM   13  C   UNL     1      -8.464  10.385  68.495  1.00  0.00    -0.129 C  
HETATM   14  C   UNL     1      -7.137   9.665  68.238  1.00  0.00    -0.078 C  
HETATM   15  C   UNL     1      -7.276   8.178  68.103  1.00  0.00    -0.094 C  
HETATM   16  C   UNL     1      -8.416   7.463  67.994  1.00  0.00    -0.123 C  
HETATM   17  C   UNL     1      -8.286   5.949  67.874  1.00  0.00    -0.108 C  
HETATM   18  C   UNL     1      -9.339   5.223  67.031  1.00  0.00    -0.122 C  
HETATM   19  C   UNL     1     -10.734   5.828  67.127  1.00  0.00    -0.358 C  
HETATM   20  O   UNL     1      -8.937   5.167  65.659  1.00  0.00    -0.147 OA 
HETATM   21  C   UNL     1     -10.729   7.353  66.972  1.00  0.00    -0.389 C  
ENDROOT
BRANCH   4  22
HETATM   22  C   UNL     1     -11.567  12.176  69.474  1.00  0.00    -0.315 C  
HETATM   23  C   UNL     1     -12.247  11.033  70.216  1.00  0.00    -0.447 C  
HETATM   24  O   UNL     1     -12.199  13.232  69.374  1.00  0.00    -0.263 OA 
ENDBRANCH   4  22
TORSDOF 1
ENDMDL
MODEL       59
REMARK 921   NORMALIZED FREE ENERGY PREDICTED BY IDOCK:   -4.67 KCAL/MOL
REMARK 922        TOTAL FREE ENERGY PREDICTED BY IDOCK:   -4.03 KCAL/MOL
REMARK 923 INTER-LIGAND FREE ENERGY PREDICTED BY IDOCK:   -5.18 KCAL/MOL
REMARK 924 INTRA-LIGAND FREE ENERGY PREDICTED BY IDOCK:    1.15 KCAL/MOL
REMARK 927      BINDING AFFINITY PREDICTED BY RF-SCORE:    0.00 PKD
ROOT
HETATM    1  C   UNL     1     -11.660   8.618  70.840  1.00  0.00    -0.307 C  
HETATM    2  C   UNL     1     -10.976   8.763  72.078  1.00  0.00    -0.438 C  
HETATM    3  C   UNL     1     -10.037   9.152  70.976  1.00  0.00    -0.373 C  
HETATM    4  C   UNL     1     -10.991   9.299  69.174  1.00  0.00    -0.083 C  
HETATM    5  C   UNL     1      -9.698   6.083  67.162  1.00  0.00    -0.148 C  
HETATM    6  C   UNL     1     -11.077  10.276  70.138  1.00  0.00    -0.385 C  
HETATM    7  C   UNL     1      -9.345  10.504  69.455  1.00  0.00    -0.139 C  
HETATM    8  C   UNL     1     -11.940  11.436  70.510  1.00  0.00    -0.451 C  
HETATM    9  C   UNL     1      -8.891   6.106  68.473  1.00  0.00    -0.113 C  
HETATM   10  H   UNL     1      -5.225   3.689  69.100  1.00  0.00     0.000 HD 
HETATM   11  C   UNL     1      -8.676   8.920  68.851  1.00  0.00    -0.136 C  
HETATM   12  C   UNL     1      -9.275   7.364  69.365  1.00  0.00    -0.145 C  
HETATM   13  C   UNL     1     -10.865   7.163  69.992  1.00  0.00    -0.276 C  
HETATM   14  C   UNL     1     -10.897   5.898  70.855  1.00  0.00    -0.347 C  
HETATM   15  C   UNL     1     -10.076   4.773  70.301  1.00  0.00    -0.304 C  
HETATM   16  C   UNL     1      -9.197   4.819  69.276  1.00  0.00    -0.172 C  
HETATM   17  C   UNL     1      -8.488   3.524  68.900  1.00  0.00    -0.105 C  
HETATM   18  C   UNL     1      -7.058   3.642  68.362  1.00  0.00    -0.051 C  
HETATM   19  C   UNL     1      -6.821   4.877  67.502  1.00  0.00    -0.060 C  
HETATM   20  O   UNL     1      -6.112   3.616  69.434  1.00  0.00    -0.026 OA 
HETATM   21  C   UNL     1      -7.373   6.156  68.141  1.00  0.00    -0.085 C  
ENDROOT
BRANCH   4  22
HETATM   22  C   UNL     1     -11.140  10.145  67.794  1.00  0.00    -0.227 C  
HETATM   23  C   UNL     1     -10.401   9.682  66.546  1.00  0.00    -0.264 C  
HETATM   24  O   UNL     1     -11.711  11.238  67.733  1.00  0.00    -0.549 OA 
ENDBRANCH   4  22
TORSDOF 1
ENDMDL
MODEL       60
REMARK 921   NORMALIZED FREE ENERGY PREDICTED BY IDOCK:   -4.54 KCAL/MOL
REMARK 922        TOTAL FREE ENERGY PREDICTED BY IDOCK:   -3.90 KCAL/MOL
REMARK 923 INTER-LIGAND FREE ENERGY PREDICTED BY IDOCK:   -5.32 KCAL/MOL
REMARK 924 INTRA-LIGAND FREE ENERGY PREDICTED BY IDOCK:    1.42 KCAL/MOL
REMARK 927      BINDING AFFINITY PREDICTED BY RF-SCORE:    0.00 PKD
ROOT
HETATM    1  C   UNL     1     -10.724   5.470  69.700  1.00  0.00    -0.349 C  
HETATM    2  C   UNL     1      -9.613   4.783  69.138  1.00  0.00    -0.237 C  
HETATM    3  C   UNL     1      -9.090   5.851  70.050  1.00  0.00    -0.154 C  
HETATM    4  C   UNL     1     -10.577   6.698  71.169  1.00  0.00    -0.263 C  
HETATM    5  C   UNL     1     -11.013  10.338  69.549  1.00  0.00    -0.300 C  
HETATM    6  C   UNL     1     -10.040   5.467  71.464  1.00  0.00    -0.260 C  
HETATM    7  C   UNL     1      -8.696   6.659  72.003  1.00  0.00    -0.127 C  
HETATM    8  C   UNL     1     -10.370   4.238  72.246  1.00  0.00    -0.214 C  
HETATM    9  C   UNL     1      -9.796   9.711  68.843  1.00  0.00    -0.179 C  
HETATM   10  H   UNL     1      -6.922  12.068  66.424  1.00  0.00     0.000 HD 
HETATM   11  C   UNL     1      -8.737   8.176  70.994  1.00  0.00    -0.156 C  
HETATM   12  C   UNL     1      -9.479   8.264  69.418  1.00  0.00    -0.159 C  
HETATM   13  C   UNL     1     -10.711   7.165  68.930  1.00  0.00    -0.199 C  
HETATM   14  C   UNL     1     -10.742   7.110  67.400  1.00  0.00    -0.368 C  
HETATM   15  C   UNL     1     -10.509   8.439  66.746  1.00  0.00    -0.315 C  
HETATM   16  C   UNL     1     -10.100   9.586  67.331  1.00  0.00    -0.262 C  
HETATM   17  C   UNL     1      -9.944  10.812  66.439  1.00  0.00    -0.264 C  
HETATM   18  C   UNL     1      -8.843  11.810  66.812  1.00  0.00    -0.191 C  
HETATM   19  C   UNL     1      -8.635  11.971  68.312  1.00  0.00    -0.174 C  
HETATM   20  O   UNL     1      -7.604  11.449  66.193  1.00  0.00    -0.043 OA 
HETATM   21  C   UNL     1      -8.556  10.627  69.045  1.00  0.00    -0.150 C  
ENDROOT
BRANCH   4  22
HETATM   22  C   UNL     1     -11.010   7.260  72.631  1.00  0.00    -0.299 C  
HETATM   23  C   UNL     1     -10.608   6.489  73.881  1.00  0.00    -0.250 C  
HETATM   24  O   UNL     1     -11.782   8.211  72.786  1.00  0.00    -0.403 OA 
ENDBRANCH   4  22
TORSDOF 1
ENDMDL
MODEL       61
REMARK 921   NORMALIZED FREE ENERGY PREDICTED BY IDOCK:   -4.54 KCAL/MOL
REMARK 922        TOTAL FREE ENERGY PREDICTED BY IDOCK:   -3.90 KCAL/MOL
REMARK 923 INTER-LIGAND FREE ENERGY PREDICTED BY IDOCK:   -5.01 KCAL/MOL
REMARK 924 INTRA-LIGAND FREE ENERGY PREDICTED BY IDOCK:    1.12 KCAL/MOL
REMARK 927      BINDING AFFINITY PREDICTED BY RF-SCORE:    0.00 PKD
ROOT
HETATM    1  C   UNL     1     -10.046  16.812  67.375  1.00  0.00    -0.276 C  
HETATM    2  C   UNL     1     -10.835  17.054  68.534  1.00  0.00    -0.310 C  
HETATM    3  C   UNL     1      -9.599  16.319  68.955  1.00  0.00    -0.243 C  
HETATM    4  C   UNL     1      -8.229  16.194  67.442  1.00  0.00    -0.185 C  
HETATM    5  C   UNL     1      -8.385  12.341  66.350  1.00  0.00     0.157 C  
HETATM    6  C   UNL     1      -8.416  17.341  68.178  1.00  0.00    -0.238 C  
HETATM    7  C   UNL     1      -7.491  16.221  69.363  1.00  0.00    -0.152 C  
HETATM    8  C   UNL     1      -8.139  18.806  68.093  1.00  0.00    -0.327 C  
HETATM    9  C   UNL     1      -9.286  12.458  67.593  1.00  0.00    -0.188 C  
HETATM   10  H   UNL     1     -10.697   8.943  69.900  1.00  0.00     0.000 HD 
HETATM   11  C   UNL     1      -7.867  14.470  69.023  1.00  0.00    -0.106 C  
HETATM   12  C   UNL     1      -9.291  13.941  68.165  1.00  0.00    -0.203 C  
HETATM   13  C   UNL     1     -10.135  14.976  67.079  1.00  0.00    -0.244 C  
HETATM   14  C   UNL     1     -11.577  14.477  66.946  1.00  0.00    -0.399 C  
HETATM   15  C   UNL     1     -11.696  12.983  66.929  1.00  0.00    -0.441 C  
HETATM   16  C   UNL     1     -10.734  12.075  67.203  1.00  0.00    -0.277 C  
HETATM   17  C   UNL     1     -11.112  10.602  67.109  1.00  0.00    -0.267 C  
HETATM   18  C   UNL     1     -10.410   9.639  68.072  1.00  0.00    -0.218 C  
HETATM   19  C   UNL     1      -8.959  10.000  68.361  1.00  0.00    -0.121 C  
HETATM   20  O   UNL     1     -11.132   9.540  69.303  1.00  0.00    -0.190 OA 
HETATM   21  C   UNL     1      -8.775  11.486  68.693  1.00  0.00    -0.103 C  
ENDROOT
BRANCH   4  22
HETATM   22  C   UNL     1      -6.658  16.281  67.037  1.00  0.00    -0.158 C  
HETATM   23  C   UNL     1      -6.187  17.370  66.082  1.00  0.00    -0.204 C  
HETATM   24  O   UNL     1      -5.834  15.416  67.347  1.00  0.00    -0.321 OA 
ENDBRANCH   4  22
TORSDOF 1
ENDMDL
MODEL       62
REMARK 921   NORMALIZED FREE ENERGY PREDICTED BY IDOCK:   -4.47 KCAL/MOL
REMARK 922        TOTAL FREE ENERGY PREDICTED BY IDOCK:   -3.83 KCAL/MOL
REMARK 923 INTER-LIGAND FREE ENERGY PREDICTED BY IDOCK:   -4.96 KCAL/MOL
REMARK 924 INTRA-LIGAND FREE ENERGY PREDICTED BY IDOCK:    1.13 KCAL/MOL
REMARK 927      BINDING AFFINITY PREDICTED BY RF-SCORE:    0.00 PKD
ROOT
HETATM    1  C   UNL     1      -9.187  14.408  67.939  1.00  0.00    -0.195 C  
HETATM    2  C   UNL     1      -8.986  15.161  66.749  1.00  0.00    -0.293 C  
HETATM    3  C   UNL     1      -9.933  14.041  66.441  1.00  0.00    -0.301 C  
HETATM    4  C   UNL     1     -10.558  13.078  68.133  1.00  0.00    -0.257 C  
HETATM    5  C   UNL     1      -8.647   9.560  67.972  1.00  0.00    -0.120 C  
HETATM    6  C   UNL     1     -11.065  14.296  67.745  1.00  0.00    -0.294 C  
HETATM    7  C   UNL     1     -11.864  13.100  66.541  1.00  0.00    -0.456 C  
HETATM    8  C   UNL     1     -11.811  15.455  68.320  1.00  0.00    -0.225 C  
HETATM    9  C   UNL     1      -8.333  10.265  66.640  1.00  0.00    -0.125 C  
HETATM   10  H   UNL     1      -6.616   8.162  63.133  1.00  0.00     0.000 HD 
HETATM   11  C   UNL     1     -10.783  11.661  66.250  1.00  0.00    -0.317 C  
HETATM   12  C   UNL     1      -9.064  11.672  66.546  1.00  0.00    -0.200 C  
HETATM   13  C   UNL     1      -8.339  12.775  67.652  1.00  0.00    -0.175 C  
HETATM   14  C   UNL     1      -6.863  12.943  67.281  1.00  0.00    -0.066 C  
HETATM   15  C   UNL     1      -6.209  11.672  66.828  1.00  0.00    -0.123 C  
HETATM   16  C   UNL     1      -6.805  10.495  66.540  1.00  0.00    -0.113 C  
HETATM   17  C   UNL     1      -5.909   9.343  66.103  1.00  0.00    -0.057 C  
HETATM   18  C   UNL     1      -6.495   8.345  65.097  1.00  0.00    -0.056 C  
HETATM   19  C   UNL     1      -7.983   8.079  65.285  1.00  0.00    -0.124 C  
HETATM   20  O   UNL     1      -6.253   8.780  63.756  1.00  0.00    -0.076 OA 
HETATM   21  C   UNL     1      -8.797   9.366  65.459  1.00  0.00    -0.220 C  
ENDROOT
BRANCH   4  22
HETATM   22  C   UNL     1     -11.814  12.400  68.911  1.00  0.00    -0.301 C  
HETATM   23  C   UNL     1     -12.233  12.938  70.272  1.00  0.00    -0.362 C  
HETATM   24  O   UNL     1     -12.365  11.365  68.526  1.00  0.00    -0.504 OA 
ENDBRANCH   4  22
TORSDOF 1
ENDMDL
MODEL       63
REMARK 921   NORMALIZED FREE ENERGY PREDICTED BY IDOCK:   -4.43 KCAL/MOL
REMARK 922        TOTAL FREE ENERGY PREDICTED BY IDOCK:   -3.79 KCAL/MOL
REMARK 923 INTER-LIGAND FREE ENERGY PREDICTED BY IDOCK:   -4.93 KCAL/MOL
REMARK 924 INTRA-LIGAND FREE ENERGY PREDICTED BY IDOCK:    1.14 KCAL/MOL
REMARK 927      BINDING AFFINITY PREDICTED BY RF-SCORE:    0.00 PKD
ROOT
HETATM    1  C   UNL     1     -11.989  12.715  68.229  1.00  0.00    -0.271 C  
HETATM    2  C   UNL     1     -11.491  13.426  69.356  1.00  0.00    -0.333 C  
HETATM    3  C   UNL     1     -10.392  13.329  68.341  1.00  0.00    -0.254 C  
HETATM    4  C   UNL     1     -11.067  12.618  66.547  1.00  0.00    -0.320 C  
HETATM    5  C   UNL     1      -9.563   8.908  66.381  1.00  0.00    -0.304 C  
HETATM    6  C   UNL     1     -11.273  13.916  66.954  1.00  0.00    -0.324 C  
HETATM    7  C   UNL     1      -9.455  13.898  66.492  1.00  0.00    -0.288 C  
HETATM    8  C   UNL     1     -12.157  15.079  66.644  1.00  0.00     0.134 C  
HETATM    9  C   UNL     1      -8.956   9.546  67.644  1.00  0.00    -0.124 C  
HETATM   10  H   UNL     1      -5.475   7.831  69.791  1.00  0.00     0.000 HD 
HETATM   11  C   UNL     1      -8.739  12.243  66.757  1.00  0.00    -0.175 C  
HETATM   12  C   UNL     1      -9.440  11.049  67.819  1.00  0.00    -0.169 C  
HETATM   13  C   UNL     1     -11.110  11.074  68.238  1.00  0.00    -0.316 C  
HETATM   14  C   UNL     1     -11.295  10.322  69.559  1.00  0.00    -0.299 C  
HETATM   15  C   UNL     1     -10.425   9.107  69.687  1.00  0.00    -0.230 C  
HETATM   16  C   UNL     1      -9.405   8.736  68.884  1.00  0.00    -0.145 C  
HETATM   17  C   UNL     1      -8.676   7.442  69.228  1.00  0.00    -0.137 C  
HETATM   18  C   UNL     1      -7.181   7.376  68.901  1.00  0.00    -0.089 C  
HETATM   19  C   UNL     1      -6.793   8.112  67.625  1.00  0.00    -0.070 C  
HETATM   20  O   UNL     1      -6.403   7.872  69.994  1.00  0.00    -0.033 OA 
HETATM   21  C   UNL     1      -7.405   9.515  67.542  1.00  0.00    -0.090 C  
ENDROOT
BRANCH   4  22
HETATM   22  C   UNL     1     -10.994  12.757  64.929  1.00  0.00    -0.294 C  
HETATM   23  C   UNL     1     -11.801  11.806  64.057  1.00  0.00    -0.402 C  
HETATM   24  O   UNL     1     -10.199  13.506  64.353  1.00  0.00    -0.399 OA 
ENDBRANCH   4  22
TORSDOF 1
ENDMDL
MODEL       64
REMARK 921   NORMALIZED FREE ENERGY PREDICTED BY IDOCK:   -4.37 KCAL/MOL
REMARK 922        TOTAL FREE ENERGY PREDICTED BY IDOCK:   -3.73 KCAL/MOL
REMARK 923 INTER-LIGAND FREE ENERGY PREDICTED BY IDOCK:   -4.52 KCAL/MOL
REMARK 924 INTRA-LIGAND FREE ENERGY PREDICTED BY IDOCK:    0.80 KCAL/MOL
REMARK 927      BINDING AFFINITY PREDICTED BY RF-SCORE:    0.00 PKD
ROOT
HETATM    1  C   UNL     1      -8.564   7.173  66.844  1.00  0.00    -0.124 C  
HETATM    2  C   UNL     1      -9.642   6.423  66.298  1.00  0.00    -0.106 C  
HETATM    3  C   UNL     1     -10.216   7.524  67.138  1.00  0.00    -0.350 C  
HETATM    4  C   UNL     1      -8.789   8.869  67.716  1.00  0.00    -0.136 C  
HETATM    5  C   UNL     1      -8.320   8.115  71.625  1.00  0.00    -0.165 C  
HETATM    6  C   UNL     1      -9.326   8.860  66.451  1.00  0.00    -0.262 C  
HETATM    7  C   UNL     1     -10.705   9.588  67.493  1.00  0.00    -0.311 C  
HETATM    8  C   UNL     1      -9.019   9.366  65.079  1.00  0.00    -0.258 C  
HETATM    9  C   UNL     1      -9.497   7.234  71.169  1.00  0.00    -0.156 C  
HETATM   10  H   UNL     1     -12.286   5.267  74.003  1.00  0.00     0.000 HD 
HETATM   11  C   UNL     1     -10.636   8.942  69.196  1.00  0.00    -0.211 C  
HETATM   12  C   UNL     1      -9.825   7.459  69.631  1.00  0.00    -0.175 C  
HETATM   13  C   UNL     1      -8.561   6.798  68.668  1.00  0.00    -0.122 C  
HETATM   14  C   UNL     1      -8.461   5.296  68.953  1.00  0.00    -0.091 C  
HETATM   15  C   UNL     1      -8.679   4.942  70.393  1.00  0.00    -0.123 C  
HETATM   16  C   UNL     1      -9.125   5.746  71.382  1.00  0.00    -0.150 C  
HETATM   17  C   UNL     1      -9.254   5.142  72.775  1.00  0.00    -0.146 C  
HETATM   18  C   UNL     1     -10.381   5.675  73.666  1.00  0.00    -0.240 C  
HETATM   19  C   UNL     1     -10.657   7.162  73.491  1.00  0.00    -0.416 C  
HETATM   20  O   UNL     1     -11.587   4.936  73.450  1.00  0.00    -0.313 OA 
HETATM   21  C   UNL     1     -10.754   7.577  72.018  1.00  0.00    -0.264 C  
ENDROOT
BRANCH   4  22
HETATM   22  C   UNL     1      -8.428  10.438  67.941  1.00  0.00    -0.114 C  
HETATM   23  C   UNL     1      -7.585  10.850  69.140  1.00  0.00    -0.133 C  
HETATM   24  O   UNL     1      -8.924  11.346  67.268  1.00  0.00    -0.154 OA 
ENDBRANCH   4  22
TORSDOF 1
ENDMDL
MODEL       65
REMARK 921   NORMALIZED FREE ENERGY PREDICTED BY IDOCK:   -4.33 KCAL/MOL
REMARK 922        TOTAL FREE ENERGY PREDICTED BY IDOCK:   -3.68 KCAL/MOL
REMARK 923 INTER-LIGAND FREE ENERGY PREDICTED BY IDOCK:   -4.49 KCAL/MOL
REMARK 924 INTRA-LIGAND FREE ENERGY PREDICTED BY IDOCK:    0.81 KCAL/MOL
REMARK 927      BINDING AFFINITY PREDICTED BY RF-SCORE:    0.00 PKD
ROOT
HETATM    1  C   UNL     1      -8.812   6.846  69.928  1.00  0.00    -0.142 C  
HETATM    2  C   UNL     1      -9.892   7.098  70.818  1.00  0.00    -0.180 C  
HETATM    3  C   UNL     1     -10.438   7.044  69.423  1.00  0.00    -0.227 C  
HETATM    4  C   UNL     1      -9.049   6.369  68.083  1.00  0.00    -0.113 C  
HETATM    5  C   UNL     1      -8.071   9.656  66.009  1.00  0.00    -0.112 C  
HETATM    6  C   UNL     1      -9.730   5.527  68.930  1.00  0.00    -0.193 C  
HETATM    7  C   UNL     1     -11.024   5.979  67.650  1.00  0.00    -0.334 C  
HETATM    8  C   UNL     1      -9.622   4.148  69.494  1.00  0.00    -0.274 C  
HETATM    9  C   UNL     1      -9.230  10.075  66.932  1.00  0.00    -0.169 C  
HETATM   10  H   UNL     1     -11.522  13.833  66.383  1.00  0.00     0.000 HD 
HETATM   11  C   UNL     1     -10.709   7.643  66.976  1.00  0.00    -0.340 C  
HETATM   12  C   UNL     1      -9.752   8.849  67.796  1.00  0.00    -0.196 C  
HETATM   13  C   UNL     1      -8.568   8.425  68.971  1.00  0.00    -0.131 C  
HETATM   14  C   UNL     1      -8.331   9.630  69.887  1.00  0.00    -0.195 C  
HETATM   15  C   UNL     1      -8.352  10.945  69.167  1.00  0.00    -0.077 C  
HETATM   16  C   UNL     1      -8.733  11.182  67.893  1.00  0.00    -0.136 C  
HETATM   17  C   UNL     1      -8.655  12.619  67.393  1.00  0.00    -0.189 C  
HETATM   18  C   UNL     1      -9.703  13.059  66.365  1.00  0.00    -0.268 C  
HETATM   19  C   UNL     1     -10.100  11.967  65.381  1.00  0.00    -0.285 C  
HETATM   20  O   UNL     1     -10.872  13.560  67.020  1.00  0.00    -0.278 OA 
HETATM   21  C   UNL     1     -10.399  10.630  66.069  1.00  0.00    -0.290 C  
ENDROOT
BRANCH   4  22
HETATM   22  C   UNL     1      -8.774   5.428  66.787  1.00  0.00    -0.113 C  
HETATM   23  C   UNL     1      -7.770   5.875  65.734  1.00  0.00    -0.096 C  
HETATM   24  O   UNL     1      -9.445   4.425  66.528  1.00  0.00    -0.149 OA 
ENDBRANCH   4  22
TORSDOF 1
ENDMDL
MODEL       66
REMARK 921   NORMALIZED FREE ENERGY PREDICTED BY IDOCK:   -4.33 KCAL/MOL
REMARK 922        TOTAL FREE ENERGY PREDICTED BY IDOCK:   -3.68 KCAL/MOL
REMARK 923 INTER-LIGAND FREE ENERGY PREDICTED BY IDOCK:   -4.63 KCAL/MOL
REMARK 924 INTRA-LIGAND FREE ENERGY PREDICTED BY IDOCK:    0.95 KCAL/MOL
REMARK 927      BINDING AFFINITY PREDICTED BY RF-SCORE:    0.00 PKD
ROOT
HETATM    1  C   UNL     1     -10.955  10.113  68.137  1.00  0.00    -0.313 C  
HETATM    2  C   UNL     1     -11.084  11.455  68.588  1.00  0.00    -0.290 C  
HETATM    3  C   UNL     1      -9.628  11.174  68.365  1.00  0.00    -0.192 C  
HETATM    4  C   UNL     1      -9.331   9.391  67.410  1.00  0.00    -0.151 C  
HETATM    5  C   UNL     1      -7.850   7.022  70.283  1.00  0.00    -0.105 C  
HETATM    6  C   UNL     1      -9.738  10.526  66.748  1.00  0.00    -0.220 C  
HETATM    7  C   UNL     1      -7.925  10.860  67.091  1.00  0.00    -0.127 C  
HETATM    8  C   UNL     1     -10.388  10.924  65.463  1.00  0.00    -0.316 C  
HETATM    9  C   UNL     1      -7.948   8.425  70.909  1.00  0.00    -0.112 C  
HETATM   10  H   UNL     1      -5.908   9.535  74.688  1.00  0.00     0.000 HD 
HETATM   11  C   UNL     1      -7.390  10.012  68.613  1.00  0.00    -0.081 C  
HETATM   12  C   UNL     1      -8.490   9.488  69.861  1.00  0.00    -0.198 C  
HETATM   13  C   UNL     1     -10.154   9.184  69.538  1.00  0.00    -0.202 C  
HETATM   14  C   UNL     1     -10.939   9.312  70.846  1.00  0.00    -0.368 C  
HETATM   15  C   UNL     1     -10.213   8.767  72.039  1.00  0.00    -0.401 C  
HETATM   16  C   UNL     1      -8.923   8.373  72.110  1.00  0.00    -0.293 C  
HETATM   17  C   UNL     1      -8.423   7.846  73.449  1.00  0.00    -0.273 C  
HETATM   18  C   UNL     1      -6.956   8.113  73.801  1.00  0.00    -0.130 C  
HETATM   19  C   UNL     1      -6.015   8.067  72.605  1.00  0.00    -0.051 C  
HETATM   20  O   UNL     1      -6.818   9.370  74.470  1.00  0.00    -0.370 OA 
HETATM   21  C   UNL     1      -6.542   8.865  71.407  1.00  0.00    -0.081 C  
ENDROOT
BRANCH   4  22
HETATM   22  C   UNL     1      -8.485   8.597  66.271  1.00  0.00    -0.125 C  
HETATM   23  C   UNL     1      -8.429   7.075  66.302  1.00  0.00    -0.134 C  
HETATM   24  O   UNL     1      -7.756   9.166  65.454  1.00  0.00    -0.096 OA 
ENDBRANCH   4  22
TORSDOF 1
ENDMDL
MODEL       67
REMARK 921   NORMALIZED FREE ENERGY PREDICTED BY IDOCK:   -4.27 KCAL/MOL
REMARK 922        TOTAL FREE ENERGY PREDICTED BY IDOCK:   -3.61 KCAL/MOL
REMARK 923 INTER-LIGAND FREE ENERGY PREDICTED BY IDOCK:   -4.42 KCAL/MOL
REMARK 924 INTRA-LIGAND FREE ENERGY PREDICTED BY IDOCK:    0.81 KCAL/MOL
REMARK 927      BINDING AFFINITY PREDICTED BY RF-SCORE:    0.00 PKD
ROOT
HETATM    1  C   UNL     1     -11.460   7.054  71.985  1.00  0.00    -0.308 C  
HETATM    2  C   UNL     1     -10.856   7.478  73.201  1.00  0.00    -0.448 C  
HETATM    3  C   UNL     1      -9.836   7.587  72.108  1.00  0.00    -0.209 C  
HETATM    4  C   UNL     1     -10.663   7.317  70.258  1.00  0.00    -0.252 C  
HETATM    5  C   UNL     1      -9.328   3.705  69.150  1.00  0.00    -0.244 C  
HETATM    6  C   UNL     1     -10.787   8.494  70.960  1.00  0.00    -0.290 C  
HETATM    7  C   UNL     1      -9.008   8.537  70.366  1.00  0.00    -0.161 C  
HETATM    8  C   UNL     1     -11.642   9.718  70.988  1.00  0.00    -0.455 C  
HETATM    9  C   UNL     1      -8.609   4.026  70.473  1.00  0.00    -0.106 C  
HETATM   10  H   UNL     1      -5.060   1.785  71.905  1.00  0.00     0.000 HD 
HETATM   11  C   UNL     1      -8.344   6.848  70.198  1.00  0.00    -0.135 C  
HETATM   12  C   UNL     1      -9.017   5.462  71.017  1.00  0.00    -0.156 C  
HETATM   13  C   UNL     1     -10.651   5.432  71.559  1.00  0.00    -0.285 C  
HETATM   14  C   UNL     1     -10.774   4.405  72.689  1.00  0.00    -0.204 C  
HETATM   15  C   UNL     1      -9.948   3.172  72.473  1.00  0.00    -0.228 C  
HETATM   16  C   UNL     1      -9.003   2.967  71.531  1.00  0.00    -0.152 C  
HETATM   17  C   UNL     1      -8.306   1.612  71.519  1.00  0.00    -0.056 C  
HETATM   18  C   UNL     1      -6.841   1.585  71.070  1.00  0.00    -0.024 C  
HETATM   19  C   UNL     1      -6.513   2.581  69.965  1.00  0.00    -0.029 C  
HETATM   20  O   UNL     1      -5.968   1.802  72.183  1.00  0.00    -0.008 OA 
HETATM   21  C   UNL     1      -7.071   3.981  70.246  1.00  0.00    -0.041 C  
ENDROOT
BRANCH   4  22
HETATM   22  C   UNL     1     -10.698   7.817  68.712  1.00  0.00    -0.062 C  
HETATM   23  C   UNL     1     -10.908   6.799  67.599  1.00  0.00    -0.361 C  
HETATM   24  O   UNL     1     -10.417   8.969  68.370  1.00  0.00    -0.206 OA 
ENDBRANCH   4  22
TORSDOF 1
ENDMDL
MODEL       68
REMARK 921   NORMALIZED FREE ENERGY PREDICTED BY IDOCK:   -4.23 KCAL/MOL
REMARK 922        TOTAL FREE ENERGY PREDICTED BY IDOCK:   -3.58 KCAL/MOL
REMARK 923 INTER-LIGAND FREE ENERGY PREDICTED BY IDOCK:   -4.39 KCAL/MOL
REMARK 924 INTRA-LIGAND FREE ENERGY PREDICTED BY IDOCK:    0.82 KCAL/MOL
REMARK 927      BINDING AFFINITY PREDICTED BY RF-SCORE:    0.00 PKD
ROOT
HETATM    1  C   UNL     1      -8.544   4.678  69.515  1.00  0.00    -0.103 C  
HETATM    2  C   UNL     1      -9.510   4.122  68.631  1.00  0.00    -0.221 C  
HETATM    3  C   UNL     1      -9.278   5.549  68.234  1.00  0.00    -0.118 C  
HETATM    4  C   UNL     1      -7.681   6.367  69.213  1.00  0.00    -0.101 C  
HETATM    5  C   UNL     1      -9.375   8.897  71.819  1.00  0.00    -0.304 C  
HETATM    6  C   UNL     1      -7.535   5.510  68.148  1.00  0.00    -0.073 C  
HETATM    7  C   UNL     1      -8.098   7.106  67.337  1.00  0.00    -0.112 C  
HETATM    8  C   UNL     1      -6.500   4.630  67.528  1.00  0.00    -0.045 C  
HETATM    9  C   UNL     1     -10.527   8.366  70.946  1.00  0.00    -0.235 C  
HETATM   10  H   UNL     1     -14.539  10.253  70.822  1.00  0.00     0.000 HD 
HETATM   11  C   UNL     1      -9.151   8.068  68.471  1.00  0.00    -0.136 C  
HETATM   12  C   UNL     1      -9.993   7.369  69.830  1.00  0.00    -0.188 C  
HETATM   13  C   UNL     1      -9.470   5.904  70.567  1.00  0.00    -0.196 C  
HETATM   14  C   UNL     1     -10.660   5.268  71.292  1.00  0.00    -0.242 C  
HETATM   15  C   UNL     1     -11.554   6.263  71.967  1.00  0.00    -0.372 C  
HETATM   16  C   UNL     1     -11.532   7.608  71.845  1.00  0.00    -0.313 C  
HETATM   17  C   UNL     1     -12.553   8.402  72.651  1.00  0.00    -0.224 C  
HETATM   18  C   UNL     1     -13.073   9.703  72.029  1.00  0.00    -0.445 C  
HETATM   19  C   UNL     1     -12.029  10.465  71.225  1.00  0.00    -0.425 C  
HETATM   20  O   UNL     1     -14.216   9.447  71.207  1.00  0.00    -0.144 OA 
HETATM   21  C   UNL     1     -11.248   9.563  70.262  1.00  0.00    -0.307 C  
ENDROOT
BRANCH   4  22
HETATM   22  C   UNL     1      -6.368   7.318  69.091  1.00  0.00    -0.036 C  
HETATM   23  C   UNL     1      -5.957   8.185  70.273  1.00  0.00    -0.028 C  
HETATM   24  O   UNL     1      -5.759   7.491  68.032  1.00  0.00    -0.025 OA 
ENDBRANCH   4  22
TORSDOF 1
ENDMDL
MODEL       69
REMARK 921   NORMALIZED FREE ENERGY PREDICTED BY IDOCK:   -4.17 KCAL/MOL
REMARK 922        TOTAL FREE ENERGY PREDICTED BY IDOCK:   -3.51 KCAL/MOL
REMARK 923 INTER-LIGAND FREE ENERGY PREDICTED BY IDOCK:   -4.30 KCAL/MOL
REMARK 924 INTRA-LIGAND FREE ENERGY PREDICTED BY IDOCK:    0.79 KCAL/MOL
REMARK 927      BINDING AFFINITY PREDICTED BY RF-SCORE:    0.00 PKD
ROOT
HETATM    1  C   UNL     1     -10.295   5.990  67.003  1.00  0.00    -0.296 C  
HETATM    2  C   UNL     1      -9.937   7.366  66.954  1.00  0.00    -0.307 C  
HETATM    3  C   UNL     1      -8.783   6.601  67.530  1.00  0.00    -0.118 C  
HETATM    4  C   UNL     1      -9.040   4.581  67.356  1.00  0.00    -0.141 C  
HETATM    5  C   UNL     1      -9.802   3.404  71.110  1.00  0.00    -0.159 C  
HETATM    6  C   UNL     1      -8.652   5.371  66.299  1.00  0.00    -0.122 C  
HETATM    7  C   UNL     1      -7.101   5.274  67.350  1.00  0.00    -0.067 C  
HETATM    8  C   UNL     1      -8.601   5.332  64.807  1.00  0.00    -0.136 C  
HETATM    9  C   UNL     1      -9.446   4.899  71.207  1.00  0.00    -0.214 C  
HETATM   10  H   UNL     1      -8.452   6.909  75.033  1.00  0.00     0.000 HD 
HETATM   11  C   UNL     1      -7.527   5.069  69.110  1.00  0.00    -0.061 C  
HETATM   12  C   UNL     1      -9.079   5.498  69.781  1.00  0.00    -0.157 C  
HETATM   13  C   UNL     1     -10.497   5.586  68.809  1.00  0.00    -0.261 C  
HETATM   14  C   UNL     1     -11.511   6.502  69.501  1.00  0.00    -0.384 C  
HETATM   15  C   UNL     1     -11.536   6.352  70.993  1.00  0.00    -0.394 C  
HETATM   16  C   UNL     1     -10.664   5.672  71.768  1.00  0.00    -0.305 C  
HETATM   17  C   UNL     1     -10.916   5.668  73.271  1.00  0.00    -0.316 C  
HETATM   18  C   UNL     1      -9.686   5.619  74.184  1.00  0.00    -0.177 C  
HETATM   19  C   UNL     1      -8.542   4.776  73.637  1.00  0.00    -0.104 C  
HETATM   20  O   UNL     1      -9.215   6.940  74.467  1.00  0.00    -0.204 OA 
HETATM   21  C   UNL     1      -8.235   5.079  72.166  1.00  0.00    -0.116 C  
ENDROOT
BRANCH   4  22
HETATM   22  C   UNL     1      -8.333   3.157  67.016  1.00  0.00    -0.090 C  
HETATM   23  C   UNL     1      -8.639   1.942  67.882  1.00  0.00    -0.101 C  
HETATM   24  O   UNL     1      -7.438   3.033  66.175  1.00  0.00    -0.070 OA 
ENDBRANCH   4  22
TORSDOF 1
ENDMDL
MODEL       70
REMARK 921   NORMALIZED FREE ENERGY PREDICTED BY IDOCK:   -4.14 KCAL/MOL
REMARK 922        TOTAL FREE ENERGY PREDICTED BY IDOCK:   -3.48 KCAL/MOL
REMARK 923 INTER-LIGAND FREE ENERGY PREDICTED BY IDOCK:   -4.29 KCAL/MOL
REMARK 924 INTRA-LIGAND FREE ENERGY PREDICTED BY IDOCK:    0.82 KCAL/MOL
REMARK 927      BINDING AFFINITY PREDICTED BY RF-SCORE:    0.00 PKD
ROOT
HETATM    1  C   UNL     1      -9.820   9.320  70.907  1.00  0.00    -0.363 C  
HETATM    2  C   UNL     1     -11.052   9.932  70.546  1.00  0.00    -0.398 C  
HETATM    3  C   UNL     1     -11.031   8.548  69.971  1.00  0.00    -0.197 C  
HETATM    4  C   UNL     1      -9.463   7.447  70.684  1.00  0.00    -0.164 C  
HETATM    5  C   UNL     1      -6.980   7.211  67.548  1.00  0.00    -0.079 C  
HETATM    6  C   UNL     1     -10.601   7.676  71.421  1.00  0.00    -0.236 C  
HETATM    7  C   UNL     1     -11.161   6.410  70.155  1.00  0.00    -0.454 C  
HETATM    8  C   UNL     1     -11.067   7.636  72.840  1.00  0.00    -0.448 C  
HETATM    9  C   UNL     1      -8.252   7.900  67.020  1.00  0.00    -0.117 C  
HETATM   10  H   UNL     1      -9.135   8.371  62.699  1.00  0.00     0.000 HD 
HETATM   11  C   UNL     1     -10.205   6.575  68.612  1.00  0.00    -0.192 C  
HETATM   12  C   UNL     1      -9.352   8.028  68.159  1.00  0.00    -0.145 C  
HETATM   13  C   UNL     1      -8.843   9.185  69.327  1.00  0.00    -0.144 C  
HETATM   14  C   UNL     1      -8.668  10.539  68.633  1.00  0.00    -0.143 C  
HETATM   15  C   UNL     1      -8.083  10.437  67.256  1.00  0.00    -0.114 C  
HETATM   16  C   UNL     1      -7.887   9.320  66.524  1.00  0.00    -0.100 C  
HETATM   17  C   UNL     1      -7.264   9.486  65.143  1.00  0.00    -0.108 C  
HETATM   18  C   UNL     1      -7.703   8.498  64.057  1.00  0.00    -0.137 C  
HETATM   19  C   UNL     1      -7.967   7.089  64.571  1.00  0.00    -0.104 C  
HETATM   20  O   UNL     1      -8.863   8.983  63.373  1.00  0.00    -0.149 OA 
HETATM   21  C   UNL     1      -8.831   7.074  65.837  1.00  0.00    -0.126 C  
ENDROOT
BRANCH   4  22
HETATM   22  C   UNL     1      -8.972   5.995  71.226  1.00  0.00    -0.136 C  
HETATM   23  C   UNL     1      -7.721   5.358  70.637  1.00  0.00    -0.089 C  
HETATM   24  O   UNL     1      -9.643   5.301  71.996  1.00  0.00    -0.149 OA 
ENDBRANCH   4  22
TORSDOF 1
ENDMDL
MODEL       71
REMARK 921   NORMALIZED FREE ENERGY PREDICTED BY IDOCK:   -4.13 KCAL/MOL
REMARK 922        TOTAL FREE ENERGY PREDICTED BY IDOCK:   -3.47 KCAL/MOL
REMARK 923 INTER-LIGAND FREE ENERGY PREDICTED BY IDOCK:   -4.55 KCAL/MOL
REMARK 924 INTRA-LIGAND FREE ENERGY PREDICTED BY IDOCK:    1.09 KCAL/MOL
REMARK 927      BINDING AFFINITY PREDICTED BY RF-SCORE:    0.00 PKD
ROOT
HETATM    1  C   UNL     1      -9.702  18.593  66.837  1.00  0.00    -0.333 C  
HETATM    2  C   UNL     1     -10.987  19.170  67.037  1.00  0.00    -0.356 C  
HETATM    3  C   UNL     1     -10.848  18.003  67.967  1.00  0.00    -0.194 C  
HETATM    4  C   UNL     1      -8.934  17.284  68.013  1.00  0.00    -0.242 C  
HETATM    5  C   UNL     1      -9.189  13.808  66.034  1.00  0.00     0.059 C  
HETATM    6  C   UNL     1      -9.312  18.426  68.681  1.00  0.00    -0.339 C  
HETATM    7  C   UNL     1     -10.053  17.056  69.726  1.00  0.00     0.188 C  
HETATM    8  C   UNL     1      -8.699  19.644  69.290  1.00  0.00     0.060 C  
HETATM    9  C   UNL     1     -10.635  14.320  66.165  1.00  0.00    -0.293 C  
HETATM   10  H   UNL     1     -14.184  11.761  65.433  1.00  0.00     0.000 HD 
HETATM   11  C   UNL     1     -10.459  15.607  68.698  1.00  0.00    -0.231 C  
HETATM   12  C   UNL     1     -10.693  15.688  66.971  1.00  0.00    -0.314 C  
HETATM   13  C   UNL     1     -10.010  16.949  66.019  1.00  0.00    -0.313 C  
HETATM   14  C   UNL     1     -10.822  17.084  64.728  1.00  0.00     0.243 C  
HETATM   15  C   UNL     1     -11.277  15.771  64.163  1.00  0.00     0.072 C  
HETATM   16  C   UNL     1     -11.216  14.556  64.750  1.00  0.00    -0.395 C  
HETATM   17  C   UNL     1     -11.743  13.367  63.956  1.00  0.00    -0.465 C  
HETATM   18  C   UNL     1     -12.387  12.227  64.752  1.00  0.00    -0.339 C  
HETATM   19  C   UNL     1     -11.731  11.967  66.102  1.00  0.00    -0.313 C  
HETATM   20  O   UNL     1     -13.784  12.468  64.939  1.00  0.00    -0.011 OA 
HETATM   21  C   UNL     1     -11.494  13.253  66.902  1.00  0.00    -0.376 C  
ENDROOT
BRANCH   4  22
HETATM   22  C   UNL     1      -7.734  16.705  68.944  1.00  0.00    -0.239 C  
HETATM   23  C   UNL     1      -6.576  17.615  69.329  1.00  0.00    -0.233 C  
HETATM   24  O   UNL     1      -7.630  15.512  69.244  1.00  0.00    -0.188 OA 
ENDBRANCH   4  22
TORSDOF 1
ENDMDL
MODEL       72
REMARK 921   NORMALIZED FREE ENERGY PREDICTED BY IDOCK:   -4.09 KCAL/MOL
REMARK 922        TOTAL FREE ENERGY PREDICTED BY IDOCK:   -3.43 KCAL/MOL
REMARK 923 INTER-LIGAND FREE ENERGY PREDICTED BY IDOCK:   -4.52 KCAL/MOL
REMARK 924 INTRA-LIGAND FREE ENERGY PREDICTED BY IDOCK:    1.09 KCAL/MOL
REMARK 927      BINDING AFFINITY PREDICTED BY RF-SCORE:    0.00 PKD
ROOT
HETATM    1  C   UNL     1      -9.344   3.102  70.103  1.00  0.00    -0.238 C  
HETATM    2  C   UNL     1      -7.975   3.167  69.723  1.00  0.00    -0.055 C  
HETATM    3  C   UNL     1      -8.178   4.073  70.900  1.00  0.00    -0.075 C  
HETATM    4  C   UNL     1     -10.023   3.828  71.746  1.00  0.00    -0.227 C  
HETATM    5  C   UNL     1     -11.986   7.160  70.696  1.00  0.00    -0.312 C  
HETATM    6  C   UNL     1      -8.990   2.944  71.954  1.00  0.00    -0.134 C  
HETATM    7  C   UNL     1      -8.500   4.424  72.996  1.00  0.00    -0.098 C  
HETATM    8  C   UNL     1      -8.768   1.541  72.418  1.00  0.00    -0.068 C  
HETATM    9  C   UNL     1     -10.538   7.362  70.215  1.00  0.00    -0.241 C  
HETATM   10  H   UNL     1      -8.918  11.307  68.997  1.00  0.00     0.000 HD 
HETATM   11  C   UNL     1      -9.153   5.965  72.274  1.00  0.00    -0.142 C  
HETATM   12  C   UNL     1      -9.624   6.121  70.601  1.00  0.00    -0.195 C  
HETATM   13  C   UNL     1     -10.071   4.756  69.652  1.00  0.00    -0.275 C  
HETATM   14  C   UNL     1      -9.867   5.098  68.173  1.00  0.00    -0.204 C  
HETATM   15  C   UNL     1     -10.239   6.509  67.826  1.00  0.00    -0.201 C  
HETATM   16  C   UNL     1     -10.535   7.516  68.675  1.00  0.00    -0.207 C  
HETATM   17  C   UNL     1     -10.890   8.867  68.065  1.00  0.00    -0.079 C  
HETATM   18  C   UNL     1     -10.490  10.117  68.855  1.00  0.00    -0.210 C  
HETATM   19  C   UNL     1     -10.592   9.953  70.366  1.00  0.00    -0.364 C  
HETATM   20  O   UNL     1      -9.166  10.532  68.507  1.00  0.00    -0.153 OA 
HETATM   21  C   UNL     1      -9.955   8.650  70.863  1.00  0.00    -0.257 C  
ENDROOT
BRANCH   4  22
HETATM   22  C   UNL     1     -10.867   3.725  73.131  1.00  0.00    -0.161 C  
HETATM   23  C   UNL     1     -11.252   2.357  73.677  1.00  0.00    -0.317 C  
HETATM   24  O   UNL     1     -11.349   4.710  73.700  1.00  0.00    -0.302 OA 
ENDBRANCH   4  22
TORSDOF 1
ENDMDL
MODEL       73
REMARK 921   NORMALIZED FREE ENERGY PREDICTED BY IDOCK:   -4.03 KCAL/MOL
REMARK 922        TOTAL FREE ENERGY PREDICTED BY IDOCK:   -3.36 KCAL/MOL
REMARK 923 INTER-LIGAND FREE ENERGY PREDICTED BY IDOCK:   -4.20 KCAL/MOL
REMARK 924 INTRA-LIGAND FREE ENERGY PREDICTED BY IDOCK:    0.84 KCAL/MOL
REMARK 927      BINDING AFFINITY PREDICTED BY RF-SCORE:    0.00 PKD
ROOT
HETATM    1  C   UNL     1     -10.932  11.173  69.713  1.00  0.00    -0.216 C  
HETATM    2  C   UNL     1     -11.966  11.115  68.738  1.00  0.00    -0.337 C  
HETATM    3  C   UNL     1     -11.404   9.735  68.907  1.00  0.00     0.006 C  
HETATM    4  C   UNL     1     -10.136   9.616  70.507  1.00  0.00    -0.338 C  
HETATM    5  C   UNL     1      -6.517   9.300  68.814  1.00  0.00    -0.048 C  
HETATM    6  C   UNL     1     -11.504   9.630  70.647  1.00  0.00    -0.376 C  
HETATM    7  C   UNL     1     -11.160   7.902  70.003  1.00  0.00    -0.165 C  
HETATM    8  C   UNL     1     -12.539   9.895  71.691  1.00  0.00    -0.519 C  
HETATM    9  C   UNL     1      -7.527   9.238  67.653  1.00  0.00    -0.088 C  
HETATM   10  H   UNL     1      -6.446   7.865  63.576  1.00  0.00     0.000 HD 
HETATM   11  C   UNL     1      -9.669   7.889  68.956  1.00  0.00    -0.162 C  
HETATM   12  C   UNL     1      -9.022   9.314  68.184  1.00  0.00    -0.128 C  
HETATM   13  C   UNL     1      -9.344  10.896  68.781  1.00  0.00    -0.190 C  
HETATM   14  C   UNL     1      -9.158  11.899  67.638  1.00  0.00    -0.179 C  
HETATM   15  C   UNL     1      -8.008  11.571  66.733  1.00  0.00    -0.152 C  
HETATM   16  C   UNL     1      -7.278  10.436  66.704  1.00  0.00    -0.113 C  
HETATM   17  C   UNL     1      -6.150  10.352  65.684  1.00  0.00    -0.123 C  
HETATM   18  C   UNL     1      -5.839   8.970  65.099  1.00  0.00    -0.058 C  
HETATM   19  C   UNL     1      -6.010   7.826  66.090  1.00  0.00    -0.038 C  
HETATM   20  O   UNL     1      -6.638   8.722  63.939  1.00  0.00    -0.085 OA 
HETATM   21  C   UNL     1      -7.327   7.910  66.869  1.00  0.00    -0.090 C  
ENDROOT
BRANCH   4  22
HETATM   22  C   UNL     1      -9.655   8.729  71.781  1.00  0.00    -0.301 C  
HETATM   23  C   UNL     1      -8.183   8.372  71.935  1.00  0.00    -0.210 C  
HETATM   24  O   UNL     1     -10.444   8.197  72.568  1.00  0.00    -0.291 OA 
ENDBRANCH   4  22
TORSDOF 1
ENDMDL
MODEL       74
REMARK 921   NORMALIZED FREE ENERGY PREDICTED BY IDOCK:   -3.97 KCAL/MOL
REMARK 922        TOTAL FREE ENERGY PREDICTED BY IDOCK:   -3.30 KCAL/MOL
REMARK 923 INTER-LIGAND FREE ENERGY PREDICTED BY IDOCK:   -4.12 KCAL/MOL
REMARK 924 INTRA-LIGAND FREE ENERGY PREDICTED BY IDOCK:    0.82 KCAL/MOL
REMARK 927      BINDING AFFINITY PREDICTED BY RF-SCORE:    0.00 PKD
ROOT
HETATM    1  C   UNL     1      -9.943   8.078  70.592  1.00  0.00    -0.198 C  
HETATM    2  C   UNL     1     -11.339   8.260  70.386  1.00  0.00    -0.177 C  
HETATM    3  C   UNL     1     -11.083   6.798  70.591  1.00  0.00    -0.338 C  
HETATM    4  C   UNL     1      -9.171   6.436  71.217  1.00  0.00    -0.158 C  
HETATM    5  C   UNL     1      -7.423   4.801  68.003  1.00  0.00    -0.074 C  
HETATM    6  C   UNL     1     -10.149   6.905  72.062  1.00  0.00    -0.201 C  
HETATM    7  C   UNL     1     -10.616   5.103  71.829  1.00  0.00    -0.238 C  
HETATM    8  C   UNL     1     -10.281   7.593  73.381  1.00  0.00    -0.375 C  
HETATM    9  C   UNL     1      -8.911   4.952  67.636  1.00  0.00    -0.107 C  
HETATM   10  H   UNL     1     -10.770   2.902  64.169  1.00  0.00     0.000 HD 
HETATM   11  C   UNL     1     -10.080   4.505  70.193  1.00  0.00    -0.220 C  
HETATM   12  C   UNL     1      -9.744   5.559  68.845  1.00  0.00    -0.193 C  
HETATM   13  C   UNL     1      -9.318   7.212  69.067  1.00  0.00    -0.140 C  
HETATM   14  C   UNL     1      -9.646   7.981  67.785  1.00  0.00    -0.179 C  
HETATM   15  C   UNL     1      -9.356   7.211  66.531  1.00  0.00    -0.208 C  
HETATM   16  C   UNL     1      -9.037   5.904  66.422  1.00  0.00    -0.156 C  
HETATM   17  C   UNL     1      -8.781   5.358  65.022  1.00  0.00    -0.116 C  
HETATM   18  C   UNL     1      -9.168   3.899  64.761  1.00  0.00    -0.149 C  
HETATM   19  C   UNL     1      -8.946   2.977  65.952  1.00  0.00    -0.145 C  
HETATM   20  O   UNL     1     -10.529   3.807  64.332  1.00  0.00    -0.238 OA 
HETATM   21  C   UNL     1      -9.492   3.559  67.261  1.00  0.00    -0.228 C  
ENDROOT
BRANCH   4  22
HETATM   22  C   UNL     1      -8.220   5.574  72.215  1.00  0.00    -0.111 C  
HETATM   23  C   UNL     1      -7.013   4.836  71.651  1.00  0.00    -0.052 C  
HETATM   24  O   UNL     1      -8.504   5.359  73.397  1.00  0.00    -0.116 OA 
ENDBRANCH   4  22
TORSDOF 1
ENDMDL
MODEL       75
REMARK 921   NORMALIZED FREE ENERGY PREDICTED BY IDOCK:   -3.91 KCAL/MOL
REMARK 922        TOTAL FREE ENERGY PREDICTED BY IDOCK:   -3.24 KCAL/MOL
REMARK 923 INTER-LIGAND FREE ENERGY PREDICTED BY IDOCK:   -4.33 KCAL/MOL
REMARK 924 INTRA-LIGAND FREE ENERGY PREDICTED BY IDOCK:    1.09 KCAL/MOL
REMARK 927      BINDING AFFINITY PREDICTED BY RF-SCORE:    0.00 PKD
ROOT
HETATM    1  C   UNL     1      -6.716   9.831  68.930  1.00  0.00    -0.050 C  
HETATM    2  C   UNL     1      -6.720  10.102  70.326  1.00  0.00    -0.143 C  
HETATM    3  C   UNL     1      -8.109   9.709  69.921  1.00  0.00    -0.180 C  
HETATM    4  C   UNL     1      -8.174   8.983  68.012  1.00  0.00    -0.110 C  
HETATM    5  C   UNL     1      -9.973  11.914  65.954  1.00  0.00    -0.261 C  
HETATM    6  C   UNL     1      -7.721   8.235  69.072  1.00  0.00    -0.098 C  
HETATM    7  C   UNL     1      -9.579   8.257  69.329  1.00  0.00    -0.164 C  
HETATM    8  C   UNL     1      -6.900   7.015  69.338  1.00  0.00    -0.054 C  
HETATM    9  C   UNL     1     -10.036  12.343  67.431  1.00  0.00    -0.205 C  
HETATM   10  H   UNL     1     -12.684  15.586  68.898  1.00  0.00     0.000 HD 
HETATM   11  C   UNL     1     -10.304   9.788  68.658  1.00  0.00    -0.224 C  
HETATM   12  C   UNL     1      -9.387  11.246  68.379  1.00  0.00    -0.181 C  
HETATM   13  C   UNL     1      -7.682  11.216  68.145  1.00  0.00    -0.107 C  
HETATM   14  C   UNL     1      -7.114  12.594  68.498  1.00  0.00    -0.101 C  
HETATM   15  C   UNL     1      -7.991  13.733  68.070  1.00  0.00    -0.156 C  
HETATM   16  C   UNL     1      -9.257  13.669  67.605  1.00  0.00    -0.213 C  
HETATM   17  C   UNL     1      -9.934  14.982  67.228  1.00  0.00    -0.233 C  
HETATM   18  C   UNL     1     -11.448  15.073  67.442  1.00  0.00    -0.317 C  
HETATM   19  C   UNL     1     -12.190  13.770  67.175  1.00  0.00    -0.352 C  
HETATM   20  O   UNL     1     -11.745  15.529  68.765  1.00  0.00    -0.348 OA 
HETATM   21  C   UNL     1     -11.521  12.561  67.839  1.00  0.00    -0.369 C  
ENDROOT
BRANCH   4  22
HETATM   22  C   UNL     1      -8.797   7.857  67.018  1.00  0.00    -0.130 C  
HETATM   23  C   UNL     1      -7.953   6.651  66.627  1.00  0.00    -0.105 C  
HETATM   24  O   UNL     1      -9.877   7.996  66.437  1.00  0.00    -0.226 OA 
ENDBRANCH   4  22
TORSDOF 1
ENDMDL
MODEL       76
REMARK 921   NORMALIZED FREE ENERGY PREDICTED BY IDOCK:   -3.91 KCAL/MOL
REMARK 922        TOTAL FREE ENERGY PREDICTED BY IDOCK:   -3.24 KCAL/MOL
REMARK 923 INTER-LIGAND FREE ENERGY PREDICTED BY IDOCK:   -4.06 KCAL/MOL
REMARK 924 INTRA-LIGAND FREE ENERGY PREDICTED BY IDOCK:    0.83 KCAL/MOL
REMARK 927      BINDING AFFINITY PREDICTED BY RF-SCORE:    0.00 PKD
ROOT
HETATM    1  C   UNL     1      -8.045   4.469  67.464  1.00  0.00    -0.100 C  
HETATM    2  C   UNL     1      -8.845   3.296  67.379  1.00  0.00    -0.155 C  
HETATM    3  C   UNL     1      -9.752   4.465  67.618  1.00  0.00    -0.198 C  
HETATM    4  C   UNL     1      -8.767   6.248  67.437  1.00  0.00    -0.105 C  
HETATM    5  C   UNL     1      -8.492   7.556  71.215  1.00  0.00    -0.116 C  
HETATM    6  C   UNL     1      -9.164   5.508  66.348  1.00  0.00    -0.155 C  
HETATM    7  C   UNL     1     -10.773   6.244  66.972  1.00  0.00    -0.435 C  
HETATM    8  C   UNL     1      -8.866   5.378  64.890  1.00  0.00    -0.054 C  
HETATM    9  C   UNL     1      -9.363   6.288  71.276  1.00  0.00    -0.164 C  
HETATM   10  H   UNL     1     -11.824   5.209  74.805  1.00  0.00     0.000 HD 
HETATM   11  C   UNL     1     -10.703   6.510  68.774  1.00  0.00    -0.320 C  
HETATM   12  C   UNL     1      -9.592   5.675  69.828  1.00  0.00    -0.206 C  
HETATM   13  C   UNL     1      -8.118   5.002  69.246  1.00  0.00    -0.083 C  
HETATM   14  C   UNL     1      -7.673   3.893  70.205  1.00  0.00    -0.048 C  
HETATM   15  C   UNL     1      -7.929   4.208  71.648  1.00  0.00    -0.082 C  
HETATM   16  C   UNL     1      -8.653   5.230  72.154  1.00  0.00    -0.126 C  
HETATM   17  C   UNL     1      -8.756   5.334  73.670  1.00  0.00    -0.110 C  
HETATM   18  C   UNL     1     -10.059   5.901  74.244  1.00  0.00    -0.284 C  
HETATM   19  C   UNL     1     -10.680   7.002  73.396  1.00  0.00    -0.379 C  
HETATM   20  O   UNL     1     -11.016   4.858  74.450  1.00  0.00    -0.311 OA 
HETATM   21  C   UNL     1     -10.740   6.640  71.908  1.00  0.00    -0.251 C  
ENDROOT
BRANCH   4  22
HETATM   22  C   UNL     1      -8.832   7.773  66.878  1.00  0.00    -0.131 C  
HETATM   23  C   UNL     1      -8.515   8.930  67.814  1.00  0.00    -0.125 C  
HETATM   24  O   UNL     1      -9.271   8.062  65.761  1.00  0.00    -0.124 OA 
ENDBRANCH   4  22
TORSDOF 1
ENDMDL
MODEL       77
REMARK 921   NORMALIZED FREE ENERGY PREDICTED BY IDOCK:   -3.82 KCAL/MOL
REMARK 922        TOTAL FREE ENERGY PREDICTED BY IDOCK:   -3.14 KCAL/MOL
REMARK 923 INTER-LIGAND FREE ENERGY PREDICTED BY IDOCK:   -4.24 KCAL/MOL
REMARK 924 INTRA-LIGAND FREE ENERGY PREDICTED BY IDOCK:    1.10 KCAL/MOL
REMARK 927      BINDING AFFINITY PREDICTED BY RF-SCORE:    0.00 PKD
ROOT
HETATM    1  C   UNL     1      -7.950  11.440  67.336  1.00  0.00    -0.139 C  
HETATM    2  C   UNL     1      -7.196  10.707  66.378  1.00  0.00    -0.134 C  
HETATM    3  C   UNL     1      -8.537  10.052  66.518  1.00  0.00    -0.131 C  
HETATM    4  C   UNL     1      -9.833  11.188  67.619  1.00  0.00    -0.191 C  
HETATM    5  C   UNL     1     -10.121   9.191  71.082  1.00  0.00    -0.384 C  
HETATM    6  C   UNL     1      -9.537  11.467  66.306  1.00  0.00    -0.239 C  
HETATM    7  C   UNL     1     -10.659   9.970  66.179  1.00  0.00    -0.071 C  
HETATM    8  C   UNL     1      -9.618  12.601  65.336  1.00  0.00     0.017 C  
HETATM    9  C   UNL     1      -9.277   8.297  70.155  1.00  0.00    -0.155 C  
HETATM   10  H   UNL     1      -8.451   4.023  71.007  1.00  0.00     0.000 HD 
HETATM   11  C   UNL     1     -10.495   8.915  67.657  1.00  0.00    -0.320 C  
HETATM   12  C   UNL     1      -9.110   8.952  68.717  1.00  0.00    -0.134 C  
HETATM   13  C   UNL     1      -8.084  10.331  68.826  1.00  0.00    -0.120 C  
HETATM   14  C   UNL     1      -6.715   9.884  69.344  1.00  0.00    -0.057 C  
HETATM   15  C   UNL     1      -6.789   8.820  70.398  1.00  0.00    -0.045 C  
HETATM   16  C   UNL     1      -7.872   8.110  70.779  1.00  0.00    -0.089 C  
HETATM   17  C   UNL     1      -7.684   7.082  71.887  1.00  0.00    -0.093 C  
HETATM   18  C   UNL     1      -8.553   5.821  71.824  1.00  0.00    -0.131 C  
HETATM   19  C   UNL     1      -9.958   6.063  71.288  1.00  0.00    -0.223 C  
HETATM   20  O   UNL     1      -7.913   4.805  71.046  1.00  0.00    -0.080 OA 
HETATM   21  C   UNL     1      -9.965   6.910  70.011  1.00  0.00    -0.190 C  
ENDROOT
BRANCH   4  22
HETATM   22  C   UNL     1     -11.357  11.732  67.766  1.00  0.00    -0.289 C  
HETATM   23  C   UNL     1     -11.731  13.087  67.182  1.00  0.00    -0.439 C  
HETATM   24  O   UNL     1     -12.209  11.169  68.460  1.00  0.00    -0.600 OA 
ENDBRANCH   4  22
TORSDOF 1
ENDMDL
MODEL       78
REMARK 921   NORMALIZED FREE ENERGY PREDICTED BY IDOCK:   -3.80 KCAL/MOL
REMARK 922        TOTAL FREE ENERGY PREDICTED BY IDOCK:   -3.12 KCAL/MOL
REMARK 923 INTER-LIGAND FREE ENERGY PREDICTED BY IDOCK:   -4.01 KCAL/MOL
REMARK 924 INTRA-LIGAND FREE ENERGY PREDICTED BY IDOCK:    0.89 KCAL/MOL
REMARK 927      BINDING AFFINITY PREDICTED BY RF-SCORE:    0.00 PKD
ROOT
HETATM    1  C   UNL     1      -9.076   4.597  72.390  1.00  0.00    -0.142 C  
HETATM    2  C   UNL     1     -10.265   3.840  72.197  1.00  0.00    -0.179 C  
HETATM    3  C   UNL     1      -9.837   4.387  70.868  1.00  0.00    -0.266 C  
HETATM    4  C   UNL     1      -7.973   5.221  70.948  1.00  0.00    -0.099 C  
HETATM    5  C   UNL     1      -8.694   9.155  70.693  1.00  0.00    -0.272 C  
HETATM    6  C   UNL     1      -8.173   3.862  70.899  1.00  0.00    -0.077 C  
HETATM    7  C   UNL     1      -8.551   4.410  69.146  1.00  0.00    -0.106 C  
HETATM    8  C   UNL     1      -7.443   2.592  71.191  1.00  0.00    -0.033 C  
HETATM    9  C   UNL     1     -10.056   8.468  70.482  1.00  0.00    -0.218 C  
HETATM   10  H   UNL     1     -13.601  10.571  68.843  1.00  0.00     0.000 HD 
HETATM   11  C   UNL     1      -9.197   6.115  69.129  1.00  0.00    -0.129 C  
HETATM   12  C   UNL     1      -9.915   6.886  70.519  1.00  0.00    -0.194 C  
HETATM   13  C   UNL     1      -9.563   6.375  72.125  1.00  0.00    -0.155 C  
HETATM   14  C   UNL     1     -10.713   6.806  73.040  1.00  0.00    -0.315 C  
HETATM   15  C   UNL     1     -11.276   8.154  72.703  1.00  0.00    -0.447 C  
HETATM   16  C   UNL     1     -11.021   8.905  71.610  1.00  0.00    -0.415 C  
HETATM   17  C   UNL     1     -11.722  10.254  71.505  1.00  0.00    -0.202 C  
HETATM   18  C   UNL     1     -12.084  10.745  70.099  1.00  0.00    -0.346 C  
HETATM   19  C   UNL     1     -11.064  10.371  69.032  1.00  0.00    -0.297 C  
HETATM   20  O   UNL     1     -13.376  10.266  69.715  1.00  0.00     0.184 OA 
HETATM   21  C   UNL     1     -10.642   8.899  69.107  1.00  0.00    -0.211 C  
ENDROOT
BRANCH   4  22
HETATM   22  C   UNL     1      -6.543   5.400  70.195  1.00  0.00    -0.039 C  
HETATM   23  C   UNL     1      -5.686   6.623  70.491  1.00  0.00    -0.023 C  
HETATM   24  O   UNL     1      -6.170   4.666  69.275  1.00  0.00    -0.028 OA 
ENDBRANCH   4  22
TORSDOF 1
ENDMDL
MODEL       79
REMARK 921   NORMALIZED FREE ENERGY PREDICTED BY IDOCK:   -3.76 KCAL/MOL
REMARK 922        TOTAL FREE ENERGY PREDICTED BY IDOCK:   -3.08 KCAL/MOL
REMARK 923 INTER-LIGAND FREE ENERGY PREDICTED BY IDOCK:   -4.05 KCAL/MOL
REMARK 924 INTRA-LIGAND FREE ENERGY PREDICTED BY IDOCK:    0.97 KCAL/MOL
REMARK 927      BINDING AFFINITY PREDICTED BY RF-SCORE:    0.00 PKD
ROOT
HETATM    1  C   UNL     1      -9.990  16.708  66.093  1.00  0.00    -0.356 C  
HETATM    2  C   UNL     1     -11.145  16.358  66.847  1.00  0.00     0.108 C  
HETATM    3  C   UNL     1     -10.192  17.077  67.755  1.00  0.00    -0.312 C  
HETATM    4  C   UNL     1      -8.639  17.917  66.725  1.00  0.00    -0.271 C  
HETATM    5  C   UNL     1      -5.514  15.598  67.686  1.00  0.00    -0.108 C  
HETATM    6  C   UNL     1      -9.894  18.477  66.756  1.00  0.00    -0.359 C  
HETATM    7  C   UNL     1      -9.216  18.856  68.463  1.00  0.00    -0.404 C  
HETATM    8  C   UNL     1     -10.721  19.461  65.996  1.00  0.00    -0.512 C  
HETATM    9  C   UNL     1      -6.683  15.103  68.557  1.00  0.00    -0.108 C  
HETATM   10  H   UNL     1      -6.130  12.454  72.071  1.00  0.00     0.000 HD 
HETATM   11  C   UNL     1      -8.035  17.572  68.988  1.00  0.00    -0.094 C  
HETATM   12  C   UNL     1      -7.994  15.966  68.308  1.00  0.00    -0.139 C  
HETATM   13  C   UNL     1      -8.619  15.626  66.740  1.00  0.00    -0.309 C  
HETATM   14  C   UNL     1      -8.967  14.137  66.663  1.00  0.00    -0.193 C  
HETATM   15  C   UNL     1      -7.987  13.253  67.375  1.00  0.00    -0.175 C  
HETATM   16  C   UNL     1      -6.987  13.628  68.202  1.00  0.00    -0.119 C  
HETATM   17  C   UNL     1      -6.119  12.527  68.798  1.00  0.00    -0.070 C  
HETATM   18  C   UNL     1      -5.558  12.766  70.204  1.00  0.00    -0.140 C  
HETATM   19  C   UNL     1      -5.188  14.216  70.485  1.00  0.00    -0.109 C  
HETATM   20  O   UNL     1      -6.478  12.306  71.199  1.00  0.00     0.610 OA 
HETATM   21  C   UNL     1      -6.283  15.199  70.057  1.00  0.00    -0.152 C  
ENDROOT
BRANCH   4  22
HETATM   22  C   UNL     1      -7.672  19.213  66.567  1.00  0.00    -0.264 C  
HETATM   23  C   UNL     1      -6.363  19.085  65.799  1.00  0.00    -0.270 C  
HETATM   24  O   UNL     1      -7.868  20.276  67.163  1.00  0.00    -0.306 OA 
ENDBRANCH   4  22
TORSDOF 1
ENDMDL
MODEL       80
REMARK 921   NORMALIZED FREE ENERGY PREDICTED BY IDOCK:   -3.73 KCAL/MOL
REMARK 922        TOTAL FREE ENERGY PREDICTED BY IDOCK:   -3.05 KCAL/MOL
REMARK 923 INTER-LIGAND FREE ENERGY PREDICTED BY IDOCK:   -3.88 KCAL/MOL
REMARK 924 INTRA-LIGAND FREE ENERGY PREDICTED BY IDOCK:    0.83 KCAL/MOL
REMARK 927      BINDING AFFINITY PREDICTED BY RF-SCORE:    0.00 PKD
ROOT
HETATM    1  C   UNL     1      -7.552   3.754  67.793  1.00  0.00    -0.067 C  
HETATM    2  C   UNL     1      -8.353   2.693  68.297  1.00  0.00    -0.088 C  
HETATM    3  C   UNL     1      -9.262   3.720  67.693  1.00  0.00    -0.212 C  
HETATM    4  C   UNL     1      -8.227   5.139  66.647  1.00  0.00    -0.108 C  
HETATM    5  C   UNL     1      -8.489   8.395  68.970  1.00  0.00    -0.123 C  
HETATM    6  C   UNL     1      -8.472   3.883  66.145  1.00  0.00    -0.110 C  
HETATM    7  C   UNL     1     -10.141   4.729  66.010  1.00  0.00    -0.282 C  
HETATM    8  C   UNL     1      -7.964   2.960  65.086  1.00  0.00    -0.082 C  
HETATM    9  C   UNL     1      -9.385   7.335  69.636  1.00  0.00    -0.153 C  
HETATM   10  H   UNL     1     -12.363   8.309  72.776  1.00  0.00     0.000 HD 
HETATM   11  C   UNL     1     -10.334   5.986  67.316  1.00  0.00    -0.275 C  
HETATM   12  C   UNL     1      -9.408   5.987  68.795  1.00  0.00    -0.128 C  
HETATM   13  C   UNL     1      -7.878   5.207  68.910  1.00  0.00    -0.082 C  
HETATM   14  C   UNL     1      -7.602   4.884  70.381  1.00  0.00    -0.059 C  
HETATM   15  C   UNL     1      -8.063   5.952  71.328  1.00  0.00    -0.118 C  
HETATM   16  C   UNL     1      -8.834   7.025  71.049  1.00  0.00    -0.146 C  
HETATM   17  C   UNL     1      -9.158   7.973  72.196  1.00  0.00    -0.227 C  
HETATM   18  C   UNL     1     -10.520   8.674  72.158  1.00  0.00    -0.340 C  
HETATM   19  C   UNL     1     -10.988   9.043  70.756  1.00  0.00    -0.315 C  
HETATM   20  O   UNL     1     -11.518   7.875  72.800  1.00  0.00    -0.390 OA 
HETATM   21  C   UNL     1     -10.833   7.889  69.759  1.00  0.00    -0.202 C  
ENDROOT
BRANCH   4  22
HETATM   22  C   UNL     1      -8.178   6.058  65.307  1.00  0.00    -0.138 C  
HETATM   23  C   UNL     1      -8.002   7.564  65.435  1.00  0.00    -0.124 C  
HETATM   24  O   UNL     1      -8.424   5.617  64.180  1.00  0.00    -0.111 OA 
ENDBRANCH   4  22
TORSDOF 1
ENDMDL
MODEL       81
REMARK 921   NORMALIZED FREE ENERGY PREDICTED BY IDOCK:   -3.70 KCAL/MOL
REMARK 922        TOTAL FREE ENERGY PREDICTED BY IDOCK:   -3.01 KCAL/MOL
REMARK 923 INTER-LIGAND FREE ENERGY PREDICTED BY IDOCK:   -3.84 KCAL/MOL
REMARK 924 INTRA-LIGAND FREE ENERGY PREDICTED BY IDOCK:    0.82 KCAL/MOL
REMARK 927      BINDING AFFINITY PREDICTED BY RF-SCORE:    0.00 PKD
ROOT
HETATM    1  C   UNL     1      -9.321  11.703  65.148  1.00  0.00    -0.076 C  
HETATM    2  C   UNL     1     -10.429  11.642  64.259  1.00  0.00    -0.383 C  
HETATM    3  C   UNL     1     -10.714  10.743  65.423  1.00  0.00    -0.149 C  
HETATM    4  C   UNL     1      -9.351  10.984  66.928  1.00  0.00    -0.189 C  
HETATM    5  C   UNL     1      -7.155   7.637  66.752  1.00  0.00    -0.083 C  
HETATM    6  C   UNL     1     -10.376  11.874  66.709  1.00  0.00    -0.238 C  
HETATM    7  C   UNL     1     -11.248  10.402  67.478  1.00  0.00    -0.254 C  
HETATM    8  C   UNL     1     -10.755  13.281  67.041  1.00  0.00    -0.263 C  
HETATM    9  C   UNL     1      -8.297   7.439  65.739  1.00  0.00    -0.141 C  
HETATM   10  H   UNL     1      -9.330   3.493  63.996  1.00  0.00     0.000 HD 
HETATM   11  C   UNL     1     -10.373   8.854  67.078  1.00  0.00    -0.340 C  
HETATM   12  C   UNL     1      -9.281   8.686  65.728  1.00  0.00    -0.245 C  
HETATM   13  C   UNL     1      -8.486  10.043  65.028  1.00  0.00    -0.167 C  
HETATM   14  C   UNL     1      -8.092   9.693  63.590  1.00  0.00    -0.151 C  
HETATM   15  C   UNL     1      -7.622   8.279  63.423  1.00  0.00    -0.131 C  
HETATM   16  C   UNL     1      -7.692   7.275  64.324  1.00  0.00    -0.124 C  
HETATM   17  C   UNL     1      -7.133   5.919  63.909  1.00  0.00    -0.052 C  
HETATM   18  C   UNL     1      -7.821   4.676  64.482  1.00  0.00    -0.087 C  
HETATM   19  C   UNL     1      -8.324   4.849  65.909  1.00  0.00    -0.114 C  
HETATM   20  O   UNL     1      -8.903   4.265  63.641  1.00  0.00    -0.118 OA 
HETATM   21  C   UNL     1      -9.097   6.157  66.109  1.00  0.00    -0.158 C  
ENDROOT
BRANCH   4  22
HETATM   22  C   UNL     1      -9.122  11.091  68.534  1.00  0.00    -0.173 C  
HETATM   23  C   UNL     1      -7.840  10.545  69.147  1.00  0.00    -0.138 C  
HETATM   24  O   UNL     1     -10.001  11.464  69.316  1.00  0.00    -0.060 OA 
ENDBRANCH   4  22
TORSDOF 1
ENDMDL
MODEL       82
REMARK 921   NORMALIZED FREE ENERGY PREDICTED BY IDOCK:   -3.66 KCAL/MOL
REMARK 922        TOTAL FREE ENERGY PREDICTED BY IDOCK:   -2.97 KCAL/MOL
REMARK 923 INTER-LIGAND FREE ENERGY PREDICTED BY IDOCK:   -4.28 KCAL/MOL
REMARK 924 INTRA-LIGAND FREE ENERGY PREDICTED BY IDOCK:    1.31 KCAL/MOL
REMARK 927      BINDING AFFINITY PREDICTED BY RF-SCORE:    0.00 PKD
ROOT
HETATM    1  C   UNL     1      -6.411  13.026  67.611  1.00  0.00    -0.162 C  
HETATM    2  C   UNL     1      -5.992  13.091  68.969  1.00  0.00    -0.084 C  
HETATM    3  C   UNL     1      -7.490  13.035  68.942  1.00  0.00     0.014 C  
HETATM    4  C   UNL     1      -8.208  12.615  67.075  1.00  0.00    -0.110 C  
HETATM    5  C   UNL     1      -9.773  16.100  65.865  1.00  0.00    -0.374 C  
HETATM    6  C   UNL     1      -7.676  11.650  67.897  1.00  0.00    -0.126 C  
HETATM    7  C   UNL     1      -9.350  11.992  68.670  1.00  0.00    -0.056 C  
HETATM    8  C   UNL     1      -7.109  10.270  67.816  1.00  0.00    -0.085 C  
HETATM    9  C   UNL     1      -9.355  16.318  67.330  1.00  0.00    -0.224 C  
HETATM   10  H   UNL     1     -10.736  19.766  69.754  1.00  0.00     0.000 HD 
HETATM   11  C   UNL     1      -9.862  13.714  68.363  1.00  0.00    -0.223 C  
HETATM   12  C   UNL     1      -8.745  14.993  67.960  1.00  0.00    -0.159 C  
HETATM   13  C   UNL     1      -7.210  14.669  67.251  1.00  0.00    -0.082 C  
HETATM   14  C   UNL     1      -6.277  15.848  67.544  1.00  0.00    -0.188 C  
HETATM   15  C   UNL     1      -6.956  17.183  67.478  1.00  0.00    -0.172 C  
HETATM   16  C   UNL     1      -8.280  17.431  67.387  1.00  0.00    -0.212 C  
HETATM   17  C   UNL     1      -8.719  18.889  67.330  1.00  0.00    -0.294 C  
HETATM   18  C   UNL     1     -10.066  19.238  67.971  1.00  0.00    -0.400 C  
HETATM   19  C   UNL     1     -11.125  18.154  67.816  1.00  0.00     0.073 C  
HETATM   20  O   UNL     1      -9.900  19.550  69.357  1.00  0.00    -0.379 OA 
HETATM   21  C   UNL     1     -10.595  16.757  68.159  1.00  0.00    -0.350 C  
ENDROOT
BRANCH   4  22
HETATM   22  C   UNL     1      -9.303  11.783  66.208  1.00  0.00    -0.225 C  
HETATM   23  C   UNL     1      -9.410  10.274  66.383  1.00  0.00    -0.201 C  
HETATM   24  O   UNL     1      -9.963  12.288  65.296  1.00  0.00    -0.262 OA 
ENDBRANCH   4  22
TORSDOF 1
ENDMDL
MODEL       83
REMARK 921   NORMALIZED FREE ENERGY PREDICTED BY IDOCK:   -3.64 KCAL/MOL
REMARK 922        TOTAL FREE ENERGY PREDICTED BY IDOCK:   -2.95 KCAL/MOL
REMARK 923 INTER-LIGAND FREE ENERGY PREDICTED BY IDOCK:   -4.21 KCAL/MOL
REMARK 924 INTRA-LIGAND FREE ENERGY PREDICTED BY IDOCK:    1.25 KCAL/MOL
REMARK 927      BINDING AFFINITY PREDICTED BY RF-SCORE:    0.00 PKD
ROOT
HETATM    1  C   UNL     1      -8.607   9.731  66.242  1.00  0.00    -0.137 C  
HETATM    2  C   UNL     1      -9.438   8.881  65.460  1.00  0.00    -0.162 C  
HETATM    3  C   UNL     1     -10.278   9.490  66.543  1.00  0.00    -0.307 C  
HETATM    4  C   UNL     1      -9.286  10.976  67.537  1.00  0.00    -0.149 C  
HETATM    5  C   UNL     1      -8.473   9.338  71.103  1.00  0.00    -0.081 C  
HETATM    6  C   UNL     1      -9.843  11.162  66.294  1.00  0.00    -0.253 C  
HETATM    7  C   UNL     1     -11.335  11.139  67.429  1.00  0.00    -0.329 C  
HETATM    8  C   UNL     1      -9.747  12.095  65.131  1.00  0.00    -0.133 C  
HETATM    9  C   UNL     1      -9.358   8.315  70.367  1.00  0.00    -0.162 C  
HETATM   10  H   UNL     1     -11.344   4.918  72.413  1.00  0.00     0.000 HD 
HETATM   11  C   UNL     1     -11.017  10.096  68.890  1.00  0.00    -0.261 C  
HETATM   12  C   UNL     1      -9.794   8.853  68.937  1.00  0.00    -0.182 C  
HETATM   13  C   UNL     1      -8.428   8.881  67.890  1.00  0.00    -0.125 C  
HETATM   14  C   UNL     1      -7.883   7.457  67.754  1.00  0.00    -0.113 C  
HETATM   15  C   UNL     1      -7.935   6.670  69.030  1.00  0.00    -0.112 C  
HETATM   16  C   UNL     1      -8.560   7.002  70.179  1.00  0.00    -0.140 C  
HETATM   17  C   UNL     1      -8.455   6.025  71.344  1.00  0.00    -0.128 C  
HETATM   18  C   UNL     1      -9.656   5.939  72.293  1.00  0.00    -0.150 C  
HETATM   19  C   UNL     1     -10.360   7.269  72.521  1.00  0.00    -0.254 C  
HETATM   20  O   UNL     1     -10.600   4.972  71.825  1.00  0.00    -0.201 OA 
HETATM   21  C   UNL     1     -10.629   8.029  71.217  1.00  0.00    -0.245 C  
ENDROOT
BRANCH   4  22
HETATM   22  C   UNL     1      -9.390  12.456  68.202  1.00  0.00    -0.209 C  
HETATM   23  C   UNL     1      -8.150  13.336  68.273  1.00  0.00    -0.156 C  
HETATM   24  O   UNL     1     -10.397  12.859  68.792  1.00  0.00    -0.216 OA 
ENDBRANCH   4  22
TORSDOF 1
ENDMDL
MODEL       84
REMARK 921   NORMALIZED FREE ENERGY PREDICTED BY IDOCK:   -3.55 KCAL/MOL
REMARK 922        TOTAL FREE ENERGY PREDICTED BY IDOCK:   -2.86 KCAL/MOL
REMARK 923 INTER-LIGAND FREE ENERGY PREDICTED BY IDOCK:   -3.76 KCAL/MOL
REMARK 924 INTRA-LIGAND FREE ENERGY PREDICTED BY IDOCK:    0.90 KCAL/MOL
REMARK 927      BINDING AFFINITY PREDICTED BY RF-SCORE:    0.00 PKD
ROOT
HETATM    1  C   UNL     1      -8.819   4.797  66.725  1.00  0.00    -0.110 C  
HETATM    2  C   UNL     1     -10.132   4.595  66.217  1.00  0.00    -0.292 C  
HETATM    3  C   UNL     1     -10.196   5.657  67.274  1.00  0.00    -0.250 C  
HETATM    4  C   UNL     1      -8.335   6.271  67.856  1.00  0.00    -0.118 C  
HETATM    5  C   UNL     1      -7.933   4.701  71.522  1.00  0.00    -0.100 C  
HETATM    6  C   UNL     1      -8.917   6.685  66.681  1.00  0.00    -0.150 C  
HETATM    7  C   UNL     1      -9.852   7.656  67.985  1.00  0.00    -0.188 C  
HETATM    8  C   UNL     1      -8.531   7.288  65.370  1.00  0.00    -0.096 C  
HETATM    9  C   UNL     1      -9.381   4.399  71.096  1.00  0.00    -0.213 C  
HETATM   10  H   UNL     1     -12.516   3.082  73.944  1.00  0.00     0.000 HD 
HETATM   11  C   UNL     1      -9.921   6.730  69.553  1.00  0.00    -0.172 C  
HETATM   12  C   UNL     1      -9.699   5.003  69.661  1.00  0.00    -0.266 C  
HETATM   13  C   UNL     1      -8.840   4.119  68.460  1.00  0.00    -0.139 C  
HETATM   14  C   UNL     1      -9.292   2.657  68.508  1.00  0.00    -0.251 C  
HETATM   15  C   UNL     1      -9.533   2.149  69.898  1.00  0.00    -0.120 C  
HETATM   16  C   UNL     1      -9.581   2.865  71.042  1.00  0.00    -0.219 C  
HETATM   17  C   UNL     1      -9.838   2.104  72.337  1.00  0.00    -0.201 C  
HETATM   18  C   UNL     1     -10.623   2.834  73.431  1.00  0.00    -0.167 C  
HETATM   19  C   UNL     1     -10.332   4.327  73.511  1.00  0.00    -0.242 C  
HETATM   20  O   UNL     1     -12.029   2.629  73.266  1.00  0.00     0.035 OA 
HETATM   21  C   UNL     1     -10.361   5.009  72.138  1.00  0.00    -0.276 C  
ENDROOT
BRANCH   4  22
HETATM   22  C   UNL     1      -7.398   7.537  68.258  1.00  0.00    -0.096 C  
HETATM   23  C   UNL     1      -6.787   7.606  69.651  1.00  0.00    -0.044 C  
HETATM   24  O   UNL     1      -7.268   8.533  67.541  1.00  0.00    -0.082 OA 
ENDBRANCH   4  22
TORSDOF 1
ENDMDL
MODEL       85
REMARK 921   NORMALIZED FREE ENERGY PREDICTED BY IDOCK:   -3.47 KCAL/MOL
REMARK 922        TOTAL FREE ENERGY PREDICTED BY IDOCK:   -2.77 KCAL/MOL
REMARK 923 INTER-LIGAND FREE ENERGY PREDICTED BY IDOCK:   -4.02 KCAL/MOL
REMARK 924 INTRA-LIGAND FREE ENERGY PREDICTED BY IDOCK:    1.25 KCAL/MOL
REMARK 927      BINDING AFFINITY PREDICTED BY RF-SCORE:    0.00 PKD
ROOT
HETATM    1  C   UNL     1      -6.855   8.507  68.219  1.00  0.00    -0.066 C  
HETATM    2  C   UNL     1      -6.090   7.318  68.060  1.00  0.00    -0.031 C  
HETATM    3  C   UNL     1      -7.530   6.987  67.803  1.00  0.00    -0.098 C  
HETATM    4  C   UNL     1      -8.691   8.665  67.681  1.00  0.00    -0.136 C  
HETATM    5  C   UNL     1     -10.798   8.598  71.090  1.00  0.00    -0.320 C  
HETATM    6  C   UNL     1      -7.881   8.250  66.651  1.00  0.00    -0.094 C  
HETATM    7  C   UNL     1      -9.304   7.031  66.591  1.00  0.00    -0.203 C  
HETATM    8  C   UNL     1      -7.249   8.791  65.410  1.00  0.00    -0.084 C  
HETATM    9  C   UNL     1     -10.017   7.272  71.057  1.00  0.00    -0.188 C  
HETATM   10  H   UNL     1     -10.960   3.841  73.706  1.00  0.00     0.000 HD 
HETATM   11  C   UNL     1     -10.016   6.788  68.251  1.00  0.00    -0.153 C  
HETATM   12  C   UNL     1      -9.156   7.142  69.728  1.00  0.00    -0.141 C  
HETATM   13  C   UNL     1      -7.850   8.262  69.774  1.00  0.00    -0.100 C  
HETATM   14  C   UNL     1      -6.969   7.939  70.984  1.00  0.00    -0.049 C  
HETATM   15  C   UNL     1      -7.745   7.519  72.197  1.00  0.00    -0.096 C  
HETATM   16  C   UNL     1      -9.060   7.221  72.272  1.00  0.00    -0.152 C  
HETATM   17  C   UNL     1      -9.612   6.824  73.636  1.00  0.00    -0.224 C  
HETATM   18  C   UNL     1     -10.759   5.807  73.655  1.00  0.00    -0.251 C  
HETATM   19  C   UNL     1     -11.730   5.948  72.490  1.00  0.00    -0.288 C  
HETATM   20  O   UNL     1     -10.249   4.471  73.694  1.00  0.00    -0.148 OA 
HETATM   21  C   UNL     1     -11.017   6.083  71.139  1.00  0.00    -0.341 C  
ENDROOT
BRANCH   4  22
HETATM   22  C   UNL     1      -9.910   9.407  66.902  1.00  0.00    -0.201 C  
HETATM   23  C   UNL     1      -9.756   9.758  65.429  1.00  0.00    -0.383 C  
HETATM   24  O   UNL     1     -10.912   9.840  67.479  1.00  0.00    -0.275 OA 
ENDBRANCH   4  22
TORSDOF 1
ENDMDL
MODEL       86
REMARK 921   NORMALIZED FREE ENERGY PREDICTED BY IDOCK:   -3.39 KCAL/MOL
REMARK 922        TOTAL FREE ENERGY PREDICTED BY IDOCK:   -2.69 KCAL/MOL
REMARK 923 INTER-LIGAND FREE ENERGY PREDICTED BY IDOCK:   -3.53 KCAL/MOL
REMARK 924 INTRA-LIGAND FREE ENERGY PREDICTED BY IDOCK:    0.84 KCAL/MOL
REMARK 927      BINDING AFFINITY PREDICTED BY RF-SCORE:    0.00 PKD
ROOT
HETATM    1  C   UNL     1      -8.378   9.111  64.813  1.00  0.00    -0.176 C  
HETATM    2  C   UNL     1      -7.633  10.060  65.566  1.00  0.00    -0.136 C  
HETATM    3  C   UNL     1      -7.065   8.699  65.835  1.00  0.00    -0.076 C  
HETATM    4  C   UNL     1      -7.831   7.286  64.572  1.00  0.00    -0.121 C  
HETATM    5  C   UNL     1     -10.256   5.136  66.929  1.00  0.00    -0.279 C  
HETATM    6  C   UNL     1      -6.858   8.177  64.182  1.00  0.00    -0.066 C  
HETATM    7  C   UNL     1      -5.919   6.970  65.268  1.00  0.00    -0.036 C  
HETATM    8  C   UNL     1      -6.267   8.744  62.933  1.00  0.00    -0.090 C  
HETATM    9  C   UNL     1      -9.532   6.121  67.865  1.00  0.00    -0.115 C  
HETATM   10  H   UNL     1      -9.488   5.679  72.278  1.00  0.00     0.000 HD 
HETATM   11  C   UNL     1      -7.013   6.268  66.546  1.00  0.00    -0.067 C  
HETATM   12  C   UNL     1      -8.497   7.023  67.064  1.00  0.00    -0.121 C  
HETATM   13  C   UNL     1      -9.352   8.131  66.061  1.00  0.00    -0.184 C  
HETATM   14  C   UNL     1     -10.226   9.022  66.948  1.00  0.00    -0.339 C  
HETATM   15  C   UNL     1     -10.850   8.296  68.102  1.00  0.00     0.015 C  
HETATM   16  C   UNL     1     -10.579   7.045  68.532  1.00  0.00    -0.235 C  
HETATM   17  C   UNL     1     -11.363   6.531  69.733  1.00  0.00    -0.456 C  
HETATM   18  C   UNL     1     -10.640   5.562  70.676  1.00  0.00    -0.259 C  
HETATM   19  C   UNL     1      -9.684   4.610  69.970  1.00  0.00    -0.277 C  
HETATM   20  O   UNL     1      -9.936   6.280  71.693  1.00  0.00    -0.178 OA 
HETATM   21  C   UNL     1      -8.774   5.324  68.964  1.00  0.00    -0.104 C  
ENDROOT
BRANCH   4  22
HETATM   22  C   UNL     1      -7.510   5.983  63.654  1.00  0.00    -0.073 C  
HETATM   23  C   UNL     1      -8.304   4.701  63.868  1.00  0.00    -0.121 C  
HETATM   24  O   UNL     1      -6.550   5.924  62.881  1.00  0.00    -0.034 OA 
ENDBRANCH   4  22
TORSDOF 1
ENDMDL
MODEL       87
REMARK 921   NORMALIZED FREE ENERGY PREDICTED BY IDOCK:   -3.39 KCAL/MOL
REMARK 922        TOTAL FREE ENERGY PREDICTED BY IDOCK:   -2.68 KCAL/MOL
REMARK 923 INTER-LIGAND FREE ENERGY PREDICTED BY IDOCK:   -3.81 KCAL/MOL
REMARK 924 INTRA-LIGAND FREE ENERGY PREDICTED BY IDOCK:    1.12 KCAL/MOL
REMARK 927      BINDING AFFINITY PREDICTED BY RF-SCORE:    0.00 PKD
ROOT
HETATM    1  C   UNL     1      -9.862   7.506  66.602  1.00  0.00    -0.274 C  
HETATM    2  C   UNL     1     -10.507   8.751  66.839  1.00  0.00    -0.319 C  
HETATM    3  C   UNL     1      -9.168   8.781  67.514  1.00  0.00    -0.154 C  
HETATM    4  C   UNL     1      -8.008   7.184  66.984  1.00  0.00    -0.113 C  
HETATM    5  C   UNL     1      -7.989   4.902  70.279  1.00  0.00    -0.069 C  
HETATM    6  C   UNL     1      -8.189   8.271  66.162  1.00  0.00    -0.119 C  
HETATM    7  C   UNL     1      -7.023   8.922  67.480  1.00  0.00    -0.075 C  
HETATM    8  C   UNL     1      -8.047   8.648  64.724  1.00  0.00    -0.149 C  
HETATM    9  C   UNL     1      -8.723   6.197  70.673  1.00  0.00    -0.139 C  
HETATM   10  H   UNL     1      -9.517   7.342  74.884  1.00  0.00     0.000 HD 
HETATM   11  C   UNL     1      -7.296   8.062  69.064  1.00  0.00    -0.084 C  
HETATM   12  C   UNL     1      -8.773   7.223  69.461  1.00  0.00    -0.134 C  
HETATM   13  C   UNL     1      -9.838   6.630  68.246  1.00  0.00    -0.137 C  
HETATM   14  C   UNL     1     -11.238   6.484  68.848  1.00  0.00    -0.341 C  
HETATM   15  C   UNL     1     -11.235   5.987  70.263  1.00  0.00    -0.392 C  
HETATM   16  C   UNL     1     -10.173   5.848  71.086  1.00  0.00    -0.266 C  
HETATM   17  C   UNL     1     -10.437   5.311  72.487  1.00  0.00    -0.266 C  
HETATM   18  C   UNL     1      -9.535   5.827  73.614  1.00  0.00    -0.139 C  
HETATM   19  C   UNL     1      -8.094   6.073  73.189  1.00  0.00    -0.115 C  
HETATM   20  O   UNL     1     -10.076   7.022  74.185  1.00  0.00    -0.329 OA 
HETATM   21  C   UNL     1      -7.990   6.857  71.875  1.00  0.00    -0.099 C  
ENDROOT
BRANCH   4  22
HETATM   22  C   UNL     1      -6.517   6.675  66.582  1.00  0.00    -0.043 C  
HETATM   23  C   UNL     1      -6.277   6.062  65.209  1.00  0.00    -0.037 C  
HETATM   24  O   UNL     1      -5.584   6.622  67.388  1.00  0.00    -0.011 OA 
ENDBRANCH   4  22
TORSDOF 1
ENDMDL
MODEL       88
REMARK 921   NORMALIZED FREE ENERGY PREDICTED BY IDOCK:   -3.35 KCAL/MOL
REMARK 922        TOTAL FREE ENERGY PREDICTED BY IDOCK:   -2.65 KCAL/MOL
REMARK 923 INTER-LIGAND FREE ENERGY PREDICTED BY IDOCK:   -3.46 KCAL/MOL
REMARK 924 INTRA-LIGAND FREE ENERGY PREDICTED BY IDOCK:    0.81 KCAL/MOL
REMARK 927      BINDING AFFINITY PREDICTED BY RF-SCORE:    0.00 PKD
ROOT
HETATM    1  C   UNL     1      -9.554   6.304  70.631  1.00  0.00    -0.189 C  
HETATM    2  C   UNL     1      -8.464   5.889  71.445  1.00  0.00    -0.128 C  
HETATM    3  C   UNL     1      -7.908   6.532  70.210  1.00  0.00    -0.107 C  
HETATM    4  C   UNL     1      -9.359   7.460  69.111  1.00  0.00    -0.146 C  
HETATM    5  C   UNL     1      -9.781   5.080  65.914  1.00  0.00    -0.182 C  
HETATM    6  C   UNL     1      -8.832   8.012  70.254  1.00  0.00    -0.145 C  
HETATM    7  C   UNL     1      -7.461   8.249  68.997  1.00  0.00    -0.091 C  
HETATM    8  C   UNL     1      -9.161   9.054  71.273  1.00  0.00    -0.314 C  
HETATM    9  C   UNL     1      -8.588   4.510  66.703  1.00  0.00    -0.111 C  
HETATM   10  H   UNL     1      -5.735   1.577  64.992  1.00  0.00     0.000 HD 
HETATM   11  C   UNL     1      -7.503   6.929  67.741  1.00  0.00    -0.098 C  
HETATM   12  C   UNL     1      -8.277   5.386  67.991  1.00  0.00    -0.099 C  
HETATM   13  C   UNL     1      -9.534   5.177  69.149  1.00  0.00    -0.188 C  
HETATM   14  C   UNL     1      -9.598   3.698  69.542  1.00  0.00    -0.207 C  
HETATM   15  C   UNL     1      -9.362   2.761  68.395  1.00  0.00    -0.252 C  
HETATM   16  C   UNL     1      -8.926   3.069  67.155  1.00  0.00    -0.180 C  
HETATM   17  C   UNL     1      -8.773   1.925  66.160  1.00  0.00    -0.116 C  
HETATM   18  C   UNL     1      -7.651   2.046  65.124  1.00  0.00    -0.067 C  
HETATM   19  C   UNL     1      -7.409   3.469  64.638  1.00  0.00    -0.071 C  
HETATM   20  O   UNL     1      -6.430   1.502  65.635  1.00  0.00    -0.022 OA 
HETATM   21  C   UNL     1      -7.332   4.482  65.786  1.00  0.00    -0.077 C  
ENDROOT
BRANCH   4  22
HETATM   22  C   UNL     1      -9.754   8.769  68.231  1.00  0.00    -0.158 C  
HETATM   23  C   UNL     1     -10.379   8.588  66.854  1.00  0.00    -0.367 C  
HETATM   24  O   UNL     1      -9.439   9.918  68.555  1.00  0.00    -0.142 OA 
ENDBRANCH   4  22
TORSDOF 1
ENDMDL
MODEL       89
REMARK 921   NORMALIZED FREE ENERGY PREDICTED BY IDOCK:   -3.35 KCAL/MOL
REMARK 922        TOTAL FREE ENERGY PREDICTED BY IDOCK:   -2.64 KCAL/MOL
REMARK 923 INTER-LIGAND FREE ENERGY PREDICTED BY IDOCK:   -3.44 KCAL/MOL
REMARK 924 INTRA-LIGAND FREE ENERGY PREDICTED BY IDOCK:    0.80 KCAL/MOL
REMARK 927      BINDING AFFINITY PREDICTED BY RF-SCORE:    0.00 PKD
ROOT
HETATM    1  C   UNL     1     -10.709   6.440  69.013  1.00  0.00    -0.339 C  
HETATM    2  C   UNL     1     -10.206   5.330  69.747  1.00  0.00    -0.364 C  
HETATM    3  C   UNL     1      -9.073   6.279  69.497  1.00  0.00    -0.137 C  
HETATM    4  C   UNL     1      -9.721   8.063  68.737  1.00  0.00    -0.157 C  
HETATM    5  C   UNL     1      -8.535   7.939  64.911  1.00  0.00    -0.045 C  
HETATM    6  C   UNL     1      -9.834   7.742  70.070  1.00  0.00    -0.181 C  
HETATM    7  C   UNL     1      -8.004   8.106  69.873  1.00  0.00    -0.109 C  
HETATM    8  C   UNL     1     -10.599   8.162  71.282  1.00  0.00    -0.258 C  
HETATM    9  C   UNL     1      -7.937   6.685  65.573  1.00  0.00    -0.118 C  
HETATM   10  H   UNL     1      -4.721   4.264  63.708  1.00  0.00     0.000 HD 
HETATM   11  C   UNL     1      -7.447   7.711  68.183  1.00  0.00    -0.108 C  
HETATM   12  C   UNL     1      -8.297   6.620  67.119  1.00  0.00    -0.113 C  
HETATM   13  C   UNL     1      -9.976   6.291  67.308  1.00  0.00    -0.180 C  
HETATM   14  C   UNL     1     -10.287   4.941  66.656  1.00  0.00    -0.285 C  
HETATM   15  C   UNL     1      -9.533   4.700  65.383  1.00  0.00    -0.176 C  
HETATM   16  C   UNL     1      -8.512   5.426  64.880  1.00  0.00    -0.148 C  
HETATM   17  C   UNL     1      -7.914   4.971  63.554  1.00  0.00    -0.098 C  
HETATM   18  C   UNL     1      -6.416   5.216  63.343  1.00  0.00    -0.026 C  
HETATM   19  C   UNL     1      -5.906   6.509  63.965  1.00  0.00    -0.030 C  
HETATM   20  O   UNL     1      -5.650   4.113  63.839  1.00  0.00    -0.013 OA 
HETATM   21  C   UNL     1      -6.391   6.703  65.407  1.00  0.00    -0.042 C  
ENDROOT
BRANCH   4  22
HETATM   22  C   UNL     1      -9.560   9.680  68.771  1.00  0.00    -0.152 C  
HETATM   23  C   UNL     1      -9.650  10.470  67.472  1.00  0.00    -0.181 C  
HETATM   24  O   UNL     1      -9.220  10.302  69.781  1.00  0.00    -0.180 OA 
ENDBRANCH   4  22
TORSDOF 1
ENDMDL
MODEL       90
REMARK 921   NORMALIZED FREE ENERGY PREDICTED BY IDOCK:   -3.34 KCAL/MOL
REMARK 922        TOTAL FREE ENERGY PREDICTED BY IDOCK:   -2.63 KCAL/MOL
REMARK 923 INTER-LIGAND FREE ENERGY PREDICTED BY IDOCK:   -3.72 KCAL/MOL
REMARK 924 INTRA-LIGAND FREE ENERGY PREDICTED BY IDOCK:    1.09 KCAL/MOL
REMARK 927      BINDING AFFINITY PREDICTED BY RF-SCORE:    0.00 PKD
ROOT
HETATM    1  C   UNL     1      -7.438  10.951  67.094  1.00  0.00    -0.109 C  
HETATM    2  C   UNL     1      -6.510  11.206  68.141  1.00  0.00    -0.057 C  
HETATM    3  C   UNL     1      -6.434   9.751  67.792  1.00  0.00    -0.057 C  
HETATM    4  C   UNL     1      -7.477   9.315  66.089  1.00  0.00    -0.096 C  
HETATM    5  C   UNL     1     -10.685   7.326  67.437  1.00  0.00    -0.358 C  
HETATM    6  C   UNL     1      -6.238   9.911  66.065  1.00  0.00    -0.074 C  
HETATM    7  C   UNL     1      -5.846   8.131  66.507  1.00  0.00    -0.044 C  
HETATM    8  C   UNL     1      -5.374  10.706  65.142  1.00  0.00    -0.151 C  
HETATM    9  C   UNL     1      -9.784   7.544  68.666  1.00  0.00    -0.154 C  
HETATM   10  H   UNL     1     -10.329   5.356  72.486  1.00  0.00     0.000 HD 
HETATM   11  C   UNL     1      -7.229   7.373  67.421  1.00  0.00    -0.093 C  
HETATM   12  C   UNL     1      -8.441   8.296  68.271  1.00  0.00    -0.136 C  
HETATM   13  C   UNL     1      -8.794   9.930  67.860  1.00  0.00    -0.129 C  
HETATM   14  C   UNL     1      -9.424  10.617  69.075  1.00  0.00    -0.202 C  
HETATM   15  C   UNL     1     -10.360   9.735  69.846  1.00  0.00    -0.291 C  
HETATM   16  C   UNL     1     -10.545   8.405  69.703  1.00  0.00    -0.219 C  
HETATM   17  C   UNL     1     -11.569   7.737  70.613  1.00  0.00    -0.233 C  
HETATM   18  C   UNL     1     -11.290   6.290  71.032  1.00  0.00    -0.316 C  
HETATM   19  C   UNL     1     -10.620   5.451  69.953  1.00  0.00    -0.351 C  
HETATM   20  O   UNL     1     -10.501   6.254  72.225  1.00  0.00    -0.192 OA 
HETATM   21  C   UNL     1      -9.434   6.167  69.298  1.00  0.00    -0.147 C  
ENDROOT
BRANCH   4  22
HETATM   22  C   UNL     1      -7.497   8.473  64.699  1.00  0.00    -0.096 C  
HETATM   23  C   UNL     1      -7.100   9.160  63.399  1.00  0.00    -0.089 C  
HETATM   24  O   UNL     1      -7.960   7.332  64.609  1.00  0.00    -0.122 OA 
ENDBRANCH   4  22
TORSDOF 1
ENDMDL
MODEL       91
REMARK 921   NORMALIZED FREE ENERGY PREDICTED BY IDOCK:   -3.32 KCAL/MOL
REMARK 922        TOTAL FREE ENERGY PREDICTED BY IDOCK:   -2.61 KCAL/MOL
REMARK 923 INTER-LIGAND FREE ENERGY PREDICTED BY IDOCK:   -3.71 KCAL/MOL
REMARK 924 INTRA-LIGAND FREE ENERGY PREDICTED BY IDOCK:    1.10 KCAL/MOL
REMARK 927      BINDING AFFINITY PREDICTED BY RF-SCORE:    0.00 PKD
ROOT
HETATM    1  C   UNL     1      -7.668   4.569  69.039  1.00  0.00    -0.070 C  
HETATM    2  C   UNL     1      -6.405   5.221  68.967  1.00  0.00    -0.034 C  
HETATM    3  C   UNL     1      -7.069   5.625  70.249  1.00  0.00    -0.063 C  
HETATM    4  C   UNL     1      -8.740   4.512  70.631  1.00  0.00    -0.127 C  
HETATM    5  C   UNL     1     -11.747   7.078  69.969  1.00  0.00    -0.185 C  
HETATM    6  C   UNL     1      -7.469   4.033  70.843  1.00  0.00    -0.044 C  
HETATM    7  C   UNL     1      -7.714   5.234  72.263  1.00  0.00    -0.101 C  
HETATM    8  C   UNL     1      -6.757   2.732  71.020  1.00  0.00    -0.032 C  
HETATM    9  C   UNL     1     -10.457   7.908  69.847  1.00  0.00    -0.229 C  
HETATM   10  H   UNL     1     -10.420  12.343  69.883  1.00  0.00     0.000 HD 
HETATM   11  C   UNL     1      -8.848   6.577  71.782  1.00  0.00    -0.138 C  
HETATM   12  C   UNL     1      -9.170   7.019  70.125  1.00  0.00    -0.152 C  
HETATM   13  C   UNL     1      -8.941   5.911  68.828  1.00  0.00    -0.117 C  
HETATM   14  C   UNL     1      -8.741   6.705  67.534  1.00  0.00    -0.118 C  
HETATM   15  C   UNL     1      -9.605   7.927  67.439  1.00  0.00    -0.195 C  
HETATM   16  C   UNL     1     -10.360   8.481  68.412  1.00  0.00    -0.241 C  
HETATM   17  C   UNL     1     -11.158   9.729  68.056  1.00  0.00    -0.168 C  
HETATM   18  C   UNL     1     -11.369  10.763  69.168  1.00  0.00    -0.282 C  
HETATM   19  C   UNL     1     -11.548  10.155  70.553  1.00  0.00    -0.411 C  
HETATM   20  O   UNL     1     -10.290  11.702  69.194  1.00  0.00    -0.142 OA 
HETATM   21  C   UNL     1     -10.501   9.081  70.867  1.00  0.00    -0.321 C  
ENDROOT
BRANCH   4  22
HETATM   22  C   UNL     1      -9.610   3.730  71.760  1.00  0.00    -0.156 C  
HETATM   23  C   UNL     1      -9.738   2.214  71.693  1.00  0.00    -0.217 C  
HETATM   24  O   UNL     1     -10.304   4.313  72.598  1.00  0.00    -0.172 OA 
ENDBRANCH   4  22
TORSDOF 1
ENDMDL
MODEL       92
REMARK 921   NORMALIZED FREE ENERGY PREDICTED BY IDOCK:   -3.24 KCAL/MOL
REMARK 922        TOTAL FREE ENERGY PREDICTED BY IDOCK:   -2.52 KCAL/MOL
REMARK 923 INTER-LIGAND FREE ENERGY PREDICTED BY IDOCK:   -3.53 KCAL/MOL
REMARK 924 INTRA-LIGAND FREE ENERGY PREDICTED BY IDOCK:    1.01 KCAL/MOL
REMARK 927      BINDING AFFINITY PREDICTED BY RF-SCORE:    0.00 PKD
ROOT
HETATM    1  C   UNL     1     -10.967   9.843  68.322  1.00  0.00    -0.248 C  
HETATM    2  C   UNL     1     -10.804  10.199  69.689  1.00  0.00    -0.299 C  
HETATM    3  C   UNL     1      -9.443  10.036  69.082  1.00  0.00    -0.214 C  
HETATM    4  C   UNL     1      -9.530   9.843  67.049  1.00  0.00    -0.196 C  
HETATM    5  C   UNL     1      -8.663   5.978  66.436  1.00  0.00    -0.133 C  
HETATM    6  C   UNL     1      -9.664  11.055  67.682  1.00  0.00    -0.184 C  
HETATM    7  C   UNL     1      -7.828  10.700  67.827  1.00  0.00    -0.108 C  
HETATM    8  C   UNL     1     -10.185  12.429  67.414  1.00  0.00    -0.215 C  
HETATM    9  C   UNL     1      -8.459   6.216  67.944  1.00  0.00    -0.116 C  
HETATM   10  H   UNL     1      -6.294   3.375  70.573  1.00  0.00     0.000 HD 
HETATM   11  C   UNL     1      -7.521   8.904  67.879  1.00  0.00    -0.092 C  
HETATM   12  C   UNL     1      -8.734   7.733  68.330  1.00  0.00    -0.127 C  
HETATM   13  C   UNL     1     -10.417   8.068  68.195  1.00  0.00    -0.222 C  
HETATM   14  C   UNL     1     -11.178   7.152  69.156  1.00  0.00    -0.005 C  
HETATM   15  C   UNL     1     -10.613   5.766  69.241  1.00  0.00    -0.376 C  
HETATM   16  C   UNL     1      -9.444   5.320  68.733  1.00  0.00    -0.171 C  
HETATM   17  C   UNL     1      -9.098   3.852  68.952  1.00  0.00    -0.196 C  
HETATM   18  C   UNL     1      -7.614   3.500  69.107  1.00  0.00    -0.052 C  
HETATM   19  C   UNL     1      -6.685   4.346  68.246  1.00  0.00    -0.047 C  
HETATM   20  O   UNL     1      -7.214   3.594  70.477  1.00  0.00    -0.040 OA 
HETATM   21  C   UNL     1      -7.000   5.844  68.331  1.00  0.00    -0.072 C  
ENDROOT
BRANCH   4  22
HETATM   22  C   UNL     1      -8.860  10.254  65.626  1.00  0.00    -0.168 C  
HETATM   23  C   UNL     1      -9.239   9.484  64.367  1.00  0.00    -0.192 C  
HETATM   24  O   UNL     1      -7.940  11.070  65.526  1.00  0.00    -0.061 OA 
ENDBRANCH   4  22
TORSDOF 1
ENDMDL
MODEL       93
REMARK 921   NORMALIZED FREE ENERGY PREDICTED BY IDOCK:   -3.12 KCAL/MOL
REMARK 922        TOTAL FREE ENERGY PREDICTED BY IDOCK:   -2.40 KCAL/MOL
REMARK 923 INTER-LIGAND FREE ENERGY PREDICTED BY IDOCK:   -3.69 KCAL/MOL
REMARK 924 INTRA-LIGAND FREE ENERGY PREDICTED BY IDOCK:    1.29 KCAL/MOL
REMARK 927      BINDING AFFINITY PREDICTED BY RF-SCORE:    0.00 PKD
ROOT
HETATM    1  C   UNL     1      -8.222   7.738  69.840  1.00  0.00    -0.125 C  
HETATM    2  C   UNL     1      -8.597   8.979  69.256  1.00  0.00    -0.136 C  
HETATM    3  C   UNL     1      -9.707   7.998  69.024  1.00  0.00    -0.159 C  
HETATM    4  C   UNL     1      -9.439   6.274  70.089  1.00  0.00    -0.172 C  
HETATM    5  C   UNL     1      -8.443   3.586  67.288  1.00  0.00    -0.103 C  
HETATM    6  C   UNL     1      -9.897   7.435  70.665  1.00  0.00    -0.179 C  
HETATM    7  C   UNL     1     -11.381   6.828  69.693  1.00  0.00    -0.326 C  
HETATM    8  C   UNL     1     -10.036   8.059  72.016  1.00  0.00    -0.280 C  
HETATM    9  C   UNL     1      -8.808   4.871  66.521  1.00  0.00    -0.112 C  
HETATM   10  H   UNL     1      -9.594   4.944  62.157  1.00  0.00     0.000 HD 
HETATM   11  C   UNL     1     -10.850   5.881  68.229  1.00  0.00    -0.325 C  
HETATM   12  C   UNL     1      -9.265   6.024  67.513  1.00  0.00    -0.111 C  
HETATM   13  C   UNL     1      -7.908   6.584  68.413  1.00  0.00    -0.106 C  
HETATM   14  C   UNL     1      -6.865   7.135  67.437  1.00  0.00    -0.070 C  
HETATM   15  C   UNL     1      -6.751   6.343  66.169  1.00  0.00    -0.053 C  
HETATM   16  C   UNL     1      -7.567   5.358  65.735  1.00  0.00    -0.083 C  
HETATM   17  C   UNL     1      -7.227   4.700  64.404  1.00  0.00    -0.055 C  
HETATM   18  C   UNL     1      -8.399   4.207  63.549  1.00  0.00    -0.096 C  
HETATM   19  C   UNL     1      -9.565   3.653  64.357  1.00  0.00    -0.166 C  
HETATM   20  O   UNL     1      -8.867   5.249  62.687  1.00  0.00    -0.103 OA 
HETATM   21  C   UNL     1      -9.962   4.564  65.524  1.00  0.00    -0.230 C  
ENDROOT
BRANCH   4  22
HETATM   22  C   UNL     1     -10.149   5.122  70.990  1.00  0.00    -0.227 C  
HETATM   23  C   UNL     1     -10.918   5.517  72.244  1.00  0.00    -0.296 C  
HETATM   24  O   UNL     1      -9.978   3.915  70.796  1.00  0.00    -0.179 OA 
ENDBRANCH   4  22
TORSDOF 1
ENDMDL
MODEL       94
REMARK 921   NORMALIZED FREE ENERGY PREDICTED BY IDOCK:   -2.98 KCAL/MOL
REMARK 922        TOTAL FREE ENERGY PREDICTED BY IDOCK:   -2.25 KCAL/MOL
REMARK 923 INTER-LIGAND FREE ENERGY PREDICTED BY IDOCK:   -3.05 KCAL/MOL
REMARK 924 INTRA-LIGAND FREE ENERGY PREDICTED BY IDOCK:    0.79 KCAL/MOL
REMARK 927      BINDING AFFINITY PREDICTED BY RF-SCORE:    0.00 PKD
ROOT
HETATM    1  C   UNL     1     -11.114  15.401  71.812  1.00  0.00    -0.258 C  
HETATM    2  C   UNL     1     -11.639  16.719  71.921  1.00  0.00     0.146 C  
HETATM    3  C   UNL     1     -12.593  15.900  71.105  1.00  0.00    -0.387 C  
HETATM    4  C   UNL     1     -12.123  13.911  71.144  1.00  0.00    -0.320 C  
HETATM    5  C   UNL     1     -10.674  13.217  67.472  1.00  0.00    -0.259 C  
HETATM    6  C   UNL     1     -12.756  14.542  72.189  1.00  0.00    -0.407 C  
HETATM    7  C   UNL     1     -14.110  14.390  70.900  1.00  0.00     0.183 C  
HETATM    8  C   UNL     1     -13.024  14.343  73.645  1.00  0.00     0.231 C  
HETATM    9  C   UNL     1     -11.189  14.668  67.449  1.00  0.00    -0.351 C  
HETATM   10  H   UNL     1     -11.838  16.947  63.700  1.00  0.00     0.000 HD 
HETATM   11  C   UNL     1     -13.405  14.415  69.219  1.00  0.00     2.226 C  
HETATM   12  C   UNL     1     -11.834  15.074  68.844  1.00  0.00    -0.337 C  
HETATM   13  C   UNL     1     -10.597  15.210  70.034  1.00  0.00    -0.237 C  
HETATM   14  C   UNL     1      -9.610  16.295  69.594  1.00  0.00     0.007 C  
HETATM   15  C   UNL     1      -9.346  16.304  68.118  1.00  0.00    -0.210 C  
HETATM   16  C   UNL     1     -10.004  15.619  67.158  1.00  0.00    -0.240 C  
HETATM   17  C   UNL     1      -9.533  15.798  65.720  1.00  0.00    -0.334 C  
HETATM   18  C   UNL     1     -10.597  15.714  64.621  1.00  0.00    -0.012 C  
HETATM   19  C   UNL     1     -11.700  14.702  64.904  1.00  0.00    -0.403 C  
HETATM   20  O   UNL     1     -11.178  16.999  64.381  1.00  0.00    -1.167 OA 
HETATM   21  C   UNL     1     -12.257  14.817  66.328  1.00  0.00    -0.034 C  
ENDROOT
BRANCH   4  22
HETATM   22  C   UNL     1     -12.695  12.393  71.242  1.00  0.00    -0.248 C  
HETATM   23  C   UNL     1     -12.104  11.308  70.352  1.00  0.00    -0.474 C  
HETATM   24  O   UNL     1     -13.694  12.091  71.902  1.00  0.00    -0.163 OA 
ENDBRANCH   4  22
TORSDOF 1
ENDMDL
MODEL       95
REMARK 921   NORMALIZED FREE ENERGY PREDICTED BY IDOCK:   -2.97 KCAL/MOL
REMARK 922        TOTAL FREE ENERGY PREDICTED BY IDOCK:   -2.25 KCAL/MOL
REMARK 923 INTER-LIGAND FREE ENERGY PREDICTED BY IDOCK:   -3.40 KCAL/MOL
REMARK 924 INTRA-LIGAND FREE ENERGY PREDICTED BY IDOCK:    1.16 KCAL/MOL
REMARK 927      BINDING AFFINITY PREDICTED BY RF-SCORE:    0.00 PKD
ROOT
HETATM    1  C   UNL     1     -10.107   9.198  69.054  1.00  0.00    -0.199 C  
HETATM    2  C   UNL     1     -10.605   9.623  70.317  1.00  0.00    -0.333 C  
HETATM    3  C   UNL     1      -9.136   9.360  70.457  1.00  0.00    -0.308 C  
HETATM    4  C   UNL     1      -8.236   9.056  68.647  1.00  0.00    -0.118 C  
HETATM    5  C   UNL     1      -7.453   5.126  68.636  1.00  0.00    -0.074 C  
HETATM    6  C   UNL     1      -8.576  10.308  69.102  1.00  0.00    -0.167 C  
HETATM    7  C   UNL     1      -7.073   9.873  70.136  1.00  0.00    -0.146 C  
HETATM    8  C   UNL     1      -8.804  11.688  68.578  1.00  0.00    -0.131 C  
HETATM    9  C   UNL     1      -7.992   5.439  70.044  1.00  0.00    -0.082 C  
HETATM   10  H   UNL     1      -7.584   2.650  73.468  1.00  0.00     0.000 HD 
HETATM   11  C   UNL     1      -6.956   8.070  70.377  1.00  0.00    -0.041 C  
HETATM   12  C   UNL     1      -8.313   6.986  70.207  1.00  0.00    -0.133 C  
HETATM   13  C   UNL     1      -9.690   7.395  69.258  1.00  0.00    -0.165 C  
HETATM   14  C   UNL     1     -10.885   6.572  69.747  1.00  0.00    -0.351 C  
HETATM   15  C   UNL     1     -10.530   5.167  70.133  1.00  0.00    -0.305 C  
HETATM   16  C   UNL     1      -9.296   4.637  70.274  1.00  0.00    -0.218 C  
HETATM   17  C   UNL     1      -9.204   3.169  70.671  1.00  0.00    -0.208 C  
HETATM   18  C   UNL     1      -8.012   2.755  71.541  1.00  0.00    -0.055 C  
HETATM   19  C   UNL     1      -6.725   3.505  71.224  1.00  0.00    -0.031 C  
HETATM   20  O   UNL     1      -8.323   2.906  72.929  1.00  0.00    -0.073 OA 
HETATM   21  C   UNL     1      -6.936   5.019  71.105  1.00  0.00    -0.048 C  
ENDROOT
BRANCH   4  22
HETATM   22  C   UNL     1      -6.932   9.353  67.723  1.00  0.00    -0.080 C  
HETATM   23  C   UNL     1      -7.114   9.963  66.340  1.00  0.00    -0.096 C  
HETATM   24  O   UNL     1      -5.795   8.976  68.022  1.00  0.00    -0.038 OA 
ENDBRANCH   4  22
TORSDOF 1
ENDMDL
MODEL       96
REMARK 921   NORMALIZED FREE ENERGY PREDICTED BY IDOCK:   -2.90 KCAL/MOL
REMARK 922        TOTAL FREE ENERGY PREDICTED BY IDOCK:   -2.16 KCAL/MOL
REMARK 923 INTER-LIGAND FREE ENERGY PREDICTED BY IDOCK:   -3.00 KCAL/MOL
REMARK 924 INTRA-LIGAND FREE ENERGY PREDICTED BY IDOCK:    0.83 KCAL/MOL
REMARK 927      BINDING AFFINITY PREDICTED BY RF-SCORE:    0.00 PKD
ROOT
HETATM    1  C   UNL     1     -10.216   9.668  66.349  1.00  0.00    -0.288 C  
HETATM    2  C   UNL     1     -11.477  10.142  66.805  1.00  0.00     0.930 C  
HETATM    3  C   UNL     1     -10.467  10.383  67.887  1.00  0.00    -0.248 C  
HETATM    4  C   UNL     1      -8.557  10.046  67.239  1.00  0.00    -0.125 C  
HETATM    5  C   UNL     1      -7.536   6.627  69.065  1.00  0.00    -0.101 C  
HETATM    6  C   UNL     1      -9.253  11.190  66.927  1.00  0.00    -0.179 C  
HETATM    7  C   UNL     1      -8.799  11.446  68.729  1.00  0.00    -0.076 C  
HETATM    8  C   UNL     1      -9.221  12.308  65.937  1.00  0.00    -0.031 C  
HETATM    9  C   UNL     1      -8.913   7.011  69.638  1.00  0.00    -0.141 C  
HETATM   10  H   UNL     1     -10.604   5.173  73.304  1.00  0.00     0.000 HD 
HETATM   11  C   UNL     1      -8.674   9.847  69.595  1.00  0.00    -0.218 C  
HETATM   12  C   UNL     1      -9.431   8.382  69.027  1.00  0.00    -0.151 C  
HETATM   13  C   UNL     1      -9.845   8.156  67.371  1.00  0.00    -0.242 C  
HETATM   14  C   UNL     1     -10.956   7.106  67.282  1.00  0.00    -0.333 C  
HETATM   15  C   UNL     1     -10.799   5.980  68.259  1.00  0.00    -0.366 C  
HETATM   16  C   UNL     1      -9.931   5.898  69.290  1.00  0.00    -0.224 C  
HETATM   17  C   UNL     1      -9.966   4.633  70.139  1.00  0.00    -0.304 C  
HETATM   18  C   UNL     1      -9.633   4.781  71.627  1.00  0.00    -0.158 C  
HETATM   19  C   UNL     1      -8.562   5.824  71.920  1.00  0.00    -0.134 C  
HETATM   20  O   UNL     1     -10.811   5.081  72.381  1.00  0.00    -0.213 OA 
HETATM   21  C   UNL     1      -8.806   7.146  71.184  1.00  0.00    -0.144 C  
ENDROOT
BRANCH   4  22
HETATM   22  C   UNL     1      -7.015  10.560  67.265  1.00  0.00    -0.087 C  
HETATM   23  C   UNL     1      -5.908   9.594  67.666  1.00  0.00    -0.044 C  
HETATM   24  O   UNL     1      -6.698  11.744  67.117  1.00  0.00    -0.122 OA 
ENDBRANCH   4  22
TORSDOF 1
ENDMDL
MODEL       97
REMARK 921   NORMALIZED FREE ENERGY PREDICTED BY IDOCK:   -2.88 KCAL/MOL
REMARK 922        TOTAL FREE ENERGY PREDICTED BY IDOCK:   -2.15 KCAL/MOL
REMARK 923 INTER-LIGAND FREE ENERGY PREDICTED BY IDOCK:   -2.94 KCAL/MOL
REMARK 924 INTRA-LIGAND FREE ENERGY PREDICTED BY IDOCK:    0.79 KCAL/MOL
REMARK 927      BINDING AFFINITY PREDICTED BY RF-SCORE:    0.00 PKD
ROOT
HETATM    1  C   UNL     1     -10.351  10.158  65.438  1.00  0.00    -0.177 C  
HETATM    2  C   UNL     1      -9.849  11.470  65.658  1.00  0.00    -0.269 C  
HETATM    3  C   UNL     1      -8.734  10.497  65.897  1.00  0.00    -0.178 C  
HETATM    4  C   UNL     1      -9.230   8.605  65.303  1.00  0.00    -0.032 C  
HETATM    5  C   UNL     1      -9.734   6.638  68.759  1.00  0.00    -0.130 C  
HETATM    6  C   UNL     1      -8.866   9.587  64.413  1.00  0.00    -0.251 C  
HETATM    7  C   UNL     1      -7.237   9.113  65.214  1.00  0.00    -0.089 C  
HETATM    8  C   UNL     1      -8.970   9.900  62.956  1.00  0.00    -0.273 C  
HETATM    9  C   UNL     1      -9.207   8.031  69.146  1.00  0.00    -0.151 C  
HETATM   10  H   UNL     1      -7.615   8.983  73.175  1.00  0.00     0.000 HD 
HETATM   11  C   UNL     1      -7.503   8.532  66.921  1.00  0.00    -0.084 C  
HETATM   12  C   UNL     1      -8.922   8.919  67.859  1.00  0.00    -0.142 C  
HETATM   13  C   UNL     1     -10.413   9.354  67.116  1.00  0.00    -0.315 C  
HETATM   14  C   UNL     1     -11.243  10.161  68.118  1.00  0.00    -0.245 C  
HETATM   15  C   UNL     1     -11.133   9.664  69.528  1.00  0.00    -0.198 C  
HETATM   16  C   UNL     1     -10.269   8.748  70.015  1.00  0.00    -0.208 C  
HETATM   17  C   UNL     1     -10.366   8.409  71.497  1.00  0.00    -0.296 C  
HETATM   18  C   UNL     1      -9.064   8.040  72.216  1.00  0.00    -0.176 C  
HETATM   19  C   UNL     1      -8.081   7.258  71.354  1.00  0.00    -0.102 C  
HETATM   20  O   UNL     1      -8.422   9.211  72.729  1.00  0.00    -0.046 OA 
HETATM   21  C   UNL     1      -7.893   7.876  69.963  1.00  0.00    -0.105 C  
ENDROOT
BRANCH   4  22
HETATM   22  C   UNL     1      -8.724   7.247  64.565  1.00  0.00     0.478 C  
HETATM   23  C   UNL     1      -9.064   5.892  65.170  1.00  0.00     0.176 C  
HETATM   24  O   UNL     1      -7.944   7.253  63.608  1.00  0.00    -0.129 OA 
ENDBRANCH   4  22
TORSDOF 1
ENDMDL
MODEL       98
REMARK 921   NORMALIZED FREE ENERGY PREDICTED BY IDOCK:   -2.82 KCAL/MOL
REMARK 922        TOTAL FREE ENERGY PREDICTED BY IDOCK:   -2.08 KCAL/MOL
REMARK 923 INTER-LIGAND FREE ENERGY PREDICTED BY IDOCK:   -2.87 KCAL/MOL
REMARK 924 INTRA-LIGAND FREE ENERGY PREDICTED BY IDOCK:    0.79 KCAL/MOL
REMARK 927      BINDING AFFINITY PREDICTED BY RF-SCORE:    0.00 PKD
ROOT
HETATM    1  C   UNL     1      -6.466  10.347  66.274  1.00  0.00    -0.102 C  
HETATM    2  C   UNL     1      -5.619   9.226  66.050  1.00  0.00    -0.045 C  
HETATM    3  C   UNL     1      -7.017   8.841  65.669  1.00  0.00    -0.079 C  
HETATM    4  C   UNL     1      -8.273  10.453  65.635  1.00  0.00    -0.158 C  
HETATM    5  C   UNL     1     -10.571   9.921  68.875  1.00  0.00    -0.239 C  
HETATM    6  C   UNL     1      -7.379  10.192  64.624  1.00  0.00    -0.129 C  
HETATM    7  C   UNL     1      -8.716   8.905  64.352  1.00  0.00    -0.099 C  
HETATM    8  C   UNL     1      -6.710  10.891  63.486  1.00  0.00     0.485 C  
HETATM    9  C   UNL     1      -9.707   8.651  68.764  1.00  0.00    -0.171 C  
HETATM   10  H   UNL     1     -10.587   4.922  70.998  1.00  0.00     0.000 HD 
HETATM   11  C   UNL     1      -9.508   8.455  65.931  1.00  0.00    -0.169 C  
HETATM   12  C   UNL     1      -8.762   8.706  67.488  1.00  0.00    -0.135 C  
HETATM   13  C   UNL     1      -7.534   9.888  67.728  1.00  0.00    -0.090 C  
HETATM   14  C   UNL     1      -6.709   9.496  68.957  1.00  0.00    -0.050 C  
HETATM   15  C   UNL     1      -7.527   8.912  70.069  1.00  0.00    -0.057 C  
HETATM   16  C   UNL     1      -8.822   8.532  70.029  1.00  0.00    -0.141 C  
HETATM   17  C   UNL     1      -9.429   7.968  71.308  1.00  0.00    -0.190 C  
HETATM   18  C   UNL     1     -10.508   6.891  71.153  1.00  0.00    -0.212 C  
HETATM   19  C   UNL     1     -11.415   7.093  69.946  1.00  0.00    -0.154 C  
HETATM   20  O   UNL     1      -9.917   5.590  71.094  1.00  0.00    -0.179 OA 
HETATM   21  C   UNL     1     -10.633   7.406  68.665  1.00  0.00    -0.182 C  
ENDROOT
BRANCH   4  22
HETATM   22  C   UNL     1      -9.488  11.200  64.854  1.00  0.00    -0.219 C  
HETATM   23  C   UNL     1     -10.635  11.805  65.652  1.00  0.00    -0.314 C  
HETATM   24  O   UNL     1      -9.612  11.178  63.626  1.00  0.00    -0.240 OA 
ENDBRANCH   4  22
TORSDOF 1
ENDMDL
MODEL       99
REMARK 921   NORMALIZED FREE ENERGY PREDICTED BY IDOCK:   -2.65 KCAL/MOL
REMARK 922        TOTAL FREE ENERGY PREDICTED BY IDOCK:   -1.90 KCAL/MOL
REMARK 923 INTER-LIGAND FREE ENERGY PREDICTED BY IDOCK:   -3.17 KCAL/MOL
REMARK 924 INTRA-LIGAND FREE ENERGY PREDICTED BY IDOCK:    1.27 KCAL/MOL
REMARK 927      BINDING AFFINITY PREDICTED BY RF-SCORE:    0.00 PKD
ROOT
HETATM    1  C   UNL     1      -7.470   6.230  63.513  1.00  0.00    -0.080 C  
HETATM    2  C   UNL     1      -6.124   6.534  63.857  1.00  0.00    -0.034 C  
HETATM    3  C   UNL     1      -6.641   5.524  64.837  1.00  0.00    -0.039 C  
HETATM    4  C   UNL     1      -8.450   4.761  64.267  1.00  0.00    -0.135 C  
HETATM    5  C   UNL     1     -11.026   6.425  66.848  1.00  0.00    -0.413 C  
HETATM    6  C   UNL     1      -7.265   4.359  63.697  1.00  0.00    -0.053 C  
HETATM    7  C   UNL     1      -7.232   3.530  65.379  1.00  0.00    -0.067 C  
HETATM    8  C   UNL     1      -6.768   3.673  62.467  1.00  0.00    -0.027 C  
HETATM    9  C   UNL     1      -9.625   6.844  67.329  1.00  0.00    -0.173 C  
HETATM   10  H   UNL     1      -8.857   8.556  71.349  1.00  0.00     0.000 HD 
HETATM   11  C   UNL     1      -8.154   4.517  66.603  1.00  0.00    -0.103 C  
HETATM   12  C   UNL     1      -8.488   6.219  66.412  1.00  0.00    -0.125 C  
HETATM   13  C   UNL     1      -8.515   6.972  64.864  1.00  0.00     0.061 C  
HETATM   14  C   UNL     1      -8.258   8.471  65.043  1.00  0.00    -0.160 C  
HETATM   15  C   UNL     1      -8.913   9.052  66.260  1.00  0.00    -0.199 C  
HETATM   16  C   UNL     1      -9.513   8.387  67.271  1.00  0.00    -0.196 C  
HETATM   17  C   UNL     1     -10.113   9.217  68.399  1.00  0.00    -0.215 C  
HETATM   18  C   UNL     1     -10.090   8.606  69.804  1.00  0.00    -0.199 C  
HETATM   19  C   UNL     1     -10.292   7.096  69.825  1.00  0.00    -0.224 C  
HETATM   20  O   UNL     1      -8.872   8.934  70.478  1.00  0.00    -0.156 OA 
HETATM   21  C   UNL     1      -9.420   6.368  68.796  1.00  0.00    -0.127 C  
ENDROOT
BRANCH   4  22
HETATM   22  C   UNL     1      -9.375   3.429  64.150  1.00  0.00    -0.133 C  
HETATM   23  C   UNL     1     -10.546   3.411  63.177  1.00  0.00    -0.236 C  
HETATM   24  O   UNL     1      -9.272   2.469  64.918  1.00  0.00    -0.134 OA 
ENDBRANCH   4  22
TORSDOF 1
ENDMDL
MODEL      100
REMARK 921   NORMALIZED FREE ENERGY PREDICTED BY IDOCK:   -2.63 KCAL/MOL
REMARK 922        TOTAL FREE ENERGY PREDICTED BY IDOCK:   -1.88 KCAL/MOL
REMARK 923 INTER-LIGAND FREE ENERGY PREDICTED BY IDOCK:   -3.39 KCAL/MOL
REMARK 924 INTRA-LIGAND FREE ENERGY PREDICTED BY IDOCK:    1.52 KCAL/MOL
REMARK 927      BINDING AFFINITY PREDICTED BY RF-SCORE:    0.00 PKD
ROOT
HETATM    1  C   UNL     1      -7.665   7.137  65.927  1.00  0.00    -0.101 C  
HETATM    2  C   UNL     1      -6.296   7.514  66.017  1.00  0.00    -0.042 C  
HETATM    3  C   UNL     1      -6.936   7.751  67.351  1.00  0.00    -0.078 C  
HETATM    4  C   UNL     1      -8.815   6.952  67.453  1.00  0.00    -0.118 C  
HETATM    5  C   UNL     1     -11.208  10.166  67.367  1.00  0.00    -0.080 C  
HETATM    6  C   UNL     1      -7.678   6.186  67.562  1.00  0.00    -0.097 C  
HETATM    7  C   UNL     1      -7.758   7.066  69.216  1.00  0.00    -0.109 C  
HETATM    8  C   UNL     1      -7.251   4.759  67.443  1.00  0.00    -0.073 C  
HETATM    9  C   UNL     1      -9.773  10.717  67.450  1.00  0.00    -0.194 C  
HETATM   10  H   UNL     1      -8.855  14.928  68.498  1.00  0.00     0.000 HD 
HETATM   11  C   UNL     1      -8.573   8.687  69.045  1.00  0.00    -0.129 C  
HETATM   12  C   UNL     1      -8.707   9.542  67.530  1.00  0.00    -0.126 C  
HETATM   13  C   UNL     1      -8.631   8.726  66.016  1.00  0.00    -0.166 C  
HETATM   14  C   UNL     1      -8.205   9.729  64.939  1.00  0.00    -0.142 C  
HETATM   15  C   UNL     1      -8.801  11.092  65.118  1.00  0.00    -0.054 C  
HETATM   16  C   UNL     1      -9.484  11.561  66.185  1.00  0.00    -0.239 C  
HETATM   17  C   UNL     1      -9.996  12.994  66.116  1.00  0.00    -0.278 C  
HETATM   18  C   UNL     1     -10.058  13.777  67.432  1.00  0.00    -0.244 C  
HETATM   19  C   UNL     1     -10.432  12.928  68.640  1.00  0.00    -0.231 C  
HETATM   20  O   UNL     1      -8.817  14.443  67.683  1.00  0.00    -0.176 OA 
HETATM   21  C   UNL     1      -9.640  11.618  68.711  1.00  0.00    -0.083 C  
ENDROOT
BRANCH   4  22
HETATM   22  C   UNL     1      -9.885   6.137  68.365  1.00  0.00    -0.126 C  
HETATM   23  C   UNL     1      -9.386   5.102  69.365  1.00  0.00    -0.176 C  
HETATM   24  O   UNL     1     -11.106   6.203  68.192  1.00  0.00    -0.332 OA 
ENDBRANCH   4  22
TORSDOF 1
ENDMDL
MODEL      101
REMARK 921   NORMALIZED FREE ENERGY PREDICTED BY IDOCK:   -2.60 KCAL/MOL
REMARK 922        TOTAL FREE ENERGY PREDICTED BY IDOCK:   -1.84 KCAL/MOL
REMARK 923 INTER-LIGAND FREE ENERGY PREDICTED BY IDOCK:   -2.65 KCAL/MOL
REMARK 924 INTRA-LIGAND FREE ENERGY PREDICTED BY IDOCK:    0.80 KCAL/MOL
REMARK 927      BINDING AFFINITY PREDICTED BY RF-SCORE:    0.00 PKD
ROOT
HETATM    1  C   UNL     1      -9.465   5.415  71.276  1.00  0.00    -0.191 C  
HETATM    2  C   UNL     1     -10.754   4.972  70.870  1.00  0.00    -0.053 C  
HETATM    3  C   UNL     1      -9.771   4.591  69.805  1.00  0.00    -0.285 C  
HETATM    4  C   UNL     1      -7.839   4.879  70.407  1.00  0.00    -0.066 C  
HETATM    5  C   UNL     1      -6.666   8.078  68.296  1.00  0.00    -0.067 C  
HETATM    6  C   UNL     1      -8.588   3.802  70.819  1.00  0.00    -0.110 C  
HETATM    7  C   UNL     1      -8.170   3.375  69.041  1.00  0.00    -0.075 C  
HETATM    8  C   UNL     1      -8.602   2.770  71.898  1.00  0.00    -0.097 C  
HETATM    9  C   UNL     1      -8.067   7.721  67.767  1.00  0.00    -0.125 C  
HETATM   10  H   UNL     1      -9.706   9.335  63.975  1.00  0.00     0.000 HD 
HETATM   11  C   UNL     1      -7.973   4.888  68.044  1.00  0.00    -0.086 C  
HETATM   12  C   UNL     1      -8.648   6.433  68.495  1.00  0.00    -0.122 C  
HETATM   13  C   UNL     1      -9.029   6.816  70.129  1.00  0.00    -0.149 C  
HETATM   14  C   UNL     1     -10.084   7.926  70.139  1.00  0.00    -0.194 C  
HETATM   15  C   UNL     1      -9.881   8.959  69.071  1.00  0.00    -0.182 C  
HETATM   16  C   UNL     1      -9.023   8.909  68.029  1.00  0.00    -0.140 C  
HETATM   17  C   UNL     1      -9.003  10.100  67.079  1.00  0.00    -0.148 C  
HETATM   18  C   UNL     1      -8.695   9.813  65.606  1.00  0.00    -0.148 C  
HETATM   19  C   UNL     1      -7.683   8.695  65.392  1.00  0.00    -0.094 C  
HETATM   20  O   UNL     1      -9.897   9.513  64.888  1.00  0.00    -0.152 OA 
HETATM   21  C   UNL     1      -7.986   7.453  66.237  1.00  0.00    -0.109 C  
ENDROOT
BRANCH   4  22
HETATM   22  C   UNL     1      -6.325   4.285  70.412  1.00  0.00    -0.026 C  
HETATM   23  C   UNL     1      -5.145   5.237  70.281  1.00  0.00    -0.004 C  
HETATM   24  O   UNL     1      -6.077   3.077  70.370  1.00  0.00    -0.021 OA 
ENDBRANCH   4  22
TORSDOF 1
ENDMDL
MODEL      102
REMARK 921   NORMALIZED FREE ENERGY PREDICTED BY IDOCK:   -2.55 KCAL/MOL
REMARK 922        TOTAL FREE ENERGY PREDICTED BY IDOCK:   -1.80 KCAL/MOL
REMARK 923 INTER-LIGAND FREE ENERGY PREDICTED BY IDOCK:   -3.15 KCAL/MOL
REMARK 924 INTRA-LIGAND FREE ENERGY PREDICTED BY IDOCK:    1.36 KCAL/MOL
REMARK 927      BINDING AFFINITY PREDICTED BY RF-SCORE:    0.00 PKD
ROOT
HETATM    1  C   UNL     1      -9.697  15.245  70.196  1.00  0.00     0.117 C  
HETATM    2  C   UNL     1      -9.414  16.457  69.507  1.00  0.00    -0.006 C  
HETATM    3  C   UNL     1     -10.817  16.046  69.175  1.00  0.00    -0.281 C  
HETATM    4  C   UNL     1     -11.460  14.500  70.348  1.00  0.00    -0.259 C  
HETATM    5  C   UNL     1     -11.504  11.374  67.840  1.00  0.00    -0.361 C  
HETATM    6  C   UNL     1     -11.403  15.797  70.800  1.00  0.00    -0.419 C  
HETATM    7  C   UNL     1     -12.897  15.808  69.666  1.00  0.00     0.472 C  
HETATM    8  C   UNL     1     -11.381  16.555  72.087  1.00  0.00     0.196 C  
HETATM    9  C   UNL     1     -11.175  12.601  66.970  1.00  0.00    -0.348 C  
HETATM   10  H   UNL     1     -11.406  12.560  62.541  1.00  0.00     0.000 HD 
HETATM   11  C   UNL     1     -12.704  14.577  68.335  1.00  0.00     0.801 C  
HETATM   12  C   UNL     1     -11.161  13.934  67.834  1.00  0.00    -0.302 C  
HETATM   13  C   UNL     1      -9.795  13.930  68.882  1.00  0.00    -0.041 C  
HETATM   14  C   UNL     1      -8.524  13.862  68.030  1.00  0.00    -0.173 C  
HETATM   15  C   UNL     1      -8.652  12.973  66.829  1.00  0.00    -0.061 C  
HETATM   16  C   UNL     1      -9.776  12.409  66.337  1.00  0.00    -0.246 C  
HETATM   17  C   UNL     1      -9.637  11.534  65.097  1.00  0.00    -0.235 C  
HETATM   18  C   UNL     1     -10.814  11.522  64.116  1.00  0.00    -0.372 C  
HETATM   19  C   UNL     1     -12.178  11.624  64.785  1.00  0.00     0.222 C  
HETATM   20  O   UNL     1     -10.676  12.568  63.149  1.00  0.00    -0.305 OA 
HETATM   21  C   UNL     1     -12.238  12.732  65.842  1.00  0.00    -0.422 C  
ENDROOT
BRANCH   4  22
HETATM   22  C   UNL     1     -12.698  13.878  71.199  1.00  0.00    -0.367 C  
HETATM   23  C   UNL     1     -13.449  14.761  72.186  1.00  0.00    -0.491 C  
HETATM   24  O   UNL     1     -12.977  12.676  71.200  1.00  0.00    -0.270 OA 
ENDBRANCH   4  22
TORSDOF 1
ENDMDL
MODEL      103
REMARK 921   NORMALIZED FREE ENERGY PREDICTED BY IDOCK:   -2.47 KCAL/MOL
REMARK 922        TOTAL FREE ENERGY PREDICTED BY IDOCK:   -1.71 KCAL/MOL
REMARK 923 INTER-LIGAND FREE ENERGY PREDICTED BY IDOCK:   -2.52 KCAL/MOL
REMARK 924 INTRA-LIGAND FREE ENERGY PREDICTED BY IDOCK:    0.81 KCAL/MOL
REMARK 927      BINDING AFFINITY PREDICTED BY RF-SCORE:    0.00 PKD
ROOT
HETATM    1  C   UNL     1     -10.324   7.153  68.170  1.00  0.00    -0.234 C  
HETATM    2  C   UNL     1     -10.301   8.439  68.777  1.00  0.00    -0.225 C  
HETATM    3  C   UNL     1      -8.885   7.985  68.589  1.00  0.00    -0.134 C  
HETATM    4  C   UNL     1      -8.768   6.301  67.436  1.00  0.00    -0.105 C  
HETATM    5  C   UNL     1      -7.798   3.432  70.060  1.00  0.00    -0.049 C  
HETATM    6  C   UNL     1      -8.979   7.550  66.901  1.00  0.00    -0.152 C  
HETATM    7  C   UNL     1      -7.162   7.587  67.366  1.00  0.00    -0.087 C  
HETATM    8  C   UNL     1      -9.488   8.181  65.646  1.00  0.00     0.131 C  
HETATM    9  C   UNL     1      -7.748   4.753  70.850  1.00  0.00    -0.073 C  
HETATM   10  H   UNL     1      -5.819   5.123  74.827  1.00  0.00     0.000 HD 
HETATM   11  C   UNL     1      -6.841   6.502  68.795  1.00  0.00    -0.070 C  
HETATM   12  C   UNL     1      -8.077   5.996  69.917  1.00  0.00    -0.117 C  
HETATM   13  C   UNL     1      -9.743   5.966  69.482  1.00  0.00    -0.190 C  
HETATM   14  C   UNL     1     -10.585   6.050  70.758  1.00  0.00    -0.316 C  
HETATM   15  C   UNL     1     -10.014   5.274  71.907  1.00  0.00    -0.240 C  
HETATM   16  C   UNL     1      -8.795   4.699  71.989  1.00  0.00    -0.136 C  
HETATM   17  C   UNL     1      -8.454   3.956  73.275  1.00  0.00    -0.088 C  
HETATM   18  C   UNL     1      -6.989   3.973  73.724  1.00  0.00    -0.059 C  
HETATM   19  C   UNL     1      -5.990   3.935  72.576  1.00  0.00    -0.008 C  
HETATM   20  O   UNL     1      -6.728   5.112  74.548  1.00  0.00    -0.072 OA 
HETATM   21  C   UNL     1      -6.330   4.932  71.462  1.00  0.00    -0.026 C  
ENDROOT
BRANCH   4  22
HETATM   22  C   UNL     1      -7.966   5.534  66.248  1.00  0.00    -0.105 C  
HETATM   23  C   UNL     1      -7.566   4.076  66.432  1.00  0.00    -0.089 C  
HETATM   24  O   UNL     1      -7.527   6.112  65.250  1.00  0.00    -0.077 OA 
ENDBRANCH   4  22
TORSDOF 1
ENDMDL
MODEL      104
REMARK 921   NORMALIZED FREE ENERGY PREDICTED BY IDOCK:   -2.44 KCAL/MOL
REMARK 922        TOTAL FREE ENERGY PREDICTED BY IDOCK:   -1.68 KCAL/MOL
REMARK 923 INTER-LIGAND FREE ENERGY PREDICTED BY IDOCK:   -2.89 KCAL/MOL
REMARK 924 INTRA-LIGAND FREE ENERGY PREDICTED BY IDOCK:    1.21 KCAL/MOL
REMARK 927      BINDING AFFINITY PREDICTED BY RF-SCORE:    0.00 PKD
ROOT
HETATM    1  C   UNL     1      -5.186  15.455  69.153  1.00  0.00    -0.095 C  
HETATM    2  C   UNL     1      -5.139  16.029  70.454  1.00  0.00    -0.167 C  
HETATM    3  C   UNL     1      -6.538  15.554  70.202  1.00  0.00    -0.007 C  
HETATM    4  C   UNL     1      -6.669  14.421  68.506  1.00  0.00    -0.097 C  
HETATM    5  C   UNL     1      -8.578  16.817  65.922  1.00  0.00    -0.065 C  
HETATM    6  C   UNL     1      -6.168  13.928  69.687  1.00  0.00    -0.124 C  
HETATM    7  C   UNL     1      -8.014  14.002  70.007  1.00  0.00     1.238 C  
HETATM    8  C   UNL     1      -5.323  12.800  70.184  1.00  0.00    -0.114 C  
HETATM    9  C   UNL     1      -8.589  17.564  67.268  1.00  0.00    -0.234 C  
HETATM   10  H   UNL     1     -11.214  21.045  68.083  1.00  0.00     0.000 HD 
HETATM   11  C   UNL     1      -8.782  15.345  69.042  1.00  0.00    -0.231 C  
HETATM   12  C   UNL     1      -7.892  16.706  68.410  1.00  0.00    -0.202 C  
HETATM   13  C   UNL     1      -6.197  16.629  68.120  1.00  0.00    -0.136 C  
HETATM   14  C   UNL     1      -5.631  18.052  68.135  1.00  0.00    -0.160 C  
HETATM   15  C   UNL     1      -6.536  19.065  67.500  1.00  0.00    -0.202 C  
HETATM   16  C   UNL     1      -7.818  18.897  67.112  1.00  0.00    -0.252 C  
HETATM   17  C   UNL     1      -8.523  20.091  66.481  1.00  0.00    -0.359 C  
HETATM   18  C   UNL     1     -10.029  20.224  66.730  1.00  0.00    -0.450 C  
HETATM   19  C   UNL     1     -10.767  18.893  66.788  1.00  0.00    -0.414 C  
HETATM   20  O   UNL     1     -10.280  20.963  67.929  1.00  0.00    -0.094 OA 
HETATM   21  C   UNL     1     -10.059  17.864  67.677  1.00  0.00    -0.350 C  
ENDROOT
BRANCH   4  22
HETATM   22  C   UNL     1      -7.317  13.101  67.813  1.00  0.00    -0.143 C  
HETATM   23  C   UNL     1      -8.610  13.228  67.019  1.00  0.00    -0.169 C  
HETATM   24  O   UNL     1      -6.896  11.958  68.016  1.00  0.00    -0.064 OA 
ENDBRANCH   4  22
TORSDOF 1
ENDMDL
MODEL      105
REMARK 921   NORMALIZED FREE ENERGY PREDICTED BY IDOCK:   -2.41 KCAL/MOL
REMARK 922        TOTAL FREE ENERGY PREDICTED BY IDOCK:   -1.64 KCAL/MOL
REMARK 923 INTER-LIGAND FREE ENERGY PREDICTED BY IDOCK:   -2.69 KCAL/MOL
REMARK 924 INTRA-LIGAND FREE ENERGY PREDICTED BY IDOCK:    1.04 KCAL/MOL
REMARK 927      BINDING AFFINITY PREDICTED BY RF-SCORE:    0.00 PKD
ROOT
HETATM    1  C   UNL     1      -6.849   9.954  68.660  1.00  0.00    -0.051 C  
HETATM    2  C   UNL     1      -6.208  10.291  67.435  1.00  0.00    -0.058 C  
HETATM    3  C   UNL     1      -7.578   9.772  67.119  1.00  0.00    -0.092 C  
HETATM    4  C   UNL     1      -8.722   9.556  68.800  1.00  0.00    -0.128 C  
HETATM    5  C   UNL     1      -8.922   5.583  69.293  1.00  0.00    -0.125 C  
HETATM    6  C   UNL     1      -8.492  10.778  68.214  1.00  0.00    -0.130 C  
HETATM    7  C   UNL     1      -9.718   9.970  67.047  1.00  0.00    -0.227 C  
HETATM    8  C   UNL     1      -8.559  12.232  68.550  1.00  0.00    -0.068 C  
HETATM    9  C   UNL     1      -8.200   5.800  67.951  1.00  0.00    -0.101 C  
HETATM   10  H   UNL     1      -7.610   2.568  64.971  1.00  0.00     0.000 HD 
HETATM   11  C   UNL     1      -9.531   8.157  67.069  1.00  0.00    -0.226 C  
HETATM   12  C   UNL     1      -8.082   7.346  67.603  1.00  0.00    -0.114 C  
HETATM   13  C   UNL     1      -6.962   8.095  68.674  1.00  0.00    -0.068 C  
HETATM   14  C   UNL     1      -5.595   7.427  68.500  1.00  0.00    -0.023 C  
HETATM   15  C   UNL     1      -5.672   5.946  68.285  1.00  0.00    -0.009 C  
HETATM   16  C   UNL     1      -6.775   5.204  68.044  1.00  0.00    -0.055 C  
HETATM   17  C   UNL     1      -6.586   3.703  67.865  1.00  0.00    -0.042 C  
HETATM   18  C   UNL     1      -7.539   2.989  66.901  1.00  0.00    -0.075 C  
HETATM   19  C   UNL     1      -8.956   3.548  66.905  1.00  0.00    -0.165 C  
HETATM   20  O   UNL     1      -7.020   3.011  65.569  1.00  0.00    -0.047 OA 
HETATM   21  C   UNL     1      -8.988   5.078  66.821  1.00  0.00    -0.113 C  
ENDROOT
BRANCH   4  22
HETATM   22  C   UNL     1     -10.194   9.746  69.462  1.00  0.00    -0.221 C  
HETATM   23  C   UNL     1     -10.493   9.126  70.820  1.00  0.00    -0.322 C  
HETATM   24  O   UNL     1     -11.145  10.250  68.856  1.00  0.00    -0.230 OA 
ENDBRANCH   4  22
TORSDOF 1
ENDMDL
MODEL      106
REMARK 921   NORMALIZED FREE ENERGY PREDICTED BY IDOCK:   -2.25 KCAL/MOL
REMARK 922        TOTAL FREE ENERGY PREDICTED BY IDOCK:   -1.48 KCAL/MOL
REMARK 923 INTER-LIGAND FREE ENERGY PREDICTED BY IDOCK:   -2.89 KCAL/MOL
REMARK 924 INTRA-LIGAND FREE ENERGY PREDICTED BY IDOCK:    1.41 KCAL/MOL
REMARK 927      BINDING AFFINITY PREDICTED BY RF-SCORE:    0.00 PKD
ROOT
HETATM    1  C   UNL     1      -7.613   9.977  68.938  1.00  0.00    -0.086 C  
HETATM    2  C   UNL     1      -6.311   9.733  69.457  1.00  0.00    -0.045 C  
HETATM    3  C   UNL     1      -6.484   8.908  68.218  1.00  0.00    -0.059 C  
HETATM    4  C   UNL     1      -8.181   9.407  67.195  1.00  0.00    -0.113 C  
HETATM    5  C   UNL     1     -10.620   6.295  67.846  1.00  0.00    -0.327 C  
HETATM    6  C   UNL     1      -7.037  10.169  67.146  1.00  0.00    -0.089 C  
HETATM    7  C   UNL     1      -6.607   8.684  66.083  1.00  0.00    -0.061 C  
HETATM    8  C   UNL     1      -6.605  11.552  66.786  1.00  0.00    -0.119 C  
HETATM    9  C   UNL     1      -9.268   5.901  68.467  1.00  0.00    -0.119 C  
HETATM   10  H   UNL     1      -8.259   1.742  69.634  1.00  0.00     0.000 HD 
HETATM   11  C   UNL     1      -7.510   7.205  66.646  1.00  0.00    -0.088 C  
HETATM   12  C   UNL     1      -8.180   7.038  68.249  1.00  0.00    -0.124 C  
HETATM   13  C   UNL     1      -8.571   8.406  69.218  1.00  0.00    -0.130 C  
HETATM   14  C   UNL     1      -8.575   7.980  70.689  1.00  0.00    -0.130 C  
HETATM   15  C   UNL     1      -9.143   6.612  70.917  1.00  0.00    -0.154 C  
HETATM   16  C   UNL     1      -9.456   5.683  69.988  1.00  0.00    -0.199 C  
HETATM   17  C   UNL     1     -10.030   4.361  70.482  1.00  0.00    -0.256 C  
HETATM   18  C   UNL     1      -9.690   3.105  69.672  1.00  0.00     0.082 C  
HETATM   19  C   UNL     1      -9.602   3.343  68.170  1.00  0.00    -0.158 C  
HETATM   20  O   UNL     1      -8.470   2.520  70.136  1.00  0.00    -0.041 OA 
HETATM   21  C   UNL     1      -8.768   4.580  67.816  1.00  0.00    -0.112 C  
ENDROOT
BRANCH   4  22
HETATM   22  C   UNL     1      -8.848   9.668  65.735  1.00  0.00    -0.157 C  
HETATM   23  C   UNL     1      -8.078  10.461  64.688  1.00  0.00    -0.122 C  
HETATM   24  O   UNL     1     -10.019   9.381  65.469  1.00  0.00    -0.281 OA 
ENDBRANCH   4  22
TORSDOF 1
ENDMDL
MODEL      107
REMARK 921   NORMALIZED FREE ENERGY PREDICTED BY IDOCK:   -2.25 KCAL/MOL
REMARK 922        TOTAL FREE ENERGY PREDICTED BY IDOCK:   -1.47 KCAL/MOL
REMARK 923 INTER-LIGAND FREE ENERGY PREDICTED BY IDOCK:   -2.27 KCAL/MOL
REMARK 924 INTRA-LIGAND FREE ENERGY PREDICTED BY IDOCK:    0.79 KCAL/MOL
REMARK 927      BINDING AFFINITY PREDICTED BY RF-SCORE:    0.00 PKD
ROOT
HETATM    1  C   UNL     1      -6.357   9.724  68.256  1.00  0.00    -0.055 C  
HETATM    2  C   UNL     1      -7.447  10.579  67.932  1.00  0.00    -0.091 C  
HETATM    3  C   UNL     1      -7.926   9.563  68.925  1.00  0.00    -0.091 C  
HETATM    4  C   UNL     1      -6.385   8.479  69.717  1.00  0.00    -0.035 C  
HETATM    5  C   UNL     1      -6.806   4.872  68.021  1.00  0.00    -0.056 C  
HETATM    6  C   UNL     1      -6.671   9.762  70.121  1.00  0.00    -0.100 C  
HETATM    7  C   UNL     1      -8.038   8.751  70.912  1.00  0.00    -0.174 C  
HETATM    8  C   UNL     1      -6.020  10.905  70.829  1.00  0.00    -0.034 C  
HETATM    9  C   UNL     1      -8.035   5.686  67.578  1.00  0.00    -0.102 C  
HETATM   10  H   UNL     1     -11.640   3.838  65.772  1.00  0.00     0.000 HD 
HETATM   11  C   UNL     1      -8.416   7.279  69.907  1.00  0.00    -0.140 C  
HETATM   12  C   UNL     1      -8.022   7.143  68.213  1.00  0.00    -0.123 C  
HETATM   13  C   UNL     1      -6.766   8.075  67.494  1.00  0.00    -0.069 C  
HETATM   14  C   UNL     1      -7.030   8.178  65.989  1.00  0.00    -0.058 C  
HETATM   15  C   UNL     1      -7.576   6.918  65.388  1.00  0.00    -0.093 C  
HETATM   16  C   UNL     1      -8.022   5.820  66.036  1.00  0.00    -0.103 C  
HETATM   17  C   UNL     1      -8.525   4.659  65.187  1.00  0.00    -0.130 C  
HETATM   18  C   UNL     1      -9.663   3.812  65.767  1.00  0.00    -0.135 C  
HETATM   19  C   UNL     1      -9.590   3.630  67.277  1.00  0.00    -0.194 C  
HETATM   20  O   UNL     1     -10.934   4.363  65.412  1.00  0.00    -0.230 OA 
HETATM   21  C   UNL     1      -9.329   4.945  68.019  1.00  0.00    -0.160 C  
ENDROOT
BRANCH   4  22
HETATM   22  C   UNL     1      -5.756   7.812  71.059  1.00  0.00    -0.034 C  
HETATM   23  C   UNL     1      -5.150   6.417  70.992  1.00  0.00    -0.018 C  
HETATM   24  O   UNL     1      -5.872   8.318  72.179  1.00  0.00    -0.041 OA 
ENDBRANCH   4  22
TORSDOF 1
ENDMDL
MODEL      108
REMARK 921   NORMALIZED FREE ENERGY PREDICTED BY IDOCK:   -2.06 KCAL/MOL
REMARK 922        TOTAL FREE ENERGY PREDICTED BY IDOCK:   -1.27 KCAL/MOL
REMARK 923 INTER-LIGAND FREE ENERGY PREDICTED BY IDOCK:   -2.37 KCAL/MOL
REMARK 924 INTRA-LIGAND FREE ENERGY PREDICTED BY IDOCK:    1.10 KCAL/MOL
REMARK 927      BINDING AFFINITY PREDICTED BY RF-SCORE:    0.00 PKD
ROOT
HETATM    1  C   UNL     1      -7.232  10.553  68.464  1.00  0.00    -0.085 C  
HETATM    2  C   UNL     1      -6.004  10.233  67.822  1.00  0.00    -0.045 C  
HETATM    3  C   UNL     1      -6.977   9.127  67.547  1.00  0.00    -0.078 C  
HETATM    4  C   UNL     1      -8.874   9.612  68.138  1.00  0.00    -0.119 C  
HETATM    5  C   UNL     1      -9.454   7.343  71.389  1.00  0.00    -0.160 C  
HETATM    6  C   UNL     1      -8.313  10.097  66.980  1.00  0.00    -0.125 C  
HETATM    7  C   UNL     1      -8.700   8.313  66.550  1.00  0.00    -0.157 C  
HETATM    8  C   UNL     1      -8.506  11.207  65.999  1.00  0.00    -0.138 C  
HETATM    9  C   UNL     1      -8.096   6.903  70.812  1.00  0.00    -0.114 C  
HETATM   10  H   UNL     1      -6.048   3.160  72.023  1.00  0.00     0.000 HD 
HETATM   11  C   UNL     1      -8.620   7.261  68.036  1.00  0.00    -0.125 C  
HETATM   12  C   UNL     1      -7.749   7.701  69.482  1.00  0.00    -0.103 C  
HETATM   13  C   UNL     1      -7.397   9.341  69.868  1.00  0.00    -0.074 C  
HETATM   14  C   UNL     1      -6.192   9.376  70.812  1.00  0.00    -0.072 C  
HETATM   15  C   UNL     1      -6.187   8.267  71.821  1.00  0.00    -0.050 C  
HETATM   16  C   UNL     1      -6.989   7.181  71.858  1.00  0.00    -0.060 C  
HETATM   17  C   UNL     1      -6.785   6.195  73.001  1.00  0.00    -0.074 C  
HETATM   18  C   UNL     1      -7.058   4.717  72.705  1.00  0.00    -0.077 C  
HETATM   19  C   UNL     1      -8.212   4.481  71.740  1.00  0.00    -0.103 C  
HETATM   20  O   UNL     1      -5.879   4.077  72.207  1.00  0.00    -0.007 OA 
HETATM   21  C   UNL     1      -8.139   5.380  70.500  1.00  0.00    -0.106 C  
ENDROOT
BRANCH   4  22
HETATM   22  C   UNL     1     -10.456   9.552  67.771  1.00  0.00    -0.254 C  
HETATM   23  C   UNL     1     -11.195  10.836  67.419  1.00  0.00    -0.315 C  
HETATM   24  O   UNL     1     -11.139   8.532  67.904  1.00  0.00     0.072 OA 
ENDBRANCH   4  22
TORSDOF 1
ENDMDL
MODEL      109
REMARK 921   NORMALIZED FREE ENERGY PREDICTED BY IDOCK:   -2.04 KCAL/MOL
REMARK 922        TOTAL FREE ENERGY PREDICTED BY IDOCK:   -1.26 KCAL/MOL
REMARK 923 INTER-LIGAND FREE ENERGY PREDICTED BY IDOCK:   -2.10 KCAL/MOL
REMARK 924 INTRA-LIGAND FREE ENERGY PREDICTED BY IDOCK:    0.84 KCAL/MOL
REMARK 927      BINDING AFFINITY PREDICTED BY RF-SCORE:    0.00 PKD
ROOT
HETATM    1  C   UNL     1      -7.545  15.448  67.910  1.00  0.00    -0.149 C  
HETATM    2  C   UNL     1      -8.481  15.894  68.884  1.00  0.00    -0.220 C  
HETATM    3  C   UNL     1      -8.518  14.396  68.849  1.00  0.00    -0.069 C  
HETATM    4  C   UNL     1      -6.996  13.617  67.729  1.00  0.00    -0.168 C  
HETATM    5  C   UNL     1      -8.844  12.283  64.433  1.00  0.00     1.319 C  
HETATM    6  C   UNL     1      -6.806  14.094  69.005  1.00  0.00    -0.110 C  
HETATM    7  C   UNL     1      -7.687  12.462  69.286  1.00  0.00     0.415 C  
HETATM    8  C   UNL     1      -5.700  14.560  69.894  1.00  0.00    -0.114 C  
HETATM    9  C   UNL     1      -9.966  12.741  65.382  1.00  0.00    -0.215 C  
HETATM   10  H   UNL     1     -14.226  11.651  64.799  1.00  0.00     0.000 HD 
HETATM   11  C   UNL     1      -8.780  12.069  67.881  1.00  0.00    -0.170 C  
HETATM   12  C   UNL     1      -9.376  13.266  66.761  1.00  0.00    -0.254 C  
HETATM   13  C   UNL     1      -8.562  14.761  66.510  1.00  0.00    -0.075 C  
HETATM   14  C   UNL     1      -9.566  15.781  65.964  1.00  0.00    -0.388 C  
HETATM   15  C   UNL     1     -10.548  15.198  64.993  1.00  0.00    -0.439 C  
HETATM   16  C   UNL     1     -10.754  13.893  64.712  1.00  0.00    -0.437 C  
HETATM   17  C   UNL     1     -11.816  13.558  63.672  1.00  0.00    -0.383 C  
HETATM   18  C   UNL     1     -12.591  12.250  63.862  1.00  0.00    -0.440 C  
HETATM   19  C   UNL     1     -11.757  11.115  64.441  1.00  0.00     0.462 C  
HETATM   20  O   UNL     1     -13.745  12.462  64.681  1.00  0.00    -0.147 OA 
HETATM   21  C   UNL     1     -10.928  11.550  65.655  1.00  0.00    -0.296 C  
ENDROOT
BRANCH   4  22
HETATM   22  C   UNL     1      -5.870  12.451  67.611  1.00  0.00    -0.127 C  
HETATM   23  C   UNL     1      -5.825  11.573  66.368  1.00  0.00    -0.051 C  
HETATM   24  O   UNL     1      -5.128  12.135  68.546  1.00  0.00    -0.050 OA 
ENDBRANCH   4  22
TORSDOF 1
ENDMDL
MODEL      110
REMARK 921   NORMALIZED FREE ENERGY PREDICTED BY IDOCK:   -1.47 KCAL/MOL
REMARK 922        TOTAL FREE ENERGY PREDICTED BY IDOCK:   -0.65 KCAL/MOL
REMARK 923 INTER-LIGAND FREE ENERGY PREDICTED BY IDOCK:   -1.47 KCAL/MOL
REMARK 924 INTRA-LIGAND FREE ENERGY PREDICTED BY IDOCK:    0.82 KCAL/MOL
REMARK 927      BINDING AFFINITY PREDICTED BY RF-SCORE:    0.00 PKD
ROOT
HETATM    1  C   UNL     1      -6.307  11.567  68.252  1.00  0.00    -0.046 C  
HETATM    2  C   UNL     1      -5.408  11.315  67.180  1.00  0.00    -0.065 C  
HETATM    3  C   UNL     1      -6.713  10.648  66.863  1.00  0.00    -0.091 C  
HETATM    4  C   UNL     1      -8.190  11.200  68.163  1.00  0.00    -0.131 C  
HETATM    5  C   UNL     1      -8.735   7.926  70.410  1.00  0.00    -0.137 C  
HETATM    6  C   UNL     1      -7.769  12.011  67.136  1.00  0.00    -0.161 C  
HETATM    7  C   UNL     1      -8.774  10.695  66.255  1.00  0.00    -0.163 C  
HETATM    8  C   UNL     1      -7.812  13.447  66.727  1.00  0.00     0.425 C  
HETATM    9  C   UNL     1      -7.739   7.515  69.310  1.00  0.00    -0.112 C  
HETATM   10  H   UNL     1      -6.748   3.290  68.397  1.00  0.00     0.000 HD 
HETATM   11  C   UNL     1      -8.709   9.118  67.165  1.00  0.00    -0.130 C  
HETATM   12  C   UNL     1      -7.455   8.718  68.310  1.00  0.00    -0.092 C  
HETATM   13  C   UNL     1      -6.536   9.932  69.113  1.00  0.00    -0.048 C  
HETATM   14  C   UNL     1      -5.207   9.321  69.567  1.00  0.00    -0.035 C  
HETATM   15  C   UNL     1      -5.330   7.912  70.061  1.00  0.00    -0.023 C  
HETATM   16  C   UNL     1      -6.403   7.097  69.970  1.00  0.00    -0.031 C  
HETATM   17  C   UNL     1      -6.275   5.698  70.562  1.00  0.00    -0.030 C  
HETATM   18  C   UNL     1      -7.051   4.573  69.870  1.00  0.00    -0.049 C  
HETATM   19  C   UNL     1      -8.400   5.005  69.310  1.00  0.00    -0.082 C  
HETATM   20  O   UNL     1      -6.267   3.987  68.826  1.00  0.00    -0.030 OA 
HETATM   21  C   UNL     1      -8.319   6.312  68.514  1.00  0.00    -0.115 C  
ENDROOT
BRANCH   4  22
HETATM   22  C   UNL     1      -9.753  11.617  68.330  1.00  0.00    -0.199 C  
HETATM   23  C   UNL     1     -10.503  11.224  69.595  1.00  0.00     0.081 C  
HETATM   24  O   UNL     1     -10.418  12.113  67.417  1.00  0.00    -0.209 OA 
ENDBRANCH   4  22
TORSDOF 1
ENDMDL
MODEL      111
REMARK 921   NORMALIZED FREE ENERGY PREDICTED BY IDOCK:   -1.21 KCAL/MOL
REMARK 922        TOTAL FREE ENERGY PREDICTED BY IDOCK:   -0.38 KCAL/MOL
REMARK 923 INTER-LIGAND FREE ENERGY PREDICTED BY IDOCK:   -1.97 KCAL/MOL
REMARK 924 INTRA-LIGAND FREE ENERGY PREDICTED BY IDOCK:    1.59 KCAL/MOL
REMARK 927      BINDING AFFINITY PREDICTED BY RF-SCORE:    0.00 PKD
ROOT
HETATM    1  C   UNL     1      -6.928  10.816  69.975  1.00  0.00    -0.091 C  
HETATM    2  C   UNL     1      -5.522  10.834  70.191  1.00  0.00    -0.064 C  
HETATM    3  C   UNL     1      -5.775  10.360  68.792  1.00  0.00    -0.041 C  
HETATM    4  C   UNL     1      -7.730  10.597  68.244  1.00  0.00    -0.107 C  
HETATM    5  C   UNL     1      -9.155   6.851  68.209  1.00  0.00    -0.125 C  
HETATM    6  C   UNL     1      -6.839  11.644  68.276  1.00  0.00    -0.067 C  
HETATM    7  C   UNL     1      -6.327  10.695  66.741  1.00  0.00    -0.084 C  
HETATM    8  C   UNL     1      -6.838  13.137  68.321  1.00  0.00    -0.103 C  
HETATM    9  C   UNL     1      -7.642   6.719  68.465  1.00  0.00    -0.104 C  
HETATM   10  H   UNL     1      -5.447   2.885  68.070  1.00  0.00     0.000 HD 
HETATM   11  C   UNL     1      -6.704   8.921  66.924  1.00  0.00    -0.069 C  
HETATM   12  C   UNL     1      -6.931   8.140  68.467  1.00  0.00    -0.072 C  
HETATM   13  C   UNL     1      -7.400   9.018  69.871  1.00  0.00    -0.060 C  
HETATM   14  C   UNL     1      -6.967   8.230  71.111  1.00  0.00    -0.057 C  
HETATM   15  C   UNL     1      -7.131   6.747  70.967  1.00  0.00    -0.072 C  
HETATM   16  C   UNL     1      -7.420   6.054  69.845  1.00  0.00    -0.080 C  
HETATM   17  C   UNL     1      -7.540   4.540  69.966  1.00  0.00    -0.054 C  
HETATM   18  C   UNL     1      -7.110   3.706  68.754  1.00  0.00    -0.050 C  
HETATM   19  C   UNL     1      -7.426   4.355  67.413  1.00  0.00    -0.074 C  
HETATM   20  O   UNL     1      -5.714   3.402  68.821  1.00  0.00    -0.020 OA 
HETATM   21  C   UNL     1      -7.009   5.830  67.357  1.00  0.00    -0.065 C  
ENDROOT
BRANCH   4  22
HETATM   22  C   UNL     1      -8.755  11.034  67.061  1.00  0.00    -0.141 C  
HETATM   23  C   UNL     1      -8.952  10.118  65.861  1.00  0.00    -0.182 C  
HETATM   24  O   UNL     1      -9.283  12.149  67.005  1.00  0.00    -0.189 OA 
ENDBRANCH   4  22
TORSDOF 1
ENDMDL
MODEL      112
REMARK 921   NORMALIZED FREE ENERGY PREDICTED BY IDOCK:   -0.80 KCAL/MOL
REMARK 922        TOTAL FREE ENERGY PREDICTED BY IDOCK:    0.06 KCAL/MOL
REMARK 923 INTER-LIGAND FREE ENERGY PREDICTED BY IDOCK:   -1.20 KCAL/MOL
REMARK 924 INTRA-LIGAND FREE ENERGY PREDICTED BY IDOCK:    1.26 KCAL/MOL
REMARK 927      BINDING AFFINITY PREDICTED BY RF-SCORE:    0.00 PKD
ROOT
HETATM    1  C   UNL     1      -9.031   8.427  69.940  1.00  0.00    -0.142 C  
HETATM    2  C   UNL     1      -9.301   7.345  69.058  1.00  0.00    -0.145 C  
HETATM    3  C   UNL     1      -8.236   8.199  68.439  1.00  0.00    -0.129 C  
HETATM    4  C   UNL     1      -7.526   9.603  69.745  1.00  0.00    -0.110 C  
HETATM    5  C   UNL     1      -9.045  13.038  68.346  1.00  0.00    -0.129 C  
HETATM    6  C   UNL     1      -7.150   8.282  69.804  1.00  0.00    -0.056 C  
HETATM    7  C   UNL     1      -6.216   8.924  68.309  1.00  0.00    -0.054 C  
HETATM    8  C   UNL     1      -6.540   7.313  70.763  1.00  0.00    -0.044 C  
HETATM    9  C   UNL     1      -9.421  11.964  67.309  1.00  0.00    -0.176 C  
HETATM   10  H   UNL     1     -10.868  12.937  63.231  1.00  0.00     0.000 HD 
HETATM   11  C   UNL     1      -7.132  10.283  67.512  1.00  0.00    -0.086 C  
HETATM   12  C   UNL     1      -8.845  10.540  67.718  1.00  0.00    -0.125 C  
HETATM   13  C   UNL     1      -9.695   9.946  69.092  1.00  0.00    -0.204 C  
HETATM   14  C   UNL     1     -11.177   9.812  68.732  1.00  0.00    -0.070 C  
HETATM   15  C   UNL     1     -11.686  10.917  67.856  1.00  0.00    -0.152 C  
HETATM   16  C   UNL     1     -10.963  11.866  67.222  1.00  0.00    -0.319 C  
HETATM   17  C   UNL     1     -11.726  12.889  66.390  1.00  0.00    -0.454 C  
HETATM   18  C   UNL     1     -11.026  13.432  65.139  1.00  0.00    -0.303 C  
HETATM   19  C   UNL     1      -9.521  13.597  65.294  1.00  0.00     0.314 C  
HETATM   20  O   UNL     1     -11.302  12.601  64.007  1.00  0.00    -0.350 OA 
HETATM   21  C   UNL     1      -8.852  12.368  65.919  1.00  0.00     0.302 C  
ENDROOT
BRANCH   4  22
HETATM   22  C   UNL     1      -6.212  10.375  70.311  1.00  0.00    -0.122 C  
HETATM   23  C   UNL     1      -6.251  11.007  71.695  1.00  0.00     1.387 C  
HETATM   24  O   UNL     1      -5.218  10.608  69.617  1.00  0.00    -0.038 OA 
ENDBRANCH   4  22
TORSDOF 1
ENDMDL
MODEL      113
REMARK 921   NORMALIZED FREE ENERGY PREDICTED BY IDOCK:   -0.67 KCAL/MOL
REMARK 922        TOTAL FREE ENERGY PREDICTED BY IDOCK:    0.20 KCAL/MOL
REMARK 923 INTER-LIGAND FREE ENERGY PREDICTED BY IDOCK:   -0.60 KCAL/MOL
REMARK 924 INTRA-LIGAND FREE ENERGY PREDICTED BY IDOCK:    0.79 KCAL/MOL
REMARK 927      BINDING AFFINITY PREDICTED BY RF-SCORE:    0.00 PKD
ROOT
HETATM    1  C   UNL     1     -12.458  12.454  70.120  1.00  0.00    -0.091 C  
HETATM    2  C   UNL     1     -11.917  12.136  71.397  1.00  0.00     0.724 C  
HETATM    3  C   UNL     1     -10.849  12.812  70.591  1.00  0.00     2.559 C  
HETATM    4  C   UNL     1     -11.586  13.609  68.859  1.00  0.00    -0.362 C  
HETATM    5  C   UNL     1     -10.145  11.175  66.019  1.00  0.00    -0.292 C  
HETATM    6  C   UNL     1     -11.760  14.212  70.083  1.00  0.00    -0.350 C  
HETATM    7  C   UNL     1      -9.956  14.550  69.694  1.00  0.00     0.205 C  
HETATM    8  C   UNL     1     -12.633  15.232  70.736  1.00  0.00    -0.474 C  
HETATM    9  C   UNL     1      -9.494  10.712  67.335  1.00  0.00    -0.172 C  
HETATM   10  H   UNL     1      -5.980   8.008  67.474  1.00  0.00     0.000 HD 
HETATM   11  C   UNL     1      -9.259  13.220  68.661  1.00  0.00     0.017 C  
HETATM   12  C   UNL     1      -9.948  11.621  68.556  1.00  0.00    -0.198 C  
HETATM   13  C   UNL     1     -11.604  11.319  68.916  1.00  0.00    -0.386 C  
HETATM   14  C   UNL     1     -11.764   9.844  69.292  1.00  0.00     0.123 C  
HETATM   15  C   UNL     1     -10.911   8.920  68.476  1.00  0.00    -0.038 C  
HETATM   16  C   UNL     1      -9.920   9.252  67.621  1.00  0.00    -0.245 C  
HETATM   17  C   UNL     1      -9.202   8.115  66.903  1.00  0.00    -0.198 C  
HETATM   18  C   UNL     1      -7.717   8.320  66.582  1.00  0.00    -0.093 C  
HETATM   19  C   UNL     1      -7.355   9.753  66.219  1.00  0.00    -0.099 C  
HETATM   20  O   UNL     1      -6.901   7.881  67.672  1.00  0.00    -0.066 OA 
HETATM   21  C   UNL     1      -7.946  10.778  67.193  1.00  0.00    -0.124 C  
ENDROOT
BRANCH   4  22
HETATM   22  C   UNL     1     -11.556  14.874  67.838  1.00  0.00    -0.344 C  
HETATM   23  C   UNL     1     -11.549  14.626  66.336  1.00  0.00    -0.343 C  
HETATM   24  O   UNL     1     -11.391  16.038  68.213  1.00  0.00    -0.353 OA 
ENDBRANCH   4  22
TORSDOF 1
ENDMDL
MODEL      114
REMARK 921   NORMALIZED FREE ENERGY PREDICTED BY IDOCK:   -0.47 KCAL/MOL
REMARK 922        TOTAL FREE ENERGY PREDICTED BY IDOCK:    0.41 KCAL/MOL
REMARK 923 INTER-LIGAND FREE ENERGY PREDICTED BY IDOCK:   -0.90 KCAL/MOL
REMARK 924 INTRA-LIGAND FREE ENERGY PREDICTED BY IDOCK:    1.31 KCAL/MOL
REMARK 927      BINDING AFFINITY PREDICTED BY RF-SCORE:    0.00 PKD
ROOT
HETATM    1  C   UNL     1     -11.773  14.493  66.371  1.00  0.00    -0.372 C  
HETATM    2  C   UNL     1     -10.743  13.891  65.597  1.00  0.00    -0.292 C  
HETATM    3  C   UNL     1     -10.280  13.959  67.021  1.00  0.00    -0.254 C  
HETATM    4  C   UNL     1     -11.786  14.505  68.291  1.00  0.00    -0.347 C  
HETATM    5  C   UNL     1     -10.825  18.254  69.330  1.00  0.00     1.136 C  
HETATM    6  C   UNL     1     -11.675  13.234  67.779  1.00  0.00    -0.398 C  
HETATM    7  C   UNL     1     -10.312  13.295  69.066  1.00  0.00     0.014 C  
HETATM    8  C   UNL     1     -12.510  12.013  67.568  1.00  0.00     1.230 C  
HETATM    9  C   UNL     1      -9.640  17.737  68.494  1.00  0.00    -0.322 C  
HETATM   10  H   UNL     1      -5.691  19.755  68.386  1.00  0.00     0.000 HD 
HETATM   11  C   UNL     1      -9.680  14.994  69.255  1.00  0.00    -0.192 C  
HETATM   12  C   UNL     1      -9.868  16.232  68.040  1.00  0.00    -0.236 C  
HETATM   13  C   UNL     1     -11.121  16.167  66.862  1.00  0.00     0.011 C  
HETATM   14  C   UNL     1     -10.701  17.006  65.652  1.00  0.00    -0.150 C  
HETATM   15  C   UNL     1      -9.970  18.263  66.017  1.00  0.00    -0.222 C  
HETATM   16  C   UNL     1      -9.494  18.618  67.229  1.00  0.00    -0.313 C  
HETATM   17  C   UNL     1      -8.786  19.963  67.340  1.00  0.00    -0.411 C  
HETATM   18  C   UNL     1      -7.643  20.069  68.355  1.00  0.00    -0.204 C  
HETATM   19  C   UNL     1      -7.866  19.258  69.625  1.00  0.00     0.238 C  
HETATM   20  O   UNL     1      -6.400  19.689  67.757  1.00  0.00    -0.205 OA 
HETATM   21  C   UNL     1      -8.337  17.828  69.338  1.00  0.00     0.453 C  
ENDROOT
BRANCH   4  22
HETATM   22  C   UNL     1     -12.492  14.250  69.733  1.00  0.00    -0.216 C  
HETATM   23  C   UNL     1     -12.937  12.844  70.113  1.00  0.00     0.515 C  
HETATM   24  O   UNL     1     -12.826  15.166  70.490  1.00  0.00    -0.369 OA 
ENDBRANCH   4  22
TORSDOF 1
ENDMDL
MODEL      115
REMARK 921   NORMALIZED FREE ENERGY PREDICTED BY IDOCK:   -0.21 KCAL/MOL
REMARK 922        TOTAL FREE ENERGY PREDICTED BY IDOCK:    0.68 KCAL/MOL
REMARK 923 INTER-LIGAND FREE ENERGY PREDICTED BY IDOCK:   -0.56 KCAL/MOL
REMARK 924 INTRA-LIGAND FREE ENERGY PREDICTED BY IDOCK:    1.23 KCAL/MOL
REMARK 927      BINDING AFFINITY PREDICTED BY RF-SCORE:    0.00 PKD
ROOT
HETATM    1  C   UNL     1      -8.330  12.367  67.837  1.00  0.00    -0.165 C  
HETATM    2  C   UNL     1      -8.122  12.002  66.477  1.00  0.00     0.054 C  
HETATM    3  C   UNL     1      -7.168  13.108  66.817  1.00  0.00     0.794 C  
HETATM    4  C   UNL     1      -7.138  13.504  68.823  1.00  0.00    -0.103 C  
HETATM    5  C   UNL     1      -9.032  17.023  69.113  1.00  0.00    -0.050 C  
HETATM    6  C   UNL     1      -6.490  12.422  68.272  1.00  0.00    -0.061 C  
HETATM    7  C   UNL     1      -5.401  13.867  67.778  1.00  0.00    -0.022 C  
HETATM    8  C   UNL     1      -5.919  11.105  68.686  1.00  0.00    -0.042 C  
HETATM    9  C   UNL     1      -8.889  16.751  67.605  1.00  0.00    -0.207 C  
HETATM   10  H   UNL     1      -9.503  19.871  64.513  1.00  0.00     0.000 HD 
HETATM   11  C   UNL     1      -6.389  15.388  67.601  1.00  0.00    -0.177 C  
HETATM   12  C   UNL     1      -8.114  15.391  67.335  1.00  0.00    -0.204 C  
HETATM   13  C   UNL     1      -9.106  14.060  67.791  1.00  0.00    -0.192 C  
HETATM   14  C   UNL     1     -10.386  14.091  66.951  1.00  0.00    -0.269 C  
HETATM   15  C   UNL     1     -10.912  15.474  66.710  1.00  0.00    -0.257 C  
HETATM   16  C   UNL     1     -10.300  16.648  66.975  1.00  0.00    -0.301 C  
HETATM   17  C   UNL     1     -11.057  17.927  66.640  1.00  0.00     0.432 C  
HETATM   18  C   UNL     1     -10.224  19.136  66.201  1.00  0.00    -0.463 C  
HETATM   19  C   UNL     1      -8.880  19.251  66.908  1.00  0.00    -0.334 C  
HETATM   20  O   UNL     1     -10.020  19.121  64.785  1.00  0.00     1.579 OA 
HETATM   21  C   UNL     1      -8.114  17.924  66.941  1.00  0.00    -0.250 C  
ENDROOT
BRANCH   4  22
HETATM   22  C   UNL     1      -6.214  13.856  70.113  1.00  0.00    -0.123 C  
HETATM   23  C   UNL     1      -5.217  12.825  70.627  1.00  0.00    -0.135 C  
HETATM   24  O   UNL     1      -6.376  14.868  70.801  1.00  0.00    -0.061 OA 
ENDBRANCH   4  22
TORSDOF 1
ENDMDL
MODEL      116
REMARK 921   NORMALIZED FREE ENERGY PREDICTED BY IDOCK:    0.33 KCAL/MOL
REMARK 922        TOTAL FREE ENERGY PREDICTED BY IDOCK:    1.26 KCAL/MOL
REMARK 923 INTER-LIGAND FREE ENERGY PREDICTED BY IDOCK:   -0.28 KCAL/MOL
REMARK 924 INTRA-LIGAND FREE ENERGY PREDICTED BY IDOCK:    1.53 KCAL/MOL
REMARK 927      BINDING AFFINITY PREDICTED BY RF-SCORE:    0.00 PKD
ROOT
HETATM    1  C   UNL     1     -11.636  11.793  66.292  1.00  0.00    -0.223 C  
HETATM    2  C   UNL     1     -12.643  12.303  65.425  1.00  0.00     0.196 C  
HETATM    3  C   UNL     1     -11.313  12.798  64.941  1.00  0.00    -0.341 C  
HETATM    4  C   UNL     1      -9.759  11.880  65.900  1.00  0.00    -0.258 C  
HETATM    5  C   UNL     1      -8.312  14.746  68.299  1.00  0.00    -0.148 C  
HETATM    6  C   UNL     1     -10.472  11.269  64.896  1.00  0.00    -0.375 C  
HETATM    7  C   UNL     1      -9.415  12.513  63.972  1.00  0.00     0.418 C  
HETATM    8  C   UNL     1     -10.738   9.902  64.357  1.00  0.00     2.070 C  
HETATM    9  C   UNL     1      -9.390  15.429  67.437  1.00  0.00    -0.205 C  
HETATM   10  H   UNL     1      -9.788  19.834  67.104  1.00  0.00     0.000 HD 
HETATM   11  C   UNL     1      -9.065  13.964  65.018  1.00  0.00     1.730 C  
HETATM   12  C   UNL     1     -10.031  14.410  66.401  1.00  0.00    -0.305 C  
HETATM   13  C   UNL     1     -10.999  13.262  67.242  1.00  0.00    -0.284 C  
HETATM   14  C   UNL     1     -12.114  14.007  67.980  1.00  0.00    -0.312 C  
HETATM   15  C   UNL     1     -11.676  15.314  68.570  1.00  0.00    -0.352 C  
HETATM   16  C   UNL     1     -10.510  15.963  68.362  1.00  0.00    -0.254 C  
HETATM   17  C   UNL     1     -10.303  17.284  69.092  1.00  0.00    -0.290 C  
HETATM   18  C   UNL     1      -9.471  18.354  68.376  1.00  0.00    -0.332 C  
HETATM   19  C   UNL     1      -8.323  17.793  67.547  1.00  0.00    -0.227 C  
HETATM   20  O   UNL     1     -10.304  19.170  67.547  1.00  0.00    -0.377 OA 
HETATM   21  C   UNL     1      -8.752  16.617  66.662  1.00  0.00    -0.280 C  
ENDROOT
BRANCH   4  22
HETATM   22  C   UNL     1      -8.283  11.216  65.746  1.00  0.00    -0.004 C  
HETATM   23  C   UNL     1      -7.899  10.533  64.440  1.00  0.00     0.015 C  
HETATM   24  O   UNL     1      -7.493  11.105  66.688  1.00  0.00    -0.139 OA 
ENDBRANCH   4  22
TORSDOF 1
ENDMDL
MODEL      117
REMARK 921   NORMALIZED FREE ENERGY PREDICTED BY IDOCK:    1.19 KCAL/MOL
REMARK 922        TOTAL FREE ENERGY PREDICTED BY IDOCK:    2.16 KCAL/MOL
REMARK 923 INTER-LIGAND FREE ENERGY PREDICTED BY IDOCK:    1.18 KCAL/MOL
REMARK 924 INTRA-LIGAND FREE ENERGY PREDICTED BY IDOCK:    0.98 KCAL/MOL
REMARK 927      BINDING AFFINITY PREDICTED BY RF-SCORE:    0.00 PKD
ROOT
HETATM    1  C   UNL     1     -10.500   7.951  68.452  1.00  0.00    -0.207 C  
HETATM    2  C   UNL     1      -9.122   8.003  68.105  1.00  0.00    -0.134 C  
HETATM    3  C   UNL     1      -9.270   8.496  69.513  1.00  0.00    -0.150 C  
HETATM    4  C   UNL     1     -11.150   8.170  70.245  1.00  0.00    -0.221 C  
HETATM    5  C   UNL     1     -12.769  11.835  70.341  1.00  0.00    -0.071 C  
HETATM    6  C   UNL     1     -10.210   7.171  70.151  1.00  0.00    -0.204 C  
HETATM    7  C   UNL     1      -9.611   8.183  71.613  1.00  0.00    -0.237 C  
HETATM    8  C   UNL     1     -10.130   5.680  70.135  1.00  0.00    -0.293 C  
HETATM    9  C   UNL     1     -11.296  12.041  69.943  1.00  0.00    -0.144 C  
HETATM   10  H   UNL     1      -9.287  15.994  70.057  1.00  0.00     0.000 HD 
HETATM   11  C   UNL     1     -10.100   9.929  71.432  1.00  0.00     0.735 C  
HETATM   12  C   UNL     1     -10.511  10.660  69.902  1.00  0.00    -0.136 C  
HETATM   13  C   UNL     1     -11.059   9.724  68.565  1.00  0.00    -0.138 C  
HETATM   14  C   UNL     1     -10.786  10.504  67.275  1.00  0.00    -0.338 C  
HETATM   15  C   UNL     1     -11.017  11.979  67.405  1.00  0.00    -0.311 C  
HETATM   16  C   UNL     1     -11.240  12.683  68.536  1.00  0.00    -0.315 C  
HETATM   17  C   UNL     1     -11.453  14.185  68.397  1.00  0.00    -0.334 C  
HETATM   18  C   UNL     1     -10.959  15.070  69.547  1.00  0.00    -0.269 C  
HETATM   19  C   UNL     1     -11.113  14.437  70.924  1.00  0.00     0.328 C  
HETATM   20  O   UNL     1      -9.594  15.445  69.344  1.00  0.00    -0.246 OA 
HETATM   21  C   UNL     1     -10.613  12.989  70.969  1.00  0.00     4.778 C  
ENDROOT
BRANCH   4  22
HETATM   22  C   UNL     1     -12.036   7.708  71.528  1.00  0.00    -0.303 C  
HETATM   23  C   UNL     1     -13.521   8.038  71.573  1.00  0.00    -0.327 C  
HETATM   24  O   UNL     1     -11.539   7.225  72.550  1.00  0.00    -0.282 OA 
ENDBRANCH   4  22
TORSDOF 1
ENDMDL
MODEL      118
REMARK 921   NORMALIZED FREE ENERGY PREDICTED BY IDOCK:    1.88 KCAL/MOL
REMARK 922        TOTAL FREE ENERGY PREDICTED BY IDOCK:    2.90 KCAL/MOL
REMARK 923 INTER-LIGAND FREE ENERGY PREDICTED BY IDOCK:    1.76 KCAL/MOL
REMARK 924 INTRA-LIGAND FREE ENERGY PREDICTED BY IDOCK:    1.13 KCAL/MOL
REMARK 927      BINDING AFFINITY PREDICTED BY RF-SCORE:    0.00 PKD
ROOT
HETATM    1  C   UNL     1     -10.308  16.216  67.692  1.00  0.00    -0.288 C  
HETATM    2  C   UNL     1     -10.596  16.269  66.300  1.00  0.00    -0.256 C  
HETATM    3  C   UNL     1     -10.913  14.889  66.791  1.00  0.00    -0.326 C  
HETATM    4  C   UNL     1     -10.851  14.769  68.831  1.00  0.00    -0.259 C  
HETATM    5  C   UNL     1      -7.508  12.679  69.549  1.00  0.00     0.591 C  
HETATM    6  C   UNL     1     -11.911  15.325  68.155  1.00  0.00    -0.099 C  
HETATM    7  C   UNL     1     -12.138  13.486  67.865  1.00  0.00    -0.304 C  
HETATM    8  C   UNL     1     -13.069  16.236  68.402  1.00  0.00     3.473 C  
HETATM    9  C   UNL     1      -7.687  12.666  68.020  1.00  0.00    -0.139 C  
HETATM   10  H   UNL     1      -5.480   9.897  65.349  1.00  0.00     0.000 HD 
HETATM   11  C   UNL     1     -10.530  12.629  67.873  1.00  0.00    -0.225 C  
HETATM   12  C   UNL     1      -9.008  13.434  67.587  1.00  0.00    -0.202 C  
HETATM   13  C   UNL     1      -8.810  15.123  67.855  1.00  0.00    -0.166 C  
HETATM   14  C   UNL     1      -7.633  15.618  67.009  1.00  0.00    -0.245 C  
HETATM   15  C   UNL     1      -6.491  14.649  66.942  1.00  0.00     1.276 C  
HETATM   16  C   UNL     1      -6.472  13.366  67.365  1.00  0.00    -0.014 C  
HETATM   17  C   UNL     1      -5.174  12.588  67.187  1.00  0.00     0.043 C  
HETATM   18  C   UNL     1      -5.294  11.084  66.918  1.00  0.00    -0.071 C  
HETATM   19  C   UNL     1      -6.449  10.414  67.652  1.00  0.00    -0.058 C  
HETATM   20  O   UNL     1      -5.407  10.829  65.515  1.00  0.00    -0.117 OA 
HETATM   21  C   UNL     1      -7.762  11.194  67.523  1.00  0.00    -0.116 C  
ENDROOT
BRANCH   4  22
HETATM   22  C   UNL     1     -11.555  14.168  70.168  1.00  0.00    -0.224 C  
HETATM   23  C   UNL     1     -12.060  15.121  71.243  1.00  0.00    -0.399 C  
HETATM   24  O   UNL     1     -11.574  12.963  70.435  1.00  0.00    -0.113 OA 
ENDBRANCH   4  22
TORSDOF 1
ENDMDL
MODEL      119
REMARK 921   NORMALIZED FREE ENERGY PREDICTED BY IDOCK:    5.17 KCAL/MOL
REMARK 922        TOTAL FREE ENERGY PREDICTED BY IDOCK:    6.38 KCAL/MOL
REMARK 923 INTER-LIGAND FREE ENERGY PREDICTED BY IDOCK:    5.12 KCAL/MOL
REMARK 924 INTRA-LIGAND FREE ENERGY PREDICTED BY IDOCK:    1.26 KCAL/MOL
REMARK 927      BINDING AFFINITY PREDICTED BY RF-SCORE:    0.00 PKD
ROOT
HETATM    1  C   UNL     1      -9.124  19.134  68.967  1.00  0.00    -0.273 C  
HETATM    2  C   UNL     1      -7.998  18.801  69.770  1.00  0.00     0.739 C  
HETATM    3  C   UNL     1      -8.314  17.626  68.895  1.00  0.00    -0.139 C  
HETATM    4  C   UNL     1      -9.702  18.085  67.467  1.00  0.00    -0.289 C  
HETATM    5  C   UNL     1     -13.000  16.183  68.718  1.00  0.00     2.334 C  
HETATM    6  C   UNL     1      -8.383  18.459  67.363  1.00  0.00    -0.256 C  
HETATM    7  C   UNL     1      -8.335  16.621  66.994  1.00  0.00    -0.216 C  
HETATM    8  C   UNL     1      -7.532  19.438  66.622  1.00  0.00    -0.253 C  
HETATM    9  C   UNL     1     -11.878  15.744  69.676  1.00  0.00    -0.352 C  
HETATM   10  H   UNL     1     -12.247  12.268  72.406  1.00  0.00     0.000 HD 
HETATM   11  C   UNL     1      -9.678  15.753  67.869  1.00  0.00    -0.216 C  
HETATM   12  C   UNL     1     -10.487  16.398  69.273  1.00  0.00    -0.303 C  
HETATM   13  C   UNL     1     -10.525  18.087  69.604  1.00  0.00     0.586 C  
HETATM   14  C   UNL     1     -10.768  18.288  71.103  1.00  0.00     2.767 C  
HETATM   15  C   UNL     1     -11.734  17.305  71.693  1.00  0.00     1.777 C  
HETATM   16  C   UNL     1     -12.237  16.194  71.113  1.00  0.00    -0.211 C  
HETATM   17  C   UNL     1     -13.216  15.358  71.929  1.00  0.00    -0.534 C  
HETATM   18  C   UNL     1     -13.205  13.844  71.694  1.00  0.00    -0.370 C  
HETATM   19  C   UNL     1     -12.935  13.444  70.249  1.00  0.00     0.188 C  
HETATM   20  O   UNL     1     -12.253  13.207  72.552  1.00  0.00     0.650 OA 
HETATM   21  C   UNL     1     -11.746  14.195  69.640  1.00  0.00    -0.372 C  
ENDROOT
BRANCH   4  22
HETATM   22  C   UNL     1     -10.148  17.908  65.913  1.00  0.00    -0.170 C  
HETATM   23  C   UNL     1     -11.006  18.977  65.251  1.00  0.00     0.554 C  
HETATM   24  O   UNL     1      -9.951  16.872  65.271  1.00  0.00    -0.526 OA 
ENDBRANCH   4  22
TORSDOF 1
ENDMDL
MODEL      120
REMARK 921   NORMALIZED FREE ENERGY PREDICTED BY IDOCK:    5.72 KCAL/MOL
REMARK 922        TOTAL FREE ENERGY PREDICTED BY IDOCK:    6.96 KCAL/MOL
REMARK 923 INTER-LIGAND FREE ENERGY PREDICTED BY IDOCK:    5.71 KCAL/MOL
REMARK 924 INTRA-LIGAND FREE ENERGY PREDICTED BY IDOCK:    1.24 KCAL/MOL
REMARK 927      BINDING AFFINITY PREDICTED BY RF-SCORE:    0.00 PKD
ROOT
HETATM    1  C   UNL     1     -10.452  14.909  65.628  1.00  0.00    -0.366 C  
HETATM    2  C   UNL     1      -9.649  15.353  64.540  1.00  0.00     2.293 C  
HETATM    3  C   UNL     1      -8.746  14.746  65.571  1.00  0.00     1.668 C  
HETATM    4  C   UNL     1      -9.796  13.780  67.035  1.00  0.00    -0.251 C  
HETATM    5  C   UNL     1      -9.396  16.182  70.218  1.00  0.00     1.138 C  
HETATM    6  C   UNL     1      -9.589  13.233  65.790  1.00  0.00    -0.068 C  
HETATM    7  C   UNL     1      -7.913  13.061  66.614  1.00  0.00     0.410 C  
HETATM    8  C   UNL     1     -10.150  12.168  64.907  1.00  0.00    -0.280 C  
HETATM    9  C   UNL     1      -8.494  16.785  69.125  1.00  0.00    -0.084 C  
HETATM   10  H   UNL     1      -5.389  19.840  69.963  1.00  0.00     0.000 HD 
HETATM   11  C   UNL     1      -7.652  14.394  67.829  1.00  0.00    -0.175 C  
HETATM   12  C   UNL     1      -8.523  15.905  67.803  1.00  0.00    -0.165 C  
HETATM   13  C   UNL     1     -10.061  16.055  67.043  1.00  0.00    -0.271 C  
HETATM   14  C   UNL     1     -10.288  17.526  66.682  1.00  0.00    -0.319 C  
HETATM   15  C   UNL     1      -9.776  18.484  67.714  1.00  0.00    -0.327 C  
HETATM   16  C   UNL     1      -8.999  18.208  68.783  1.00  0.00    -0.231 C  
HETATM   17  C   UNL     1      -8.617  19.369  69.693  1.00  0.00     0.441 C  
HETATM   18  C   UNL     1      -7.246  19.300  70.374  1.00  0.00     0.828 C  
HETATM   19  C   UNL     1      -6.824  17.893  70.775  1.00  0.00     2.397 C  
HETATM   20  O   UNL     1      -6.239  19.882  69.541  1.00  0.00    -0.293 OA 
HETATM   21  C   UNL     1      -7.034  16.870  69.653  1.00  0.00     0.062 C  
ENDROOT
BRANCH   4  22
HETATM   22  C   UNL     1      -9.878  12.468  67.992  1.00  0.00    -0.214 C  
HETATM   23  C   UNL     1     -11.239  11.913  68.390  1.00  0.00    -0.312 C  
HETATM   24  O   UNL     1      -8.890  11.974  68.544  1.00  0.00    -0.166 OA 
ENDBRANCH   4  22
TORSDOF 1
ENDMDL
MODEL      121
REMARK 921   NORMALIZED FREE ENERGY PREDICTED BY IDOCK:    6.49 KCAL/MOL
REMARK 922        TOTAL FREE ENERGY PREDICTED BY IDOCK:    7.77 KCAL/MOL
REMARK 923 INTER-LIGAND FREE ENERGY PREDICTED BY IDOCK:    6.61 KCAL/MOL
REMARK 924 INTRA-LIGAND FREE ENERGY PREDICTED BY IDOCK:    1.16 KCAL/MOL
REMARK 927      BINDING AFFINITY PREDICTED BY RF-SCORE:    0.00 PKD
ROOT
HETATM    1  C   UNL     1      -7.354  16.549  70.419  1.00  0.00     1.844 C  
HETATM    2  C   UNL     1      -6.234  15.970  71.078  1.00  0.00     0.908 C  
HETATM    3  C   UNL     1      -5.978  15.934  69.601  1.00  0.00    -0.154 C  
HETATM    4  C   UNL     1      -7.358  17.025  68.558  1.00  0.00    -0.220 C  
HETATM    5  C   UNL     1      -9.598  14.230  66.760  1.00  0.00    -0.290 C  
HETATM    6  C   UNL     1      -6.317  17.608  69.242  1.00  0.00    -0.247 C  
HETATM    7  C   UNL     1      -5.477  16.875  67.734  1.00  0.00    -0.137 C  
HETATM    8  C   UNL     1      -5.924  18.937  69.800  1.00  0.00    -0.276 C  
HETATM    9  C   UNL     1      -8.445  13.467  67.437  1.00  0.00    -0.197 C  
HETATM   10  H   UNL     1      -7.444   9.252  66.486  1.00  0.00     0.000 HD 
HETATM   11  C   UNL     1      -6.368  15.394  67.156  1.00  0.00     0.219 C  
HETATM   12  C   UNL     1      -7.444  14.462  68.166  1.00  0.00    -0.128 C  
HETATM   13  C   UNL     1      -8.210  15.143  69.549  1.00  0.00    -0.160 C  
HETATM   14  C   UNL     1      -8.589  14.010  70.507  1.00  0.00     3.293 C  
HETATM   15  C   UNL     1      -9.076  12.774  69.813  1.00  0.00     2.481 C  
HETATM   16  C   UNL     1      -9.032  12.498  68.492  1.00  0.00    -0.052 C  
HETATM   17  C   UNL     1      -9.604  11.162  68.034  1.00  0.00    -0.181 C  
HETATM   18  C   UNL     1      -8.942  10.497  66.823  1.00  0.00    -0.137 C  
HETATM   19  C   UNL     1      -8.456  11.480  65.766  1.00  0.00     0.130 C  
HETATM   20  O   UNL     1      -7.855   9.664  67.237  1.00  0.00    -0.095 OA 
HETATM   21  C   UNL     1      -7.668  12.651  66.365  1.00  0.00     0.815 C  
ENDROOT
BRANCH   4  22
HETATM   22  C   UNL     1      -7.608  18.063  67.332  1.00  0.00    -0.204 C  
HETATM   23  C   UNL     1      -8.359  19.362  67.590  1.00  0.00    -0.334 C  
HETATM   24  O   UNL     1      -7.348  17.791  66.157  1.00  0.00    -0.271 OA 
ENDBRANCH   4  22
TORSDOF 1
ENDMDL
MODEL      122
REMARK 921   NORMALIZED FREE ENERGY PREDICTED BY IDOCK:    7.97 KCAL/MOL
REMARK 922        TOTAL FREE ENERGY PREDICTED BY IDOCK:    9.34 KCAL/MOL
REMARK 923 INTER-LIGAND FREE ENERGY PREDICTED BY IDOCK:    8.25 KCAL/MOL
REMARK 924 INTRA-LIGAND FREE ENERGY PREDICTED BY IDOCK:    1.09 KCAL/MOL
REMARK 927      BINDING AFFINITY PREDICTED BY RF-SCORE:    0.00 PKD
ROOT
HETATM    1  C   UNL     1      -7.040  15.563  69.608  1.00  0.00    -0.170 C  
HETATM    2  C   UNL     1      -6.089  15.515  68.551  1.00  0.00    -0.096 C  
HETATM    3  C   UNL     1      -7.370  14.914  68.056  1.00  0.00    -0.138 C  
HETATM    4  C   UNL     1      -8.912  15.213  69.364  1.00  0.00    -0.176 C  
HETATM    5  C   UNL     1      -9.521  11.580  70.944  1.00  0.00     6.612 C  
HETATM    6  C   UNL     1      -8.454  16.200  68.524  1.00  0.00    -0.197 C  
HETATM    7  C   UNL     1      -9.402  15.065  67.370  1.00  0.00    -0.204 C  
HETATM    8  C   UNL     1      -8.496  17.686  68.383  1.00  0.00    -0.287 C  
HETATM    9  C   UNL     1      -8.471  11.382  69.836  1.00  0.00     1.543 C  
HETATM   10  H   UNL     1      -7.389   7.399  68.212  1.00  0.00     0.000 HD 
HETATM   11  C   UNL     1      -9.361  13.347  67.978  1.00  0.00    -0.217 C  
HETATM   12  C   UNL     1      -8.155  12.748  69.088  1.00  0.00     0.509 C  
HETATM   13  C   UNL     1      -7.289  13.797  70.142  1.00  0.00     0.934 C  
HETATM   14  C   UNL     1      -5.974  13.118  70.539  1.00  0.00    -0.093 C  
HETATM   15  C   UNL     1      -6.104  11.641  70.760  1.00  0.00     0.233 C  
HETATM   16  C   UNL     1      -7.162  10.853  70.471  1.00  0.00     1.005 C  
HETATM   17  C   UNL     1      -7.044   9.371  70.802  1.00  0.00    -0.119 C  
HETATM   18  C   UNL     1      -7.774   8.389  69.879  1.00  0.00    -0.092 C  
HETATM   19  C   UNL     1      -9.101   8.912  69.345  1.00  0.00    -0.145 C  
HETATM   20  O   UNL     1      -6.936   8.007  68.784  1.00  0.00    -0.063 OA 
HETATM   21  C   UNL     1      -8.999  10.343  68.806  1.00  0.00    -0.157 C  
ENDROOT
BRANCH   4  22
HETATM   22  C   UNL     1     -10.486  15.586  69.530  1.00  0.00    -0.263 C  
HETATM   23  C   UNL     1     -10.881  16.966  70.039  1.00  0.00     0.085 C  
HETATM   24  O   UNL     1     -11.391  14.757  69.405  1.00  0.00    -0.256 OA 
ENDBRANCH   4  22
TORSDOF 1
ENDMDL
MODEL      123
REMARK 921   NORMALIZED FREE ENERGY PREDICTED BY IDOCK:   10.41 KCAL/MOL
REMARK 922        TOTAL FREE ENERGY PREDICTED BY IDOCK:   11.93 KCAL/MOL
REMARK 923 INTER-LIGAND FREE ENERGY PREDICTED BY IDOCK:   10.40 KCAL/MOL
REMARK 924 INTRA-LIGAND FREE ENERGY PREDICTED BY IDOCK:    1.53 KCAL/MOL
REMARK 927      BINDING AFFINITY PREDICTED BY RF-SCORE:    0.00 PKD
ROOT
HETATM    1  C   UNL     1      -6.436  16.572  71.334  1.00  0.00     2.643 C  
HETATM    2  C   UNL     1      -5.201  16.145  70.774  1.00  0.00    -0.162 C  
HETATM    3  C   UNL     1      -5.886  17.029  69.776  1.00  0.00    -0.219 C  
HETATM    4  C   UNL     1      -7.515  17.970  70.579  1.00  0.00     2.949 C  
HETATM    5  C   UNL     1     -10.617  16.098  68.866  1.00  0.00    -0.275 C  
HETATM    6  C   UNL     1      -6.226  18.382  70.825  1.00  0.00     0.656 C  
HETATM    7  C   UNL     1      -6.527  18.954  69.065  1.00  0.00    -0.300 C  
HETATM    8  C   UNL     1      -5.464  19.210  71.807  1.00  0.00    -0.273 C  
HETATM    9  C   UNL     1      -9.360  15.533  68.180  1.00  0.00    -0.197 C  
HETATM   10  H   UNL     1      -9.501  13.213  64.402  1.00  0.00     0.000 HD 
HETATM   11  C   UNL     1      -7.711  17.853  68.222  1.00  0.00    -0.279 C  
HETATM   12  C   UNL     1      -8.041  16.220  68.738  1.00  0.00    -0.227 C  
HETATM   13  C   UNL     1      -7.761  15.703  70.356  1.00  0.00     1.083 C  
HETATM   14  C   UNL     1      -7.585  14.182  70.362  1.00  0.00     1.301 C  
HETATM   15  C   UNL     1      -8.497  13.468  69.409  1.00  0.00     0.887 C  
HETATM   16  C   UNL     1      -9.278  14.012  68.452  1.00  0.00    -0.196 C  
HETATM   17  C   UNL     1     -10.124  13.062  67.612  1.00  0.00    -0.217 C  
HETATM   18  C   UNL     1     -10.381  13.460  66.155  1.00  0.00    -0.295 C  
HETATM   19  C   UNL     1     -10.544  14.959  65.942  1.00  0.00    -0.334 C  
HETATM   20  O   UNL     1      -9.341  12.967  65.306  1.00  0.00     0.175 OA 
HETATM   21  C   UNL     1      -9.457  15.778  66.647  1.00  0.00    -0.279 C  
ENDROOT
BRANCH   4  22
HETATM   22  C   UNL     1      -8.359  19.355  70.675  1.00  0.00     2.305 C  
HETATM   23  C   UNL     1      -9.251  19.773  69.513  1.00  0.00     0.247 C  
HETATM   24  O   UNL     1      -8.208  20.174  71.586  1.00  0.00     1.407 OA 
ENDBRANCH   4  22
TORSDOF 1
ENDMDL
MODEL      124
REMARK 921   NORMALIZED FREE ENERGY PREDICTED BY IDOCK:   11.30 KCAL/MOL
REMARK 922        TOTAL FREE ENERGY PREDICTED BY IDOCK:   12.87 KCAL/MOL
REMARK 923 INTER-LIGAND FREE ENERGY PREDICTED BY IDOCK:   12.07 KCAL/MOL
REMARK 924 INTRA-LIGAND FREE ENERGY PREDICTED BY IDOCK:    0.79 KCAL/MOL
REMARK 927      BINDING AFFINITY PREDICTED BY RF-SCORE:    0.00 PKD
ROOT
HETATM    1  C   UNL     1     -10.659  14.982  65.437  1.00  0.00    -0.398 C  
HETATM    2  C   UNL     1     -10.131  14.331  64.287  1.00  0.00     0.966 C  
HETATM    3  C   UNL     1     -10.606  13.280  65.244  1.00  0.00    -0.325 C  
HETATM    4  C   UNL     1     -11.679  14.080  66.790  1.00  0.00    -0.430 C  
HETATM    5  C   UNL     1      -9.205  13.739  69.924  1.00  0.00     1.928 C  
HETATM    6  C   UNL     1     -12.210  13.904  65.534  1.00  0.00    -0.467 C  
HETATM    7  C   UNL     1     -12.159  12.160  66.222  1.00  0.00    -0.037 C  
HETATM    8  C   UNL     1     -13.350  14.393  64.701  1.00  0.00     1.177 C  
HETATM    9  C   UNL     1      -8.507  13.010  68.762  1.00  0.00     0.149 C  
HETATM   10  H   UNL     1      -5.074  10.262  69.341  1.00  0.00     0.000 HD 
HETATM   11  C   UNL     1     -10.788  11.975  67.409  1.00  0.00    -0.285 C  
HETATM   12  C   UNL     1      -9.400  13.031  67.448  1.00  0.00    -0.209 C  
HETATM   13  C   UNL     1      -9.455  14.630  66.813  1.00  0.00    -0.275 C  
HETATM   14  C   UNL     1      -8.030  15.070  66.467  1.00  0.00     0.359 C  
HETATM   15  C   UNL     1      -7.001  14.605  67.453  1.00  0.00    -0.123 C  
HETATM   16  C   UNL     1      -7.164  13.717  68.457  1.00  0.00    -0.109 C  
HETATM   17  C   UNL     1      -5.952  13.415  69.331  1.00  0.00    -0.099 C  
HETATM   18  C   UNL     1      -5.838  11.997  69.901  1.00  0.00    -0.139 C  
HETATM   19  C   UNL     1      -7.175  11.370  70.271  1.00  0.00     1.098 C  
HETATM   20  O   UNL     1      -5.145  11.141  68.988  1.00  0.00    -0.042 OA 
HETATM   21  C   UNL     1      -8.231  11.535  69.171  1.00  0.00     0.156 C  
ENDROOT
BRANCH   4  22
HETATM   22  C   UNL     1     -12.978  13.919  67.754  1.00  0.00     1.947 C  
HETATM   23  C   UNL     1     -12.865  14.273  69.231  1.00  0.00     0.636 C  
HETATM   24  O   UNL     1     -14.027  13.382  67.387  1.00  0.00     6.593 OA 
ENDBRANCH   4  22
TORSDOF 1
ENDMDL
MODEL      125
REMARK 921   NORMALIZED FREE ENERGY PREDICTED BY IDOCK:   12.73 KCAL/MOL
REMARK 922        TOTAL FREE ENERGY PREDICTED BY IDOCK:   14.38 KCAL/MOL
REMARK 923 INTER-LIGAND FREE ENERGY PREDICTED BY IDOCK:   13.45 KCAL/MOL
REMARK 924 INTRA-LIGAND FREE ENERGY PREDICTED BY IDOCK:    0.94 KCAL/MOL
REMARK 927      BINDING AFFINITY PREDICTED BY RF-SCORE:    0.00 PKD
ROOT
HETATM    1  C   UNL     1     -11.345  18.522  68.066  1.00  0.00     0.754 C  
HETATM    2  C   UNL     1     -11.285  19.285  69.265  1.00  0.00     2.529 C  
HETATM    3  C   UNL     1     -10.208  18.243  69.318  1.00  0.00     0.012 C  
HETATM    4  C   UNL     1      -9.975  17.291  67.524  1.00  0.00    -0.296 C  
HETATM    5  C   UNL     1     -11.508  13.648  68.189  1.00  0.00    -0.348 C  
HETATM    6  C   UNL     1      -9.478  18.550  67.762  1.00  0.00    -0.308 C  
HETATM    7  C   UNL     1      -8.305  17.442  68.718  1.00  0.00    -0.223 C  
HETATM    8  C   UNL     1      -8.998  19.747  67.008  1.00  0.00    -0.408 C  
HETATM    9  C   UNL     1     -11.516  14.359  69.555  1.00  0.00    -0.333 C  
HETATM   10  H   UNL     1     -12.095  12.217  73.396  1.00  0.00     0.000 HD 
HETATM   11  C   UNL     1      -9.161  15.936  69.286  1.00  0.00    -0.253 C  
HETATM   12  C   UNL     1     -10.894  15.817  69.450  1.00  0.00    -0.269 C  
HETATM   13  C   UNL     1     -11.963  16.839  68.570  1.00  0.00     0.852 C  
HETATM   14  C   UNL     1     -13.300  16.908  69.313  1.00  0.00     6.314 C  
HETATM   15  C   UNL     1     -13.715  15.604  69.925  1.00  0.00     1.642 C  
HETATM   16  C   UNL     1     -12.977  14.480  70.051  1.00  0.00     0.068 C  
HETATM   17  C   UNL     1     -13.639  13.276  70.710  1.00  0.00     0.615 C  
HETATM   18  C   UNL     1     -12.738  12.347  71.530  1.00  0.00    -0.228 C  
HETATM   19  C   UNL     1     -11.335  12.184  70.960  1.00  0.00     1.895 C  
HETATM   20  O   UNL     1     -12.654  12.793  72.887  1.00  0.00     0.533 OA 
HETATM   21  C   UNL     1     -10.694  13.522  70.576  1.00  0.00     1.816 C  
ENDROOT
BRANCH   4  22
HETATM   22  C   UNL     1      -8.919  16.687  66.446  1.00  0.00    -0.291 C  
HETATM   23  C   UNL     1      -8.888  15.187  66.184  1.00  0.00    -0.104 C  
HETATM   24  O   UNL     1      -8.028  17.364  65.925  1.00  0.00    -0.525 OA 
ENDBRANCH   4  22
TORSDOF 1
ENDMDL
MODEL      126
REMARK 921   NORMALIZED FREE ENERGY PREDICTED BY IDOCK:   13.71 KCAL/MOL
REMARK 922        TOTAL FREE ENERGY PREDICTED BY IDOCK:   15.42 KCAL/MOL
REMARK 923 INTER-LIGAND FREE ENERGY PREDICTED BY IDOCK:   14.56 KCAL/MOL
REMARK 924 INTRA-LIGAND FREE ENERGY PREDICTED BY IDOCK:    0.86 KCAL/MOL
REMARK 927      BINDING AFFINITY PREDICTED BY RF-SCORE:    0.00 PKD
ROOT
HETATM    1  C   UNL     1      -6.005   9.336  69.708  1.00  0.00    -0.035 C  
HETATM    2  C   UNL     1      -6.798   9.582  68.552  1.00  0.00    -0.061 C  
HETATM    3  C   UNL     1      -7.498  10.178  69.736  1.00  0.00    -0.166 C  
HETATM    4  C   UNL     1      -6.316  10.179  71.404  1.00  0.00     0.346 C  
HETATM    5  C   UNL     1      -7.946   7.338  73.713  1.00  0.00    -0.137 C  
HETATM    6  C   UNL     1      -6.163  11.093  70.389  1.00  0.00    -0.094 C  
HETATM    7  C   UNL     1      -7.717  11.680  71.259  1.00  0.00     7.241 C  
HETATM    8  C   UNL     1      -5.143  12.049  69.860  1.00  0.00    -0.076 C  
HETATM    9  C   UNL     1      -8.892   7.487  72.507  1.00  0.00    -0.171 C  
HETATM   10  H   UNL     1     -13.007   5.834  72.437  1.00  0.00     0.000 HD 
HETATM   11  C   UNL     1      -8.600  10.277  72.016  1.00  0.00     5.715 C  
HETATM   12  C   UNL     1      -8.385   8.620  71.514  1.00  0.00    -0.220 C  
HETATM   13  C   UNL     1      -6.955   8.091  70.714  1.00  0.00    -0.045 C  
HETATM   14  C   UNL     1      -7.279   6.823  69.919  1.00  0.00    -0.080 C  
HETATM   15  C   UNL     1      -8.228   5.898  70.621  1.00  0.00    -0.120 C  
HETATM   16  C   UNL     1      -8.945   6.145  71.738  1.00  0.00    -0.141 C  
HETATM   17  C   UNL     1      -9.839   5.027  72.259  1.00  0.00    -0.214 C  
HETATM   18  C   UNL     1     -11.140   5.442  72.956  1.00  0.00    -0.313 C  
HETATM   19  C   UNL     1     -11.023   6.721  73.774  1.00  0.00     0.083 C  
HETATM   20  O   UNL     1     -12.200   5.577  72.005  1.00  0.00     0.199 OA 
HETATM   21  C   UNL     1     -10.317   7.848  73.012  1.00  0.00    -0.401 C  
ENDROOT
BRANCH   4  22
HETATM   22  C   UNL     1      -5.832  11.013  72.713  1.00  0.00     1.759 C  
HETATM   23  C   UNL     1      -5.389  10.262  73.961  1.00  0.00     0.247 C  
HETATM   24  O   UNL     1      -5.943  12.239  72.808  1.00  0.00     1.239 OA 
ENDBRANCH   4  22
TORSDOF 1
ENDMDL
MODEL      127
REMARK 921   NORMALIZED FREE ENERGY PREDICTED BY IDOCK:   15.22 KCAL/MOL
REMARK 922        TOTAL FREE ENERGY PREDICTED BY IDOCK:   17.01 KCAL/MOL
REMARK 923 INTER-LIGAND FREE ENERGY PREDICTED BY IDOCK:   15.47 KCAL/MOL
REMARK 924 INTRA-LIGAND FREE ENERGY PREDICTED BY IDOCK:    1.54 KCAL/MOL
REMARK 927      BINDING AFFINITY PREDICTED BY RF-SCORE:    0.00 PKD
ROOT
HETATM    1  C   UNL     1      -8.782   4.280  66.085  1.00  0.00    -0.114 C  
HETATM    2  C   UNL     1      -8.447   2.922  65.824  1.00  0.00    -0.107 C  
HETATM    3  C   UNL     1      -9.329   2.963  67.036  1.00  0.00    -0.132 C  
HETATM    4  C   UNL     1     -10.144   4.814  67.328  1.00  0.00    -0.192 C  
HETATM    5  C   UNL     1      -8.168   6.215  70.521  1.00  0.00    -0.114 C  
HETATM    6  C   UNL     1     -10.619   3.939  66.380  1.00  0.00     1.070 C  
HETATM    7  C   UNL     1     -11.241   3.203  67.989  1.00  0.00     7.909 C  
HETATM    8  C   UNL     1     -11.450   3.945  65.139  1.00  0.00     1.639 C  
HETATM    9  C   UNL     1      -7.702   4.758  70.350  1.00  0.00    -0.058 C  
HETATM   10  H   UNL     1      -5.526   2.525  73.505  1.00  0.00     0.000 HD 
HETATM   11  C   UNL     1     -10.108   3.601  69.361  1.00  0.00     0.539 C  
HETATM   12  C   UNL     1      -8.440   4.056  69.130  1.00  0.00    -0.100 C  
HETATM   13  C   UNL     1      -7.877   4.730  67.649  1.00  0.00    -0.090 C  
HETATM   14  C   UNL     1      -6.369   4.486  67.541  1.00  0.00    -0.041 C  
HETATM   15  C   UNL     1      -5.643   4.626  68.845  1.00  0.00    -0.012 C  
HETATM   16  C   UNL     1      -6.178   4.744  70.079  1.00  0.00    -0.026 C  
HETATM   17  C   UNL     1      -5.215   4.879  71.252  1.00  0.00    -0.004 C  
HETATM   18  C   UNL     1      -5.654   4.272  72.589  1.00  0.00    -0.004 C  
HETATM   19  C   UNL     1      -7.148   4.384  72.858  1.00  0.00    -0.068 C  
HETATM   20  O   UNL     1      -5.254   2.901  72.676  1.00  0.00     0.000 OA 
HETATM   21  C   UNL     1      -8.000   3.965  71.655  1.00  0.00    -0.066 C  
ENDROOT
BRANCH   4  22
HETATM   22  C   UNL     1     -11.475   5.651  67.742  1.00  0.00     1.410 C  
HETATM   23  C   UNL     1     -11.895   5.719  69.204  1.00  0.00     1.870 C  
HETATM   24  O   UNL     1     -12.258   6.123  66.913  1.00  0.00     2.165 OA 
ENDBRANCH   4  22
TORSDOF 1
ENDMDL
MODEL      128
REMARK 921   NORMALIZED FREE ENERGY PREDICTED BY IDOCK:   19.14 KCAL/MOL
REMARK 922        TOTAL FREE ENERGY PREDICTED BY IDOCK:   21.16 KCAL/MOL
REMARK 923 INTER-LIGAND FREE ENERGY PREDICTED BY IDOCK:   19.96 KCAL/MOL
REMARK 924 INTRA-LIGAND FREE ENERGY PREDICTED BY IDOCK:    1.20 KCAL/MOL
REMARK 927      BINDING AFFINITY PREDICTED BY RF-SCORE:    0.00 PKD
ROOT
HETATM    1  C   UNL     1     -12.105  13.219  72.123  1.00  0.00     1.018 C  
HETATM    2  C   UNL     1     -10.798  13.064  72.663  1.00  0.00     9.812 C  
HETATM    3  C   UNL     1     -10.754  14.151  71.632  1.00  0.00     2.917 C  
HETATM    4  C   UNL     1     -12.624  14.696  71.013  1.00  0.00    -0.400 C  
HETATM    5  C   UNL     1     -12.859  13.197  67.303  1.00  0.00     1.498 C  
HETATM    6  C   UNL     1     -12.093  15.108  72.212  1.00  0.00    -0.478 C  
HETATM    7  C   UNL     1     -11.168  16.150  70.957  1.00  0.00    -0.297 C  
HETATM    8  C   UNL     1     -12.540  15.662  73.526  1.00  0.00    -0.677 C  
HETATM    9  C   UNL     1     -11.410  12.950  67.762  1.00  0.00    -0.343 C  
HETATM   10  H   UNL     1      -8.145  11.840  64.972  1.00  0.00     0.000 HD 
HETATM   11  C   UNL     1     -11.017  15.265  69.371  1.00  0.00    -0.271 C  
HETATM   12  C   UNL     1     -11.158  13.533  69.218  1.00  0.00    -0.230 C  
HETATM   13  C   UNL     1     -12.008  12.584  70.376  1.00  0.00    -0.335 C  
HETATM   14  C   UNL     1     -11.490  11.145  70.306  1.00  0.00    -0.329 C  
HETATM   15  C   UNL     1     -11.189  10.680  68.913  1.00  0.00    -0.333 C  
HETATM   16  C   UNL     1     -11.143  11.425  67.787  1.00  0.00    -0.323 C  
HETATM   17  C   UNL     1     -10.818  10.707  66.483  1.00  0.00    -0.168 C  
HETATM   18  C   UNL     1     -10.038  11.497  65.427  1.00  0.00    -0.260 C  
HETATM   19  C   UNL     1     -10.393  12.977  65.373  1.00  0.00    -0.313 C  
HETATM   20  O   UNL     1      -8.629  11.351  65.627  1.00  0.00    -0.097 OA 
HETATM   21  C   UNL     1     -10.431  13.627  66.761  1.00  0.00    -0.270 C  
ENDROOT
BRANCH   4  22
HETATM   22  C   UNL     1     -13.606  15.929  70.613  1.00  0.00     0.985 C  
HETATM   23  C   UNL     1     -14.101  16.876  71.698  1.00  0.00     6.479 C  
HETATM   24  O   UNL     1     -14.098  16.060  69.489  1.00  0.00     2.374 OA 
ENDBRANCH   4  22
TORSDOF 1
ENDMDL
MODEL      129
REMARK 921   NORMALIZED FREE ENERGY PREDICTED BY IDOCK:   21.40 KCAL/MOL
REMARK 922        TOTAL FREE ENERGY PREDICTED BY IDOCK:   23.56 KCAL/MOL
REMARK 923 INTER-LIGAND FREE ENERGY PREDICTED BY IDOCK:   22.32 KCAL/MOL
REMARK 924 INTRA-LIGAND FREE ENERGY PREDICTED BY IDOCK:    1.24 KCAL/MOL
REMARK 927      BINDING AFFINITY PREDICTED BY RF-SCORE:    0.00 PKD
ROOT
HETATM    1  C   UNL     1      -7.779  18.937  64.403  1.00  0.00     4.209 C  
HETATM    2  C   UNL     1      -7.535  20.324  64.205  1.00  0.00     1.318 C  
HETATM    3  C   UNL     1      -6.814  19.894  65.447  1.00  0.00    -0.330 C  
HETATM    4  C   UNL     1      -6.814  17.862  65.668  1.00  0.00    -0.160 C  
HETATM    5  C   UNL     1      -9.368  17.247  68.695  1.00  0.00    -0.267 C  
HETATM    6  C   UNL     1      -5.977  18.511  64.791  1.00  0.00    -0.131 C  
HETATM    7  C   UNL     1      -5.212  18.883  66.463  1.00  0.00    -0.150 C  
HETATM    8  C   UNL     1      -5.143  18.220  63.586  1.00  0.00     0.217 C  
HETATM    9  C   UNL     1      -9.211  18.775  68.587  1.00  0.00    -0.386 C  
HETATM   10  H   UNL     1     -10.515  21.573  71.771  1.00  0.00     0.000 HD 
HETATM   11  C   UNL     1      -6.489  18.917  67.763  1.00  0.00    -0.220 C  
HETATM   12  C   UNL     1      -8.185  19.169  67.440  1.00  0.00    -0.302 C  
HETATM   13  C   UNL     1      -8.878  18.827  65.902  1.00  0.00     0.186 C  
HETATM   14  C   UNL     1     -10.159  19.651  65.746  1.00  0.00    -0.377 C  
HETATM   15  C   UNL     1     -10.958  19.765  67.009  1.00  0.00    -0.345 C  
HETATM   16  C   UNL     1     -10.587  19.400  68.256  1.00  0.00    -0.307 C  
HETATM   17  C   UNL     1     -11.593  19.616  69.379  1.00  0.00     4.420 C  
HETATM   18  C   UNL     1     -11.031  19.952  70.765  1.00  0.00     3.652 C  
HETATM   19  C   UNL     1      -9.721  19.247  71.088  1.00  0.00     2.792 C  
HETATM   20  O   UNL     1     -10.863  21.365  70.912  1.00  0.00     3.322 OA 
HETATM   21  C   UNL     1      -8.703  19.337  69.945  1.00  0.00     0.882 C  
ENDROOT
BRANCH   4  22
HETATM   22  C   UNL     1      -5.947  16.552  66.088  1.00  0.00     1.162 C  
HETATM   23  C   UNL     1      -5.985  16.057  67.527  1.00  0.00    -0.181 C  
HETATM   24  O   UNL     1      -5.135  16.012  65.332  1.00  0.00     3.315 OA 
ENDBRANCH   4  22
TORSDOF 1
ENDMDL
MODEL      130
REMARK 921   NORMALIZED FREE ENERGY PREDICTED BY IDOCK:   23.14 KCAL/MOL
REMARK 922        TOTAL FREE ENERGY PREDICTED BY IDOCK:   25.40 KCAL/MOL
REMARK 923 INTER-LIGAND FREE ENERGY PREDICTED BY IDOCK:   24.20 KCAL/MOL
REMARK 924 INTRA-LIGAND FREE ENERGY PREDICTED BY IDOCK:    1.20 KCAL/MOL
REMARK 927      BINDING AFFINITY PREDICTED BY RF-SCORE:    0.00 PKD
ROOT
HETATM    1  C   UNL     1     -10.078   8.013  66.860  1.00  0.00    -0.362 C  
HETATM    2  C   UNL     1      -9.798   6.632  66.669  1.00  0.00    -0.208 C  
HETATM    3  C   UNL     1     -10.394   6.804  68.033  1.00  0.00    -0.224 C  
HETATM    4  C   UNL     1     -11.139   8.687  68.311  1.00  0.00     0.283 C  
HETATM    5  C   UNL     1      -8.523  10.369  70.839  1.00  0.00     2.182 C  
HETATM    6  C   UNL     1     -11.803   7.729  67.582  1.00  0.00     2.613 C  
HETATM    7  C   UNL     1     -12.052   7.165  69.353  1.00  0.00     0.855 C  
HETATM    8  C   UNL     1     -12.886   7.625  66.558  1.00  0.00    12.852 C  
HETATM    9  C   UNL     1      -8.095   8.895  70.716  1.00  0.00    -0.179 C  
HETATM   10  H   UNL     1      -5.263   6.955  73.525  1.00  0.00     0.000 HD 
HETATM   11  C   UNL     1     -10.650   7.681  70.397  1.00  0.00    -0.233 C  
HETATM   12  C   UNL     1      -9.076   8.087  69.763  1.00  0.00    -0.149 C  
HETATM   13  C   UNL     1      -8.857   8.603  68.136  1.00  0.00    -0.142 C  
HETATM   14  C   UNL     1      -7.407   8.329  67.725  1.00  0.00    -0.093 C  
HETATM   15  C   UNL     1      -6.414   8.586  68.818  1.00  0.00    -0.053 C  
HETATM   16  C   UNL     1      -6.667   8.833  70.121  1.00  0.00    -0.040 C  
HETATM   17  C   UNL     1      -5.472   9.070  71.036  1.00  0.00    -0.037 C  
HETATM   18  C   UNL     1      -5.602   8.604  72.490  1.00  0.00    -0.059 C  
HETATM   19  C   UNL     1      -7.002   8.764  73.067  1.00  0.00     0.104 C  
HETATM   20  O   UNL     1      -5.182   7.243  72.624  1.00  0.00    -0.036 OA 
HETATM   21  C   UNL     1      -8.093   8.240  72.127  1.00  0.00    -0.195 C  
ENDROOT
BRANCH   4  22
HETATM   22  C   UNL     1     -12.354   9.580  68.921  1.00  0.00     2.329 C  
HETATM   23  C   UNL     1     -12.915  10.739  68.108  1.00  0.00     4.597 C  
HETATM   24  O   UNL     1     -12.757   9.464  70.081  1.00  0.00     0.392 OA 
ENDBRANCH   4  22
TORSDOF 1
ENDMDL
MODEL      131
REMARK 921   NORMALIZED FREE ENERGY PREDICTED BY IDOCK:   26.06 KCAL/MOL
REMARK 922        TOTAL FREE ENERGY PREDICTED BY IDOCK:   28.49 KCAL/MOL
REMARK 923 INTER-LIGAND FREE ENERGY PREDICTED BY IDOCK:   27.40 KCAL/MOL
REMARK 924 INTRA-LIGAND FREE ENERGY PREDICTED BY IDOCK:    1.09 KCAL/MOL
REMARK 927      BINDING AFFINITY PREDICTED BY RF-SCORE:    0.00 PKD
ROOT
HETATM    1  C   UNL     1     -13.409  15.020  69.249  1.00  0.00     1.777 C  
HETATM    2  C   UNL     1     -12.801  16.029  70.046  1.00  0.00     0.667 C  
HETATM    3  C   UNL     1     -11.928  15.786  68.851  1.00  0.00    -0.268 C  
HETATM    4  C   UNL     1     -12.843  14.596  67.464  1.00  0.00     1.453 C  
HETATM    5  C   UNL     1     -10.885  11.114  67.776  1.00  0.00    -0.288 C  
HETATM    6  C   UNL     1     -13.147  15.929  67.610  1.00  0.00     3.778 C  
HETATM    7  C   UNL     1     -11.478  15.965  66.757  1.00  0.00     0.287 C  
HETATM    8  C   UNL     1     -14.234  16.894  67.265  1.00  0.00    10.708 C  
HETATM    9  C   UNL     1     -10.134  12.097  68.692  1.00  0.00    -0.161 C  
HETATM   10  H   UNL     1      -6.080  11.292  70.301  1.00  0.00     0.000 HD 
HETATM   11  C   UNL     1     -10.492  14.500  67.207  1.00  0.00    -0.266 C  
HETATM   12  C   UNL     1     -10.783  13.546  68.639  1.00  0.00    -0.271 C  
HETATM   13  C   UNL     1     -12.319  13.520  69.416  1.00  0.00    -0.162 C  
HETATM   14  C   UNL     1     -12.122  13.103  70.877  1.00  0.00    -0.209 C  
HETATM   15  C   UNL     1     -11.079  12.042  71.064  1.00  0.00     2.690 C  
HETATM   16  C   UNL     1     -10.200  11.579  70.149  1.00  0.00     1.522 C  
HETATM   17  C   UNL     1      -9.238  10.484  70.592  1.00  0.00     1.737 C  
HETATM   18  C   UNL     1      -7.846  10.476  69.951  1.00  0.00     0.051 C  
HETATM   19  C   UNL     1      -7.835  10.907  68.490  1.00  0.00    -0.126 C  
HETATM   20  O   UNL     1      -6.943  11.296  70.698  1.00  0.00     0.228 OA 
HETATM   21  C   UNL     1      -8.647  12.184  68.244  1.00  0.00    -0.175 C  
ENDROOT
BRANCH   4  22
HETATM   22  C   UNL     1     -13.120  14.338  65.883  1.00  0.00     0.192 C  
HETATM   23  C   UNL     1     -14.397  14.870  65.247  1.00  0.00     4.657 C  
HETATM   24  O   UNL     1     -12.416  13.600  65.188  1.00  0.00    -0.424 OA 
ENDBRANCH   4  22
TORSDOF 1
ENDMDL
MODEL      132
REMARK 921   NORMALIZED FREE ENERGY PREDICTED BY IDOCK:   42.08 KCAL/MOL
REMARK 922        TOTAL FREE ENERGY PREDICTED BY IDOCK:   45.45 KCAL/MOL
REMARK 923 INTER-LIGAND FREE ENERGY PREDICTED BY IDOCK:   43.63 KCAL/MOL
REMARK 924 INTRA-LIGAND FREE ENERGY PREDICTED BY IDOCK:    1.81 KCAL/MOL
REMARK 927      BINDING AFFINITY PREDICTED BY RF-SCORE:    0.00 PKD
ROOT
HETATM    1  C   UNL     1     -10.734  16.077  68.212  1.00  0.00    -0.298 C  
HETATM    2  C   UNL     1     -11.575  17.223  68.259  1.00  0.00     0.759 C  
HETATM    3  C   UNL     1     -10.249  17.637  67.696  1.00  0.00    -0.351 C  
HETATM    4  C   UNL     1      -9.060  16.029  67.275  1.00  0.00    -0.217 C  
HETATM    5  C   UNL     1      -6.249  16.167  70.128  1.00  0.00    -0.051 C  
HETATM    6  C   UNL     1     -10.100  16.412  66.462  1.00  0.00    -0.304 C  
HETATM    7  C   UNL     1      -8.791  17.710  66.118  1.00  0.00    -0.138 C  
HETATM    8  C   UNL     1     -10.966  15.854  65.380  1.00  0.00    -0.293 C  
HETATM    9  C   UNL     1      -7.084  17.447  70.305  1.00  0.00     1.592 C  
HETATM   10  H   UNL     1      -5.750  20.888  72.766  1.00  0.00     0.000 HD 
HETATM   11  C   UNL     1      -7.739  17.969  67.584  1.00  0.00    -0.215 C  
HETATM   12  C   UNL     1      -8.226  17.548  69.205  1.00  0.00     0.209 C  
HETATM   13  C   UNL     1      -9.430  16.356  69.512  1.00  0.00    -0.006 C  
HETATM   14  C   UNL     1     -10.032  16.611  70.896  1.00  0.00     2.439 C  
HETATM   15  C   UNL     1      -9.028  17.057  71.916  1.00  0.00    11.381 C  
HETATM   16  C   UNL     1      -7.746  17.428  71.704  1.00  0.00     9.394 C  
HETATM   17  C   UNL     1      -6.924  17.836  72.920  1.00  0.00     8.065 C  
HETATM   18  C   UNL     1      -5.855  18.914  72.709  1.00  0.00     2.585 C  
HETATM   19  C   UNL     1      -5.165  18.845  71.354  1.00  0.00    -0.311 C  
HETATM   20  O   UNL     1      -6.412  20.219  72.896  1.00  0.00     1.086 OA 
HETATM   21  C   UNL     1      -6.154  18.688  70.193  1.00  0.00    -0.117 C  
ENDROOT
BRANCH   4  22
HETATM   22  C   UNL     1      -8.010  15.367  66.225  1.00  0.00     0.568 C  
HETATM   23  C   UNL     1      -7.806  16.012  64.860  1.00  0.00     6.892 C  
HETATM   24  O   UNL     1      -7.466  14.275  66.414  1.00  0.00     0.965 OA 
ENDBRANCH   4  22
TORSDOF 1
ENDMDL
MODEL      133
REMARK 921   NORMALIZED FREE ENERGY PREDICTED BY IDOCK:   42.61 KCAL/MOL
REMARK 922        TOTAL FREE ENERGY PREDICTED BY IDOCK:   46.01 KCAL/MOL
REMARK 923 INTER-LIGAND FREE ENERGY PREDICTED BY IDOCK:   44.75 KCAL/MOL
REMARK 924 INTRA-LIGAND FREE ENERGY PREDICTED BY IDOCK:    1.26 KCAL/MOL
REMARK 927      BINDING AFFINITY PREDICTED BY RF-SCORE:    0.00 PKD
ROOT
HETATM    1  C   UNL     1      -8.478  17.430  67.648  1.00  0.00    -0.213 C  
HETATM    2  C   UNL     1      -8.112  18.007  68.896  1.00  0.00    -0.168 C  
HETATM    3  C   UNL     1      -7.165  16.882  68.605  1.00  0.00    -0.215 C  
HETATM    4  C   UNL     1      -7.375  16.179  66.696  1.00  0.00    -0.156 C  
HETATM    5  C   UNL     1      -9.146  12.619  67.197  1.00  0.00    -0.210 C  
HETATM    6  C   UNL     1      -6.708  17.346  66.985  1.00  0.00    -0.218 C  
HETATM    7  C   UNL     1      -5.506  16.018  67.544  1.00  0.00    -0.136 C  
HETATM    8  C   UNL     1      -6.248  18.594  66.305  1.00  0.00    -0.215 C  
HETATM    9  C   UNL     1      -8.823  13.126  68.615  1.00  0.00     0.051 C  
HETATM   10  H   UNL     1      -8.908  10.514  72.198  1.00  0.00     0.000 HD 
HETATM   11  C   UNL     1      -6.401  14.523  68.080  1.00  0.00    -0.162 C  
HETATM   12  C   UNL     1      -8.075  14.527  68.569  1.00  0.00    -0.148 C  
HETATM   13  C   UNL     1      -9.171  15.750  68.053  1.00  0.00    -0.188 C  
HETATM   14  C   UNL     1     -10.331  15.823  69.050  1.00  0.00    -0.223 C  
HETATM   15  C   UNL     1     -10.765  14.484  69.566  1.00  0.00    -0.168 C  
HETATM   16  C   UNL     1     -10.144  13.296  69.403  1.00  0.00     0.590 C  
HETATM   17  C   UNL     1     -10.799  12.070  70.026  1.00  0.00     0.658 C  
HETATM   18  C   UNL     1      -9.868  10.961  70.529  1.00  0.00     1.922 C  
HETATM   19  C   UNL     1      -8.622  10.765  69.676  1.00  0.00     0.242 C  
HETATM   20  O   UNL     1      -9.485  11.201  71.886  1.00  0.00     8.515 OA 
HETATM   21  C   UNL     1      -7.921  12.086  69.340  1.00  0.00     0.631 C  
ENDROOT
BRANCH   4  22
HETATM   22  C   UNL     1      -6.610  15.649  65.363  1.00  0.00     7.870 C  
HETATM   23  C   UNL     1      -7.272  15.814  64.002  1.00  0.00    18.404 C  
HETATM   24  O   UNL     1      -5.574  14.980  65.403  1.00  0.00     8.288 OA 
ENDBRANCH   4  22
TORSDOF 1
ENDMDL
MODEL      134
REMARK 921   NORMALIZED FREE ENERGY PREDICTED BY IDOCK:   63.73 KCAL/MOL
REMARK 922        TOTAL FREE ENERGY PREDICTED BY IDOCK:   68.36 KCAL/MOL
REMARK 923 INTER-LIGAND FREE ENERGY PREDICTED BY IDOCK:   67.23 KCAL/MOL
REMARK 924 INTRA-LIGAND FREE ENERGY PREDICTED BY IDOCK:    1.13 KCAL/MOL
REMARK 927      BINDING AFFINITY PREDICTED BY RF-SCORE:    0.00 PKD
ROOT
HETATM    1  C   UNL     1     -10.740  12.365  72.409  1.00  0.00    11.929 C  
HETATM    2  C   UNL     1      -9.563  12.351  73.207  1.00  0.00    23.910 C  
HETATM    3  C   UNL     1      -9.198  12.852  71.842  1.00  0.00    18.812 C  
HETATM    4  C   UNL     1     -10.850  13.228  70.698  1.00  0.00     2.145 C  
HETATM    5  C   UNL     1     -10.829  10.252  68.013  1.00  0.00    -0.325 C  
HETATM    6  C   UNL     1     -10.424  14.084  71.686  1.00  0.00     4.263 C  
HETATM    7  C   UNL     1      -9.177  14.364  70.314  1.00  0.00     1.662 C  
HETATM    8  C   UNL     1     -10.945  15.206  72.523  1.00  0.00     0.550 C  
HETATM    9  C   UNL     1      -9.518  10.106  68.806  1.00  0.00    -0.171 C  
HETATM   10  H   UNL     1      -6.139   7.573  67.451  1.00  0.00     0.000 HD 
HETATM   11  C   UNL     1      -8.963  12.851  69.319  1.00  0.00     0.964 C  
HETATM   12  C   UNL     1      -9.370  11.255  69.893  1.00  0.00     1.349 C  
HETATM   13  C   UNL     1     -10.516  11.008  71.154  1.00  0.00     3.125 C  
HETATM   14  C   UNL     1     -10.241   9.650  71.807  1.00  0.00     0.604 C  
HETATM   15  C   UNL     1      -9.838   8.585  70.833  1.00  0.00    -0.234 C  
HETATM   16  C   UNL     1      -9.516   8.738  69.530  1.00  0.00    -0.165 C  
HETATM   17  C   UNL     1      -9.143   7.485  68.747  1.00  0.00    -0.135 C  
HETATM   18  C   UNL     1      -8.106   7.643  67.630  1.00  0.00    -0.121 C  
HETATM   19  C   UNL     1      -8.198   8.967  66.883  1.00  0.00    -0.116 C  
HETATM   20  O   UNL     1      -6.782   7.475  68.143  1.00  0.00    -0.055 OA 
HETATM   21  C   UNL     1      -8.313  10.171  67.824  1.00  0.00    -0.114 C  
ENDROOT
BRANCH   4  22
HETATM   22  C   UNL     1     -11.548  14.233  69.628  1.00  0.00    -0.296 C  
HETATM   23  C   UNL     1     -12.862  14.915  69.986  1.00  0.00    -0.113 C  
HETATM   24  O   UNL     1     -11.147  14.368  68.469  1.00  0.00    -0.235 OA 
ENDBRANCH   4  22
TORSDOF 1
ENDMDL
