MODEL        1
REMARK 921   NORMALIZED FREE ENERGY PREDICTED BY IDOCK:   -8.16 KCAL/MOL
REMARK 922        TOTAL FREE ENERGY PREDICTED BY IDOCK:  -10.51 KCAL/MOL
REMARK 923 INTER-LIGAND FREE ENERGY PREDICTED BY IDOCK:  -10.07 KCAL/MOL
REMARK 924 INTRA-LIGAND FREE ENERGY PREDICTED BY IDOCK:   -0.44 KCAL/MOL
REMARK 927      BINDING AFFINITY PREDICTED BY RF-SCORE:    0.00 PKD
ROOT
HETATM    1  O   UNL     1     -12.781  15.150  63.709  1.00  0.00    -0.722 OA 
HETATM    2  N   UNL     1     -11.765  15.516  64.320  1.00  0.00    -0.303 N  
HETATM    3  C   UNL     1     -11.093  14.509  65.112  1.00  0.00    -0.370 A  
HETATM    4  O   UNL     1     -11.296  16.659  64.317  1.00  0.00    -1.116 OA 
HETATM    5  C   UNL     1     -11.500  13.201  65.332  1.00  0.00    -0.304 A  
HETATM    6  N   UNL     1     -10.533  12.689  66.144  1.00  0.00    -0.253 NA 
HETATM    7  C   UNL     1     -10.410  11.342  66.649  1.00  0.00    -0.237 C  
HETATM    8  C   UNL     1      -9.338  11.199  67.746  1.00  0.00    -0.164 C  
HETATM    9  C   UNL     1      -8.616  12.518  68.086  1.00  0.00    -0.189 C  
HETATM   10  C   UNL     1      -9.584  13.647  66.331  1.00  0.00    -0.268 A  
HETATM   11  N   UNL     1      -9.886  14.769  65.734  1.00  0.00    -0.335 NA 
HETATM   12  O   UNL     1      -8.459  13.419  66.996  1.00  0.00    -0.194 OA 
ENDROOT
BRANCH   8  13
HETATM   13  O   UNL     1      -9.987  10.658  68.907  1.00  0.00    -0.187 OA 
BRANCH  13  14
HETATM   14  C   UNL     1     -11.406  10.545  68.802  1.00  0.00    -0.249 C  
BRANCH  14  15
HETATM   15  C   UNL     1     -12.019  11.412  69.870  1.00  0.00    -0.434 A  
HETATM   16  C   UNL     1     -12.019  12.803  69.743  1.00  0.00    -0.362 A  
HETATM   17  C   UNL     1     -12.569  13.596  70.750  1.00  0.00    -0.397 A  
HETATM   18  C   UNL     1     -13.137  13.021  71.893  1.00  0.00    -0.384 A  
HETATM   19  C   UNL     1     -12.596  10.837  71.011  1.00  0.00    -0.520 A  
HETATM   20  C   UNL     1     -13.134  11.635  72.027  1.00  0.00    -0.433 A  
BRANCH  18  21
HETATM   21  O   UNL     1     -13.618  13.931  72.783  1.00  0.00    -0.654 OA 
HETATM   22  C   UNL     1     -12.923  15.144  73.012  1.00  0.00    -0.493 C  
HETATM   23  F   UNL     1     -11.622  15.105  72.656  1.00  0.00    -0.473 F  
HETATM   24  F   UNL     1     -12.974  15.412  74.338  1.00  0.00    -0.518 F  
HETATM   25  F   UNL     1     -13.534  16.154  72.356  1.00  0.00    -0.507 F  
ENDBRANCH  18  21
ENDBRANCH  14  15
ENDBRANCH  13  14
ENDBRANCH   8  13
TORSDOF 4
ENDMDL
MODEL        2
REMARK 921   NORMALIZED FREE ENERGY PREDICTED BY IDOCK:   -7.54 KCAL/MOL
REMARK 922        TOTAL FREE ENERGY PREDICTED BY IDOCK:   -9.75 KCAL/MOL
REMARK 923 INTER-LIGAND FREE ENERGY PREDICTED BY IDOCK:   -9.12 KCAL/MOL
REMARK 924 INTRA-LIGAND FREE ENERGY PREDICTED BY IDOCK:   -0.63 KCAL/MOL
REMARK 927      BINDING AFFINITY PREDICTED BY RF-SCORE:    0.00 PKD
ROOT
HETATM    1  O   UNL     1     -12.429  13.598  63.216  1.00  0.00    -0.801 OA 
HETATM    2  N   UNL     1     -12.368  14.418  64.145  1.00  0.00    -0.415 N  
HETATM    3  C   UNL     1     -12.179  13.874  65.472  1.00  0.00    -0.444 A  
HETATM    4  O   UNL     1     -12.466  15.645  64.030  1.00  0.00    -0.657 OA 
HETATM    5  C   UNL     1     -12.141  12.536  65.836  1.00  0.00    -0.352 A  
HETATM    6  N   UNL     1     -11.954  12.568  67.185  1.00  0.00    -0.516 NA 
HETATM    7  C   UNL     1     -11.782  11.457  68.092  1.00  0.00    -0.284 C  
HETATM    8  C   UNL     1     -11.859  11.864  69.575  1.00  0.00    -0.331 C  
HETATM    9  C   UNL     1     -12.108  13.370  69.794  1.00  0.00    -0.310 C  
HETATM   10  C   UNL     1     -11.832  13.869  67.567  1.00  0.00    -0.396 A  
HETATM   11  N   UNL     1     -11.971  14.696  66.565  1.00  0.00    -0.324 NA 
HETATM   12  O   UNL     1     -11.540  14.225  68.811  1.00  0.00    -0.283 OA 
ENDROOT
BRANCH   8  13
HETATM   13  O   UNL     1     -12.903  11.082  70.177  1.00  0.00    -0.197 OA 
BRANCH  13  14
HETATM   14  C   UNL     1     -12.709  10.786  71.560  1.00  0.00    -0.431 C  
BRANCH  14  15
HETATM   15  C   UNL     1     -12.278   9.348  71.668  1.00  0.00    -0.467 A  
HETATM   16  C   UNL     1     -10.928   9.019  71.804  1.00  0.00    -0.443 A  
HETATM   17  C   UNL     1     -10.539   7.681  71.881  1.00  0.00    -0.257 A  
HETATM   18  C   UNL     1     -11.484   6.650  71.835  1.00  0.00    -0.291 A  
HETATM   19  C   UNL     1     -13.226   8.314  71.631  1.00  0.00    -0.349 A  
HETATM   20  C   UNL     1     -12.832   6.973  71.693  1.00  0.00    -0.408 A  
BRANCH  18  21
HETATM   21  O   UNL     1     -10.941   5.405  71.909  1.00  0.00    -0.223 OA 
HETATM   22  C   UNL     1     -10.817   4.752  73.161  1.00  0.00    -0.270 C  
HETATM   23  F   UNL     1     -10.848   5.589  74.220  1.00  0.00    -0.283 F  
HETATM   24  F   UNL     1      -9.626   4.111  73.182  1.00  0.00    -0.127 F  
HETATM   25  F   UNL     1     -11.794   3.829  73.295  1.00  0.00    -0.259 F  
ENDBRANCH  18  21
ENDBRANCH  14  15
ENDBRANCH  13  14
ENDBRANCH   8  13
TORSDOF 4
ENDMDL
MODEL        3
REMARK 921   NORMALIZED FREE ENERGY PREDICTED BY IDOCK:   -7.47 KCAL/MOL
REMARK 922        TOTAL FREE ENERGY PREDICTED BY IDOCK:   -9.66 KCAL/MOL
REMARK 923 INTER-LIGAND FREE ENERGY PREDICTED BY IDOCK:   -8.97 KCAL/MOL
REMARK 924 INTRA-LIGAND FREE ENERGY PREDICTED BY IDOCK:   -0.68 KCAL/MOL
REMARK 927      BINDING AFFINITY PREDICTED BY RF-SCORE:    0.00 PKD
ROOT
HETATM    1  O   UNL     1     -12.337  13.268  63.089  1.00  0.00    -0.682 OA 
HETATM    2  N   UNL     1     -12.370  14.087  64.021  1.00  0.00    -0.383 N  
HETATM    3  C   UNL     1     -12.165  13.558  65.351  1.00  0.00    -0.447 A  
HETATM    4  O   UNL     1     -12.575  15.301  63.904  1.00  0.00    -0.765 OA 
HETATM    5  C   UNL     1     -12.016  12.228  65.715  1.00  0.00    -0.293 A  
HETATM    6  N   UNL     1     -11.865  12.272  67.068  1.00  0.00    -0.574 NA 
HETATM    7  C   UNL     1     -11.616  11.179  67.977  1.00  0.00    -0.263 C  
HETATM    8  C   UNL     1     -11.764  11.573  69.459  1.00  0.00    -0.346 C  
HETATM    9  C   UNL     1     -12.152  13.050  69.674  1.00  0.00    -0.241 C  
HETATM   10  C   UNL     1     -11.869  13.579  67.454  1.00  0.00    -0.384 A  
HETATM   11  N   UNL     1     -12.058  14.393  66.449  1.00  0.00    -0.402 NA 
HETATM   12  O   UNL     1     -11.639  13.956  68.704  1.00  0.00    -0.283 OA 
ENDROOT
BRANCH   8  13
HETATM   13  O   UNL     1     -12.747  10.699  70.035  1.00  0.00    -0.278 OA 
BRANCH  13  14
HETATM   14  C   UNL     1     -12.638  10.521  71.447  1.00  0.00    -0.434 C  
BRANCH  14  15
HETATM   15  C   UNL     1     -12.132   9.126  71.700  1.00  0.00    -0.432 A  
HETATM   16  C   UNL     1     -10.793   8.903  72.026  1.00  0.00    -0.404 A  
HETATM   17  C   UNL     1     -10.332   7.604  72.235  1.00  0.00    -0.277 A  
HETATM   18  C   UNL     1     -11.194   6.506  72.134  1.00  0.00    -0.271 A  
HETATM   19  C   UNL     1     -12.998   8.026  71.607  1.00  0.00    -0.351 A  
HETATM   20  C   UNL     1     -12.530   6.722  71.802  1.00  0.00    -0.394 A  
BRANCH  18  21
HETATM   21  O   UNL     1     -10.586   5.309  72.355  1.00  0.00    -0.211 OA 
HETATM   22  C   UNL     1      -9.985   4.603  71.284  1.00  0.00    -0.198 C  
HETATM   23  F   UNL     1     -10.441   4.964  70.066  1.00  0.00    -0.334 F  
HETATM   24  F   UNL     1     -10.254   3.287  71.446  1.00  0.00    -0.221 F  
HETATM   25  F   UNL     1      -8.645   4.765  71.323  1.00  0.00    -0.107 F  
ENDBRANCH  18  21
ENDBRANCH  14  15
ENDBRANCH  13  14
ENDBRANCH   8  13
TORSDOF 4
ENDMDL
MODEL        4
REMARK 921   NORMALIZED FREE ENERGY PREDICTED BY IDOCK:   -7.41 KCAL/MOL
REMARK 922        TOTAL FREE ENERGY PREDICTED BY IDOCK:   -9.59 KCAL/MOL
REMARK 923 INTER-LIGAND FREE ENERGY PREDICTED BY IDOCK:   -8.86 KCAL/MOL
REMARK 924 INTRA-LIGAND FREE ENERGY PREDICTED BY IDOCK:   -0.73 KCAL/MOL
REMARK 927      BINDING AFFINITY PREDICTED BY RF-SCORE:    0.00 PKD
ROOT
HETATM    1  O   UNL     1     -12.345  16.182  63.585  1.00  0.00    -0.680 OA 
HETATM    2  N   UNL     1     -11.510  16.285  64.497  1.00  0.00    -0.338 N  
HETATM    3  C   UNL     1     -11.231  15.084  65.253  1.00  0.00    -0.367 A  
HETATM    4  O   UNL     1     -10.916  17.321  64.816  1.00  0.00    -0.950 OA 
HETATM    5  C   UNL     1     -11.849  13.849  65.129  1.00  0.00    -0.362 A  
HETATM    6  N   UNL     1     -11.232  13.077  66.067  1.00  0.00    -0.286 NA 
HETATM    7  C   UNL     1     -11.435  11.675  66.347  1.00  0.00    -0.165 C  
HETATM    8  C   UNL     1     -10.752  11.209  67.647  1.00  0.00    -0.230 C  
HETATM    9  C   UNL     1      -9.995  12.329  68.388  1.00  0.00    -0.209 C  
HETATM   10  C   UNL     1     -10.262  13.825  66.661  1.00  0.00    -0.276 A  
HETATM   11  N   UNL     1     -10.231  15.050  66.207  1.00  0.00    -0.281 NA 
HETATM   12  O   UNL     1      -9.415  13.322  67.550  1.00  0.00    -0.206 OA 
ENDROOT
BRANCH   8  13
HETATM   13  O   UNL     1     -11.773  10.643  68.484  1.00  0.00    -0.364 OA 
BRANCH  13  14
HETATM   14  C   UNL     1     -11.826  11.175  69.807  1.00  0.00    -0.349 C  
BRANCH  14  15
HETATM   15  C   UNL     1     -11.549  10.051  70.769  1.00  0.00    -0.444 A  
HETATM   16  C   UNL     1     -12.578   9.502  71.537  1.00  0.00    -0.462 A  
HETATM   17  C   UNL     1     -12.303   8.476  72.441  1.00  0.00    -0.424 A  
HETATM   18  C   UNL     1     -11.006   7.972  72.590  1.00  0.00    -0.382 A  
HETATM   19  C   UNL     1     -10.251   9.540  70.912  1.00  0.00    -0.356 A  
HETATM   20  C   UNL     1      -9.975   8.521  71.831  1.00  0.00    -0.365 A  
BRANCH  18  21
HETATM   21  O   UNL     1     -10.905   6.984  73.519  1.00  0.00    -0.341 OA 
HETATM   22  C   UNL     1     -10.722   5.638  73.116  1.00  0.00    -0.267 C  
HETATM   23  F   UNL     1     -11.096   5.393  71.842  1.00  0.00    -0.296 F  
HETATM   24  F   UNL     1     -11.476   4.853  73.920  1.00  0.00    -0.325 F  
HETATM   25  F   UNL     1      -9.429   5.283  73.276  1.00  0.00    -0.139 F  
ENDBRANCH  18  21
ENDBRANCH  14  15
ENDBRANCH  13  14
ENDBRANCH   8  13
TORSDOF 4
ENDMDL
MODEL        5
REMARK 921   NORMALIZED FREE ENERGY PREDICTED BY IDOCK:   -7.41 KCAL/MOL
REMARK 922        TOTAL FREE ENERGY PREDICTED BY IDOCK:   -9.59 KCAL/MOL
REMARK 923 INTER-LIGAND FREE ENERGY PREDICTED BY IDOCK:   -8.90 KCAL/MOL
REMARK 924 INTRA-LIGAND FREE ENERGY PREDICTED BY IDOCK:   -0.69 KCAL/MOL
REMARK 927      BINDING AFFINITY PREDICTED BY RF-SCORE:    0.00 PKD
ROOT
HETATM    1  O   UNL     1      -9.470  18.887  67.596  1.00  0.00    -0.294 OA 
HETATM    2  N   UNL     1      -9.053  18.142  66.695  1.00  0.00    -0.276 N  
HETATM    3  C   UNL     1      -9.736  16.877  66.537  1.00  0.00    -0.281 A  
HETATM    4  O   UNL     1      -8.104  18.387  65.941  1.00  0.00    -0.502 OA 
HETATM    5  C   UNL     1     -10.752  16.365  67.330  1.00  0.00    -0.278 A  
HETATM    6  N   UNL     1     -11.031  15.156  66.766  1.00  0.00    -0.321 NA 
HETATM    7  C   UNL     1     -12.049  14.204  67.145  1.00  0.00    -0.397 C  
HETATM    8  C   UNL     1     -11.896  12.839  66.448  1.00  0.00    -0.408 C  
HETATM    9  C   UNL     1     -10.688  12.761  65.493  1.00  0.00    -0.278 C  
HETATM   10  C   UNL     1     -10.246  15.011  65.662  1.00  0.00    -0.360 A  
HETATM   11  N   UNL     1      -9.439  16.024  65.490  1.00  0.00    -0.393 NA 
HETATM   12  O   UNL     1     -10.357  13.979  64.837  1.00  0.00    -0.404 OA 
ENDROOT
BRANCH   8  13
HETATM   13  O   UNL     1     -11.796  11.845  67.480  1.00  0.00    -0.552 OA 
BRANCH  13  14
HETATM   14  C   UNL     1     -11.791  12.360  68.811  1.00  0.00    -0.311 C  
BRANCH  14  15
HETATM   15  C   UNL     1     -11.691  11.194  69.757  1.00  0.00    -0.419 A  
HETATM   16  C   UNL     1     -10.572  10.359  69.743  1.00  0.00    -0.302 A  
HETATM   17  C   UNL     1     -10.503   9.268  70.609  1.00  0.00    -0.325 A  
HETATM   18  C   UNL     1     -11.538   8.994  71.511  1.00  0.00    -0.343 A  
HETATM   19  C   UNL     1     -12.725  10.924  70.667  1.00  0.00    -0.396 A  
HETATM   20  C   UNL     1     -12.659   9.820  71.525  1.00  0.00    -0.493 A  
BRANCH  18  21
HETATM   21  O   UNL     1     -11.321   7.890  72.275  1.00  0.00    -0.287 OA 
HETATM   22  C   UNL     1     -11.496   6.595  71.727  1.00  0.00    -0.291 C  
HETATM   23  F   UNL     1     -12.278   6.567  70.628  1.00  0.00    -0.433 F  
HETATM   24  F   UNL     1     -12.084   5.820  72.667  1.00  0.00    -0.333 F  
HETATM   25  F   UNL     1     -10.293   6.056  71.431  1.00  0.00    -0.222 F  
ENDBRANCH  18  21
ENDBRANCH  14  15
ENDBRANCH  13  14
ENDBRANCH   8  13
TORSDOF 4
ENDMDL
MODEL        6
REMARK 921   NORMALIZED FREE ENERGY PREDICTED BY IDOCK:   -7.41 KCAL/MOL
REMARK 922        TOTAL FREE ENERGY PREDICTED BY IDOCK:   -9.59 KCAL/MOL
REMARK 923 INTER-LIGAND FREE ENERGY PREDICTED BY IDOCK:   -8.98 KCAL/MOL
REMARK 924 INTRA-LIGAND FREE ENERGY PREDICTED BY IDOCK:   -0.61 KCAL/MOL
REMARK 927      BINDING AFFINITY PREDICTED BY RF-SCORE:    0.00 PKD
ROOT
HETATM    1  O   UNL     1     -11.528  11.791  63.555  1.00  0.00    -0.422 OA 
HETATM    2  N   UNL     1     -11.839  12.989  63.652  1.00  0.00    -0.502 N  
HETATM    3  C   UNL     1     -11.327  13.695  64.805  1.00  0.00    -0.354 A  
HETATM    4  O   UNL     1     -12.552  13.614  62.859  1.00  0.00    -0.621 OA 
HETATM    5  C   UNL     1     -10.596  13.168  65.859  1.00  0.00    -0.280 A  
HETATM    6  N   UNL     1     -10.376  14.237  66.674  1.00  0.00    -0.275 NA 
HETATM    7  C   UNL     1      -9.614  14.287  67.900  1.00  0.00    -0.221 C  
HETATM    8  C   UNL     1      -9.804  15.600  68.682  1.00  0.00    -0.210 C  
HETATM    9  C   UNL     1     -10.770  16.593  68.004  1.00  0.00    -0.350 C  
HETATM   10  C   UNL     1     -10.910  15.341  66.081  1.00  0.00    -0.320 A  
HETATM   11  N   UNL     1     -11.505  15.059  64.952  1.00  0.00    -0.400 NA 
HETATM   12  O   UNL     1     -10.770  16.561  66.582  1.00  0.00    -0.265 OA 
ENDROOT
BRANCH   8  13
HETATM   13  O   UNL     1     -10.272  15.250  69.994  1.00  0.00    -0.269 OA 
BRANCH  13  14
HETATM   14  C   UNL     1     -11.691  15.248  70.145  1.00  0.00    -0.312 C  
BRANCH  14  15
HETATM   15  C   UNL     1     -12.119  13.843  70.473  1.00  0.00    -0.426 A  
HETATM   16  C   UNL     1     -11.863  12.796  69.587  1.00  0.00    -0.384 A  
HETATM   17  C   UNL     1     -12.285  11.502  69.893  1.00  0.00    -0.328 A  
HETATM   18  C   UNL     1     -12.959  11.225  71.088  1.00  0.00    -0.272 A  
HETATM   19  C   UNL     1     -12.788  13.564  71.675  1.00  0.00    -0.419 A  
HETATM   20  C   UNL     1     -13.224  12.268  71.973  1.00  0.00    -0.508 A  
BRANCH  18  21
HETATM   21  O   UNL     1     -13.312   9.920  71.229  1.00  0.00    -0.383 OA 
HETATM   22  C   UNL     1     -12.469   9.022  71.929  1.00  0.00    -0.384 C  
HETATM   23  F   UNL     1     -11.188   9.435  72.023  1.00  0.00    -0.427 F  
HETATM   24  F   UNL     1     -12.470   7.843  71.265  1.00  0.00    -0.308 F  
HETATM   25  F   UNL     1     -12.958   8.806  73.169  1.00  0.00    -0.340 F  
ENDBRANCH  18  21
ENDBRANCH  14  15
ENDBRANCH  13  14
ENDBRANCH   8  13
TORSDOF 4
ENDMDL
MODEL        7
REMARK 921   NORMALIZED FREE ENERGY PREDICTED BY IDOCK:   -7.33 KCAL/MOL
REMARK 922        TOTAL FREE ENERGY PREDICTED BY IDOCK:   -9.49 KCAL/MOL
REMARK 923 INTER-LIGAND FREE ENERGY PREDICTED BY IDOCK:   -8.69 KCAL/MOL
REMARK 924 INTRA-LIGAND FREE ENERGY PREDICTED BY IDOCK:   -0.80 KCAL/MOL
REMARK 927      BINDING AFFINITY PREDICTED BY RF-SCORE:    0.00 PKD
ROOT
HETATM    1  O   UNL     1     -10.815  11.569  63.983  1.00  0.00    -0.340 OA 
HETATM    2  N   UNL     1     -11.506  12.590  63.837  1.00  0.00    -0.398 N  
HETATM    3  C   UNL     1     -10.987  13.807  64.420  1.00  0.00    -0.343 A  
HETATM    4  O   UNL     1     -12.594  12.645  63.253  1.00  0.00    -0.669 OA 
HETATM    5  C   UNL     1      -9.845  13.950  65.195  1.00  0.00    -0.101 A  
HETATM    6  N   UNL     1      -9.815  15.278  65.495  1.00  0.00    -0.342 NA 
HETATM    7  C   UNL     1      -8.811  16.007  66.235  1.00  0.00    -0.344 C  
HETATM    8  C   UNL     1      -9.244  17.440  66.599  1.00  0.00    -0.261 C  
HETATM    9  C   UNL     1     -10.658  17.806  66.106  1.00  0.00    -0.235 C  
HETATM   10  C   UNL     1     -10.865  15.879  64.869  1.00  0.00    -0.400 A  
HETATM   11  N   UNL     1     -11.608  15.026  64.215  1.00  0.00    -0.244 NA 
HETATM   12  O   UNL     1     -11.051  17.193  64.885  1.00  0.00    -0.737 OA 
ENDROOT
BRANCH   8  13
HETATM   13  O   UNL     1      -9.154  17.561  68.027  1.00  0.00    -0.255 OA 
BRANCH  13  14
HETATM   14  C   UNL     1      -8.816  16.354  68.711  1.00  0.00    -0.246 C  
BRANCH  14  15
HETATM   15  C   UNL     1     -10.083  15.779  69.284  1.00  0.00    -0.255 A  
HETATM   16  C   UNL     1     -10.961  16.580  70.017  1.00  0.00    -0.245 A  
HETATM   17  C   UNL     1     -12.120  16.029  70.563  1.00  0.00    -0.231 A  
HETATM   18  C   UNL     1     -12.433  14.677  70.381  1.00  0.00    -0.352 A  
HETATM   19  C   UNL     1     -10.402  14.425  69.095  1.00  0.00    -0.164 A  
HETATM   20  C   UNL     1     -11.558  13.872  69.656  1.00  0.00    -0.347 A  
BRANCH  18  21
HETATM   21  O   UNL     1     -13.590  14.296  70.986  1.00  0.00    -0.303 OA 
HETATM   22  C   UNL     1     -13.649  14.158  72.395  1.00  0.00    -0.532 C  
HETATM   23  F   UNL     1     -12.444  13.995  72.980  1.00  0.00    -0.306 F  
HETATM   24  F   UNL     1     -14.391  13.063  72.677  1.00  0.00    -0.548 F  
HETATM   25  F   UNL     1     -14.264  15.232  72.935  1.00  0.00    -0.488 F  
ENDBRANCH  18  21
ENDBRANCH  14  15
ENDBRANCH  13  14
ENDBRANCH   8  13
TORSDOF 4
ENDMDL
MODEL        8
REMARK 921   NORMALIZED FREE ENERGY PREDICTED BY IDOCK:   -7.32 KCAL/MOL
REMARK 922        TOTAL FREE ENERGY PREDICTED BY IDOCK:   -9.48 KCAL/MOL
REMARK 923 INTER-LIGAND FREE ENERGY PREDICTED BY IDOCK:   -8.83 KCAL/MOL
REMARK 924 INTRA-LIGAND FREE ENERGY PREDICTED BY IDOCK:   -0.65 KCAL/MOL
REMARK 927      BINDING AFFINITY PREDICTED BY RF-SCORE:    0.00 PKD
ROOT
HETATM    1  O   UNL     1      -9.370  19.048  67.899  1.00  0.00    -0.295 OA 
HETATM    2  N   UNL     1      -9.166  18.400  66.861  1.00  0.00    -0.278 N  
HETATM    3  C   UNL     1      -9.898  17.160  66.722  1.00  0.00    -0.285 A  
HETATM    4  O   UNL     1      -8.388  18.718  65.954  1.00  0.00    -0.490 OA 
HETATM    5  C   UNL     1     -10.740  16.571  67.653  1.00  0.00    -0.311 A  
HETATM    6  N   UNL     1     -11.160  15.429  67.041  1.00  0.00    -0.307 NA 
HETATM    7  C   UNL     1     -12.101  14.446  67.526  1.00  0.00    -0.292 C  
HETATM    8  C   UNL     1     -12.129  13.160  66.679  1.00  0.00    -0.346 C  
HETATM    9  C   UNL     1     -11.147  13.177  65.490  1.00  0.00    -0.278 C  
HETATM   10  C   UNL     1     -10.624  15.396  65.789  1.00  0.00    -0.348 A  
HETATM   11  N   UNL     1      -9.845  16.419  65.555  1.00  0.00    -0.533 NA 
HETATM   12  O   UNL     1     -10.928  14.455  64.906  1.00  0.00    -0.366 OA 
ENDROOT
BRANCH   8  13
HETATM   13  O   UNL     1     -11.842  12.064  67.562  1.00  0.00    -0.526 OA 
BRANCH  13  14
HETATM   14  C   UNL     1     -11.506  12.441  68.897  1.00  0.00    -0.307 C  
BRANCH  14  15
HETATM   15  C   UNL     1     -11.561  11.205  69.754  1.00  0.00    -0.409 A  
HETATM   16  C   UNL     1     -12.654  10.966  70.589  1.00  0.00    -0.435 A  
HETATM   17  C   UNL     1     -12.682   9.828  71.395  1.00  0.00    -0.483 A  
HETATM   18  C   UNL     1     -11.631   8.904  71.378  1.00  0.00    -0.312 A  
HETATM   19  C   UNL     1     -10.511  10.274  69.731  1.00  0.00    -0.300 A  
HETATM   20  C   UNL     1     -10.535   9.141  70.551  1.00  0.00    -0.289 A  
BRANCH  18  21
HETATM   21  O   UNL     1     -11.806   7.858  72.229  1.00  0.00    -0.319 OA 
HETATM   22  C   UNL     1     -11.914   6.537  71.727  1.00  0.00    -0.344 C  
HETATM   23  F   UNL     1     -12.267   6.473  70.426  1.00  0.00    -0.450 F  
HETATM   24  F   UNL     1     -12.867   5.895  72.441  1.00  0.00    -0.281 F  
HETATM   25  F   UNL     1     -10.746   5.883  71.904  1.00  0.00    -0.244 F  
ENDBRANCH  18  21
ENDBRANCH  14  15
ENDBRANCH  13  14
ENDBRANCH   8  13
TORSDOF 4
ENDMDL
MODEL        9
REMARK 921   NORMALIZED FREE ENERGY PREDICTED BY IDOCK:   -7.29 KCAL/MOL
REMARK 922        TOTAL FREE ENERGY PREDICTED BY IDOCK:   -9.43 KCAL/MOL
REMARK 923 INTER-LIGAND FREE ENERGY PREDICTED BY IDOCK:   -8.73 KCAL/MOL
REMARK 924 INTRA-LIGAND FREE ENERGY PREDICTED BY IDOCK:   -0.71 KCAL/MOL
REMARK 927      BINDING AFFINITY PREDICTED BY RF-SCORE:    0.00 PKD
ROOT
HETATM    1  O   UNL     1      -9.965  19.821  68.848  1.00  0.00    -0.441 OA 
HETATM    2  N   UNL     1      -9.830  19.619  67.630  1.00  0.00    -0.354 N  
HETATM    3  C   UNL     1     -10.229  18.315  67.147  1.00  0.00    -0.373 A  
HETATM    4  O   UNL     1      -9.377  20.427  66.812  1.00  0.00    -0.352 OA 
HETATM    5  C   UNL     1     -10.667  17.236  67.900  1.00  0.00    -0.351 A  
HETATM    6  N   UNL     1     -10.899  16.263  66.975  1.00  0.00    -0.236 NA 
HETATM    7  C   UNL     1     -11.425  14.935  67.186  1.00  0.00    -0.335 C  
HETATM    8  C   UNL     1     -11.303  14.027  65.947  1.00  0.00    -0.317 C  
HETATM    9  C   UNL     1     -10.641  14.715  64.736  1.00  0.00    -0.353 C  
HETATM   10  C   UNL     1     -10.658  16.784  65.740  1.00  0.00    -0.250 A  
HETATM   11  N   UNL     1     -10.240  18.021  65.796  1.00  0.00    -0.597 NA 
HETATM   12  O   UNL     1     -10.892  16.111  64.622  1.00  0.00    -0.650 OA 
ENDROOT
BRANCH   8  13
HETATM   13  O   UNL     1     -10.558  12.865  66.343  1.00  0.00    -0.266 OA 
BRANCH  13  14
HETATM   14  C   UNL     1     -11.299  11.645  66.330  1.00  0.00    -0.245 C  
BRANCH  14  15
HETATM   15  C   UNL     1     -11.190  11.024  67.697  1.00  0.00    -0.373 A  
HETATM   16  C   UNL     1     -10.521   9.812  67.877  1.00  0.00    -0.288 A  
HETATM   17  C   UNL     1     -10.447   9.236  69.145  1.00  0.00    -0.231 A  
HETATM   18  C   UNL     1     -11.027   9.858  70.257  1.00  0.00    -0.309 A  
HETATM   19  C   UNL     1     -11.763  11.652  68.813  1.00  0.00    -0.392 A  
HETATM   20  C   UNL     1     -11.701  11.065  70.082  1.00  0.00    -0.442 A  
BRANCH  18  21
HETATM   21  O   UNL     1     -10.876   9.162  71.415  1.00  0.00    -0.294 OA 
HETATM   22  C   UNL     1     -11.768   8.110  71.739  1.00  0.00    -0.296 C  
HETATM   23  F   UNL     1     -12.946   8.170  71.084  1.00  0.00    -0.291 F  
HETATM   24  F   UNL     1     -12.033   8.179  73.064  1.00  0.00    -0.433 F  
HETATM   25  F   UNL     1     -11.181   6.919  71.490  1.00  0.00    -0.256 F  
ENDBRANCH  18  21
ENDBRANCH  14  15
ENDBRANCH  13  14
ENDBRANCH   8  13
TORSDOF 4
ENDMDL
MODEL       10
REMARK 921   NORMALIZED FREE ENERGY PREDICTED BY IDOCK:   -7.14 KCAL/MOL
REMARK 922        TOTAL FREE ENERGY PREDICTED BY IDOCK:   -9.25 KCAL/MOL
REMARK 923 INTER-LIGAND FREE ENERGY PREDICTED BY IDOCK:   -8.68 KCAL/MOL
REMARK 924 INTRA-LIGAND FREE ENERGY PREDICTED BY IDOCK:   -0.57 KCAL/MOL
REMARK 927      BINDING AFFINITY PREDICTED BY RF-SCORE:    0.00 PKD
ROOT
HETATM    1  O   UNL     1      -8.954  18.320  67.988  1.00  0.00    -0.277 OA 
HETATM    2  N   UNL     1      -9.111  18.102  66.776  1.00  0.00    -0.275 N  
HETATM    3  C   UNL     1     -10.002  17.018  66.427  1.00  0.00    -0.307 A  
HETATM    4  O   UNL     1      -8.564  18.722  65.857  1.00  0.00    -0.478 OA 
HETATM    5  C   UNL     1     -10.637  16.139  67.292  1.00  0.00    -0.305 A  
HETATM    6  N   UNL     1     -11.341  15.316  66.465  1.00  0.00    -0.235 NA 
HETATM    7  C   UNL     1     -12.236  14.241  66.822  1.00  0.00    -0.352 C  
HETATM    8  C   UNL     1     -12.645  13.364  65.623  1.00  0.00    -0.438 C  
HETATM    9  C   UNL     1     -12.014  13.806  64.287  1.00  0.00    -0.443 C  
HETATM   10  C   UNL     1     -11.160  15.743  65.185  1.00  0.00    -0.324 A  
HETATM   11  N   UNL     1     -10.348  16.765  65.112  1.00  0.00    -0.637 NA 
HETATM   12  O   UNL     1     -11.799  15.206  64.154  1.00  0.00    -0.378 OA 
ENDROOT
BRANCH   8  13
HETATM   13  O   UNL     1     -12.275  12.013  65.939  1.00  0.00    -0.531 OA 
BRANCH  13  14
HETATM   14  C   UNL     1     -10.922  11.844  66.361  1.00  0.00    -0.292 C  
BRANCH  14  15
HETATM   15  C   UNL     1     -10.922  10.936  67.561  1.00  0.00    -0.352 A  
HETATM   16  C   UNL     1     -11.200  11.439  68.834  1.00  0.00    -0.310 A  
HETATM   17  C   UNL     1     -11.174  10.592  69.941  1.00  0.00    -0.374 A  
HETATM   18  C   UNL     1     -10.883   9.229  69.802  1.00  0.00    -0.224 A  
HETATM   19  C   UNL     1     -10.639   9.569  67.421  1.00  0.00    -0.337 A  
HETATM   20  C   UNL     1     -10.599   8.724  68.536  1.00  0.00    -0.171 A  
BRANCH  18  21
HETATM   21  O   UNL     1     -10.887   8.545  70.978  1.00  0.00    -0.226 OA 
HETATM   22  C   UNL     1     -12.111   8.133  71.562  1.00  0.00    -0.298 C  
HETATM   23  F   UNL     1     -13.184   8.827  71.129  1.00  0.00    -0.303 F  
HETATM   24  F   UNL     1     -12.018   8.316  72.899  1.00  0.00    -0.460 F  
HETATM   25  F   UNL     1     -12.309   6.817  71.331  1.00  0.00    -0.354 F  
ENDBRANCH  18  21
ENDBRANCH  14  15
ENDBRANCH  13  14
ENDBRANCH   8  13
TORSDOF 4
ENDMDL
MODEL       11
REMARK 921   NORMALIZED FREE ENERGY PREDICTED BY IDOCK:   -7.07 KCAL/MOL
REMARK 922        TOTAL FREE ENERGY PREDICTED BY IDOCK:   -9.16 KCAL/MOL
REMARK 923 INTER-LIGAND FREE ENERGY PREDICTED BY IDOCK:   -8.46 KCAL/MOL
REMARK 924 INTRA-LIGAND FREE ENERGY PREDICTED BY IDOCK:   -0.71 KCAL/MOL
REMARK 927      BINDING AFFINITY PREDICTED BY RF-SCORE:    0.00 PKD
ROOT
HETATM    1  O   UNL     1      -9.378  18.547  67.591  1.00  0.00    -0.277 OA 
HETATM    2  N   UNL     1      -8.976  17.827  66.663  1.00  0.00    -0.259 N  
HETATM    3  C   UNL     1      -9.701  16.595  66.444  1.00  0.00    -0.286 A  
HETATM    4  O   UNL     1      -8.012  18.071  65.929  1.00  0.00    -0.521 OA 
HETATM    5  C   UNL     1     -10.742  16.084  67.205  1.00  0.00    -0.283 A  
HETATM    6  N   UNL     1     -11.056  14.911  66.586  1.00  0.00    -0.327 NA 
HETATM    7  C   UNL     1     -12.110  13.980  66.914  1.00  0.00    -0.430 C  
HETATM    8  C   UNL     1     -11.996  12.642  66.160  1.00  0.00    -0.395 C  
HETATM    9  C   UNL     1     -10.782  12.562  65.214  1.00  0.00    -0.286 C  
HETATM   10  C   UNL     1     -10.265  14.787  65.485  1.00  0.00    -0.374 A  
HETATM   11  N   UNL     1      -9.421  15.778  65.364  1.00  0.00    -0.302 NA 
HETATM   12  O   UNL     1     -10.401  13.795  64.614  1.00  0.00    -0.426 OA 
ENDROOT
BRANCH   8  13
HETATM   13  O   UNL     1     -11.942  11.601  67.149  1.00  0.00    -0.614 OA 
BRANCH  13  14
HETATM   14  C   UNL     1     -11.894  12.060  68.500  1.00  0.00    -0.311 C  
BRANCH  14  15
HETATM   15  C   UNL     1     -11.620  10.871  69.381  1.00  0.00    -0.387 A  
HETATM   16  C   UNL     1     -10.739   9.869  68.970  1.00  0.00    -0.244 A  
HETATM   17  C   UNL     1     -10.511   8.760  69.786  1.00  0.00    -0.222 A  
HETATM   18  C   UNL     1     -11.146   8.635  71.028  1.00  0.00    -0.264 A  
HETATM   19  C   UNL     1     -12.249  10.748  70.629  1.00  0.00    -0.474 A  
HETATM   20  C   UNL     1     -12.031   9.629  71.440  1.00  0.00    -0.480 A  
BRANCH  18  21
HETATM   21  O   UNL     1     -10.826   7.493  71.694  1.00  0.00    -0.219 OA 
HETATM   22  C   UNL     1      -9.999   7.542  72.843  1.00  0.00    -0.249 C  
HETATM   23  F   UNL     1      -9.247   8.660  72.928  1.00  0.00    -0.311 F  
HETATM   24  F   UNL     1      -9.156   6.486  72.798  1.00  0.00    -0.137 F  
HETATM   25  F   UNL     1     -10.755   7.429  73.957  1.00  0.00    -0.377 F  
ENDBRANCH  18  21
ENDBRANCH  14  15
ENDBRANCH  13  14
ENDBRANCH   8  13
TORSDOF 4
ENDMDL
MODEL       12
REMARK 921   NORMALIZED FREE ENERGY PREDICTED BY IDOCK:   -7.02 KCAL/MOL
REMARK 922        TOTAL FREE ENERGY PREDICTED BY IDOCK:   -9.11 KCAL/MOL
REMARK 923 INTER-LIGAND FREE ENERGY PREDICTED BY IDOCK:   -8.46 KCAL/MOL
REMARK 924 INTRA-LIGAND FREE ENERGY PREDICTED BY IDOCK:   -0.65 KCAL/MOL
REMARK 927      BINDING AFFINITY PREDICTED BY RF-SCORE:    0.00 PKD
ROOT
HETATM    1  O   UNL     1     -14.096   8.567  72.385  1.00  0.00    -0.381 OA 
HETATM    2  N   UNL     1     -12.973   8.246  71.965  1.00  0.00    -0.334 N  
HETATM    3  C   UNL     1     -12.287   9.224  71.150  1.00  0.00    -0.293 A  
HETATM    4  O   UNL     1     -12.408   7.167  72.175  1.00  0.00    -0.273 OA 
HETATM    5  C   UNL     1     -12.774  10.447  70.715  1.00  0.00    -0.371 A  
HETATM    6  N   UNL     1     -11.750  10.966  69.981  1.00  0.00    -0.313 NA 
HETATM    7  C   UNL     1     -11.676  12.253  69.331  1.00  0.00    -0.330 C  
HETATM    8  C   UNL     1     -10.473  12.387  68.378  1.00  0.00    -0.235 C  
HETATM    9  C   UNL     1      -9.594  11.122  68.306  1.00  0.00    -0.185 C  
HETATM   10  C   UNL     1     -10.700  10.100  70.044  1.00  0.00    -0.305 A  
HETATM   11  N   UNL     1     -10.983   9.026  70.733  1.00  0.00    -0.241 NA 
HETATM   12  O   UNL     1      -9.516  10.372  69.512  1.00  0.00    -0.205 OA 
ENDROOT
BRANCH   8  13
HETATM   13  O   UNL     1     -10.993  12.721  67.082  1.00  0.00    -0.251 OA 
BRANCH  13  14
HETATM   14  C   UNL     1     -11.971  13.761  67.077  1.00  0.00    -0.413 C  
BRANCH  14  15
HETATM   15  C   UNL     1     -11.253  15.070  67.261  1.00  0.00    -0.339 A  
HETATM   16  C   UNL     1     -11.424  15.818  68.427  1.00  0.00    -0.367 A  
HETATM   17  C   UNL     1     -10.771  17.042  68.575  1.00  0.00    -0.352 A  
HETATM   18  C   UNL     1      -9.928  17.537  67.573  1.00  0.00    -0.315 A  
HETATM   19  C   UNL     1     -10.401  15.563  66.260  1.00  0.00    -0.312 A  
HETATM   20  C   UNL     1      -9.759  16.798  66.405  1.00  0.00    -0.309 A  
BRANCH  18  21
HETATM   21  O   UNL     1      -9.379  18.746  67.867  1.00  0.00    -0.288 OA 
HETATM   22  C   UNL     1     -10.159  19.926  67.786  1.00  0.00    -0.429 C  
HETATM   23  F   UNL     1     -11.255  19.805  67.009  1.00  0.00    -0.549 F  
HETATM   24  F   UNL     1      -9.387  20.902  67.254  1.00  0.00    -0.532 F  
HETATM   25  F   UNL     1     -10.532  20.315  69.024  1.00  0.00    -0.536 F  
ENDBRANCH  18  21
ENDBRANCH  14  15
ENDBRANCH  13  14
ENDBRANCH   8  13
TORSDOF 4
ENDMDL
MODEL       13
REMARK 921   NORMALIZED FREE ENERGY PREDICTED BY IDOCK:   -6.94 KCAL/MOL
REMARK 922        TOTAL FREE ENERGY PREDICTED BY IDOCK:   -9.01 KCAL/MOL
REMARK 923 INTER-LIGAND FREE ENERGY PREDICTED BY IDOCK:   -8.13 KCAL/MOL
REMARK 924 INTRA-LIGAND FREE ENERGY PREDICTED BY IDOCK:   -0.88 KCAL/MOL
REMARK 927      BINDING AFFINITY PREDICTED BY RF-SCORE:    0.00 PKD
ROOT
HETATM    1  O   UNL     1     -14.409  15.770  72.695  1.00  0.00    -0.507 OA 
HETATM    2  N   UNL     1     -13.172  15.842  72.776  1.00  0.00    -0.499 N  
HETATM    3  C   UNL     1     -12.430  15.544  71.571  1.00  0.00    -0.410 A  
HETATM    4  O   UNL     1     -12.533  16.132  73.793  1.00  0.00    -0.501 OA 
HETATM    5  C   UNL     1     -12.937  15.106  70.356  1.00  0.00    -0.256 A  
HETATM    6  N   UNL     1     -11.833  14.967  69.570  1.00  0.00    -0.308 NA 
HETATM    7  C   UNL     1     -11.767  14.590  68.178  1.00  0.00    -0.337 C  
HETATM    8  C   UNL     1     -10.336  14.282  67.698  1.00  0.00    -0.248 C  
HETATM    9  C   UNL     1      -9.265  14.433  68.797  1.00  0.00    -0.144 C  
HETATM   10  C   UNL     1     -10.747  15.365  70.289  1.00  0.00    -0.298 A  
HETATM   11  N   UNL     1     -11.059  15.713  71.509  1.00  0.00    -0.274 NA 
HETATM   12  O   UNL     1      -9.531  15.442  69.764  1.00  0.00    -0.260 OA 
ENDROOT
BRANCH   8  13
HETATM   13  O   UNL     1     -10.343  12.945  67.173  1.00  0.00    -0.236 OA 
BRANCH  13  14
HETATM   14  C   UNL     1     -11.580  12.250  67.319  1.00  0.00    -0.357 C  
BRANCH  14  15
HETATM   15  C   UNL     1     -11.367  11.129  68.301  1.00  0.00    -0.365 A  
HETATM   16  C   UNL     1     -10.706   9.962  67.916  1.00  0.00    -0.316 A  
HETATM   17  C   UNL     1     -10.535   8.921  68.830  1.00  0.00    -0.223 A  
HETATM   18  C   UNL     1     -11.008   9.028  70.143  1.00  0.00    -0.233 A  
HETATM   19  C   UNL     1     -11.834  11.239  69.620  1.00  0.00    -0.430 A  
HETATM   20  C   UNL     1     -11.675  10.188  70.530  1.00  0.00    -0.407 A  
BRANCH  18  21
HETATM   21  O   UNL     1     -10.772   7.924  70.902  1.00  0.00    -0.216 OA 
HETATM   22  C   UNL     1     -11.694   6.848  70.905  1.00  0.00    -0.361 C  
HETATM   23  F   UNL     1     -12.934   7.188  70.497  1.00  0.00    -0.236 F  
HETATM   24  F   UNL     1     -11.794   6.387  72.174  1.00  0.00    -0.319 F  
HETATM   25  F   UNL     1     -11.229   5.844  70.130  1.00  0.00    -0.387 F  
ENDBRANCH  18  21
ENDBRANCH  14  15
ENDBRANCH  13  14
ENDBRANCH   8  13
TORSDOF 4
ENDMDL
MODEL       14
REMARK 921   NORMALIZED FREE ENERGY PREDICTED BY IDOCK:   -6.89 KCAL/MOL
REMARK 922        TOTAL FREE ENERGY PREDICTED BY IDOCK:   -8.94 KCAL/MOL
REMARK 923 INTER-LIGAND FREE ENERGY PREDICTED BY IDOCK:   -8.31 KCAL/MOL
REMARK 924 INTRA-LIGAND FREE ENERGY PREDICTED BY IDOCK:   -0.63 KCAL/MOL
REMARK 927      BINDING AFFINITY PREDICTED BY RF-SCORE:    0.00 PKD
ROOT
HETATM    1  O   UNL     1      -7.811  18.724  67.763  1.00  0.00    -0.238 OA 
HETATM    2  N   UNL     1      -8.172  18.303  66.652  1.00  0.00    -0.254 N  
HETATM    3  C   UNL     1      -9.201  17.287  66.653  1.00  0.00    -0.257 A  
HETATM    4  O   UNL     1      -7.720  18.670  65.562  1.00  0.00    -0.457 OA 
HETATM    5  C   UNL     1      -9.773  16.668  67.754  1.00  0.00    -0.240 A  
HETATM    6  N   UNL     1     -10.667  15.794  67.213  1.00  0.00    -0.315 NA 
HETATM    7  C   UNL     1     -11.590  14.919  67.897  1.00  0.00    -0.344 C  
HETATM    8  C   UNL     1     -12.256  13.889  66.966  1.00  0.00    -0.355 C  
HETATM    9  C   UNL     1     -11.801  13.994  65.496  1.00  0.00    -0.365 C  
HETATM   10  C   UNL     1     -10.647  15.949  65.861  1.00  0.00    -0.337 A  
HETATM   11  N   UNL     1      -9.767  16.835  65.475  1.00  0.00    -0.515 NA 
HETATM   12  O   UNL     1     -11.483  15.308  65.055  1.00  0.00    -0.353 OA 
ENDROOT
BRANCH   8  13
HETATM   13  O   UNL     1     -11.966  12.587  67.498  1.00  0.00    -0.438 OA 
BRANCH  13  14
HETATM   14  C   UNL     1     -11.901  12.521  68.922  1.00  0.00    -0.301 C  
BRANCH  14  15
HETATM   15  C   UNL     1     -11.464  11.132  69.301  1.00  0.00    -0.363 A  
HETATM   16  C   UNL     1     -10.979  10.250  68.334  1.00  0.00    -0.308 A  
HETATM   17  C   UNL     1     -10.599   8.957  68.694  1.00  0.00    -0.182 A  
HETATM   18  C   UNL     1     -10.683   8.523  70.023  1.00  0.00    -0.232 A  
HETATM   19  C   UNL     1     -11.540  10.699  70.634  1.00  0.00    -0.432 A  
HETATM   20  C   UNL     1     -11.172   9.397  70.991  1.00  0.00    -0.412 A  
BRANCH  18  21
HETATM   21  O   UNL     1     -10.286   7.235  70.205  1.00  0.00    -0.198 OA 
HETATM   22  C   UNL     1     -11.243   6.192  70.266  1.00  0.00    -0.369 C  
HETATM   23  F   UNL     1     -12.489   6.611  70.573  1.00  0.00    -0.431 F  
HETATM   24  F   UNL     1     -10.855   5.325  71.229  1.00  0.00    -0.298 F  
HETATM   25  F   UNL     1     -11.274   5.528  69.091  1.00  0.00    -0.313 F  
ENDBRANCH  18  21
ENDBRANCH  14  15
ENDBRANCH  13  14
ENDBRANCH   8  13
TORSDOF 4
ENDMDL
MODEL       15
REMARK 921   NORMALIZED FREE ENERGY PREDICTED BY IDOCK:   -6.85 KCAL/MOL
REMARK 922        TOTAL FREE ENERGY PREDICTED BY IDOCK:   -8.90 KCAL/MOL
REMARK 923 INTER-LIGAND FREE ENERGY PREDICTED BY IDOCK:   -7.83 KCAL/MOL
REMARK 924 INTRA-LIGAND FREE ENERGY PREDICTED BY IDOCK:   -1.08 KCAL/MOL
REMARK 927      BINDING AFFINITY PREDICTED BY RF-SCORE:    0.00 PKD
ROOT
HETATM    1  O   UNL     1      -9.094   8.976  71.035  1.00  0.00    -0.222 OA 
HETATM    2  N   UNL     1      -9.967   8.810  70.170  1.00  0.00    -0.180 N  
HETATM    3  C   UNL     1      -9.990   9.767  69.086  1.00  0.00    -0.189 A  
HETATM    4  O   UNL     1     -10.816   7.910  70.167  1.00  0.00    -0.243 OA 
HETATM    5  C   UNL     1      -9.201  10.899  68.945  1.00  0.00    -0.160 A  
HETATM    6  N   UNL     1      -9.624  11.451  67.774  1.00  0.00    -0.169 NA 
HETATM    7  C   UNL     1      -9.112  12.621  67.099  1.00  0.00    -0.210 C  
HETATM    8  C   UNL     1     -10.006  13.093  65.937  1.00  0.00    -0.269 C  
HETATM    9  C   UNL     1     -11.266  12.229  65.731  1.00  0.00    -0.337 C  
HETATM   10  C   UNL     1     -10.575  10.636  67.239  1.00  0.00    -0.263 A  
HETATM   11  N   UNL     1     -10.837   9.609  68.004  1.00  0.00    -0.228 NA 
HETATM   12  O   UNL     1     -11.110  10.850  66.044  1.00  0.00    -0.082 OA 
ENDROOT
BRANCH   8  13
HETATM   13  O   UNL     1     -10.362  14.458  66.204  1.00  0.00    -0.280 OA 
BRANCH  13  14
HETATM   14  C   UNL     1     -11.708  14.653  66.639  1.00  0.00    -0.333 C  
BRANCH  14  15
HETATM   15  C   UNL     1     -11.686  14.861  68.129  1.00  0.00    -0.344 A  
HETATM   16  C   UNL     1     -11.304  16.090  68.671  1.00  0.00    -0.383 A  
HETATM   17  C   UNL     1     -11.265  16.262  70.055  1.00  0.00    -0.324 A  
HETATM   18  C   UNL     1     -11.617  15.221  70.922  1.00  0.00    -0.343 A  
HETATM   19  C   UNL     1     -12.046  13.821  68.999  1.00  0.00    -0.359 A  
HETATM   20  C   UNL     1     -11.993  13.991  70.387  1.00  0.00    -0.398 A  
BRANCH  18  21
HETATM   21  O   UNL     1     -11.515  15.547  72.239  1.00  0.00    -0.433 OA 
HETATM   22  C   UNL     1     -12.680  15.778  73.011  1.00  0.00    -0.491 C  
HETATM   23  F   UNL     1     -13.772  16.079  72.277  1.00  0.00    -0.519 F  
HETATM   24  F   UNL     1     -12.438  16.826  73.831  1.00  0.00    -0.496 F  
HETATM   25  F   UNL     1     -12.944  14.698  73.777  1.00  0.00    -0.571 F  
ENDBRANCH  18  21
ENDBRANCH  14  15
ENDBRANCH  13  14
ENDBRANCH   8  13
TORSDOF 4
ENDMDL
MODEL       16
REMARK 921   NORMALIZED FREE ENERGY PREDICTED BY IDOCK:   -6.82 KCAL/MOL
REMARK 922        TOTAL FREE ENERGY PREDICTED BY IDOCK:   -8.87 KCAL/MOL
REMARK 923 INTER-LIGAND FREE ENERGY PREDICTED BY IDOCK:   -8.28 KCAL/MOL
REMARK 924 INTRA-LIGAND FREE ENERGY PREDICTED BY IDOCK:   -0.58 KCAL/MOL
REMARK 927      BINDING AFFINITY PREDICTED BY RF-SCORE:    0.00 PKD
ROOT
HETATM    1  O   UNL     1     -10.646  20.071  65.395  1.00  0.00    -0.382 OA 
HETATM    2  N   UNL     1     -10.209  19.919  66.547  1.00  0.00    -0.464 N  
HETATM    3  C   UNL     1     -10.242  18.574  67.076  1.00  0.00    -0.380 A  
HETATM    4  O   UNL     1      -9.764  20.817  67.272  1.00  0.00    -0.479 OA 
HETATM    5  C   UNL     1     -10.783  17.447  66.477  1.00  0.00    -0.086 A  
HETATM    6  N   UNL     1     -10.567  16.455  67.385  1.00  0.00    -0.317 NA 
HETATM    7  C   UNL     1     -10.874  15.049  67.267  1.00  0.00    -0.310 C  
HETATM    8  C   UNL     1     -10.728  14.280  68.594  1.00  0.00    -0.249 C  
HETATM    9  C   UNL     1     -10.288  15.163  69.779  1.00  0.00    -0.210 C  
HETATM   10  C   UNL     1      -9.879  16.983  68.435  1.00  0.00    -0.283 A  
HETATM   11  N   UNL     1      -9.669  18.266  68.297  1.00  0.00    -0.318 NA 
HETATM   12  O   UNL     1      -9.428  16.244  69.440  1.00  0.00    -0.241 OA 
ENDROOT
BRANCH   8  13
HETATM   13  O   UNL     1     -11.992  13.655  68.864  1.00  0.00    -0.340 OA 
BRANCH  13  14
HETATM   14  C   UNL     1     -12.377  13.650  70.239  1.00  0.00    -0.322 C  
BRANCH  14  15
HETATM   15  C   UNL     1     -12.317  12.229  70.730  1.00  0.00    -0.383 A  
HETATM   16  C   UNL     1     -11.501  11.290  70.095  1.00  0.00    -0.336 A  
HETATM   17  C   UNL     1     -11.472   9.971  70.546  1.00  0.00    -0.407 A  
HETATM   18  C   UNL     1     -12.243   9.564  71.641  1.00  0.00    -0.398 A  
HETATM   19  C   UNL     1     -13.083  11.823  71.833  1.00  0.00    -0.482 A  
HETATM   20  C   UNL     1     -13.063  10.495  72.275  1.00  0.00    -0.242 A  
BRANCH  18  21
HETATM   21  O   UNL     1     -12.110   8.245  71.946  1.00  0.00    -0.295 OA 
HETATM   22  C   UNL     1     -12.959   7.283  71.344  1.00  0.00    -0.373 C  
HETATM   23  F   UNL     1     -14.106   7.796  70.853  1.00  0.00    -0.298 F  
HETATM   24  F   UNL     1     -13.290   6.370  72.286  1.00  0.00    -0.248 F  
HETATM   25  F   UNL     1     -12.298   6.644  70.355  1.00  0.00    -0.441 F  
ENDBRANCH  18  21
ENDBRANCH  14  15
ENDBRANCH  13  14
ENDBRANCH   8  13
TORSDOF 4
ENDMDL
MODEL       17
REMARK 921   NORMALIZED FREE ENERGY PREDICTED BY IDOCK:   -6.81 KCAL/MOL
REMARK 922        TOTAL FREE ENERGY PREDICTED BY IDOCK:   -8.84 KCAL/MOL
REMARK 923 INTER-LIGAND FREE ENERGY PREDICTED BY IDOCK:   -8.16 KCAL/MOL
REMARK 924 INTRA-LIGAND FREE ENERGY PREDICTED BY IDOCK:   -0.69 KCAL/MOL
REMARK 927      BINDING AFFINITY PREDICTED BY RF-SCORE:    0.00 PKD
ROOT
HETATM    1  O   UNL     1     -10.038   6.338  71.498  1.00  0.00    -0.187 OA 
HETATM    2  N   UNL     1     -10.613   7.244  72.122  1.00  0.00    -0.206 N  
HETATM    3  C   UNL     1     -10.990   8.412  71.358  1.00  0.00    -0.253 A  
HETATM    4  O   UNL     1     -10.874   7.232  73.330  1.00  0.00    -0.374 OA 
HETATM    5  C   UNL     1     -10.710   8.673  70.025  1.00  0.00    -0.228 A  
HETATM    6  N   UNL     1     -11.272   9.894  69.803  1.00  0.00    -0.248 NA 
HETATM    7  C   UNL     1     -11.338  10.639  68.568  1.00  0.00    -0.284 C  
HETATM    8  C   UNL     1     -11.815  12.092  68.757  1.00  0.00    -0.302 C  
HETATM    9  C   UNL     1     -12.120  12.459  70.223  1.00  0.00    -0.297 C  
HETATM   10  C   UNL     1     -11.896  10.288  70.948  1.00  0.00    -0.377 A  
HETATM   11  N   UNL     1     -11.744   9.427  71.919  1.00  0.00    -0.363 NA 
HETATM   12  O   UNL     1     -12.624  11.395  71.021  1.00  0.00    -0.389 OA 
ENDROOT
BRANCH   8  13
HETATM   13  O   UNL     1     -10.795  12.947  68.219  1.00  0.00    -0.225 OA 
BRANCH  13  14
HETATM   14  C   UNL     1     -11.171  13.663  67.043  1.00  0.00    -0.312 C  
BRANCH  14  15
HETATM   15  C   UNL     1     -10.641  15.066  67.166  1.00  0.00    -0.295 A  
HETATM   16  C   UNL     1     -10.635  15.718  68.401  1.00  0.00    -0.264 A  
HETATM   17  C   UNL     1     -10.162  17.027  68.498  1.00  0.00    -0.324 A  
HETATM   18  C   UNL     1      -9.679  17.706  67.373  1.00  0.00    -0.283 A  
HETATM   19  C   UNL     1     -10.148  15.744  66.041  1.00  0.00    -0.359 A  
HETATM   20  C   UNL     1      -9.688  17.062  66.138  1.00  0.00    -0.283 A  
BRANCH  18  21
HETATM   21  O   UNL     1      -9.267  18.975  67.634  1.00  0.00    -0.289 OA 
HETATM   22  C   UNL     1     -10.211  20.027  67.735  1.00  0.00    -0.409 C  
HETATM   23  F   UNL     1     -11.391  19.763  67.137  1.00  0.00    -0.490 F  
HETATM   24  F   UNL     1      -9.685  21.120  67.135  1.00  0.00    -0.583 F  
HETATM   25  F   UNL     1     -10.428  20.326  69.034  1.00  0.00    -0.536 F  
ENDBRANCH  18  21
ENDBRANCH  14  15
ENDBRANCH  13  14
ENDBRANCH   8  13
TORSDOF 4
ENDMDL
MODEL       18
REMARK 921   NORMALIZED FREE ENERGY PREDICTED BY IDOCK:   -6.79 KCAL/MOL
REMARK 922        TOTAL FREE ENERGY PREDICTED BY IDOCK:   -8.82 KCAL/MOL
REMARK 923 INTER-LIGAND FREE ENERGY PREDICTED BY IDOCK:   -8.26 KCAL/MOL
REMARK 924 INTRA-LIGAND FREE ENERGY PREDICTED BY IDOCK:   -0.56 KCAL/MOL
REMARK 927      BINDING AFFINITY PREDICTED BY RF-SCORE:    0.00 PKD
ROOT
HETATM    1  O   UNL     1     -10.590  17.646  65.516  1.00  0.00    -0.622 OA 
HETATM    2  N   UNL     1     -11.025  16.631  64.948  1.00  0.00    -0.274 N  
HETATM    3  C   UNL     1     -11.090  15.426  65.745  1.00  0.00    -0.260 A  
HETATM    4  O   UNL     1     -11.389  16.567  63.769  1.00  0.00    -0.966 OA 
HETATM    5  C   UNL     1     -10.645  15.252  67.047  1.00  0.00    -0.306 A  
HETATM    6  N   UNL     1     -10.927  13.947  67.319  1.00  0.00    -0.286 NA 
HETATM    7  C   UNL     1     -10.732  13.228  68.556  1.00  0.00    -0.262 C  
HETATM    8  C   UNL     1     -10.923  11.706  68.412  1.00  0.00    -0.220 C  
HETATM    9  C   UNL     1     -11.278  11.257  66.981  1.00  0.00    -0.255 C  
HETATM   10  C   UNL     1     -11.560  13.415  66.237  1.00  0.00    -0.344 A  
HETATM   11  N   UNL     1     -11.671  14.270  65.255  1.00  0.00    -0.345 NA 
HETATM   12  O   UNL     1     -12.055  12.184  66.232  1.00  0.00    -0.626 OA 
ENDROOT
BRANCH   8  13
HETATM   13  O   UNL     1      -9.708  11.082  68.855  1.00  0.00    -0.197 OA 
BRANCH  13  14
HETATM   14  C   UNL     1      -9.515   9.746  68.391  1.00  0.00    -0.140 C  
BRANCH  14  15
HETATM   15  C   UNL     1     -10.158   8.815  69.383  1.00  0.00    -0.203 A  
HETATM   16  C   UNL     1     -10.319   9.197  70.716  1.00  0.00    -0.323 A  
HETATM   17  C   UNL     1     -10.895   8.315  71.631  1.00  0.00    -0.320 A  
HETATM   18  C   UNL     1     -11.330   7.045  71.235  1.00  0.00    -0.274 A  
HETATM   19  C   UNL     1     -10.602   7.545  68.985  1.00  0.00    -0.190 A  
HETATM   20  C   UNL     1     -11.166   6.657  69.907  1.00  0.00    -0.421 A  
BRANCH  18  21
HETATM   21  O   UNL     1     -11.857   6.306  72.248  1.00  0.00    -0.311 OA 
HETATM   22  C   UNL     1     -11.041   5.401  72.973  1.00  0.00    -0.313 C  
HETATM   23  F   UNL     1      -9.921   5.030  72.319  1.00  0.00    -0.188 F  
HETATM   24  F   UNL     1     -11.765   4.283  73.208  1.00  0.00    -0.341 F  
HETATM   25  F   UNL     1     -10.704   5.941  74.164  1.00  0.00    -0.267 F  
ENDBRANCH  18  21
ENDBRANCH  14  15
ENDBRANCH  13  14
ENDBRANCH   8  13
TORSDOF 4
ENDMDL
MODEL       19
REMARK 921   NORMALIZED FREE ENERGY PREDICTED BY IDOCK:   -6.78 KCAL/MOL
REMARK 922        TOTAL FREE ENERGY PREDICTED BY IDOCK:   -8.82 KCAL/MOL
REMARK 923 INTER-LIGAND FREE ENERGY PREDICTED BY IDOCK:   -8.17 KCAL/MOL
REMARK 924 INTRA-LIGAND FREE ENERGY PREDICTED BY IDOCK:   -0.64 KCAL/MOL
REMARK 927      BINDING AFFINITY PREDICTED BY RF-SCORE:    0.00 PKD
ROOT
HETATM    1  O   UNL     1      -9.588   4.592  66.793  1.00  0.00    -0.152 OA 
HETATM    2  N   UNL     1      -8.850   5.113  67.644  1.00  0.00    -0.106 N  
HETATM    3  C   UNL     1      -9.508   5.736  68.772  1.00  0.00    -0.124 A  
HETATM    4  O   UNL     1      -7.615   5.151  67.600  1.00  0.00    -0.085 OA 
HETATM    5  C   UNL     1     -10.871   5.892  68.970  1.00  0.00    -0.313 A  
HETATM    6  N   UNL     1     -10.957   6.543  70.164  1.00  0.00    -0.287 NA 
HETATM    7  C   UNL     1     -12.144   6.918  70.896  1.00  0.00    -0.373 C  
HETATM    8  C   UNL     1     -11.859   7.869  72.073  1.00  0.00    -0.318 C  
HETATM    9  C   UNL     1     -10.369   8.233  72.231  1.00  0.00    -0.316 C  
HETATM   10  C   UNL     1      -9.697   6.700  70.654  1.00  0.00    -0.172 A  
HETATM   11  N   UNL     1      -8.785   6.236  69.840  1.00  0.00    -0.139 NA 
HETATM   12  O   UNL     1      -9.454   7.210  71.854  1.00  0.00    -0.147 OA 
ENDROOT
BRANCH   8  13
HETATM   13  O   UNL     1     -12.653   9.048  71.868  1.00  0.00    -0.331 OA 
BRANCH  13  14
HETATM   14  C   UNL     1     -12.316   9.803  70.705  1.00  0.00    -0.168 C  
BRANCH  14  15
HETATM   15  C   UNL     1     -12.547  11.257  71.016  1.00  0.00    -0.495 A  
HETATM   16  C   UNL     1     -13.391  11.636  72.062  1.00  0.00    -0.405 A  
HETATM   17  C   UNL     1     -13.615  12.988  72.325  1.00  0.00    -0.643 A  
HETATM   18  C   UNL     1     -12.996  13.985  71.561  1.00  0.00    -0.351 A  
HETATM   19  C   UNL     1     -11.921  12.257  70.256  1.00  0.00    -0.373 A  
HETATM   20  C   UNL     1     -12.158  13.612  70.512  1.00  0.00    -0.411 A  
BRANCH  18  21
HETATM   21  O   UNL     1     -13.327  15.249  71.938  1.00  0.00    -0.364 OA 
HETATM   22  C   UNL     1     -12.657  15.872  73.020  1.00  0.00    -0.501 C  
HETATM   23  F   UNL     1     -12.050  15.007  73.859  1.00  0.00    -0.551 F  
HETATM   24  F   UNL     1     -13.573  16.562  73.738  1.00  0.00    -0.473 F  
HETATM   25  F   UNL     1     -11.745  16.749  72.550  1.00  0.00    -0.574 F  
ENDBRANCH  18  21
ENDBRANCH  14  15
ENDBRANCH  13  14
ENDBRANCH   8  13
TORSDOF 4
ENDMDL
MODEL       20
REMARK 921   NORMALIZED FREE ENERGY PREDICTED BY IDOCK:   -6.76 KCAL/MOL
REMARK 922        TOTAL FREE ENERGY PREDICTED BY IDOCK:   -8.79 KCAL/MOL
REMARK 923 INTER-LIGAND FREE ENERGY PREDICTED BY IDOCK:   -8.43 KCAL/MOL
REMARK 924 INTRA-LIGAND FREE ENERGY PREDICTED BY IDOCK:   -0.36 KCAL/MOL
REMARK 927      BINDING AFFINITY PREDICTED BY RF-SCORE:    0.00 PKD
ROOT
HETATM    1  O   UNL     1     -13.084   8.456  71.206  1.00  0.00    -0.259 OA 
HETATM    2  N   UNL     1     -13.422   9.362  71.985  1.00  0.00    -0.424 N  
HETATM    3  C   UNL     1     -13.085  10.711  71.587  1.00  0.00    -0.450 A  
HETATM    4  O   UNL     1     -14.004   9.203  73.063  1.00  0.00    -0.365 OA 
HETATM    5  C   UNL     1     -12.355  11.104  70.476  1.00  0.00    -0.364 A  
HETATM    6  N   UNL     1     -12.317  12.463  70.571  1.00  0.00    -0.306 NA 
HETATM    7  C   UNL     1     -11.733  13.409  69.650  1.00  0.00    -0.310 C  
HETATM    8  C   UNL     1     -11.651  14.839  70.216  1.00  0.00    -0.282 C  
HETATM    9  C   UNL     1     -12.202  14.972  71.651  1.00  0.00    -0.347 C  
HETATM   10  C   UNL     1     -13.045  12.833  71.661  1.00  0.00    -0.331 A  
HETATM   11  N   UNL     1     -13.520  11.805  72.313  1.00  0.00    -0.275 NA 
HETATM   12  O   UNL     1     -13.282  14.102  71.966  1.00  0.00    -0.347 OA 
ENDROOT
BRANCH   8  13
HETATM   13  O   UNL     1     -10.273  15.240  70.160  1.00  0.00    -0.253 OA 
BRANCH  13  14
HETATM   14  C   UNL     1      -9.956  16.153  69.110  1.00  0.00    -0.251 C  
BRANCH  14  15
HETATM   15  C   UNL     1     -10.036  15.403  67.807  1.00  0.00    -0.227 A  
HETATM   16  C   UNL     1     -10.892  15.832  66.791  1.00  0.00    -0.254 A  
HETATM   17  C   UNL     1     -10.974  15.115  65.597  1.00  0.00    -0.359 A  
HETATM   18  C   UNL     1     -10.200  13.968  65.388  1.00  0.00    -0.347 A  
HETATM   19  C   UNL     1      -9.254  14.258  67.594  1.00  0.00    -0.194 A  
HETATM   20  C   UNL     1      -9.349  13.532  66.401  1.00  0.00    -0.191 A  
BRANCH  18  21
HETATM   21  O   UNL     1     -10.406  13.381  64.179  1.00  0.00    -0.380 OA 
HETATM   22  C   UNL     1     -11.608  12.675  63.921  1.00  0.00    -0.451 C  
HETATM   23  F   UNL     1     -12.258  12.277  65.034  1.00  0.00    -0.440 F  
HETATM   24  F   UNL     1     -11.298  11.567  63.211  1.00  0.00    -0.459 F  
HETATM   25  F   UNL     1     -12.434  13.437  63.171  1.00  0.00    -0.565 F  
ENDBRANCH  18  21
ENDBRANCH  14  15
ENDBRANCH  13  14
ENDBRANCH   8  13
TORSDOF 4
ENDMDL
MODEL       21
REMARK 921   NORMALIZED FREE ENERGY PREDICTED BY IDOCK:   -6.74 KCAL/MOL
REMARK 922        TOTAL FREE ENERGY PREDICTED BY IDOCK:   -8.76 KCAL/MOL
REMARK 923 INTER-LIGAND FREE ENERGY PREDICTED BY IDOCK:   -8.13 KCAL/MOL
REMARK 924 INTRA-LIGAND FREE ENERGY PREDICTED BY IDOCK:   -0.64 KCAL/MOL
REMARK 927      BINDING AFFINITY PREDICTED BY RF-SCORE:    0.00 PKD
ROOT
HETATM    1  O   UNL     1      -8.899  20.558  67.158  1.00  0.00    -0.344 OA 
HETATM    2  N   UNL     1      -8.559  19.661  66.369  1.00  0.00    -0.349 N  
HETATM    3  C   UNL     1      -9.187  18.371  66.554  1.00  0.00    -0.296 A  
HETATM    4  O   UNL     1      -7.730  19.779  65.460  1.00  0.00    -0.392 OA 
HETATM    5  C   UNL     1     -10.063  17.997  67.561  1.00  0.00    -0.351 A  
HETATM    6  N   UNL     1     -10.345  16.693  67.284  1.00  0.00    -0.295 NA 
HETATM    7  C   UNL     1     -11.252  15.807  67.975  1.00  0.00    -0.338 C  
HETATM    8  C   UNL     1     -11.114  14.335  67.541  1.00  0.00    -0.298 C  
HETATM    9  C   UNL     1     -10.036  14.104  66.464  1.00  0.00    -0.283 C  
HETATM   10  C   UNL     1      -9.701  16.355  66.133  1.00  0.00    -0.327 A  
HETATM   11  N   UNL     1      -8.979  17.336  65.660  1.00  0.00    -0.326 NA 
HETATM   12  O   UNL     1      -9.858  15.176  65.546  1.00  0.00    -0.338 OA 
ENDROOT
BRANCH   8  13
HETATM   13  O   UNL     1     -10.829  13.570  68.721  1.00  0.00    -0.248 OA 
BRANCH  13  14
HETATM   14  C   UNL     1     -11.964  13.278  69.536  1.00  0.00    -0.307 C  
BRANCH  14  15
HETATM   15  C   UNL     1     -11.814  11.871  70.050  1.00  0.00    -0.407 A  
HETATM   16  C   UNL     1     -10.938  10.977  69.432  1.00  0.00    -0.301 A  
HETATM   17  C   UNL     1     -10.826   9.669  69.903  1.00  0.00    -0.287 A  
HETATM   18  C   UNL     1     -11.573   9.231  71.003  1.00  0.00    -0.313 A  
HETATM   19  C   UNL     1     -12.557  11.434  71.157  1.00  0.00    -0.490 A  
HETATM   20  C   UNL     1     -12.454  10.117  71.619  1.00  0.00    -0.506 A  
BRANCH  18  21
HETATM   21  O   UNL     1     -11.357   7.928  71.328  1.00  0.00    -0.252 OA 
HETATM   22  C   UNL     1     -10.436   7.589  72.350  1.00  0.00    -0.243 C  
HETATM   23  F   UNL     1      -9.534   8.557  72.617  1.00  0.00    -0.314 F  
HETATM   24  F   UNL     1      -9.752   6.492  71.950  1.00  0.00    -0.154 F  
HETATM   25  F   UNL     1     -11.102   7.278  73.483  1.00  0.00    -0.371 F  
ENDBRANCH  18  21
ENDBRANCH  14  15
ENDBRANCH  13  14
ENDBRANCH   8  13
TORSDOF 4
ENDMDL
MODEL       22
REMARK 921   NORMALIZED FREE ENERGY PREDICTED BY IDOCK:   -6.71 KCAL/MOL
REMARK 922        TOTAL FREE ENERGY PREDICTED BY IDOCK:   -8.73 KCAL/MOL
REMARK 923 INTER-LIGAND FREE ENERGY PREDICTED BY IDOCK:   -8.13 KCAL/MOL
REMARK 924 INTRA-LIGAND FREE ENERGY PREDICTED BY IDOCK:   -0.60 KCAL/MOL
REMARK 927      BINDING AFFINITY PREDICTED BY RF-SCORE:    0.00 PKD
ROOT
HETATM    1  O   UNL     1     -11.548   7.864  72.965  1.00  0.00    -0.351 OA 
HETATM    2  N   UNL     1     -11.251   7.479  71.823  1.00  0.00    -0.241 N  
HETATM    3  C   UNL     1     -11.109   8.506  70.815  1.00  0.00    -0.254 A  
HETATM    4  O   UNL     1     -11.083   6.303  71.482  1.00  0.00    -0.259 OA 
HETATM    5  C   UNL     1     -11.346   9.864  70.957  1.00  0.00    -0.386 A  
HETATM    6  N   UNL     1     -11.077  10.376  69.723  1.00  0.00    -0.275 NA 
HETATM    7  C   UNL     1     -11.101  11.757  69.302  1.00  0.00    -0.218 C  
HETATM    8  C   UNL     1     -10.998  11.930  67.774  1.00  0.00    -0.228 C  
HETATM    9  C   UNL     1     -10.894  10.598  67.004  1.00  0.00    -0.238 C  
HETATM   10  C   UNL     1     -10.647   9.359  68.926  1.00  0.00    -0.208 A  
HETATM   11  N   UNL     1     -10.660   8.206  69.541  1.00  0.00    -0.227 NA 
HETATM   12  O   UNL     1     -10.210   9.556  67.689  1.00  0.00    -0.191 OA 
ENDROOT
BRANCH   8  13
HETATM   13  O   UNL     1     -12.150  12.675  67.352  1.00  0.00    -0.432 OA 
BRANCH  13  14
HETATM   14  C   UNL     1     -11.965  13.445  66.165  1.00  0.00    -0.413 C  
BRANCH  14  15
HETATM   15  C   UNL     1     -11.330  14.752  66.556  1.00  0.00    -0.344 A  
HETATM   16  C   UNL     1     -10.528  15.452  65.652  1.00  0.00    -0.391 A  
HETATM   17  C   UNL     1      -9.927  16.651  66.035  1.00  0.00    -0.346 A  
HETATM   18  C   UNL     1     -10.120  17.179  67.317  1.00  0.00    -0.294 A  
HETATM   19  C   UNL     1     -11.530  15.286  67.838  1.00  0.00    -0.325 A  
HETATM   20  C   UNL     1     -10.914  16.482  68.224  1.00  0.00    -0.346 A  
BRANCH  18  21
HETATM   21  O   UNL     1      -9.456  18.346  67.534  1.00  0.00    -0.267 OA 
HETATM   22  C   UNL     1     -10.173  19.556  67.708  1.00  0.00    -0.429 C  
HETATM   23  F   UNL     1     -11.428  19.524  67.214  1.00  0.00    -0.465 F  
HETATM   24  F   UNL     1      -9.504  20.536  67.058  1.00  0.00    -0.492 F  
HETATM   25  F   UNL     1     -10.219  19.878  69.019  1.00  0.00    -0.510 F  
ENDBRANCH  18  21
ENDBRANCH  14  15
ENDBRANCH  13  14
ENDBRANCH   8  13
TORSDOF 4
ENDMDL
MODEL       23
REMARK 921   NORMALIZED FREE ENERGY PREDICTED BY IDOCK:   -6.68 KCAL/MOL
REMARK 922        TOTAL FREE ENERGY PREDICTED BY IDOCK:   -8.69 KCAL/MOL
REMARK 923 INTER-LIGAND FREE ENERGY PREDICTED BY IDOCK:   -8.03 KCAL/MOL
REMARK 924 INTRA-LIGAND FREE ENERGY PREDICTED BY IDOCK:   -0.66 KCAL/MOL
REMARK 927      BINDING AFFINITY PREDICTED BY RF-SCORE:    0.00 PKD
ROOT
HETATM    1  O   UNL     1     -12.075   8.233  71.000  1.00  0.00    -0.288 OA 
HETATM    2  N   UNL     1     -12.542   9.118  71.735  1.00  0.00    -0.344 N  
HETATM    3  C   UNL     1     -12.504  10.468  71.219  1.00  0.00    -0.419 A  
HETATM    4  O   UNL     1     -13.017   8.940  72.862  1.00  0.00    -0.330 OA 
HETATM    5  C   UNL     1     -11.932  10.901  70.032  1.00  0.00    -0.350 A  
HETATM    6  N   UNL     1     -12.160  12.244  70.028  1.00  0.00    -0.303 NA 
HETATM    7  C   UNL     1     -11.830  13.205  69.001  1.00  0.00    -0.313 C  
HETATM    8  C   UNL     1     -12.003  14.666  69.457  1.00  0.00    -0.319 C  
HETATM    9  C   UNL     1     -12.486  14.810  70.914  1.00  0.00    -0.328 C  
HETATM   10  C   UNL     1     -12.883  12.556  71.139  1.00  0.00    -0.211 A  
HETATM   11  N   UNL     1     -13.106  11.514  71.895  1.00  0.00    -0.459 NA 
HETATM   12  O   UNL     1     -13.351  13.776  71.369  1.00  0.00    -0.326 OA 
ENDROOT
BRANCH   8  13
HETATM   13  O   UNL     1     -10.738  15.320  69.272  1.00  0.00    -0.229 OA 
BRANCH  13  14
HETATM   14  C   UNL     1     -10.698  16.681  69.701  1.00  0.00    -0.286 C  
BRANCH  14  15
HETATM   15  C   UNL     1     -10.070  17.494  68.601  1.00  0.00    -0.361 A  
HETATM   16  C   UNL     1      -9.536  16.870  67.471  1.00  0.00    -0.241 A  
HETATM   17  C   UNL     1      -8.935  17.633  66.470  1.00  0.00    -0.283 A  
HETATM   18  C   UNL     1      -8.865  19.028  66.568  1.00  0.00    -0.327 A  
HETATM   19  C   UNL     1     -10.007  18.892  68.694  1.00  0.00    -0.470 A  
HETATM   20  C   UNL     1      -9.391  19.655  67.695  1.00  0.00    -0.430 A  
BRANCH  18  21
HETATM   21  O   UNL     1      -8.240  19.620  65.515  1.00  0.00    -0.332 OA 
HETATM   22  C   UNL     1      -6.828  19.743  65.499  1.00  0.00    -0.298 C  
HETATM   23  F   UNL     1      -6.257  19.654  66.718  1.00  0.00    -0.182 F  
HETATM   24  F   UNL     1      -6.520  20.959  64.991  1.00  0.00    -0.292 F  
HETATM   25  F   UNL     1      -6.296  18.803  64.688  1.00  0.00    -0.309 F  
ENDBRANCH  18  21
ENDBRANCH  14  15
ENDBRANCH  13  14
ENDBRANCH   8  13
TORSDOF 4
ENDMDL
MODEL       24
REMARK 921   NORMALIZED FREE ENERGY PREDICTED BY IDOCK:   -6.68 KCAL/MOL
REMARK 922        TOTAL FREE ENERGY PREDICTED BY IDOCK:   -8.68 KCAL/MOL
REMARK 923 INTER-LIGAND FREE ENERGY PREDICTED BY IDOCK:   -7.72 KCAL/MOL
REMARK 924 INTRA-LIGAND FREE ENERGY PREDICTED BY IDOCK:   -0.97 KCAL/MOL
REMARK 927      BINDING AFFINITY PREDICTED BY RF-SCORE:    0.00 PKD
ROOT
HETATM    1  O   UNL     1     -10.291   7.259  73.506  1.00  0.00    -0.321 OA 
HETATM    2  N   UNL     1     -10.928   7.046  72.463  1.00  0.00    -0.250 N  
HETATM    3  C   UNL     1     -10.554   7.833  71.309  1.00  0.00    -0.218 A  
HETATM    4  O   UNL     1     -11.853   6.234  72.337  1.00  0.00    -0.291 OA 
HETATM    5  C   UNL     1      -9.621   8.857  71.255  1.00  0.00    -0.278 A  
HETATM    6  N   UNL     1      -9.658   9.268  69.956  1.00  0.00    -0.194 NA 
HETATM    7  C   UNL     1      -8.850  10.276  69.312  1.00  0.00    -0.177 C  
HETATM    8  C   UNL     1      -9.352  10.652  67.905  1.00  0.00    -0.148 C  
HETATM    9  C   UNL     1     -10.614   9.881  67.469  1.00  0.00    -0.275 C  
HETATM   10  C   UNL     1     -10.535   8.471  69.283  1.00  0.00    -0.215 A  
HETATM   11  N   UNL     1     -11.109   7.594  70.064  1.00  0.00    -0.231 NA 
HETATM   12  O   UNL     1     -10.716   8.555  67.972  1.00  0.00    -0.170 OA 
ENDROOT
BRANCH   8  13
HETATM   13  O   UNL     1      -9.592  12.067  67.903  1.00  0.00    -0.183 OA 
BRANCH  13  14
HETATM   14  C   UNL     1     -10.924  12.449  67.560  1.00  0.00    -0.252 C  
BRANCH  14  15
HETATM   15  C   UNL     1     -11.506  13.197  68.729  1.00  0.00    -0.348 A  
HETATM   16  C   UNL     1     -11.546  14.593  68.733  1.00  0.00    -0.346 A  
HETATM   17  C   UNL     1     -12.067  15.274  69.833  1.00  0.00    -0.375 A  
HETATM   18  C   UNL     1     -12.566  14.581  70.942  1.00  0.00    -0.344 A  
HETATM   19  C   UNL     1     -12.014  12.503  69.838  1.00  0.00    -0.371 A  
HETATM   20  C   UNL     1     -12.523  13.189  70.946  1.00  0.00    -0.407 A  
BRANCH  18  21
HETATM   21  O   UNL     1     -13.027  15.391  71.933  1.00  0.00    -0.355 OA 
HETATM   22  C   UNL     1     -12.169  15.790  72.988  1.00  0.00    -0.488 C  
HETATM   23  F   UNL     1     -11.097  14.987  73.155  1.00  0.00    -0.343 F  
HETATM   24  F   UNL     1     -12.881  15.765  74.138  1.00  0.00    -0.576 F  
HETATM   25  F   UNL     1     -11.748  17.057  72.782  1.00  0.00    -0.560 F  
ENDBRANCH  18  21
ENDBRANCH  14  15
ENDBRANCH  13  14
ENDBRANCH   8  13
TORSDOF 4
ENDMDL
MODEL       25
REMARK 921   NORMALIZED FREE ENERGY PREDICTED BY IDOCK:   -6.67 KCAL/MOL
REMARK 922        TOTAL FREE ENERGY PREDICTED BY IDOCK:   -8.68 KCAL/MOL
REMARK 923 INTER-LIGAND FREE ENERGY PREDICTED BY IDOCK:   -7.62 KCAL/MOL
REMARK 924 INTRA-LIGAND FREE ENERGY PREDICTED BY IDOCK:   -1.06 KCAL/MOL
REMARK 927      BINDING AFFINITY PREDICTED BY RF-SCORE:    0.00 PKD
ROOT
HETATM    1  O   UNL     1     -13.411  12.546  64.693  1.00  0.00    -0.804 OA 
HETATM    2  N   UNL     1     -12.328  12.115  64.264  1.00  0.00    -0.392 N  
HETATM    3  C   UNL     1     -11.232  12.078  65.206  1.00  0.00    -0.322 A  
HETATM    4  O   UNL     1     -12.114  11.731  63.109  1.00  0.00    -0.389 OA 
HETATM    5  C   UNL     1     -11.227  12.546  66.512  1.00  0.00    -0.307 A  
HETATM    6  N   UNL     1      -9.964  12.285  66.950  1.00  0.00    -0.210 NA 
HETATM    7  C   UNL     1      -9.407  12.510  68.263  1.00  0.00    -0.193 C  
HETATM    8  C   UNL     1      -7.877  12.337  68.314  1.00  0.00    -0.153 C  
HETATM    9  C   UNL     1      -7.249  11.963  66.957  1.00  0.00    -0.118 C  
HETATM   10  C   UNL     1      -9.293  11.642  65.955  1.00  0.00    -0.218 A  
HETATM   11  N   UNL     1     -10.018  11.503  64.876  1.00  0.00    -0.250 NA 
HETATM   12  O   UNL     1      -8.066  11.162  66.112  1.00  0.00    -0.165 OA 
ENDROOT
BRANCH   8  13
HETATM   13  O   UNL     1      -7.327  13.567  68.810  1.00  0.00    -0.105 OA 
BRANCH  13  14
HETATM   14  C   UNL     1      -6.759  14.415  67.813  1.00  0.00    -0.175 C  
BRANCH  14  15
HETATM   15  C   UNL     1      -7.680  15.590  67.626  1.00  0.00    -0.178 A  
HETATM   16  C   UNL     1      -7.671  16.653  68.531  1.00  0.00    -0.215 A  
HETATM   17  C   UNL     1      -8.546  17.725  68.359  1.00  0.00    -0.292 A  
HETATM   18  C   UNL     1      -9.438  17.764  67.280  1.00  0.00    -0.255 A  
HETATM   19  C   UNL     1      -8.568  15.634  66.540  1.00  0.00    -0.335 A  
HETATM   20  C   UNL     1      -9.456  16.703  66.378  1.00  0.00    -0.305 A  
BRANCH  18  21
HETATM   21  O   UNL     1     -10.229  18.870  67.264  1.00  0.00    -0.346 OA 
HETATM   22  C   UNL     1      -9.987  19.910  66.332  1.00  0.00    -0.479 C  
HETATM   23  F   UNL     1      -8.734  19.915  65.832  1.00  0.00    -0.373 F  
HETATM   24  F   UNL     1     -10.178  21.091  66.964  1.00  0.00    -0.459 F  
HETATM   25  F   UNL     1     -10.871  19.831  65.315  1.00  0.00    -0.576 F  
ENDBRANCH  18  21
ENDBRANCH  14  15
ENDBRANCH  13  14
ENDBRANCH   8  13
TORSDOF 4
ENDMDL
MODEL       26
REMARK 921   NORMALIZED FREE ENERGY PREDICTED BY IDOCK:   -6.65 KCAL/MOL
REMARK 922        TOTAL FREE ENERGY PREDICTED BY IDOCK:   -8.65 KCAL/MOL
REMARK 923 INTER-LIGAND FREE ENERGY PREDICTED BY IDOCK:   -7.88 KCAL/MOL
REMARK 924 INTRA-LIGAND FREE ENERGY PREDICTED BY IDOCK:   -0.77 KCAL/MOL
REMARK 927      BINDING AFFINITY PREDICTED BY RF-SCORE:    0.00 PKD
ROOT
HETATM    1  O   UNL     1     -11.219   8.621  72.451  1.00  0.00    -0.357 OA 
HETATM    2  N   UNL     1     -12.018   9.391  71.895  1.00  0.00    -0.367 N  
HETATM    3  C   UNL     1     -11.575   9.992  70.656  1.00  0.00    -0.340 A  
HETATM    4  O   UNL     1     -13.140   9.690  72.316  1.00  0.00    -0.414 OA 
HETATM    5  C   UNL     1     -10.329   9.872  70.059  1.00  0.00    -0.272 A  
HETATM    6  N   UNL     1     -10.429  10.632  68.933  1.00  0.00    -0.198 NA 
HETATM    7  C   UNL     1      -9.445  10.829  67.895  1.00  0.00    -0.157 C  
HETATM    8  C   UNL     1      -9.811  11.959  66.915  1.00  0.00    -0.202 C  
HETATM    9  C   UNL     1     -11.149  12.654  67.239  1.00  0.00    -0.278 C  
HETATM   10  C   UNL     1     -11.699  11.119  68.861  1.00  0.00    -0.337 A  
HETATM   11  N   UNL     1     -12.426  10.766  69.887  1.00  0.00    -0.281 NA 
HETATM   12  O   UNL     1     -12.139  11.816  67.821  1.00  0.00    -0.595 OA 
ENDROOT
BRANCH   8  13
HETATM   13  O   UNL     1      -8.729  12.903  66.931  1.00  0.00    -0.209 OA 
BRANCH  13  14
HETATM   14  C   UNL     1      -8.597  13.643  68.144  1.00  0.00    -0.176 C  
BRANCH  14  15
HETATM   15  C   UNL     1      -8.671  15.107  67.801  1.00  0.00    -0.169 A  
HETATM   16  C   UNL     1      -8.753  15.524  66.471  1.00  0.00    -0.340 A  
HETATM   17  C   UNL     1      -8.798  16.884  66.166  1.00  0.00    -0.279 A  
HETATM   18  C   UNL     1      -8.773  17.853  67.177  1.00  0.00    -0.243 A  
HETATM   19  C   UNL     1      -8.654  16.078  68.814  1.00  0.00    -0.223 A  
HETATM   20  C   UNL     1      -8.684  17.443  68.505  1.00  0.00    -0.277 A  
BRANCH  18  21
HETATM   21  O   UNL     1      -8.811  19.130  66.712  1.00  0.00    -0.288 OA 
HETATM   22  C   UNL     1     -10.038  19.838  66.667  1.00  0.00    -0.461 C  
HETATM   23  F   UNL     1     -11.129  19.044  66.680  1.00  0.00    -0.411 F  
HETATM   24  F   UNL     1     -10.067  20.552  65.518  1.00  0.00    -0.458 F  
HETATM   25  F   UNL     1     -10.106  20.704  67.701  1.00  0.00    -0.551 F  
ENDBRANCH  18  21
ENDBRANCH  14  15
ENDBRANCH  13  14
ENDBRANCH   8  13
TORSDOF 4
ENDMDL
MODEL       27
REMARK 921   NORMALIZED FREE ENERGY PREDICTED BY IDOCK:   -6.64 KCAL/MOL
REMARK 922        TOTAL FREE ENERGY PREDICTED BY IDOCK:   -8.64 KCAL/MOL
REMARK 923 INTER-LIGAND FREE ENERGY PREDICTED BY IDOCK:   -7.91 KCAL/MOL
REMARK 924 INTRA-LIGAND FREE ENERGY PREDICTED BY IDOCK:   -0.74 KCAL/MOL
REMARK 927      BINDING AFFINITY PREDICTED BY RF-SCORE:    0.00 PKD
ROOT
HETATM    1  O   UNL     1     -10.361   6.391  71.478  1.00  0.00    -0.202 OA 
HETATM    2  N   UNL     1     -10.884   7.384  72.007  1.00  0.00    -0.222 N  
HETATM    3  C   UNL     1     -11.123   8.522  71.147  1.00  0.00    -0.260 A  
HETATM    4  O   UNL     1     -11.202   7.481  73.198  1.00  0.00    -0.369 OA 
HETATM    5  C   UNL     1     -10.759   8.662  69.816  1.00  0.00    -0.215 A  
HETATM    6  N   UNL     1     -11.202   9.906  69.483  1.00  0.00    -0.210 NA 
HETATM    7  C   UNL     1     -11.145  10.563  68.198  1.00  0.00    -0.287 C  
HETATM    8  C   UNL     1     -11.504  12.060  68.263  1.00  0.00    -0.303 C  
HETATM    9  C   UNL     1     -11.846  12.556  69.683  1.00  0.00    -0.314 C  
HETATM   10  C   UNL     1     -11.844  10.432  70.563  1.00  0.00    -0.337 A  
HETATM   11  N   UNL     1     -11.812   9.633  71.597  1.00  0.00    -0.396 NA 
HETATM   12  O   UNL     1     -12.477  11.597  70.522  1.00  0.00    -0.308 OA 
ENDROOT
BRANCH   8  13
HETATM   13  O   UNL     1     -10.390  12.787  67.723  1.00  0.00    -0.214 OA 
BRANCH  13  14
HETATM   14  C   UNL     1      -9.792  13.723  68.621  1.00  0.00    -0.157 C  
BRANCH  14  15
HETATM   15  C   UNL     1      -9.758  15.063  67.937  1.00  0.00    -0.212 A  
HETATM   16  C   UNL     1     -10.301  15.224  66.660  1.00  0.00    -0.281 A  
HETATM   17  C   UNL     1     -10.242  16.465  66.027  1.00  0.00    -0.373 A  
HETATM   18  C   UNL     1      -9.654  17.570  66.656  1.00  0.00    -0.282 A  
HETATM   19  C   UNL     1      -9.177  16.172  68.569  1.00  0.00    -0.210 A  
HETATM   20  C   UNL     1      -9.106  17.413  67.927  1.00  0.00    -0.255 A  
BRANCH  18  21
HETATM   21  O   UNL     1      -9.668  18.701  65.901  1.00  0.00    -0.498 OA 
HETATM   22  C   UNL     1     -10.487  19.797  66.269  1.00  0.00    -0.506 C  
HETATM   23  F   UNL     1     -11.506  19.467  67.090  1.00  0.00    -0.456 F  
HETATM   24  F   UNL     1     -11.023  20.317  65.141  1.00  0.00    -0.481 F  
HETATM   25  F   UNL     1      -9.736  20.754  66.856  1.00  0.00    -0.557 F  
ENDBRANCH  18  21
ENDBRANCH  14  15
ENDBRANCH  13  14
ENDBRANCH   8  13
TORSDOF 4
ENDMDL
MODEL       28
REMARK 921   NORMALIZED FREE ENERGY PREDICTED BY IDOCK:   -6.61 KCAL/MOL
REMARK 922        TOTAL FREE ENERGY PREDICTED BY IDOCK:   -8.60 KCAL/MOL
REMARK 923 INTER-LIGAND FREE ENERGY PREDICTED BY IDOCK:   -7.93 KCAL/MOL
REMARK 924 INTRA-LIGAND FREE ENERGY PREDICTED BY IDOCK:   -0.67 KCAL/MOL
REMARK 927      BINDING AFFINITY PREDICTED BY RF-SCORE:    0.00 PKD
ROOT
HETATM    1  O   UNL     1     -14.289   8.957  72.823  1.00  0.00    -0.600 OA 
HETATM    2  N   UNL     1     -13.423   8.707  71.969  1.00  0.00    -0.379 N  
HETATM    3  C   UNL     1     -12.803   9.846  71.329  1.00  0.00    -0.390 A  
HETATM    4  O   UNL     1     -13.063   7.577  71.619  1.00  0.00    -0.345 OA 
HETATM    5  C   UNL     1     -13.123  11.184  71.499  1.00  0.00    -0.385 A  
HETATM    6  N   UNL     1     -12.261  11.836  70.669  1.00  0.00    -0.380 NA 
HETATM    7  C   UNL     1     -12.103  13.259  70.480  1.00  0.00    -0.314 C  
HETATM    8  C   UNL     1     -11.216  13.619  69.273  1.00  0.00    -0.233 C  
HETATM    9  C   UNL     1     -10.681  12.392  68.508  1.00  0.00    -0.238 C  
HETATM   10  C   UNL     1     -11.444  10.911  70.093  1.00  0.00    -0.319 A  
HETATM   11  N   UNL     1     -11.742   9.691  70.455  1.00  0.00    -0.260 NA 
HETATM   12  O   UNL     1     -10.427  11.244  69.309  1.00  0.00    -0.197 OA 
ENDROOT
BRANCH   8  13
HETATM   13  O   UNL     1     -11.997  14.458  68.408  1.00  0.00    -0.331 OA 
BRANCH  13  14
HETATM   14  C   UNL     1     -11.356  14.820  67.185  1.00  0.00    -0.356 C  
BRANCH  14  15
HETATM   15  C   UNL     1     -10.473  16.008  67.461  1.00  0.00    -0.297 A  
HETATM   16  C   UNL     1     -10.872  16.997  68.362  1.00  0.00    -0.333 A  
HETATM   17  C   UNL     1     -10.056  18.105  68.591  1.00  0.00    -0.406 A  
HETATM   18  C   UNL     1      -8.825  18.242  67.938  1.00  0.00    -0.269 A  
HETATM   19  C   UNL     1      -9.236  16.142  66.813  1.00  0.00    -0.255 A  
HETATM   20  C   UNL     1      -8.425  17.261  67.034  1.00  0.00    -0.240 A  
BRANCH  18  21
HETATM   21  O   UNL     1      -8.157  19.382  68.262  1.00  0.00    -0.313 OA 
HETATM   22  C   UNL     1      -6.934  19.316  68.976  1.00  0.00    -0.346 C  
HETATM   23  F   UNL     1      -6.755  18.161  69.649  1.00  0.00    -0.238 F  
HETATM   24  F   UNL     1      -6.924  20.322  69.881  1.00  0.00    -0.302 F  
HETATM   25  F   UNL     1      -5.899  19.503  68.129  1.00  0.00    -0.206 F  
ENDBRANCH  18  21
ENDBRANCH  14  15
ENDBRANCH  13  14
ENDBRANCH   8  13
TORSDOF 4
ENDMDL
MODEL       29
REMARK 921   NORMALIZED FREE ENERGY PREDICTED BY IDOCK:   -6.61 KCAL/MOL
REMARK 922        TOTAL FREE ENERGY PREDICTED BY IDOCK:   -8.60 KCAL/MOL
REMARK 923 INTER-LIGAND FREE ENERGY PREDICTED BY IDOCK:   -7.75 KCAL/MOL
REMARK 924 INTRA-LIGAND FREE ENERGY PREDICTED BY IDOCK:   -0.85 KCAL/MOL
REMARK 927      BINDING AFFINITY PREDICTED BY RF-SCORE:    0.00 PKD
ROOT
HETATM    1  O   UNL     1     -13.382  11.110  72.260  1.00  0.00    -0.394 OA 
HETATM    2  N   UNL     1     -13.413   9.877  72.118  1.00  0.00    -0.415 N  
HETATM    3  C   UNL     1     -12.272   9.276  71.463  1.00  0.00    -0.362 A  
HETATM    4  O   UNL     1     -14.335   9.135  72.474  1.00  0.00    -0.529 OA 
HETATM    5  C   UNL     1     -11.183   9.927  70.903  1.00  0.00    -0.360 A  
HETATM    6  N   UNL     1     -10.411   8.917  70.415  1.00  0.00    -0.195 NA 
HETATM    7  C   UNL     1      -9.120   9.005  69.773  1.00  0.00    -0.159 C  
HETATM    8  C   UNL     1      -8.673   7.683  69.121  1.00  0.00    -0.139 C  
HETATM    9  C   UNL     1      -9.690   6.536  69.279  1.00  0.00    -0.144 C  
HETATM   10  C   UNL     1     -11.006   7.734  70.735  1.00  0.00    -0.252 A  
HETATM   11  N   UNL     1     -12.141   7.903  71.362  1.00  0.00    -0.302 NA 
HETATM   12  O   UNL     1     -10.444   6.559  70.486  1.00  0.00    -0.197 OA 
ENDROOT
BRANCH   8  13
HETATM   13  O   UNL     1      -8.425   7.957  67.733  1.00  0.00    -0.124 OA 
BRANCH  13  14
HETATM   14  C   UNL     1      -9.551   7.774  66.875  1.00  0.00    -0.198 C  
BRANCH  14  15
HETATM   15  C   UNL     1      -9.903   9.112  66.283  1.00  0.00    -0.359 A  
HETATM   16  C   UNL     1     -10.732   9.999  66.972  1.00  0.00    -0.248 A  
HETATM   17  C   UNL     1     -11.069  11.227  66.402  1.00  0.00    -0.257 A  
HETATM   18  C   UNL     1     -10.581  11.598  65.144  1.00  0.00    -0.290 A  
HETATM   19  C   UNL     1      -9.407   9.488  65.026  1.00  0.00    -0.294 A  
HETATM   20  C   UNL     1      -9.758  10.714  64.449  1.00  0.00    -0.368 A  
BRANCH  18  21
HETATM   21  O   UNL     1     -11.012  12.818  64.726  1.00  0.00    -0.284 OA 
HETATM   22  C   UNL     1     -12.323  12.977  64.211  1.00  0.00    -0.366 C  
HETATM   23  F   UNL     1     -12.881  11.828  63.775  1.00  0.00    -0.557 F  
HETATM   24  F   UNL     1     -12.259  13.825  63.159  1.00  0.00    -0.510 F  
HETATM   25  F   UNL     1     -13.120  13.531  65.149  1.00  0.00    -0.443 F  
ENDBRANCH  18  21
ENDBRANCH  14  15
ENDBRANCH  13  14
ENDBRANCH   8  13
TORSDOF 4
ENDMDL
MODEL       30
REMARK 921   NORMALIZED FREE ENERGY PREDICTED BY IDOCK:   -6.60 KCAL/MOL
REMARK 922        TOTAL FREE ENERGY PREDICTED BY IDOCK:   -8.59 KCAL/MOL
REMARK 923 INTER-LIGAND FREE ENERGY PREDICTED BY IDOCK:   -8.27 KCAL/MOL
REMARK 924 INTRA-LIGAND FREE ENERGY PREDICTED BY IDOCK:   -0.31 KCAL/MOL
REMARK 927      BINDING AFFINITY PREDICTED BY RF-SCORE:    0.00 PKD
ROOT
HETATM    1  O   UNL     1      -5.693  18.843  63.856  1.00  0.00    -0.345 OA 
HETATM    2  N   UNL     1      -6.243  19.739  64.515  1.00  0.00    -0.265 N  
HETATM    3  C   UNL     1      -7.057  19.311  65.632  1.00  0.00    -0.249 A  
HETATM    4  O   UNL     1      -6.162  20.952  64.288  1.00  0.00    -0.303 OA 
HETATM    5  C   UNL     1      -7.360  18.009  66.002  1.00  0.00    -0.263 A  
HETATM    6  N   UNL     1      -8.157  18.156  67.097  1.00  0.00    -0.218 NA 
HETATM    7  C   UNL     1      -8.725  17.127  67.936  1.00  0.00    -0.222 C  
HETATM    8  C   UNL     1      -9.783  17.660  68.921  1.00  0.00    -0.258 C  
HETATM    9  C   UNL     1     -10.025  19.179  68.812  1.00  0.00    -0.427 C  
HETATM   10  C   UNL     1      -8.256  19.486  67.375  1.00  0.00    -0.286 A  
HETATM   11  N   UNL     1      -7.615  20.224  66.508  1.00  0.00    -0.268 NA 
HETATM   12  O   UNL     1      -8.885  19.947  68.448  1.00  0.00    -0.286 OA 
ENDROOT
BRANCH   8  13
HETATM   13  O   UNL     1     -10.996  16.931  68.677  1.00  0.00    -0.330 OA 
BRANCH  13  14
HETATM   14  C   UNL     1     -11.029  15.617  69.235  1.00  0.00    -0.267 C  
BRANCH  14  15
HETATM   15  C   UNL     1     -11.413  14.660  68.139  1.00  0.00    -0.346 A  
HETATM   16  C   UNL     1     -11.402  13.282  68.362  1.00  0.00    -0.326 A  
HETATM   17  C   UNL     1     -11.738  12.404  67.331  1.00  0.00    -0.417 A  
HETATM   18  C   UNL     1     -12.100  12.881  66.065  1.00  0.00    -0.422 A  
HETATM   19  C   UNL     1     -11.785  15.137  66.873  1.00  0.00    -0.093 A  
HETATM   20  C   UNL     1     -12.107  14.255  65.835  1.00  0.00    -0.416 A  
BRANCH  18  21
HETATM   21  O   UNL     1     -12.386  11.897  65.171  1.00  0.00    -0.333 OA 
HETATM   22  C   UNL     1     -11.838  11.936  63.864  1.00  0.00    -0.411 C  
HETATM   23  F   UNL     1     -11.431  13.163  63.478  1.00  0.00    -0.446 F  
HETATM   24  F   UNL     1     -12.795  11.532  62.997  1.00  0.00    -0.651 F  
HETATM   25  F   UNL     1     -10.802  11.075  63.776  1.00  0.00    -0.428 F  
ENDBRANCH  18  21
ENDBRANCH  14  15
ENDBRANCH  13  14
ENDBRANCH   8  13
TORSDOF 4
ENDMDL
MODEL       31
REMARK 921   NORMALIZED FREE ENERGY PREDICTED BY IDOCK:   -6.57 KCAL/MOL
REMARK 922        TOTAL FREE ENERGY PREDICTED BY IDOCK:   -8.56 KCAL/MOL
REMARK 923 INTER-LIGAND FREE ENERGY PREDICTED BY IDOCK:   -7.81 KCAL/MOL
REMARK 924 INTRA-LIGAND FREE ENERGY PREDICTED BY IDOCK:   -0.75 KCAL/MOL
REMARK 927      BINDING AFFINITY PREDICTED BY RF-SCORE:    0.00 PKD
ROOT
HETATM    1  O   UNL     1     -10.571   6.365  70.773  1.00  0.00    -0.220 OA 
HETATM    2  N   UNL     1     -11.183   6.967  71.669  1.00  0.00    -0.240 N  
HETATM    3  C   UNL     1     -11.580   8.327  71.377  1.00  0.00    -0.280 A  
HETATM    4  O   UNL     1     -11.466   6.507  72.781  1.00  0.00    -0.226 OA 
HETATM    5  C   UNL     1     -11.284   9.064  70.241  1.00  0.00    -0.205 A  
HETATM    6  N   UNL     1     -11.876  10.270  70.468  1.00  0.00    -0.304 NA 
HETATM    7  C   UNL     1     -11.941  11.415  69.590  1.00  0.00    -0.348 C  
HETATM    8  C   UNL     1     -12.464  12.686  70.286  1.00  0.00    -0.090 C  
HETATM    9  C   UNL     1     -12.807  12.483  71.775  1.00  0.00    -0.242 C  
HETATM   10  C   UNL     1     -12.533  10.203  71.659  1.00  0.00    -0.409 A  
HETATM   11  N   UNL     1     -12.373   9.049  72.250  1.00  0.00    -0.356 NA 
HETATM   12  O   UNL     1     -13.294  11.190  72.112  1.00  0.00    -0.452 OA 
ENDROOT
BRANCH   8  13
HETATM   13  O   UNL     1     -11.459  13.700  70.128  1.00  0.00    -0.179 OA 
BRANCH  13  14
HETATM   14  C   UNL     1     -11.809  14.757  69.234  1.00  0.00    -0.318 C  
BRANCH  14  15
HETATM   15  C   UNL     1     -11.427  14.329  67.842  1.00  0.00    -0.341 A  
HETATM   16  C   UNL     1     -12.407  14.102  66.873  1.00  0.00    -0.293 A  
HETATM   17  C   UNL     1     -12.041  13.683  65.594  1.00  0.00    -0.457 A  
HETATM   18  C   UNL     1     -10.697  13.494  65.252  1.00  0.00    -0.323 A  
HETATM   19  C   UNL     1     -10.080  14.148  67.496  1.00  0.00    -0.236 A  
HETATM   20  C   UNL     1      -9.716  13.714  66.216  1.00  0.00    -0.295 A  
BRANCH  18  21
HETATM   21  O   UNL     1     -10.511  13.075  63.972  1.00  0.00    -0.418 OA 
HETATM   22  C   UNL     1     -10.789  11.733  63.611  1.00  0.00    -0.440 C  
HETATM   23  F   UNL     1     -10.801  10.877  64.654  1.00  0.00    -0.390 F  
HETATM   24  F   UNL     1      -9.825  11.321  62.756  1.00  0.00    -0.300 F  
HETATM   25  F   UNL     1     -11.975  11.668  62.968  1.00  0.00    -0.446 F  
ENDBRANCH  18  21
ENDBRANCH  14  15
ENDBRANCH  13  14
ENDBRANCH   8  13
TORSDOF 4
ENDMDL
MODEL       32
REMARK 921   NORMALIZED FREE ENERGY PREDICTED BY IDOCK:   -6.57 KCAL/MOL
REMARK 922        TOTAL FREE ENERGY PREDICTED BY IDOCK:   -8.55 KCAL/MOL
REMARK 923 INTER-LIGAND FREE ENERGY PREDICTED BY IDOCK:   -7.94 KCAL/MOL
REMARK 924 INTRA-LIGAND FREE ENERGY PREDICTED BY IDOCK:   -0.62 KCAL/MOL
REMARK 927      BINDING AFFINITY PREDICTED BY RF-SCORE:    0.00 PKD
ROOT
HETATM    1  O   UNL     1     -13.299  14.311  73.160  1.00  0.00    -0.643 OA 
HETATM    2  N   UNL     1     -12.570  15.212  72.716  1.00  0.00    -0.360 N  
HETATM    3  C   UNL     1     -12.245  15.143  71.309  1.00  0.00    -0.333 A  
HETATM    4  O   UNL     1     -12.096  16.144  73.376  1.00  0.00    -0.473 OA 
HETATM    5  C   UNL     1     -12.586  14.140  70.414  1.00  0.00    -0.332 A  
HETATM    6  N   UNL     1     -12.034  14.547  69.237  1.00  0.00    -0.322 NA 
HETATM    7  C   UNL     1     -12.120  13.915  67.942  1.00  0.00    -0.283 C  
HETATM    8  C   UNL     1     -11.155  14.519  66.904  1.00  0.00    -0.325 C  
HETATM    9  C   UNL     1     -10.290  15.670  67.456  1.00  0.00    -0.277 C  
HETATM   10  C   UNL     1     -11.451  15.761  69.439  1.00  0.00    -0.355 A  
HETATM   11  N   UNL     1     -11.544  16.157  70.681  1.00  0.00    -0.367 NA 
HETATM   12  O   UNL     1     -10.913  16.469  68.454  1.00  0.00    -0.331 OA 
ENDROOT
BRANCH   8  13
HETATM   13  O   UNL     1     -10.330  13.448  66.418  1.00  0.00    -0.277 OA 
BRANCH  13  14
HETATM   14  C   UNL     1     -11.014  12.473  65.633  1.00  0.00    -0.288 C  
BRANCH  14  15
HETATM   15  C   UNL     1     -10.635  11.112  66.153  1.00  0.00    -0.305 A  
HETATM   16  C   UNL     1      -9.946  10.207  65.344  1.00  0.00    -0.377 A  
HETATM   17  C   UNL     1      -9.621   8.941  65.830  1.00  0.00    -0.293 A  
HETATM   18  C   UNL     1      -9.965   8.557  67.132  1.00  0.00    -0.238 A  
HETATM   19  C   UNL     1     -10.972  10.730  67.460  1.00  0.00    -0.372 A  
HETATM   20  C   UNL     1     -10.658   9.454  67.942  1.00  0.00    -0.293 A  
BRANCH  18  21
HETATM   21  O   UNL     1      -9.586   7.289  67.447  1.00  0.00    -0.134 OA 
HETATM   22  C   UNL     1     -10.412   6.190  67.104  1.00  0.00    -0.264 C  
HETATM   23  F   UNL     1     -11.701   6.522  66.883  1.00  0.00    -0.297 F  
HETATM   24  F   UNL     1     -10.388   5.312  68.133  1.00  0.00    -0.220 F  
HETATM   25  F   UNL     1      -9.919   5.569  66.011  1.00  0.00    -0.179 F  
ENDBRANCH  18  21
ENDBRANCH  14  15
ENDBRANCH  13  14
ENDBRANCH   8  13
TORSDOF 4
ENDMDL
MODEL       33
REMARK 921   NORMALIZED FREE ENERGY PREDICTED BY IDOCK:   -6.50 KCAL/MOL
REMARK 922        TOTAL FREE ENERGY PREDICTED BY IDOCK:   -8.46 KCAL/MOL
REMARK 923 INTER-LIGAND FREE ENERGY PREDICTED BY IDOCK:   -7.68 KCAL/MOL
REMARK 924 INTRA-LIGAND FREE ENERGY PREDICTED BY IDOCK:   -0.79 KCAL/MOL
REMARK 927      BINDING AFFINITY PREDICTED BY RF-SCORE:    0.00 PKD
ROOT
HETATM    1  O   UNL     1     -12.537  11.825  63.086  1.00  0.00    -0.514 OA 
HETATM    2  N   UNL     1     -12.222  12.925  63.568  1.00  0.00    -0.522 N  
HETATM    3  C   UNL     1     -11.154  12.918  64.543  1.00  0.00    -0.342 A  
HETATM    4  O   UNL     1     -12.750  14.008  63.293  1.00  0.00    -0.750 OA 
HETATM    5  C   UNL     1     -10.497  11.814  65.064  1.00  0.00    -0.285 A  
HETATM    6  N   UNL     1      -9.600  12.349  65.940  1.00  0.00    -0.225 NA 
HETATM    7  C   UNL     1      -8.604  11.665  66.731  1.00  0.00    -0.180 C  
HETATM    8  C   UNL     1      -7.950  12.565  67.797  1.00  0.00    -0.163 C  
HETATM    9  C   UNL     1      -8.491  14.008  67.808  1.00  0.00    -0.184 C  
HETATM   10  C   UNL     1      -9.702  13.705  65.877  1.00  0.00    -0.187 A  
HETATM   11  N   UNL     1     -10.637  14.096  65.052  1.00  0.00    -0.395 NA 
HETATM   12  O   UNL     1      -8.887  14.515  66.540  1.00  0.00    -0.221 OA 
ENDROOT
BRANCH   8  13
HETATM   13  O   UNL     1      -8.156  11.933  69.070  1.00  0.00     0.005 OA 
BRANCH  13  14
HETATM   14  C   UNL     1      -8.039  10.510  69.059  1.00  0.00    -0.143 C  
BRANCH  14  15
HETATM   15  C   UNL     1      -9.192   9.946  69.844  1.00  0.00    -0.245 A  
HETATM   16  C   UNL     1      -8.974   9.011  70.858  1.00  0.00    -0.300 A  
HETATM   17  C   UNL     1     -10.053   8.479  71.563  1.00  0.00    -0.315 A  
HETATM   18  C   UNL     1     -11.366   8.874  71.281  1.00  0.00    -0.300 A  
HETATM   19  C   UNL     1     -10.508  10.348  69.568  1.00  0.00    -0.274 A  
HETATM   20  C   UNL     1     -11.591   9.802  70.266  1.00  0.00    -0.283 A  
BRANCH  18  21
HETATM   21  O   UNL     1     -12.302   8.254  72.048  1.00  0.00    -0.314 OA 
HETATM   22  C   UNL     1     -12.806   6.983  71.675  1.00  0.00    -0.364 C  
HETATM   23  F   UNL     1     -12.638   6.690  70.369  1.00  0.00    -0.385 F  
HETATM   24  F   UNL     1     -14.135   6.969  71.928  1.00  0.00    -0.439 F  
HETATM   25  F   UNL     1     -12.226   6.021  72.425  1.00  0.00    -0.353 F  
ENDBRANCH  18  21
ENDBRANCH  14  15
ENDBRANCH  13  14
ENDBRANCH   8  13
TORSDOF 4
ENDMDL
MODEL       34
REMARK 921   NORMALIZED FREE ENERGY PREDICTED BY IDOCK:   -6.49 KCAL/MOL
REMARK 922        TOTAL FREE ENERGY PREDICTED BY IDOCK:   -8.46 KCAL/MOL
REMARK 923 INTER-LIGAND FREE ENERGY PREDICTED BY IDOCK:   -7.75 KCAL/MOL
REMARK 924 INTRA-LIGAND FREE ENERGY PREDICTED BY IDOCK:   -0.70 KCAL/MOL
REMARK 927      BINDING AFFINITY PREDICTED BY RF-SCORE:    0.00 PKD
ROOT
HETATM    1  O   UNL     1     -10.444   5.552  69.372  1.00  0.00    -0.261 OA 
HETATM    2  N   UNL     1     -10.189   5.805  68.184  1.00  0.00    -0.173 N  
HETATM    3  C   UNL     1     -10.252   7.196  67.794  1.00  0.00    -0.184 A  
HETATM    4  O   UNL     1      -9.901   4.972  67.317  1.00  0.00    -0.155 OA 
HETATM    5  C   UNL     1     -10.646   8.272  68.575  1.00  0.00    -0.100 A  
HETATM    6  N   UNL     1     -10.536   9.343  67.739  1.00  0.00    -0.263 NA 
HETATM    7  C   UNL     1     -10.765  10.737  68.035  1.00  0.00    -0.228 C  
HETATM    8  C   UNL     1     -10.799  11.629  66.779  1.00  0.00    -0.277 C  
HETATM    9  C   UNL     1     -10.588  10.855  65.462  1.00  0.00    -0.170 C  
HETATM   10  C   UNL     1     -10.045   8.903  66.548  1.00  0.00    -0.286 A  
HETATM   11  N   UNL     1      -9.867   7.608  66.531  1.00  0.00    -0.203 NA 
HETATM   12  O   UNL     1      -9.730   9.725  65.556  1.00  0.00    -0.276 OA 
ENDROOT
BRANCH   8  13
HETATM   13  O   UNL     1     -12.064  12.308  66.775  1.00  0.00    -0.593 OA 
BRANCH  13  14
HETATM   14  C   UNL     1     -12.179  13.358  65.815  1.00  0.00    -0.458 C  
BRANCH  14  15
HETATM   15  C   UNL     1     -11.463  14.563  66.361  1.00  0.00    -0.362 A  
HETATM   16  C   UNL     1     -10.619  15.320  65.545  1.00  0.00    -0.390 A  
HETATM   17  C   UNL     1      -9.943  16.422  66.070  1.00  0.00    -0.369 A  
HETATM   18  C   UNL     1     -10.102  16.797  67.409  1.00  0.00    -0.276 A  
HETATM   19  C   UNL     1     -11.628  14.945  67.701  1.00  0.00    -0.357 A  
HETATM   20  C   UNL     1     -10.938  16.042  68.229  1.00  0.00    -0.335 A  
BRANCH  18  21
HETATM   21  O   UNL     1      -9.366  17.883  67.765  1.00  0.00    -0.256 OA 
HETATM   22  C   UNL     1      -9.998  19.129  68.004  1.00  0.00    -0.376 C  
HETATM   23  F   UNL     1     -11.218  19.240  67.439  1.00  0.00    -0.553 F  
HETATM   24  F   UNL     1      -9.216  20.102  67.481  1.00  0.00    -0.393 F  
HETATM   25  F   UNL     1     -10.102  19.343  69.333  1.00  0.00    -0.456 F  
ENDBRANCH  18  21
ENDBRANCH  14  15
ENDBRANCH  13  14
ENDBRANCH   8  13
TORSDOF 4
ENDMDL
MODEL       35
REMARK 921   NORMALIZED FREE ENERGY PREDICTED BY IDOCK:   -6.49 KCAL/MOL
REMARK 922        TOTAL FREE ENERGY PREDICTED BY IDOCK:   -8.45 KCAL/MOL
REMARK 923 INTER-LIGAND FREE ENERGY PREDICTED BY IDOCK:   -7.75 KCAL/MOL
REMARK 924 INTRA-LIGAND FREE ENERGY PREDICTED BY IDOCK:   -0.70 KCAL/MOL
REMARK 927      BINDING AFFINITY PREDICTED BY RF-SCORE:    0.00 PKD
ROOT
HETATM    1  O   UNL     1     -13.935  13.708  72.805  1.00  0.00    -0.725 OA 
HETATM    2  N   UNL     1     -13.115  14.640  72.828  1.00  0.00    -0.453 N  
HETATM    3  C   UNL     1     -12.522  15.007  71.561  1.00  0.00    -0.333 A  
HETATM    4  O   UNL     1     -12.761  15.261  73.836  1.00  0.00    -0.541 OA 
HETATM    5  C   UNL     1     -12.703  14.384  70.336  1.00  0.00    -0.304 A  
HETATM    6  N   UNL     1     -11.922  15.105  69.483  1.00  0.00    -0.323 NA 
HETATM    7  C   UNL     1     -11.766  14.941  68.056  1.00  0.00    -0.320 C  
HETATM    8  C   UNL     1     -10.604  15.767  67.472  1.00  0.00    -0.309 C  
HETATM    9  C   UNL     1      -9.841  16.597  68.524  1.00  0.00    -0.252 C  
HETATM   10  C   UNL     1     -11.366  16.133  70.182  1.00  0.00    -0.340 A  
HETATM   11  N   UNL     1     -11.692  16.107  71.447  1.00  0.00    -0.459 NA 
HETATM   12  O   UNL     1     -10.632  17.075  69.605  1.00  0.00    -0.281 OA 
ENDROOT
BRANCH   8  13
HETATM   13  O   UNL     1      -9.722  14.849  66.809  1.00  0.00    -0.234 OA 
BRANCH  13  14
HETATM   14  C   UNL     1     -10.375  13.806  66.085  1.00  0.00    -0.301 C  
BRANCH  14  15
HETATM   15  C   UNL     1     -10.184  12.524  66.850  1.00  0.00    -0.237 A  
HETATM   16  C   UNL     1     -11.179  11.545  66.857  1.00  0.00    -0.363 A  
HETATM   17  C   UNL     1     -11.000  10.370  67.589  1.00  0.00    -0.374 A  
HETATM   18  C   UNL     1      -9.825  10.144  68.315  1.00  0.00    -0.145 A  
HETATM   19  C   UNL     1      -9.003  12.292  67.571  1.00  0.00    -0.180 A  
HETATM   20  C   UNL     1      -8.831  11.120  68.316  1.00  0.00    -0.155 A  
BRANCH  18  21
HETATM   21  O   UNL     1      -9.812   8.959  68.981  1.00  0.00    -0.171 OA 
HETATM   22  C   UNL     1     -10.454   8.837  70.239  1.00  0.00    -0.208 C  
HETATM   23  F   UNL     1     -10.651  10.014  70.868  1.00  0.00    -0.367 F  
HETATM   24  F   UNL     1      -9.673   8.073  71.036  1.00  0.00    -0.158 F  
HETATM   25  F   UNL     1     -11.641   8.210  70.089  1.00  0.00    -0.214 F  
ENDBRANCH  18  21
ENDBRANCH  14  15
ENDBRANCH  13  14
ENDBRANCH   8  13
TORSDOF 4
ENDMDL
MODEL       36
REMARK 921   NORMALIZED FREE ENERGY PREDICTED BY IDOCK:   -6.48 KCAL/MOL
REMARK 922        TOTAL FREE ENERGY PREDICTED BY IDOCK:   -8.43 KCAL/MOL
REMARK 923 INTER-LIGAND FREE ENERGY PREDICTED BY IDOCK:   -7.70 KCAL/MOL
REMARK 924 INTRA-LIGAND FREE ENERGY PREDICTED BY IDOCK:   -0.73 KCAL/MOL
REMARK 927      BINDING AFFINITY PREDICTED BY RF-SCORE:    0.00 PKD
ROOT
HETATM    1  O   UNL     1     -10.890  16.475  64.205  1.00  0.00    -0.729 OA 
HETATM    2  N   UNL     1     -10.914  17.262  65.165  1.00  0.00    -0.097 N  
HETATM    3  C   UNL     1     -10.897  16.670  66.484  1.00  0.00    -0.017 A  
HETATM    4  O   UNL     1     -10.964  18.495  65.083  1.00  0.00    -0.571 OA 
HETATM    5  C   UNL     1     -10.940  15.320  66.801  1.00  0.00    -0.306 A  
HETATM    6  N   UNL     1     -10.911  15.302  68.163  1.00  0.00    -0.280 NA 
HETATM    7  C   UNL     1     -10.878  14.157  69.043  1.00  0.00    -0.251 C  
HETATM    8  C   UNL     1     -11.116  14.518  70.521  1.00  0.00     0.050 C  
HETATM    9  C   UNL     1     -11.347  16.023  70.764  1.00  0.00    -0.398 C  
HETATM   10  C   UNL     1     -10.798  16.586  68.603  1.00  0.00    -0.345 A  
HETATM   11  N   UNL     1     -10.796  17.449  67.622  1.00  0.00    -0.300 NA 
HETATM   12  O   UNL     1     -10.644  16.892  69.885  1.00  0.00    -0.220 OA 
ENDROOT
BRANCH   8  13
HETATM   13  O   UNL     1     -12.244  13.750  70.969  1.00  0.00    -0.348 OA 
BRANCH  13  14
HETATM   14  C   UNL     1     -12.649  12.706  70.083  1.00  0.00     0.101 C  
BRANCH  14  15
HETATM   15  C   UNL     1     -12.424  11.394  70.784  1.00  0.00    -0.460 A  
HETATM   16  C   UNL     1     -11.276  10.639  70.531  1.00  0.00    -0.270 A  
HETATM   17  C   UNL     1     -11.091   9.413  71.170  1.00  0.00    -0.432 A  
HETATM   18  C   UNL     1     -12.036   8.921  72.078  1.00  0.00    -0.369 A  
HETATM   19  C   UNL     1     -13.366  10.904  71.701  1.00  0.00    -0.364 A  
HETATM   20  C   UNL     1     -13.185   9.666  72.329  1.00  0.00    -0.492 A  
BRANCH  18  21
HETATM   21  O   UNL     1     -11.711   7.709  72.603  1.00  0.00    -0.322 OA 
HETATM   22  C   UNL     1     -11.960   6.522  71.871  1.00  0.00    -0.341 C  
HETATM   23  F   UNL     1     -12.890   6.661  70.903  1.00  0.00    -0.367 F  
HETATM   24  F   UNL     1     -12.408   5.583  72.736  1.00  0.00    -0.300 F  
HETATM   25  F   UNL     1     -10.811   6.072  71.323  1.00  0.00    -0.276 F  
ENDBRANCH  18  21
ENDBRANCH  14  15
ENDBRANCH  13  14
ENDBRANCH   8  13
TORSDOF 4
ENDMDL
MODEL       37
REMARK 921   NORMALIZED FREE ENERGY PREDICTED BY IDOCK:   -6.46 KCAL/MOL
REMARK 922        TOTAL FREE ENERGY PREDICTED BY IDOCK:   -8.42 KCAL/MOL
REMARK 923 INTER-LIGAND FREE ENERGY PREDICTED BY IDOCK:   -7.63 KCAL/MOL
REMARK 924 INTRA-LIGAND FREE ENERGY PREDICTED BY IDOCK:   -0.80 KCAL/MOL
REMARK 927      BINDING AFFINITY PREDICTED BY RF-SCORE:    0.00 PKD
ROOT
HETATM    1  O   UNL     1      -8.127  10.048  64.458  1.00  0.00    -0.144 OA 
HETATM    2  N   UNL     1      -9.199  10.632  64.235  1.00  0.00    -0.217 N  
HETATM    3  C   UNL     1      -9.618  11.607  65.218  1.00  0.00    -0.197 A  
HETATM    4  O   UNL     1      -9.933  10.441  63.258  1.00  0.00    -0.256 OA 
HETATM    5  C   UNL     1      -9.002  11.905  66.423  1.00  0.00    -0.180 A  
HETATM    6  N   UNL     1      -9.794  12.871  66.968  1.00  0.00    -0.228 NA 
HETATM    7  C   UNL     1      -9.602  13.597  68.201  1.00  0.00    -0.221 C  
HETATM    8  C   UNL     1     -10.834  14.421  68.621  1.00  0.00    -0.251 C  
HETATM    9  C   UNL     1     -12.022  14.303  67.645  1.00  0.00    -0.365 C  
HETATM   10  C   UNL     1     -10.789  13.153  66.082  1.00  0.00    -0.279 A  
HETATM   11  N   UNL     1     -10.729  12.405  65.012  1.00  0.00    -0.284 NA 
HETATM   12  O   UNL     1     -11.667  14.127  66.279  1.00  0.00    -0.359 OA 
ENDROOT
BRANCH   8  13
HETATM   13  O   UNL     1     -11.208  13.985  69.936  1.00  0.00    -0.190 OA 
BRANCH  13  14
HETATM   14  C   UNL     1     -12.485  13.352  70.018  1.00  0.00    -0.137 C  
BRANCH  14  15
HETATM   15  C   UNL     1     -12.273  11.950  70.523  1.00  0.00    -0.426 A  
HETATM   16  C   UNL     1     -11.309  11.123  69.943  1.00  0.00    -0.348 A  
HETATM   17  C   UNL     1     -11.138   9.818  70.405  1.00  0.00    -0.367 A  
HETATM   18  C   UNL     1     -11.914   9.316  71.457  1.00  0.00    -0.368 A  
HETATM   19  C   UNL     1     -13.045  11.449  71.582  1.00  0.00    -0.498 A  
HETATM   20  C   UNL     1     -12.882  10.135  72.034  1.00  0.00    -0.472 A  
BRANCH  18  21
HETATM   21  O   UNL     1     -11.633   8.025  71.779  1.00  0.00    -0.262 OA 
HETATM   22  C   UNL     1     -12.467   6.975  71.322  1.00  0.00    -0.386 C  
HETATM   23  F   UNL     1     -13.707   7.375  70.972  1.00  0.00    -0.391 F  
HETATM   24  F   UNL     1     -12.596   6.076  72.325  1.00  0.00    -0.361 F  
HETATM   25  F   UNL     1     -11.888   6.353  70.273  1.00  0.00    -0.439 F  
ENDBRANCH  18  21
ENDBRANCH  14  15
ENDBRANCH  13  14
ENDBRANCH   8  13
TORSDOF 4
ENDMDL
MODEL       38
REMARK 921   NORMALIZED FREE ENERGY PREDICTED BY IDOCK:   -6.42 KCAL/MOL
REMARK 922        TOTAL FREE ENERGY PREDICTED BY IDOCK:   -8.37 KCAL/MOL
REMARK 923 INTER-LIGAND FREE ENERGY PREDICTED BY IDOCK:   -7.72 KCAL/MOL
REMARK 924 INTRA-LIGAND FREE ENERGY PREDICTED BY IDOCK:   -0.64 KCAL/MOL
REMARK 927      BINDING AFFINITY PREDICTED BY RF-SCORE:    0.00 PKD
ROOT
HETATM    1  O   UNL     1      -5.858  18.837  64.089  1.00  0.00    -0.352 OA 
HETATM    2  N   UNL     1      -6.486  19.579  64.862  1.00  0.00    -0.264 N  
HETATM    3  C   UNL     1      -7.246  18.926  65.904  1.00  0.00    -0.244 A  
HETATM    4  O   UNL     1      -6.522  20.813  64.804  1.00  0.00    -0.283 OA 
HETATM    5  C   UNL     1      -7.421  17.563  66.091  1.00  0.00    -0.299 A  
HETATM    6  N   UNL     1      -8.219  17.481  67.192  1.00  0.00    -0.207 NA 
HETATM    7  C   UNL     1      -8.681  16.297  67.878  1.00  0.00    -0.175 C  
HETATM    8  C   UNL     1      -9.776  16.586  68.922  1.00  0.00    -0.257 C  
HETATM    9  C   UNL     1     -10.163  18.076  69.021  1.00  0.00    -0.253 C  
HETATM   10  C   UNL     1      -8.443  18.745  67.649  1.00  0.00    -0.272 A  
HETATM   11  N   UNL     1      -7.881  19.652  66.895  1.00  0.00    -0.264 NA 
HETATM   12  O   UNL     1      -9.104  18.992  68.772  1.00  0.00    -0.353 OA 
ENDROOT
BRANCH   8  13
HETATM   13  O   UNL     1     -10.916  15.786  68.573  1.00  0.00    -0.278 OA 
BRANCH  13  14
HETATM   14  C   UNL     1     -11.855  15.587  69.630  1.00  0.00    -0.366 C  
BRANCH  14  15
HETATM   15  C   UNL     1     -12.008  14.105  69.840  1.00  0.00    -0.398 A  
HETATM   16  C   UNL     1     -12.466  13.602  71.060  1.00  0.00    -0.456 A  
HETATM   17  C   UNL     1     -12.581  12.225  71.249  1.00  0.00    -0.336 A  
HETATM   18  C   UNL     1     -12.254  11.325  70.228  1.00  0.00    -0.345 A  
HETATM   19  C   UNL     1     -11.689  13.203  68.814  1.00  0.00    -0.363 A  
HETATM   20  C   UNL     1     -11.791  11.821  69.011  1.00  0.00    -0.379 A  
BRANCH  18  21
HETATM   21  O   UNL     1     -12.410  10.020  70.577  1.00  0.00    -0.264 OA 
HETATM   22  C   UNL     1     -11.321   9.286  71.109  1.00  0.00    -0.342 C  
HETATM   23  F   UNL     1     -10.113   9.815  70.822  1.00  0.00    -0.319 F  
HETATM   24  F   UNL     1     -11.357   8.041  70.582  1.00  0.00    -0.262 F  
HETATM   25  F   UNL     1     -11.452   9.178  72.449  1.00  0.00    -0.392 F  
ENDBRANCH  18  21
ENDBRANCH  14  15
ENDBRANCH  13  14
ENDBRANCH   8  13
TORSDOF 4
ENDMDL
MODEL       39
REMARK 921   NORMALIZED FREE ENERGY PREDICTED BY IDOCK:   -6.41 KCAL/MOL
REMARK 922        TOTAL FREE ENERGY PREDICTED BY IDOCK:   -8.36 KCAL/MOL
REMARK 923 INTER-LIGAND FREE ENERGY PREDICTED BY IDOCK:   -7.60 KCAL/MOL
REMARK 924 INTRA-LIGAND FREE ENERGY PREDICTED BY IDOCK:   -0.75 KCAL/MOL
REMARK 927      BINDING AFFINITY PREDICTED BY RF-SCORE:    0.00 PKD
ROOT
HETATM    1  O   UNL     1     -13.818  13.440  72.789  1.00  0.00    -0.720 OA 
HETATM    2  N   UNL     1     -12.947  14.319  72.888  1.00  0.00    -0.477 N  
HETATM    3  C   UNL     1     -12.421  14.847  71.649  1.00  0.00    -0.331 A  
HETATM    4  O   UNL     1     -12.490  14.762  73.948  1.00  0.00    -0.491 OA 
HETATM    5  C   UNL     1     -12.720  14.427  70.361  1.00  0.00    -0.304 A  
HETATM    6  N   UNL     1     -11.960  15.233  69.568  1.00  0.00    -0.332 NA 
HETATM    7  C   UNL     1     -11.910  15.281  68.126  1.00  0.00    -0.195 C  
HETATM    8  C   UNL     1     -10.746  16.132  67.584  1.00  0.00    -0.318 C  
HETATM    9  C   UNL     1      -9.867  16.756  68.687  1.00  0.00    -0.261 C  
HETATM   10  C   UNL     1     -11.299  16.115  70.368  1.00  0.00    -0.363 A  
HETATM   11  N   UNL     1     -11.540  15.913  71.636  1.00  0.00    -0.446 NA 
HETATM   12  O   UNL     1     -10.554  17.100  69.884  1.00  0.00    -0.137 OA 
ENDROOT
BRANCH   8  13
HETATM   13  O   UNL     1      -9.964  15.286  66.727  1.00  0.00    -0.234 OA 
BRANCH  13  14
HETATM   14  C   UNL     1     -10.594  14.932  65.496  1.00  0.00    -0.357 C  
BRANCH  14  15
HETATM   15  C   UNL     1     -10.273  13.490  65.210  1.00  0.00    -0.323 A  
HETATM   16  C   UNL     1     -10.651  12.903  64.001  1.00  0.00    -0.418 A  
HETATM   17  C   UNL     1     -10.367  11.560  63.757  1.00  0.00    -0.450 A  
HETATM   18  C   UNL     1      -9.694  10.780  64.705  1.00  0.00    -0.289 A  
HETATM   19  C   UNL     1      -9.590  12.710  66.156  1.00  0.00    -0.222 A  
HETATM   20  C   UNL     1      -9.320  11.359  65.915  1.00  0.00    -0.247 A  
BRANCH  18  21
HETATM   21  O   UNL     1      -9.506   9.489  64.319  1.00  0.00    -0.143 OA 
HETATM   22  C   UNL     1      -8.219   9.038  63.933  1.00  0.00    -0.172 C  
HETATM   23  F   UNL     1      -7.379  10.028  63.566  1.00  0.00    -0.123 F  
HETATM   24  F   UNL     1      -8.366   8.213  62.871  1.00  0.00    -0.172 F  
HETATM   25  F   UNL     1      -7.661   8.331  64.939  1.00  0.00    -0.080 F  
ENDBRANCH  18  21
ENDBRANCH  14  15
ENDBRANCH  13  14
ENDBRANCH   8  13
TORSDOF 4
ENDMDL
MODEL       40
REMARK 921   NORMALIZED FREE ENERGY PREDICTED BY IDOCK:   -6.39 KCAL/MOL
REMARK 922        TOTAL FREE ENERGY PREDICTED BY IDOCK:   -8.33 KCAL/MOL
REMARK 923 INTER-LIGAND FREE ENERGY PREDICTED BY IDOCK:   -7.42 KCAL/MOL
REMARK 924 INTRA-LIGAND FREE ENERGY PREDICTED BY IDOCK:   -0.91 KCAL/MOL
REMARK 927      BINDING AFFINITY PREDICTED BY RF-SCORE:    0.00 PKD
ROOT
HETATM    1  O   UNL     1     -14.391  15.682  72.498  1.00  0.00    -0.537 OA 
HETATM    2  N   UNL     1     -13.165  15.874  72.522  1.00  0.00    -0.471 N  
HETATM    3  C   UNL     1     -12.444  15.581  71.303  1.00  0.00    -0.425 A  
HETATM    4  O   UNL     1     -12.519  16.277  73.496  1.00  0.00    -0.494 OA 
HETATM    5  C   UNL     1     -12.952  15.032  70.136  1.00  0.00    -0.084 A  
HETATM    6  N   UNL     1     -11.870  14.954  69.311  1.00  0.00    -0.313 NA 
HETATM    7  C   UNL     1     -11.820  14.509  67.938  1.00  0.00    -0.336 C  
HETATM    8  C   UNL     1     -10.385  14.311  67.414  1.00  0.00    -0.259 C  
HETATM    9  C   UNL     1      -9.294  14.621  68.458  1.00  0.00    -0.201 C  
HETATM   10  C   UNL     1     -10.800  15.490  69.962  1.00  0.00    -0.318 A  
HETATM   11  N   UNL     1     -11.098  15.874  71.175  1.00  0.00    -0.271 NA 
HETATM   12  O   UNL     1      -9.618  15.652  69.383  1.00  0.00    -0.256 OA 
ENDROOT
BRANCH   8  13
HETATM   13  O   UNL     1     -10.284  12.953  66.958  1.00  0.00    -0.239 OA 
BRANCH  13  14
HETATM   14  C   UNL     1     -11.486  12.191  67.071  1.00  0.00    -0.350 C  
BRANCH  14  15
HETATM   15  C   UNL     1     -11.243  11.091  68.069  1.00  0.00    -0.372 A  
HETATM   16  C   UNL     1     -11.522  11.285  69.423  1.00  0.00    -0.370 A  
HETATM   17  C   UNL     1     -11.271  10.265  70.342  1.00  0.00    -0.407 A  
HETATM   18  C   UNL     1     -10.751   9.033  69.929  1.00  0.00    -0.229 A  
HETATM   19  C   UNL     1     -10.730   9.852  67.655  1.00  0.00    -0.339 A  
HETATM   20  C   UNL     1     -10.465   8.836  68.580  1.00  0.00    -0.212 A  
BRANCH  18  21
HETATM   21  O   UNL     1     -10.554   8.152  70.947  1.00  0.00    -0.205 OA 
HETATM   22  C   UNL     1      -9.310   8.108  71.625  1.00  0.00    -0.174 C  
HETATM   23  F   UNL     1      -8.286   8.638  70.924  1.00  0.00    -0.104 F  
HETATM   24  F   UNL     1      -9.011   6.811  71.866  1.00  0.00    -0.135 F  
HETATM   25  F   UNL     1      -9.413   8.744  72.812  1.00  0.00    -0.316 F  
ENDBRANCH  18  21
ENDBRANCH  14  15
ENDBRANCH  13  14
ENDBRANCH   8  13
TORSDOF 4
ENDMDL
MODEL       41
REMARK 921   NORMALIZED FREE ENERGY PREDICTED BY IDOCK:   -6.39 KCAL/MOL
REMARK 922        TOTAL FREE ENERGY PREDICTED BY IDOCK:   -8.32 KCAL/MOL
REMARK 923 INTER-LIGAND FREE ENERGY PREDICTED BY IDOCK:   -7.57 KCAL/MOL
REMARK 924 INTRA-LIGAND FREE ENERGY PREDICTED BY IDOCK:   -0.75 KCAL/MOL
REMARK 927      BINDING AFFINITY PREDICTED BY RF-SCORE:    0.00 PKD
ROOT
HETATM    1  O   UNL     1     -13.206  11.394  72.195  1.00  0.00    -0.490 OA 
HETATM    2  N   UNL     1     -13.034  10.780  71.130  1.00  0.00    -0.384 N  
HETATM    3  C   UNL     1     -12.407  11.517  70.056  1.00  0.00    -0.213 A  
HETATM    4  O   UNL     1     -13.362   9.608  70.915  1.00  0.00    -0.279 OA 
HETATM    5  C   UNL     1     -12.050  12.857  70.051  1.00  0.00    -0.286 A  
HETATM    6  N   UNL     1     -11.515  13.050  68.813  1.00  0.00    -0.276 NA 
HETATM    7  C   UNL     1     -10.922  14.250  68.271  1.00  0.00    -0.247 C  
HETATM    8  C   UNL     1     -10.663  14.170  66.754  1.00  0.00    -0.286 C  
HETATM    9  C   UNL     1     -11.091  12.831  66.121  1.00  0.00    -0.290 C  
HETATM   10  C   UNL     1     -11.513  11.855  68.160  1.00  0.00    -0.320 A  
HETATM   11  N   UNL     1     -12.053  10.900  68.870  1.00  0.00    -0.481 NA 
HETATM   12  O   UNL     1     -10.959  11.694  66.965  1.00  0.00    -0.257 OA 
ENDROOT
BRANCH   8  13
HETATM   13  O   UNL     1     -11.361  15.268  66.146  1.00  0.00    -0.285 OA 
BRANCH  13  14
HETATM   14  C   UNL     1     -10.580  16.045  65.238  1.00  0.00    -0.402 C  
BRANCH  14  15
HETATM   15  C   UNL     1      -9.743  16.998  66.048  1.00  0.00    -0.243 A  
HETATM   16  C   UNL     1     -10.345  17.936  66.890  1.00  0.00    -0.358 A  
HETATM   17  C   UNL     1      -9.558  18.829  67.618  1.00  0.00    -0.340 A  
HETATM   18  C   UNL     1      -8.161  18.798  67.530  1.00  0.00    -0.260 A  
HETATM   19  C   UNL     1      -8.343  16.963  65.968  1.00  0.00    -0.180 A  
HETATM   20  C   UNL     1      -7.556  17.869  66.688  1.00  0.00    -0.266 A  
BRANCH  18  21
HETATM   21  O   UNL     1      -7.544  19.740  68.293  1.00  0.00    -0.302 OA 
HETATM   22  C   UNL     1      -6.616  19.357  69.293  1.00  0.00    -0.326 C  
HETATM   23  F   UNL     1      -6.747  18.076  69.697  1.00  0.00    -0.235 F  
HETATM   24  F   UNL     1      -6.813  20.148  70.372  1.00  0.00    -0.374 F  
HETATM   25  F   UNL     1      -5.356  19.557  68.850  1.00  0.00    -0.189 F  
ENDBRANCH  18  21
ENDBRANCH  14  15
ENDBRANCH  13  14
ENDBRANCH   8  13
TORSDOF 4
ENDMDL
MODEL       42
REMARK 921   NORMALIZED FREE ENERGY PREDICTED BY IDOCK:   -6.35 KCAL/MOL
REMARK 922        TOTAL FREE ENERGY PREDICTED BY IDOCK:   -8.27 KCAL/MOL
REMARK 923 INTER-LIGAND FREE ENERGY PREDICTED BY IDOCK:   -7.52 KCAL/MOL
REMARK 924 INTRA-LIGAND FREE ENERGY PREDICTED BY IDOCK:   -0.76 KCAL/MOL
REMARK 927      BINDING AFFINITY PREDICTED BY RF-SCORE:    0.00 PKD
ROOT
HETATM    1  O   UNL     1     -12.726  12.673  63.094  1.00  0.00    -0.605 OA 
HETATM    2  N   UNL     1     -12.195  13.458  63.895  1.00  0.00    -0.436 N  
HETATM    3  C   UNL     1     -11.229  12.890  64.808  1.00  0.00    -0.306 A  
HETATM    4  O   UNL     1     -12.433  14.668  63.981  1.00  0.00    -0.796 OA 
HETATM    5  C   UNL     1     -10.887  11.553  64.948  1.00  0.00    -0.283 A  
HETATM    6  N   UNL     1      -9.951  11.554  65.938  1.00  0.00    -0.221 NA 
HETATM    7  C   UNL     1      -9.202  10.438  66.464  1.00  0.00    -0.160 C  
HETATM    8  C   UNL     1      -8.429  10.776  67.753  1.00  0.00    -0.120 C  
HETATM    9  C   UNL     1      -8.614  12.232  68.225  1.00  0.00    -0.172 C  
HETATM   10  C   UNL     1      -9.726  12.846  66.308  1.00  0.00    -0.268 A  
HETATM   11  N   UNL     1     -10.485  13.688  65.658  1.00  0.00    -0.291 NA 
HETATM   12  O   UNL     1      -8.791  13.186  67.185  1.00  0.00    -0.207 OA 
ENDROOT
BRANCH   8  13
HETATM   13  O   UNL     1      -8.865   9.853  68.763  1.00  0.00    -0.126 OA 
BRANCH  13  14
HETATM   14  C   UNL     1     -10.062  10.229  69.443  1.00  0.00    -0.235 C  
BRANCH  14  15
HETATM   15  C   UNL     1     -10.545   9.036  70.224  1.00  0.00    -0.250 A  
HETATM   16  C   UNL     1     -10.848   9.149  71.582  1.00  0.00    -0.442 A  
HETATM   17  C   UNL     1     -11.272   8.031  72.299  1.00  0.00    -0.402 A  
HETATM   18  C   UNL     1     -11.412   6.784  71.678  1.00  0.00    -0.282 A  
HETATM   19  C   UNL     1     -10.694   7.788  69.599  1.00  0.00    -0.223 A  
HETATM   20  C   UNL     1     -11.105   6.664  70.324  1.00  0.00    -0.379 A  
BRANCH  18  21
HETATM   21  O   UNL     1     -11.823   5.796  72.517  1.00  0.00    -0.297 OA 
HETATM   22  C   UNL     1     -10.873   5.004  73.209  1.00  0.00    -0.295 C  
HETATM   23  F   UNL     1      -9.645   5.008  72.648  1.00  0.00    -0.147 F  
HETATM   24  F   UNL     1     -11.316   3.726  73.211  1.00  0.00    -0.288 F  
HETATM   25  F   UNL     1     -10.777   5.417  74.491  1.00  0.00    -0.285 F  
ENDBRANCH  18  21
ENDBRANCH  14  15
ENDBRANCH  13  14
ENDBRANCH   8  13
TORSDOF 4
ENDMDL
MODEL       43
REMARK 921   NORMALIZED FREE ENERGY PREDICTED BY IDOCK:   -6.33 KCAL/MOL
REMARK 922        TOTAL FREE ENERGY PREDICTED BY IDOCK:   -8.26 KCAL/MOL
REMARK 923 INTER-LIGAND FREE ENERGY PREDICTED BY IDOCK:   -7.51 KCAL/MOL
REMARK 924 INTRA-LIGAND FREE ENERGY PREDICTED BY IDOCK:   -0.75 KCAL/MOL
REMARK 927      BINDING AFFINITY PREDICTED BY RF-SCORE:    0.00 PKD
ROOT
HETATM    1  O   UNL     1      -9.031  11.334  62.333  1.00  0.00    -0.321 OA 
HETATM    2  N   UNL     1      -9.448  10.722  63.329  1.00  0.00    -0.291 N  
HETATM    3  C   UNL     1     -10.042  11.524  64.375  1.00  0.00    -0.282 A  
HETATM    4  O   UNL     1      -9.385   9.499  63.501  1.00  0.00    -0.138 OA 
HETATM    5  C   UNL     1     -10.126  12.907  64.430  1.00  0.00    -0.240 A  
HETATM    6  N   UNL     1     -10.758  13.152  65.612  1.00  0.00    -0.277 NA 
HETATM    7  C   UNL     1     -11.164  14.422  66.165  1.00  0.00    -0.336 C  
HETATM    8  C   UNL     1     -11.614  14.331  67.635  1.00  0.00    -0.368 C  
HETATM    9  C   UNL     1     -11.538  12.907  68.221  1.00  0.00    -0.335 C  
HETATM   10  C   UNL     1     -11.074  11.955  66.180  1.00  0.00    -0.326 A  
HETATM   11  N   UNL     1     -10.652  10.941  65.471  1.00  0.00    -0.213 NA 
HETATM   12  O   UNL     1     -11.789  11.858  67.294  1.00  0.00    -0.576 OA 
ENDROOT
BRANCH   8  13
HETATM   13  O   UNL     1     -10.793  15.237  68.388  1.00  0.00    -0.242 OA 
BRANCH  13  14
HETATM   14  C   UNL     1     -11.372  16.521  68.619  1.00  0.00    -0.237 C  
BRANCH  14  15
HETATM   15  C   UNL     1     -10.412  17.559  68.104  1.00  0.00    -0.386 A  
HETATM   16  C   UNL     1      -9.264  17.888  68.827  1.00  0.00    -0.227 A  
HETATM   17  C   UNL     1      -8.394  18.869  68.350  1.00  0.00    -0.382 A  
HETATM   18  C   UNL     1      -8.644  19.532  67.143  1.00  0.00    -0.297 A  
HETATM   19  C   UNL     1     -10.658  18.218  66.889  1.00  0.00    -0.356 A  
HETATM   20  C   UNL     1      -9.792  19.212  66.420  1.00  0.00    -0.437 A  
BRANCH  18  21
HETATM   21  O   UNL     1      -7.708  20.466  66.826  1.00  0.00    -0.294 OA 
HETATM   22  C   UNL     1      -6.654  20.149  65.933  1.00  0.00    -0.233 C  
HETATM   23  F   UNL     1      -6.421  18.826  65.810  1.00  0.00    -0.209 F  
HETATM   24  F   UNL     1      -5.522  20.722  66.402  1.00  0.00    -0.188 F  
HETATM   25  F   UNL     1      -6.914  20.670  64.715  1.00  0.00    -0.323 F  
ENDBRANCH  18  21
ENDBRANCH  14  15
ENDBRANCH  13  14
ENDBRANCH   8  13
TORSDOF 4
ENDMDL
MODEL       44
REMARK 921   NORMALIZED FREE ENERGY PREDICTED BY IDOCK:   -6.31 KCAL/MOL
REMARK 922        TOTAL FREE ENERGY PREDICTED BY IDOCK:   -8.23 KCAL/MOL
REMARK 923 INTER-LIGAND FREE ENERGY PREDICTED BY IDOCK:   -7.57 KCAL/MOL
REMARK 924 INTRA-LIGAND FREE ENERGY PREDICTED BY IDOCK:   -0.66 KCAL/MOL
REMARK 927      BINDING AFFINITY PREDICTED BY RF-SCORE:    0.00 PKD
ROOT
HETATM    1  O   UNL     1     -10.478  19.828  65.226  1.00  0.00    -0.336 OA 
HETATM    2  N   UNL     1     -10.413  19.755  66.464  1.00  0.00    -0.480 N  
HETATM    3  C   UNL     1     -10.387  18.425  67.029  1.00  0.00    -0.393 A  
HETATM    4  O   UNL     1     -10.382  20.717  67.241  1.00  0.00    -0.217 OA 
HETATM    5  C   UNL     1     -10.509  17.220  66.353  1.00  0.00    -0.263 A  
HETATM    6  N   UNL     1     -10.431  16.281  67.338  1.00  0.00    -0.301 NA 
HETATM    7  C   UNL     1     -10.442  14.843  67.207  1.00  0.00    -0.263 C  
HETATM    8  C   UNL     1     -10.600  14.110  68.553  1.00  0.00    -0.252 C  
HETATM    9  C   UNL     1     -10.719  15.056  69.765  1.00  0.00    -0.244 C  
HETATM   10  C   UNL     1     -10.215  16.922  68.520  1.00  0.00    -0.310 A  
HETATM   11  N   UNL     1     -10.191  18.222  68.384  1.00  0.00    -0.382 NA 
HETATM   12  O   UNL     1      -9.992  16.273  69.655  1.00  0.00    -0.228 OA 
ENDROOT
BRANCH   8  13
HETATM   13  O   UNL     1     -11.760  13.271  68.445  1.00  0.00    -0.313 OA 
BRANCH  13  14
HETATM   14  C   UNL     1     -11.566  12.073  67.693  1.00  0.00    -0.321 C  
BRANCH  14  15
HETATM   15  C   UNL     1     -11.427  10.934  68.666  1.00  0.00    -0.380 A  
HETATM   16  C   UNL     1     -10.789   9.750  68.290  1.00  0.00    -0.256 A  
HETATM   17  C   UNL     1     -10.687   8.693  69.194  1.00  0.00    -0.136 A  
HETATM   18  C   UNL     1     -11.207   8.798  70.490  1.00  0.00    -0.247 A  
HETATM   19  C   UNL     1     -11.940  11.041  69.968  1.00  0.00    -0.430 A  
HETATM   20  C   UNL     1     -11.849   9.974  70.869  1.00  0.00    -0.459 A  
BRANCH  18  21
HETATM   21  O   UNL     1     -11.035   7.677  71.241  1.00  0.00    -0.235 OA 
HETATM   22  C   UNL     1     -10.214   7.708  72.396  1.00  0.00    -0.228 C  
HETATM   23  F   UNL     1      -9.329   8.726  72.410  1.00  0.00    -0.334 F  
HETATM   24  F   UNL     1      -9.510   6.554  72.439  1.00  0.00    -0.147 F  
HETATM   25  F   UNL     1     -10.984   7.771  73.504  1.00  0.00    -0.416 F  
ENDBRANCH  18  21
ENDBRANCH  14  15
ENDBRANCH  13  14
ENDBRANCH   8  13
TORSDOF 4
ENDMDL
MODEL       45
REMARK 921   NORMALIZED FREE ENERGY PREDICTED BY IDOCK:   -6.30 KCAL/MOL
REMARK 922        TOTAL FREE ENERGY PREDICTED BY IDOCK:   -8.22 KCAL/MOL
REMARK 923 INTER-LIGAND FREE ENERGY PREDICTED BY IDOCK:   -8.07 KCAL/MOL
REMARK 924 INTRA-LIGAND FREE ENERGY PREDICTED BY IDOCK:   -0.15 KCAL/MOL
REMARK 927      BINDING AFFINITY PREDICTED BY RF-SCORE:    0.00 PKD
ROOT
HETATM    1  O   UNL     1     -10.454  20.325  65.940  1.00  0.00    -0.363 OA 
HETATM    2  N   UNL     1      -9.670  19.651  66.627  1.00  0.00    -0.360 N  
HETATM    3  C   UNL     1      -9.734  18.217  66.457  1.00  0.00    -0.344 A  
HETATM    4  O   UNL     1      -8.859  20.103  67.443  1.00  0.00    -0.330 OA 
HETATM    5  C   UNL     1     -10.628  17.501  65.674  1.00  0.00    -0.140 A  
HETATM    6  N   UNL     1     -10.271  16.201  65.872  1.00  0.00    -0.341 NA 
HETATM    7  C   UNL     1     -10.825  15.017  65.259  1.00  0.00    -0.386 C  
HETATM    8  C   UNL     1     -10.348  13.709  65.920  1.00  0.00    -0.301 C  
HETATM    9  C   UNL     1      -9.382  13.927  67.102  1.00  0.00    -0.243 C  
HETATM   10  C   UNL     1      -9.180  16.180  66.688  1.00  0.00    -0.246 A  
HETATM   11  N   UNL     1      -8.826  17.377  67.076  1.00  0.00    -0.228 NA 
HETATM   12  O   UNL     1      -8.532  15.062  66.987  1.00  0.00    -0.202 OA 
ENDROOT
BRANCH   8  13
HETATM   13  O   UNL     1     -11.520  12.996  66.345  1.00  0.00    -0.310 OA 
BRANCH  13  14
HETATM   14  C   UNL     1     -11.290  12.007  67.347  1.00  0.00    -0.327 C  
BRANCH  14  15
HETATM   15  C   UNL     1     -11.724  12.579  68.669  1.00  0.00    -0.368 A  
HETATM   16  C   UNL     1     -11.717  11.792  69.823  1.00  0.00    -0.408 A  
HETATM   17  C   UNL     1     -12.143  12.328  71.038  1.00  0.00    -0.037 A  
HETATM   18  C   UNL     1     -12.573  13.658  71.130  1.00  0.00    -0.371 A  
HETATM   19  C   UNL     1     -12.147  13.914  68.765  1.00  0.00    -0.344 A  
HETATM   20  C   UNL     1     -12.589  14.445  69.981  1.00  0.00    -0.283 A  
BRANCH  18  21
HETATM   21  O   UNL     1     -12.966  14.021  72.380  1.00  0.00    -0.381 OA 
HETATM   22  C   UNL     1     -12.221  14.975  73.116  1.00  0.00    -0.364 C  
HETATM   23  F   UNL     1     -10.949  15.121  72.691  1.00  0.00    -0.441 F  
HETATM   24  F   UNL     1     -12.176  14.568  74.405  1.00  0.00    -0.490 F  
HETATM   25  F   UNL     1     -12.844  16.173  73.075  1.00  0.00    -0.462 F  
ENDBRANCH  18  21
ENDBRANCH  14  15
ENDBRANCH  13  14
ENDBRANCH   8  13
TORSDOF 4
ENDMDL
MODEL       46
REMARK 921   NORMALIZED FREE ENERGY PREDICTED BY IDOCK:   -6.30 KCAL/MOL
REMARK 922        TOTAL FREE ENERGY PREDICTED BY IDOCK:   -8.22 KCAL/MOL
REMARK 923 INTER-LIGAND FREE ENERGY PREDICTED BY IDOCK:   -7.53 KCAL/MOL
REMARK 924 INTRA-LIGAND FREE ENERGY PREDICTED BY IDOCK:   -0.69 KCAL/MOL
REMARK 927      BINDING AFFINITY PREDICTED BY RF-SCORE:    0.00 PKD
ROOT
HETATM    1  O   UNL     1      -8.419   6.641  66.038  1.00  0.00    -0.130 OA 
HETATM    2  N   UNL     1      -9.074   7.116  66.980  1.00  0.00    -0.130 N  
HETATM    3  C   UNL     1      -9.737   8.377  66.731  1.00  0.00    -0.242 A  
HETATM    4  O   UNL     1      -9.191   6.611  68.102  1.00  0.00    -0.120 OA 
HETATM    5  C   UNL     1      -9.659   9.158  65.587  1.00  0.00    -0.217 A  
HETATM    6  N   UNL     1     -10.451  10.231  65.867  1.00  0.00    -0.153 NA 
HETATM    7  C   UNL     1     -10.787  11.344  65.011  1.00  0.00    -0.246 C  
HETATM    8  C   UNL     1     -11.492  12.494  65.754  1.00  0.00    -0.365 C  
HETATM    9  C   UNL     1     -11.693  12.229  67.260  1.00  0.00    -0.324 C  
HETATM   10  C   UNL     1     -11.004  10.041  67.097  1.00  0.00    -0.107 A  
HETATM   11  N   UNL     1     -10.592   8.937  67.662  1.00  0.00    -0.251 NA 
HETATM   12  O   UNL     1     -11.906  10.867  67.611  1.00  0.00    -0.572 OA 
ENDROOT
BRANCH   8  13
HETATM   13  O   UNL     1     -10.709  13.678  65.545  1.00  0.00    -0.282 OA 
BRANCH  13  14
HETATM   14  C   UNL     1      -9.579  13.811  66.407  1.00  0.00    -0.272 C  
BRANCH  14  15
HETATM   15  C   UNL     1      -9.482  15.254  66.822  1.00  0.00    -0.264 A  
HETATM   16  C   UNL     1      -8.550  16.106  66.225  1.00  0.00    -0.373 A  
HETATM   17  C   UNL     1      -8.455  17.435  66.636  1.00  0.00    -0.291 A  
HETATM   18  C   UNL     1      -9.289  17.944  67.638  1.00  0.00    -0.258 A  
HETATM   19  C   UNL     1     -10.324  15.767  67.821  1.00  0.00    -0.275 A  
HETATM   20  C   UNL     1     -10.216  17.097  68.241  1.00  0.00    -0.334 A  
BRANCH  18  21
HETATM   21  O   UNL     1      -9.061  19.253  67.928  1.00  0.00    -0.298 OA 
HETATM   22  C   UNL     1     -10.126  20.188  67.901  1.00  0.00    -0.392 C  
HETATM   23  F   UNL     1     -11.187  19.788  67.171  1.00  0.00    -0.540 F  
HETATM   24  F   UNL     1      -9.662  21.334  67.353  1.00  0.00    -0.611 F  
HETATM   25  F   UNL     1     -10.530  20.459  69.161  1.00  0.00    -0.481 F  
ENDBRANCH  18  21
ENDBRANCH  14  15
ENDBRANCH  13  14
ENDBRANCH   8  13
TORSDOF 4
ENDMDL
MODEL       47
REMARK 921   NORMALIZED FREE ENERGY PREDICTED BY IDOCK:   -6.29 KCAL/MOL
REMARK 922        TOTAL FREE ENERGY PREDICTED BY IDOCK:   -8.21 KCAL/MOL
REMARK 923 INTER-LIGAND FREE ENERGY PREDICTED BY IDOCK:   -7.66 KCAL/MOL
REMARK 924 INTRA-LIGAND FREE ENERGY PREDICTED BY IDOCK:   -0.55 KCAL/MOL
REMARK 927      BINDING AFFINITY PREDICTED BY RF-SCORE:    0.00 PKD
ROOT
HETATM    1  O   UNL     1     -14.131  15.541  72.566  1.00  0.00    -0.546 OA 
HETATM    2  N   UNL     1     -13.323  15.262  71.666  1.00  0.00    -0.426 N  
HETATM    3  C   UNL     1     -13.048  13.857  71.463  1.00  0.00    -0.365 A  
HETATM    4  O   UNL     1     -12.735  16.078  70.948  1.00  0.00    -0.372 OA 
HETATM    5  C   UNL     1     -13.519  12.789  72.212  1.00  0.00    -0.490 A  
HETATM    6  N   UNL     1     -12.961  11.698  71.617  1.00  0.00    -0.427 NA 
HETATM    7  C   UNL     1     -13.150  10.304  71.944  1.00  0.00    -0.463 C  
HETATM    8  C   UNL     1     -12.156   9.370  71.228  1.00  0.00    -0.345 C  
HETATM    9  C   UNL     1     -11.160  10.108  70.312  1.00  0.00    -0.317 C  
HETATM   10  C   UNL     1     -12.247  12.121  70.537  1.00  0.00    -0.304 A  
HETATM   11  N   UNL     1     -12.263  13.422  70.410  1.00  0.00    -0.356 NA 
HETATM   12  O   UNL     1     -11.666  11.282  69.689  1.00  0.00    -0.286 OA 
ENDROOT
BRANCH   8  13
HETATM   13  O   UNL     1     -11.463   8.629  72.243  1.00  0.00    -0.365 OA 
BRANCH  13  14
HETATM   14  C   UNL     1     -11.709   7.223  72.233  1.00  0.00    -0.265 C  
BRANCH  14  15
HETATM   15  C   UNL     1     -10.912   6.622  71.107  1.00  0.00    -0.302 A  
HETATM   16  C   UNL     1     -11.500   6.400  69.859  1.00  0.00    -0.483 A  
HETATM   17  C   UNL     1     -10.757   5.821  68.830  1.00  0.00    -0.334 A  
HETATM   18  C   UNL     1      -9.416   5.465  69.019  1.00  0.00    -0.133 A  
HETATM   19  C   UNL     1      -9.566   6.273  71.292  1.00  0.00    -0.189 A  
HETATM   20  C   UNL     1      -8.827   5.679  70.263  1.00  0.00    -0.146 A  
BRANCH  18  21
HETATM   21  O   UNL     1      -8.839   4.903  67.923  1.00  0.00    -0.103 OA 
HETATM   22  C   UNL     1      -9.093   3.548  67.595  1.00  0.00    -0.159 C  
HETATM   23  F   UNL     1      -9.538   2.809  68.632  1.00  0.00    -0.233 F  
HETATM   24  F   UNL     1      -7.934   2.996  67.168  1.00  0.00    -0.075 F  
HETATM   25  F   UNL     1      -9.987   3.481  66.585  1.00  0.00    -0.177 F  
ENDBRANCH  18  21
ENDBRANCH  14  15
ENDBRANCH  13  14
ENDBRANCH   8  13
TORSDOF 4
ENDMDL
MODEL       48
REMARK 921   NORMALIZED FREE ENERGY PREDICTED BY IDOCK:   -6.28 KCAL/MOL
REMARK 922        TOTAL FREE ENERGY PREDICTED BY IDOCK:   -8.20 KCAL/MOL
REMARK 923 INTER-LIGAND FREE ENERGY PREDICTED BY IDOCK:   -7.42 KCAL/MOL
REMARK 924 INTRA-LIGAND FREE ENERGY PREDICTED BY IDOCK:   -0.77 KCAL/MOL
REMARK 927      BINDING AFFINITY PREDICTED BY RF-SCORE:    0.00 PKD
ROOT
HETATM    1  O   UNL     1      -9.033   9.248  71.470  1.00  0.00    -0.316 OA 
HETATM    2  N   UNL     1     -10.182   9.500  71.073  1.00  0.00    -0.292 N  
HETATM    3  C   UNL     1     -10.287  10.249  69.841  1.00  0.00    -0.233 A  
HETATM    4  O   UNL     1     -11.228   9.176  71.646  1.00  0.00    -0.333 OA 
HETATM    5  C   UNL     1      -9.252  10.791  69.093  1.00  0.00    -0.116 A  
HETATM    6  N   UNL     1      -9.883  11.397  68.049  1.00  0.00    -0.179 NA 
HETATM    7  C   UNL     1      -9.294  12.078  66.920  1.00  0.00    -0.200 C  
HETATM    8  C   UNL     1     -10.319  12.862  66.079  1.00  0.00    -0.283 C  
HETATM    9  C   UNL     1     -11.763  12.768  66.612  1.00  0.00    -0.393 C  
HETATM   10  C   UNL     1     -11.219  11.161  68.165  1.00  0.00    -0.292 A  
HETATM   11  N   UNL     1     -11.512  10.478  69.240  1.00  0.00    -0.261 NA 
HETATM   12  O   UNL     1     -12.095  11.536  67.241  1.00  0.00    -0.548 OA 
ENDROOT
BRANCH   8  13
HETATM   13  O   UNL     1      -9.878  14.229  66.039  1.00  0.00    -0.302 OA 
BRANCH  13  14
HETATM   14  C   UNL     1     -10.831  15.180  66.513  1.00  0.00    -0.317 C  
BRANCH  14  15
HETATM   15  C   UNL     1     -10.075  16.385  67.004  1.00  0.00    -0.272 A  
HETATM   16  C   UNL     1      -8.890  16.784  66.382  1.00  0.00    -0.331 A  
HETATM   17  C   UNL     1      -8.187  17.889  66.862  1.00  0.00    -0.256 A  
HETATM   18  C   UNL     1      -8.654  18.623  67.959  1.00  0.00    -0.299 A  
HETATM   19  C   UNL     1     -10.547  17.126  68.099  1.00  0.00    -0.380 A  
HETATM   20  C   UNL     1      -9.832  18.225  68.587  1.00  0.00    -0.400 A  
BRANCH  18  21
HETATM   21  O   UNL     1      -7.847  19.661  68.307  1.00  0.00    -0.310 OA 
HETATM   22  C   UNL     1      -6.659  19.429  69.043  1.00  0.00    -0.312 C  
HETATM   23  F   UNL     1      -6.648  18.255  69.709  1.00  0.00    -0.233 F  
HETATM   24  F   UNL     1      -6.533  20.418  69.957  1.00  0.00    -0.374 F  
HETATM   25  F   UNL     1      -5.591  19.482  68.218  1.00  0.00    -0.193 F  
ENDBRANCH  18  21
ENDBRANCH  14  15
ENDBRANCH  13  14
ENDBRANCH   8  13
TORSDOF 4
ENDMDL
MODEL       49
REMARK 921   NORMALIZED FREE ENERGY PREDICTED BY IDOCK:   -6.28 KCAL/MOL
REMARK 922        TOTAL FREE ENERGY PREDICTED BY IDOCK:   -8.19 KCAL/MOL
REMARK 923 INTER-LIGAND FREE ENERGY PREDICTED BY IDOCK:   -7.65 KCAL/MOL
REMARK 924 INTRA-LIGAND FREE ENERGY PREDICTED BY IDOCK:   -0.54 KCAL/MOL
REMARK 927      BINDING AFFINITY PREDICTED BY RF-SCORE:    0.00 PKD
ROOT
HETATM    1  O   UNL     1     -10.184  18.154  66.889  1.00  0.00    -0.337 OA 
HETATM    2  N   UNL     1     -10.597  17.938  65.738  1.00  0.00    -0.292 N  
HETATM    3  C   UNL     1     -11.008  16.582  65.446  1.00  0.00    -0.131 A  
HETATM    4  O   UNL     1     -10.671  18.775  64.832  1.00  0.00    -0.277 OA 
HETATM    5  C   UNL     1     -10.917  15.477  66.278  1.00  0.00    -0.242 A  
HETATM    6  N   UNL     1     -11.423  14.458  65.529  1.00  0.00    -0.333 NA 
HETATM    7  C   UNL     1     -11.626  13.080  65.910  1.00  0.00    -0.363 C  
HETATM    8  C   UNL     1     -11.972  12.164  64.721  1.00  0.00    -0.307 C  
HETATM    9  C   UNL     1     -12.027  12.897  63.366  1.00  0.00    -0.537 C  
HETATM   10  C   UNL     1     -11.840  14.973  64.338  1.00  0.00    -0.339 A  
HETATM   11  N   UNL     1     -11.599  16.253  64.239  1.00  0.00    -0.815 NA 
HETATM   12  O   UNL     1     -12.474  14.246  63.428  1.00  0.00    -0.761 OA 
ENDROOT
BRANCH   8  13
HETATM   13  O   UNL     1     -10.991  11.115  64.694  1.00  0.00    -0.281 OA 
BRANCH  13  14
HETATM   14  C   UNL     1      -9.838  11.351  65.502  1.00  0.00    -0.231 C  
BRANCH  14  15
HETATM   15  C   UNL     1      -9.758  10.251  66.526  1.00  0.00    -0.243 A  
HETATM   16  C   UNL     1      -9.477  10.542  67.862  1.00  0.00    -0.157 A  
HETATM   17  C   UNL     1      -9.382   9.511  68.797  1.00  0.00    -0.146 A  
HETATM   18  C   UNL     1      -9.577   8.176  68.423  1.00  0.00    -0.147 A  
HETATM   19  C   UNL     1      -9.962   8.914  66.153  1.00  0.00    -0.290 A  
HETATM   20  C   UNL     1      -9.852   7.880  67.090  1.00  0.00    -0.273 A  
BRANCH  18  21
HETATM   21  O   UNL     1      -9.439   7.294  69.449  1.00  0.00    -0.155 OA 
HETATM   22  C   UNL     1     -10.458   6.347  69.720  1.00  0.00    -0.215 C  
HETATM   23  F   UNL     1     -11.664   6.682  69.216  1.00  0.00    -0.318 F  
HETATM   24  F   UNL     1     -10.590   6.248  71.063  1.00  0.00    -0.238 F  
HETATM   25  F   UNL     1     -10.097   5.136  69.244  1.00  0.00    -0.221 F  
ENDBRANCH  18  21
ENDBRANCH  14  15
ENDBRANCH  13  14
ENDBRANCH   8  13
TORSDOF 4
ENDMDL
MODEL       50
REMARK 921   NORMALIZED FREE ENERGY PREDICTED BY IDOCK:   -6.26 KCAL/MOL
REMARK 922        TOTAL FREE ENERGY PREDICTED BY IDOCK:   -8.16 KCAL/MOL
REMARK 923 INTER-LIGAND FREE ENERGY PREDICTED BY IDOCK:   -7.68 KCAL/MOL
REMARK 924 INTRA-LIGAND FREE ENERGY PREDICTED BY IDOCK:   -0.49 KCAL/MOL
REMARK 927      BINDING AFFINITY PREDICTED BY RF-SCORE:    0.00 PKD
ROOT
HETATM    1  O   UNL     1     -13.468  12.266  72.589  1.00  0.00    -0.271 OA 
HETATM    2  N   UNL     1     -13.185  11.298  71.866  1.00  0.00    -0.461 N  
HETATM    3  C   UNL     1     -12.492  11.597  70.632  1.00  0.00    -0.295 A  
HETATM    4  O   UNL     1     -13.455  10.116  72.107  1.00  0.00    -0.411 OA 
HETATM    5  C   UNL     1     -12.180  12.849  70.124  1.00  0.00    -0.266 A  
HETATM    6  N   UNL     1     -11.547  12.578  68.948  1.00  0.00    -0.296 NA 
HETATM    7  C   UNL     1     -10.950  13.507  68.018  1.00  0.00    -0.251 C  
HETATM    8  C   UNL     1     -10.559  12.859  66.676  1.00  0.00    -0.261 C  
HETATM    9  C   UNL     1     -10.888  11.355  66.594  1.00  0.00    -0.289 C  
HETATM   10  C   UNL     1     -11.450  11.226  68.820  1.00  0.00    -0.293 A  
HETATM   11  N   UNL     1     -12.018  10.590  69.810  1.00  0.00    -0.262 NA 
HETATM   12  O   UNL     1     -10.792  10.648  67.824  1.00  0.00    -0.240 OA 
ENDROOT
BRANCH   8  13
HETATM   13  O   UNL     1     -11.237  13.587  65.640  1.00  0.00    -0.293 OA 
BRANCH  13  14
HETATM   14  C   UNL     1     -10.384  14.340  64.779  1.00  0.00    -0.343 C  
BRANCH  14  15
HETATM   15  C   UNL     1      -9.979  15.592  65.509  1.00  0.00    -0.377 A  
HETATM   16  C   UNL     1      -8.739  15.675  66.145  1.00  0.00    -0.241 A  
HETATM   17  C   UNL     1      -8.385  16.833  66.838  1.00  0.00    -0.241 A  
HETATM   18  C   UNL     1      -9.252  17.931  66.901  1.00  0.00    -0.264 A  
HETATM   19  C   UNL     1     -10.843  16.696  65.565  1.00  0.00    -0.170 A  
HETATM   20  C   UNL     1     -10.492  17.851  66.272  1.00  0.00    -0.320 A  
BRANCH  18  21
HETATM   21  O   UNL     1      -8.763  18.974  67.623  1.00  0.00    -0.283 OA 
HETATM   22  C   UNL     1      -8.444  20.199  66.985  1.00  0.00    -0.335 C  
HETATM   23  F   UNL     1      -8.243  20.087  65.656  1.00  0.00    -0.346 F  
HETATM   24  F   UNL     1      -7.300  20.670  67.533  1.00  0.00    -0.314 F  
HETATM   25  F   UNL     1      -9.421  21.103  67.213  1.00  0.00    -0.553 F  
ENDBRANCH  18  21
ENDBRANCH  14  15
ENDBRANCH  13  14
ENDBRANCH   8  13
TORSDOF 4
ENDMDL
MODEL       51
REMARK 921   NORMALIZED FREE ENERGY PREDICTED BY IDOCK:   -6.26 KCAL/MOL
REMARK 922        TOTAL FREE ENERGY PREDICTED BY IDOCK:   -8.16 KCAL/MOL
REMARK 923 INTER-LIGAND FREE ENERGY PREDICTED BY IDOCK:   -7.43 KCAL/MOL
REMARK 924 INTRA-LIGAND FREE ENERGY PREDICTED BY IDOCK:   -0.73 KCAL/MOL
REMARK 927      BINDING AFFINITY PREDICTED BY RF-SCORE:    0.00 PKD
ROOT
HETATM    1  O   UNL     1      -8.397  18.768  68.155  1.00  0.00    -0.287 OA 
HETATM    2  N   UNL     1      -8.654  18.561  66.959  1.00  0.00    -0.266 N  
HETATM    3  C   UNL     1      -9.559  17.469  66.675  1.00  0.00    -0.282 A  
HETATM    4  O   UNL     1      -8.195  19.197  66.003  1.00  0.00    -0.415 OA 
HETATM    5  C   UNL     1     -10.108  16.574  67.580  1.00  0.00    -0.266 A  
HETATM    6  N   UNL     1     -10.870  15.750  66.807  1.00  0.00    -0.295 NA 
HETATM    7  C   UNL     1     -11.719  14.660  67.226  1.00  0.00    -0.385 C  
HETATM    8  C   UNL     1     -12.218  13.792  66.056  1.00  0.00    -0.457 C  
HETATM    9  C   UNL     1     -11.709  14.255  64.677  1.00  0.00    -0.430 C  
HETATM   10  C   UNL     1     -10.804  16.193  65.521  1.00  0.00    -0.270 A  
HETATM   11  N   UNL     1     -10.013  17.226  65.391  1.00  0.00    -0.400 NA 
HETATM   12  O   UNL     1     -11.522  15.659  64.542  1.00  0.00    -0.415 OA 
ENDROOT
BRANCH   8  13
HETATM   13  O   UNL     1     -11.807  12.442  66.324  1.00  0.00    -0.473 OA 
BRANCH  13  14
HETATM   14  C   UNL     1     -10.757  11.957  65.488  1.00  0.00    -0.283 C  
BRANCH  14  15
HETATM   15  C   UNL     1     -10.393  10.575  65.958  1.00  0.00    -0.279 A  
HETATM   16  C   UNL     1     -10.869  10.090  67.178  1.00  0.00    -0.240 A  
HETATM   17  C   UNL     1     -10.505   8.815  67.614  1.00  0.00    -0.310 A  
HETATM   18  C   UNL     1      -9.672   7.998  66.841  1.00  0.00    -0.225 A  
HETATM   19  C   UNL     1      -9.565   9.752  65.181  1.00  0.00    -0.356 A  
HETATM   20  C   UNL     1      -9.189   8.480  65.626  1.00  0.00    -0.161 A  
BRANCH  18  21
HETATM   21  O   UNL     1      -9.404   6.793  67.412  1.00  0.00    -0.128 OA 
HETATM   22  C   UNL     1     -10.159   5.648  67.056  1.00  0.00    -0.188 C  
HETATM   23  F   UNL     1     -11.358   5.934  66.507  1.00  0.00    -0.283 F  
HETATM   24  F   UNL     1     -10.385   4.930  68.180  1.00  0.00    -0.206 F  
HETATM   25  F   UNL     1      -9.451   4.879  66.201  1.00  0.00    -0.131 F  
ENDBRANCH  18  21
ENDBRANCH  14  15
ENDBRANCH  13  14
ENDBRANCH   8  13
TORSDOF 4
ENDMDL
MODEL       52
REMARK 921   NORMALIZED FREE ENERGY PREDICTED BY IDOCK:   -6.18 KCAL/MOL
REMARK 922        TOTAL FREE ENERGY PREDICTED BY IDOCK:   -8.07 KCAL/MOL
REMARK 923 INTER-LIGAND FREE ENERGY PREDICTED BY IDOCK:   -7.35 KCAL/MOL
REMARK 924 INTRA-LIGAND FREE ENERGY PREDICTED BY IDOCK:   -0.71 KCAL/MOL
REMARK 927      BINDING AFFINITY PREDICTED BY RF-SCORE:    0.00 PKD
ROOT
HETATM    1  O   UNL     1     -13.602  16.011  73.236  1.00  0.00    -0.590 OA 
HETATM    2  N   UNL     1     -12.792  15.735  72.337  1.00  0.00    -0.437 N  
HETATM    3  C   UNL     1     -12.749  14.354  71.911  1.00  0.00    -0.349 A  
HETATM    4  O   UNL     1     -12.021  16.534  71.793  1.00  0.00    -0.372 OA 
HETATM    5  C   UNL     1     -13.450  13.285  72.449  1.00  0.00    -0.569 A  
HETATM    6  N   UNL     1     -13.047  12.218  71.703  1.00  0.00    -0.380 NA 
HETATM    7  C   UNL     1     -13.497  10.849  71.782  1.00  0.00    -0.182 C  
HETATM    8  C   UNL     1     -12.630   9.874  70.961  1.00  0.00    -0.336 C  
HETATM    9  C   UNL     1     -11.458  10.554  70.226  1.00  0.00    -0.333 C  
HETATM   10  C   UNL     1     -12.195  12.670  70.741  1.00  0.00    -0.240 A  
HETATM   11  N   UNL     1     -11.976  13.956  70.835  1.00  0.00    -0.291 NA 
HETATM   12  O   UNL     1     -11.708  11.885  69.790  1.00  0.00    -0.308 OA 
ENDROOT
BRANCH   8  13
HETATM   13  O   UNL     1     -12.151   8.868  71.866  1.00  0.00    -0.325 OA 
BRANCH  13  14
HETATM   14  C   UNL     1     -12.795   7.599  71.748  1.00  0.00    -0.330 C  
BRANCH  14  15
HETATM   15  C   UNL     1     -11.762   6.595  71.313  1.00  0.00    -0.386 A  
HETATM   16  C   UNL     1     -11.114   5.789  72.251  1.00  0.00    -0.330 A  
HETATM   17  C   UNL     1     -10.142   4.878  71.838  1.00  0.00    -0.262 A  
HETATM   18  C   UNL     1      -9.805   4.745  70.485  1.00  0.00    -0.230 A  
HETATM   19  C   UNL     1     -11.430   6.456  69.957  1.00  0.00    -0.496 A  
HETATM   20  C   UNL     1     -10.443   5.552  69.546  1.00  0.00    -0.368 A  
BRANCH  18  21
HETATM   21  O   UNL     1      -8.833   3.824  70.251  1.00  0.00    -0.075 OA 
HETATM   22  C   UNL     1      -7.467   4.167  70.413  1.00  0.00    -0.045 C  
HETATM   23  F   UNL     1      -7.227   5.494  70.366  1.00  0.00    -0.058 F  
HETATM   24  F   UNL     1      -6.769   3.590  69.409  1.00  0.00    -0.034 F  
HETATM   25  F   UNL     1      -7.007   3.672  71.583  1.00  0.00    -0.027 F  
ENDBRANCH  18  21
ENDBRANCH  14  15
ENDBRANCH  13  14
ENDBRANCH   8  13
TORSDOF 4
ENDMDL
MODEL       53
REMARK 921   NORMALIZED FREE ENERGY PREDICTED BY IDOCK:   -6.17 KCAL/MOL
REMARK 922        TOTAL FREE ENERGY PREDICTED BY IDOCK:   -8.06 KCAL/MOL
REMARK 923 INTER-LIGAND FREE ENERGY PREDICTED BY IDOCK:   -6.94 KCAL/MOL
REMARK 924 INTRA-LIGAND FREE ENERGY PREDICTED BY IDOCK:   -1.13 KCAL/MOL
REMARK 927      BINDING AFFINITY PREDICTED BY RF-SCORE:    0.00 PKD
ROOT
HETATM    1  O   UNL     1     -10.128  11.638  65.783  1.00  0.00    -0.223 OA 
HETATM    2  N   UNL     1     -11.155  11.713  66.476  1.00  0.00    -0.300 N  
HETATM    3  C   UNL     1     -11.086  11.126  67.796  1.00  0.00    -0.285 A  
HETATM    4  O   UNL     1     -12.222  12.230  66.126  1.00  0.00    -0.647 OA 
HETATM    5  C   UNL     1     -10.030  10.417  68.347  1.00  0.00    -0.162 A  
HETATM    6  N   UNL     1     -10.474  10.080  69.591  1.00  0.00    -0.230 NA 
HETATM    7  C   UNL     1      -9.764   9.380  70.636  1.00  0.00    -0.273 C  
HETATM    8  C   UNL     1     -10.671   8.950  71.805  1.00  0.00    -0.362 C  
HETATM    9  C   UNL     1     -12.150   9.347  71.623  1.00  0.00    -0.388 C  
HETATM   10  C   UNL     1     -11.710  10.626  69.763  1.00  0.00    -0.310 A  
HETATM   11  N   UNL     1     -12.126  11.259  68.698  1.00  0.00    -0.570 NA 
HETATM   12  O   UNL     1     -12.367  10.561  70.914  1.00  0.00    -0.322 OA 
ENDROOT
BRANCH   8  13
HETATM   13  O   UNL     1     -10.539   7.527  71.943  1.00  0.00    -0.207 OA 
BRANCH  13  14
HETATM   14  C   UNL     1     -11.565   6.764  71.308  1.00  0.00    -0.320 C  
BRANCH  14  15
HETATM   15  C   UNL     1     -10.963   6.094  70.102  1.00  0.00    -0.426 A  
HETATM   16  C   UNL     1     -11.282   6.527  68.814  1.00  0.00    -0.319 A  
HETATM   17  C   UNL     1     -10.735   5.882  67.704  1.00  0.00    -0.352 A  
HETATM   18  C   UNL     1      -9.855   4.805  67.856  1.00  0.00    -0.134 A  
HETATM   19  C   UNL     1     -10.074   5.019  70.253  1.00  0.00    -0.339 A  
HETATM   20  C   UNL     1      -9.538   4.364  69.139  1.00  0.00    -0.252 A  
BRANCH  18  21
HETATM   21  O   UNL     1      -9.422   4.281  66.677  1.00  0.00    -0.158 OA 
HETATM   22  C   UNL     1      -8.156   4.646  66.155  1.00  0.00    -0.103 C  
HETATM   23  F   UNL     1      -7.675   5.806  66.647  1.00  0.00    -0.093 F  
HETATM   24  F   UNL     1      -8.282   4.791  64.816  1.00  0.00    -0.103 F  
HETATM   25  F   UNL     1      -7.263   3.660  66.387  1.00  0.00    -0.059 F  
ENDBRANCH  18  21
ENDBRANCH  14  15
ENDBRANCH  13  14
ENDBRANCH   8  13
TORSDOF 4
ENDMDL
MODEL       54
REMARK 921   NORMALIZED FREE ENERGY PREDICTED BY IDOCK:   -6.15 KCAL/MOL
REMARK 922        TOTAL FREE ENERGY PREDICTED BY IDOCK:   -8.03 KCAL/MOL
REMARK 923 INTER-LIGAND FREE ENERGY PREDICTED BY IDOCK:   -7.28 KCAL/MOL
REMARK 924 INTRA-LIGAND FREE ENERGY PREDICTED BY IDOCK:   -0.75 KCAL/MOL
REMARK 927      BINDING AFFINITY PREDICTED BY RF-SCORE:    0.00 PKD
ROOT
HETATM    1  O   UNL     1     -11.165  16.738  64.308  1.00  0.00    -1.163 OA 
HETATM    2  N   UNL     1     -11.876  15.727  64.420  1.00  0.00    -0.271 N  
HETATM    3  C   UNL     1     -11.468  14.761  65.416  1.00  0.00    -0.341 A  
HETATM    4  O   UNL     1     -12.883  15.478  63.748  1.00  0.00    -0.526 OA 
HETATM    5  C   UNL     1     -10.328  14.795  66.205  1.00  0.00    -0.304 A  
HETATM    6  N   UNL     1     -10.414  13.660  66.955  1.00  0.00    -0.270 NA 
HETATM    7  C   UNL     1      -9.523  13.206  67.996  1.00  0.00    -0.220 C  
HETATM    8  C   UNL     1      -9.793  11.755  68.439  1.00  0.00    -0.199 C  
HETATM    9  C   UNL     1     -10.954  11.080  67.681  1.00  0.00    -0.275 C  
HETATM   10  C   UNL     1     -11.585  13.035  66.648  1.00  0.00    -0.359 A  
HETATM   11  N   UNL     1     -12.251  13.660  65.714  1.00  0.00    -0.433 NA 
HETATM   12  O   UNL     1     -12.006  11.952  67.287  1.00  0.00    -0.605 OA 
ENDROOT
BRANCH   8  13
HETATM   13  O   UNL     1      -8.571  11.022  68.259  1.00  0.00    -0.130 OA 
BRANCH  13  14
HETATM   14  C   UNL     1      -7.952  10.583  69.467  1.00  0.00    -0.109 C  
BRANCH  14  15
HETATM   15  C   UNL     1      -8.650   9.327  69.914  1.00  0.00    -0.178 A  
HETATM   16  C   UNL     1      -8.814   8.253  69.036  1.00  0.00    -0.143 A  
HETATM   17  C   UNL     1      -9.484   7.103  69.456  1.00  0.00    -0.151 A  
HETATM   18  C   UNL     1      -9.990   6.996  70.756  1.00  0.00    -0.190 A  
HETATM   19  C   UNL     1      -9.150   9.215  71.220  1.00  0.00    -0.232 A  
HETATM   20  C   UNL     1      -9.834   8.066  71.634  1.00  0.00    -0.223 A  
BRANCH  18  21
HETATM   21  O   UNL     1     -10.624   5.818  71.002  1.00  0.00    -0.231 OA 
HETATM   22  C   UNL     1      -9.996   4.816  71.783  1.00  0.00    -0.190 C  
HETATM   23  F   UNL     1      -8.654   4.940  71.854  1.00  0.00    -0.118 F  
HETATM   24  F   UNL     1     -10.266   3.616  71.220  1.00  0.00    -0.225 F  
HETATM   25  F   UNL     1     -10.510   4.819  73.032  1.00  0.00    -0.193 F  
ENDBRANCH  18  21
ENDBRANCH  14  15
ENDBRANCH  13  14
ENDBRANCH   8  13
TORSDOF 4
ENDMDL
MODEL       55
REMARK 921   NORMALIZED FREE ENERGY PREDICTED BY IDOCK:   -6.14 KCAL/MOL
REMARK 922        TOTAL FREE ENERGY PREDICTED BY IDOCK:   -8.03 KCAL/MOL
REMARK 923 INTER-LIGAND FREE ENERGY PREDICTED BY IDOCK:   -7.30 KCAL/MOL
REMARK 924 INTRA-LIGAND FREE ENERGY PREDICTED BY IDOCK:   -0.73 KCAL/MOL
REMARK 927      BINDING AFFINITY PREDICTED BY RF-SCORE:    0.00 PKD
ROOT
HETATM    1  O   UNL     1     -11.259   7.814  73.225  1.00  0.00    -0.350 OA 
HETATM    2  N   UNL     1     -11.308   7.050  72.248  1.00  0.00    -0.260 N  
HETATM    3  C   UNL     1     -10.872   7.595  70.982  1.00  0.00    -0.242 A  
HETATM    4  O   UNL     1     -11.706   5.880  72.270  1.00  0.00    -0.307 OA 
HETATM    5  C   UNL     1     -10.482   8.899  70.716  1.00  0.00    -0.227 A  
HETATM    6  N   UNL     1     -10.183   8.889  69.387  1.00  0.00    -0.203 NA 
HETATM    7  C   UNL     1      -9.667   9.967  68.577  1.00  0.00    -0.154 C  
HETATM    8  C   UNL     1      -9.700   9.663  67.067  1.00  0.00    -0.181 C  
HETATM    9  C   UNL     1     -10.279   8.276  66.724  1.00  0.00    -0.304 C  
HETATM   10  C   UNL     1     -10.340   7.617  68.926  1.00  0.00    -0.212 A  
HETATM   11  N   UNL     1     -10.765   6.801  69.854  1.00  0.00    -0.234 NA 
HETATM   12  O   UNL     1     -10.026   7.261  67.688  1.00  0.00    -0.145 OA 
ENDROOT
BRANCH   8  13
HETATM   13  O   UNL     1     -10.466  10.705  66.441  1.00  0.00    -0.242 OA 
BRANCH  13  14
HETATM   14  C   UNL     1     -11.059  11.638  67.344  1.00  0.00    -0.281 C  
BRANCH  14  15
HETATM   15  C   UNL     1     -10.926  13.011  66.741  1.00  0.00    -0.299 A  
HETATM   16  C   UNL     1      -9.691  13.662  66.719  1.00  0.00    -0.275 A  
HETATM   17  C   UNL     1      -9.587  14.944  66.178  1.00  0.00    -0.340 A  
HETATM   18  C   UNL     1     -10.704  15.595  65.641  1.00  0.00    -0.364 A  
HETATM   19  C   UNL     1     -12.043  13.661  66.195  1.00  0.00    -0.477 A  
HETATM   20  C   UNL     1     -11.939  14.952  65.666  1.00  0.00    -0.068 A  
BRANCH  18  21
HETATM   21  O   UNL     1     -10.436  16.841  65.166  1.00  0.00    -0.658 OA 
HETATM   22  C   UNL     1     -10.309  17.935  66.057  1.00  0.00    -0.318 C  
HETATM   23  F   UNL     1     -10.891  17.733  67.257  1.00  0.00    -0.351 F  
HETATM   24  F   UNL     1     -10.906  19.008  65.489  1.00  0.00    -0.523 F  
HETATM   25  F   UNL     1      -9.004  18.229  66.240  1.00  0.00    -0.280 F  
ENDBRANCH  18  21
ENDBRANCH  14  15
ENDBRANCH  13  14
ENDBRANCH   8  13
TORSDOF 4
ENDMDL
MODEL       56
REMARK 921   NORMALIZED FREE ENERGY PREDICTED BY IDOCK:   -6.12 KCAL/MOL
REMARK 922        TOTAL FREE ENERGY PREDICTED BY IDOCK:   -8.00 KCAL/MOL
REMARK 923 INTER-LIGAND FREE ENERGY PREDICTED BY IDOCK:   -7.45 KCAL/MOL
REMARK 924 INTRA-LIGAND FREE ENERGY PREDICTED BY IDOCK:   -0.55 KCAL/MOL
REMARK 927      BINDING AFFINITY PREDICTED BY RF-SCORE:    0.00 PKD
ROOT
HETATM    1  O   UNL     1     -14.288  15.481  72.451  1.00  0.00    -0.558 OA 
HETATM    2  N   UNL     1     -13.489  15.230  71.535  1.00  0.00    -0.453 N  
HETATM    3  C   UNL     1     -13.126  13.841  71.361  1.00  0.00    -0.337 A  
HETATM    4  O   UNL     1     -12.978  16.062  70.778  1.00  0.00    -0.390 OA 
HETATM    5  C   UNL     1     -13.503  12.767  72.153  1.00  0.00    -0.492 A  
HETATM    6  N   UNL     1     -12.890  11.698  71.572  1.00  0.00    -0.401 NA 
HETATM    7  C   UNL     1     -12.975  10.305  71.942  1.00  0.00    -0.449 C  
HETATM    8  C   UNL     1     -11.942   9.418  71.222  1.00  0.00    -0.353 C  
HETATM    9  C   UNL     1     -11.023  10.194  70.257  1.00  0.00    -0.317 C  
HETATM   10  C   UNL     1     -12.237  12.136  70.459  1.00  0.00    -0.304 A  
HETATM   11  N   UNL     1     -12.343  13.429  70.298  1.00  0.00    -0.312 NA 
HETATM   12  O   UNL     1     -11.625  11.313  69.618  1.00  0.00    -0.271 OA 
ENDROOT
BRANCH   8  13
HETATM   13  O   UNL     1     -11.172   8.754  72.236  1.00  0.00    -0.354 OA 
BRANCH  13  14
HETATM   14  C   UNL     1     -11.218   7.329  72.187  1.00  0.00    -0.252 C  
BRANCH  14  15
HETATM   15  C   UNL     1     -10.589   6.890  70.892  1.00  0.00    -0.243 A  
HETATM   16  C   UNL     1      -9.226   7.085  70.662  1.00  0.00    -0.158 A  
HETATM   17  C   UNL     1      -8.660   6.695  69.448  1.00  0.00    -0.135 A  
HETATM   18  C   UNL     1      -9.435   6.096  68.448  1.00  0.00    -0.118 A  
HETATM   19  C   UNL     1     -11.364   6.282  69.893  1.00  0.00    -0.504 A  
HETATM   20  C   UNL     1     -10.797   5.905  68.671  1.00  0.00    -0.333 A  
BRANCH  18  21
HETATM   21  O   UNL     1      -8.736   5.786  67.324  1.00  0.00    -0.110 OA 
HETATM   22  C   UNL     1      -8.665   6.707  66.249  1.00  0.00    -0.145 C  
HETATM   23  F   UNL     1      -9.651   7.628  66.252  1.00  0.00    -0.235 F  
HETATM   24  F   UNL     1      -8.762   6.010  65.093  1.00  0.00    -0.153 F  
HETATM   25  F   UNL     1      -7.470   7.335  66.260  1.00  0.00    -0.076 F  
ENDBRANCH  18  21
ENDBRANCH  14  15
ENDBRANCH  13  14
ENDBRANCH   8  13
TORSDOF 4
ENDMDL
MODEL       57
REMARK 921   NORMALIZED FREE ENERGY PREDICTED BY IDOCK:   -6.12 KCAL/MOL
REMARK 922        TOTAL FREE ENERGY PREDICTED BY IDOCK:   -8.00 KCAL/MOL
REMARK 923 INTER-LIGAND FREE ENERGY PREDICTED BY IDOCK:   -7.21 KCAL/MOL
REMARK 924 INTRA-LIGAND FREE ENERGY PREDICTED BY IDOCK:   -0.79 KCAL/MOL
REMARK 927      BINDING AFFINITY PREDICTED BY RF-SCORE:    0.00 PKD
ROOT
HETATM    1  O   UNL     1      -5.275  13.984  69.009  1.00  0.00    -0.074 OA 
HETATM    2  N   UNL     1      -6.019  13.708  68.054  1.00  0.00    -0.121 N  
HETATM    3  C   UNL     1      -7.345  14.286  68.083  1.00  0.00    -0.128 A  
HETATM    4  O   UNL     1      -5.725  12.979  67.100  1.00  0.00    -0.349 OA 
HETATM    5  C   UNL     1      -7.909  15.046  69.096  1.00  0.00    -0.188 A  
HETATM    6  N   UNL     1      -9.161  15.327  68.637  1.00  0.00    -0.192 NA 
HETATM    7  C   UNL     1     -10.181  16.140  69.257  1.00  0.00    -0.257 C  
HETATM    8  C   UNL     1     -11.557  16.016  68.575  1.00  0.00    -0.316 C  
HETATM    9  C   UNL     1     -11.570  15.050  67.374  1.00  0.00    -0.291 C  
HETATM   10  C   UNL     1      -9.285  14.798  67.388  1.00  0.00    -0.196 A  
HETATM   11  N   UNL     1      -8.213  14.149  67.015  1.00  0.00    -0.134 NA 
HETATM   12  O   UNL     1     -10.358  14.990  66.633  1.00  0.00    -0.267 OA 
ENDROOT
BRANCH   8  13
HETATM   13  O   UNL     1     -12.492  15.595  69.580  1.00  0.00    -0.226 OA 
BRANCH  13  14
HETATM   14  C   UNL     1     -11.901  15.058  70.763  1.00  0.00    -0.320 C  
BRANCH  14  15
HETATM   15  C   UNL     1     -12.234  13.591  70.820  1.00  0.00    -0.417 A  
HETATM   16  C   UNL     1     -13.041  13.084  71.840  1.00  0.00    -0.483 A  
HETATM   17  C   UNL     1     -13.323  11.719  71.895  1.00  0.00    -0.401 A  
HETATM   18  C   UNL     1     -12.818  10.837  70.933  1.00  0.00    -0.351 A  
HETATM   19  C   UNL     1     -11.734  12.708  69.851  1.00  0.00    -0.320 A  
HETATM   20  C   UNL     1     -12.006  11.337  69.917  1.00  0.00    -0.440 A  
BRANCH  18  21
HETATM   21  O   UNL     1     -13.175   9.541  71.136  1.00  0.00    -0.335 OA 
HETATM   22  C   UNL     1     -12.442   8.729  72.037  1.00  0.00    -0.386 C  
HETATM   23  F   UNL     1     -11.196   9.179  72.289  1.00  0.00    -0.422 F  
HETATM   24  F   UNL     1     -12.328   7.496  71.491  1.00  0.00    -0.302 F  
HETATM   25  F   UNL     1     -13.117   8.612  73.201  1.00  0.00    -0.295 F  
ENDBRANCH  18  21
ENDBRANCH  14  15
ENDBRANCH  13  14
ENDBRANCH   8  13
TORSDOF 4
ENDMDL
MODEL       58
REMARK 921   NORMALIZED FREE ENERGY PREDICTED BY IDOCK:   -6.12 KCAL/MOL
REMARK 922        TOTAL FREE ENERGY PREDICTED BY IDOCK:   -8.00 KCAL/MOL
REMARK 923 INTER-LIGAND FREE ENERGY PREDICTED BY IDOCK:   -7.36 KCAL/MOL
REMARK 924 INTRA-LIGAND FREE ENERGY PREDICTED BY IDOCK:   -0.64 KCAL/MOL
REMARK 927      BINDING AFFINITY PREDICTED BY RF-SCORE:    0.00 PKD
ROOT
HETATM    1  O   UNL     1     -10.284  20.207  65.780  1.00  0.00    -0.448 OA 
HETATM    2  N   UNL     1      -9.411  19.821  66.574  1.00  0.00    -0.378 N  
HETATM    3  C   UNL     1      -9.435  18.418  66.924  1.00  0.00    -0.291 A  
HETATM    4  O   UNL     1      -8.544  20.534  67.092  1.00  0.00    -0.335 OA 
HETATM    5  C   UNL     1     -10.370  17.470  66.539  1.00  0.00    -0.325 A  
HETATM    6  N   UNL     1      -9.944  16.324  67.140  1.00  0.00    -0.251 NA 
HETATM    7  C   UNL     1     -10.507  14.998  67.042  1.00  0.00    -0.278 C  
HETATM    8  C   UNL     1      -9.917  14.009  68.065  1.00  0.00    -0.235 C  
HETATM    9  C   UNL     1      -8.851  14.632  68.989  1.00  0.00    -0.090 C  
HETATM   10  C   UNL     1      -8.780  16.595  67.794  1.00  0.00    -0.201 A  
HETATM   11  N   UNL     1      -8.438  17.853  67.700  1.00  0.00    -0.232 NA 
HETATM   12  O   UNL     1      -8.062  15.656  68.396  1.00  0.00    -0.131 OA 
ENDROOT
BRANCH   8  13
HETATM   13  O   UNL     1     -11.014  13.487  68.832  1.00  0.00    -0.251 OA 
BRANCH  13  14
HETATM   14  C   UNL     1     -11.760  12.456  68.185  1.00  0.00    -0.353 C  
BRANCH  14  15
HETATM   15  C   UNL     1     -11.412  11.149  68.847  1.00  0.00    -0.363 A  
HETATM   16  C   UNL     1     -11.609  10.971  70.218  1.00  0.00    -0.414 A  
HETATM   17  C   UNL     1     -11.260   9.763  70.822  1.00  0.00    -0.419 A  
HETATM   18  C   UNL     1     -10.720   8.710  70.075  1.00  0.00    -0.228 A  
HETATM   19  C   UNL     1     -10.879  10.090  68.097  1.00  0.00    -0.303 A  
HETATM   20  C   UNL     1     -10.516   8.885  68.708  1.00  0.00    -0.223 A  
BRANCH  18  21
HETATM   21  O   UNL     1     -10.424   7.608  70.815  1.00  0.00    -0.207 OA 
HETATM   22  C   UNL     1     -11.366   6.556  70.941  1.00  0.00    -0.337 C  
HETATM   23  F   UNL     1     -12.636   6.924  70.675  1.00  0.00    -0.414 F  
HETATM   24  F   UNL     1     -11.328   6.111  72.218  1.00  0.00    -0.277 F  
HETATM   25  F   UNL     1     -11.021   5.533  70.130  1.00  0.00    -0.372 F  
ENDBRANCH  18  21
ENDBRANCH  14  15
ENDBRANCH  13  14
ENDBRANCH   8  13
TORSDOF 4
ENDMDL
MODEL       59
REMARK 921   NORMALIZED FREE ENERGY PREDICTED BY IDOCK:   -6.11 KCAL/MOL
REMARK 922        TOTAL FREE ENERGY PREDICTED BY IDOCK:   -7.99 KCAL/MOL
REMARK 923 INTER-LIGAND FREE ENERGY PREDICTED BY IDOCK:   -7.34 KCAL/MOL
REMARK 924 INTRA-LIGAND FREE ENERGY PREDICTED BY IDOCK:   -0.65 KCAL/MOL
REMARK 927      BINDING AFFINITY PREDICTED BY RF-SCORE:    0.00 PKD
ROOT
HETATM    1  O   UNL     1     -10.173   8.233  66.445  1.00  0.00    -0.253 OA 
HETATM    2  N   UNL     1     -10.464   8.645  67.579  1.00  0.00    -0.268 N  
HETATM    3  C   UNL     1     -10.912  10.017  67.669  1.00  0.00    -0.234 A  
HETATM    4  O   UNL     1     -10.389   7.989  68.624  1.00  0.00    -0.204 OA 
HETATM    5  C   UNL     1     -10.977  10.951  66.646  1.00  0.00    -0.148 A  
HETATM    6  N   UNL     1     -11.450  12.074  67.255  1.00  0.00    -0.383 NA 
HETATM    7  C   UNL     1     -11.770  13.349  66.658  1.00  0.00    -0.385 C  
HETATM    8  C   UNL     1     -12.029  14.459  67.695  1.00  0.00    -0.343 C  
HETATM    9  C   UNL     1     -11.890  13.989  69.157  1.00  0.00    -0.350 C  
HETATM   10  C   UNL     1     -11.700  11.776  68.560  1.00  0.00    -0.330 A  
HETATM   11  N   UNL     1     -11.380  10.545  68.859  1.00  0.00    -0.259 NA 
HETATM   12  O   UNL     1     -12.266  12.638  69.395  1.00  0.00    -0.200 OA 
ENDROOT
BRANCH   8  13
HETATM   13  O   UNL     1     -11.110  15.526  67.413  1.00  0.00    -0.318 OA 
BRANCH  13  14
HETATM   14  C   UNL     1     -11.114  16.589  68.365  1.00  0.00    -0.333 C  
BRANCH  14  15
HETATM   15  C   UNL     1     -10.091  17.603  67.930  1.00  0.00    -0.345 A  
HETATM   16  C   UNL     1     -10.370  18.495  66.893  1.00  0.00    -0.431 A  
HETATM   17  C   UNL     1      -9.404  19.415  66.483  1.00  0.00    -0.414 A  
HETATM   18  C   UNL     1      -8.151  19.472  67.105  1.00  0.00    -0.271 A  
HETATM   19  C   UNL     1      -8.838  17.667  68.558  1.00  0.00    -0.285 A  
HETATM   20  C   UNL     1      -7.866  18.580  68.136  1.00  0.00    -0.308 A  
BRANCH  18  21
HETATM   21  O   UNL     1      -7.322  20.414  66.581  1.00  0.00    -0.271 OA 
HETATM   22  C   UNL     1      -6.566  20.135  65.415  1.00  0.00    -0.283 C  
HETATM   23  F   UNL     1      -6.402  18.818  65.173  1.00  0.00    -0.271 F  
HETATM   24  F   UNL     1      -5.337  20.677  65.574  1.00  0.00    -0.193 F  
HETATM   25  F   UNL     1      -7.146  20.716  64.343  1.00  0.00    -0.261 F  
ENDBRANCH  18  21
ENDBRANCH  14  15
ENDBRANCH  13  14
ENDBRANCH   8  13
TORSDOF 4
ENDMDL
MODEL       60
REMARK 921   NORMALIZED FREE ENERGY PREDICTED BY IDOCK:   -6.11 KCAL/MOL
REMARK 922        TOTAL FREE ENERGY PREDICTED BY IDOCK:   -7.98 KCAL/MOL
REMARK 923 INTER-LIGAND FREE ENERGY PREDICTED BY IDOCK:   -7.06 KCAL/MOL
REMARK 924 INTRA-LIGAND FREE ENERGY PREDICTED BY IDOCK:   -0.92 KCAL/MOL
REMARK 927      BINDING AFFINITY PREDICTED BY RF-SCORE:    0.00 PKD
ROOT
HETATM    1  O   UNL     1     -13.284  12.140  63.845  1.00  0.00    -0.748 OA 
HETATM    2  N   UNL     1     -12.799  12.892  64.705  1.00  0.00    -0.365 N  
HETATM    3  C   UNL     1     -11.463  12.576  65.158  1.00  0.00    -0.328 A  
HETATM    4  O   UNL     1     -13.366  13.870  65.207  1.00  0.00    -0.732 OA 
HETATM    5  C   UNL     1     -10.691  11.481  64.803  1.00  0.00    -0.306 A  
HETATM    6  N   UNL     1      -9.537  11.649  65.508  1.00  0.00    -0.227 NA 
HETATM    7  C   UNL     1      -8.346  10.833  65.484  1.00  0.00    -0.129 C  
HETATM    8  C   UNL     1      -7.348  11.180  66.605  1.00  0.00    -0.145 C  
HETATM    9  C   UNL     1      -7.821  12.321  67.527  1.00  0.00    -0.166 C  
HETATM   10  C   UNL     1      -9.625  12.823  66.193  1.00  0.00    -0.212 A  
HETATM   11  N   UNL     1     -10.778  13.414  66.020  1.00  0.00    -0.276 NA 
HETATM   12  O   UNL     1      -8.615  13.318  66.896  1.00  0.00    -0.191 OA 
ENDROOT
BRANCH   8  13
HETATM   13  O   UNL     1      -7.119   9.978  67.357  1.00  0.00    -0.083 OA 
BRANCH  13  14
HETATM   14  C   UNL     1      -8.158   9.003  67.260  1.00  0.00    -0.103 C  
BRANCH  14  15
HETATM   15  C   UNL     1      -9.040   9.147  68.471  1.00  0.00    -0.132 A  
HETATM   16  C   UNL     1      -8.524   8.956  69.754  1.00  0.00    -0.131 A  
HETATM   17  C   UNL     1      -9.358   9.069  70.867  1.00  0.00    -0.326 A  
HETATM   18  C   UNL     1     -10.714   9.384  70.724  1.00  0.00    -0.305 A  
HETATM   19  C   UNL     1     -10.398   9.471  68.329  1.00  0.00    -0.244 A  
HETATM   20  C   UNL     1     -11.235   9.570  69.446  1.00  0.00    -0.066 A  
BRANCH  18  21
HETATM   21  O   UNL     1     -11.389   9.446  71.903  1.00  0.00    -0.370 OA 
HETATM   22  C   UNL     1     -11.978   8.279  72.452  1.00  0.00    -0.384 C  
HETATM   23  F   UNL     1     -12.192   7.299  71.551  1.00  0.00    -0.307 F  
HETATM   24  F   UNL     1     -13.178   8.623  72.974  1.00  0.00    -0.342 F  
HETATM   25  F   UNL     1     -11.206   7.804  73.453  1.00  0.00    -0.442 F  
ENDBRANCH  18  21
ENDBRANCH  14  15
ENDBRANCH  13  14
ENDBRANCH   8  13
TORSDOF 4
ENDMDL
MODEL       61
REMARK 921   NORMALIZED FREE ENERGY PREDICTED BY IDOCK:   -6.10 KCAL/MOL
REMARK 922        TOTAL FREE ENERGY PREDICTED BY IDOCK:   -7.97 KCAL/MOL
REMARK 923 INTER-LIGAND FREE ENERGY PREDICTED BY IDOCK:   -7.04 KCAL/MOL
REMARK 924 INTRA-LIGAND FREE ENERGY PREDICTED BY IDOCK:   -0.94 KCAL/MOL
REMARK 927      BINDING AFFINITY PREDICTED BY RF-SCORE:    0.00 PKD
ROOT
HETATM    1  O   UNL     1      -9.082   8.691  72.702  1.00  0.00    -0.324 OA 
HETATM    2  N   UNL     1     -10.134   8.314  72.161  1.00  0.00    -0.246 N  
HETATM    3  C   UNL     1     -10.005   7.701  70.858  1.00  0.00    -0.180 A  
HETATM    4  O   UNL     1     -11.269   8.432  72.637  1.00  0.00    -0.369 OA 
HETATM    5  C   UNL     1      -8.849   7.559  70.105  1.00  0.00    -0.147 A  
HETATM    6  N   UNL     1      -9.270   6.934  68.970  1.00  0.00    -0.138 NA 
HETATM    7  C   UNL     1      -8.479   6.483  67.850  1.00  0.00    -0.118 C  
HETATM    8  C   UNL     1      -9.328   6.057  66.637  1.00  0.00    -0.144 C  
HETATM    9  C   UNL     1     -10.846   6.203  66.859  1.00  0.00    -0.335 C  
HETATM   10  C   UNL     1     -10.602   6.678  69.096  1.00  0.00    -0.244 A  
HETATM   11  N   UNL     1     -11.092   7.133  70.218  1.00  0.00    -0.266 NA 
HETATM   12  O   UNL     1     -11.285   5.984  68.195  1.00  0.00    -0.263 OA 
ENDROOT
BRANCH   8  13
HETATM   13  O   UNL     1      -8.898   6.850  65.519  1.00  0.00    -0.086 OA 
BRANCH  13  14
HETATM   14  C   UNL     1      -8.082   7.972  65.858  1.00  0.00    -0.117 C  
BRANCH  14  15
HETATM   15  C   UNL     1      -8.814   9.218  65.437  1.00  0.00    -0.230 A  
HETATM   16  C   UNL     1      -9.592   9.930  66.352  1.00  0.00    -0.255 A  
HETATM   17  C   UNL     1     -10.283  11.070  65.943  1.00  0.00    -0.309 A  
HETATM   18  C   UNL     1     -10.205  11.529  64.622  1.00  0.00    -0.285 A  
HETATM   19  C   UNL     1      -8.728   9.683  64.116  1.00  0.00    -0.238 A  
HETATM   20  C   UNL     1      -9.435  10.819  63.704  1.00  0.00    -0.325 A  
BRANCH  18  21
HETATM   21  O   UNL     1     -10.946  12.644  64.385  1.00  0.00    -0.311 OA 
HETATM   22  C   UNL     1     -12.269  12.533  63.889  1.00  0.00    -0.503 C  
HETATM   23  F   UNL     1     -12.530  11.354  63.287  1.00  0.00    -0.535 F  
HETATM   24  F   UNL     1     -12.456  13.509  62.973  1.00  0.00    -0.555 F  
HETATM   25  F   UNL     1     -13.151  12.724  64.893  1.00  0.00    -0.515 F  
ENDBRANCH  18  21
ENDBRANCH  14  15
ENDBRANCH  13  14
ENDBRANCH   8  13
TORSDOF 4
ENDMDL
MODEL       62
REMARK 921   NORMALIZED FREE ENERGY PREDICTED BY IDOCK:   -6.09 KCAL/MOL
REMARK 922        TOTAL FREE ENERGY PREDICTED BY IDOCK:   -7.96 KCAL/MOL
REMARK 923 INTER-LIGAND FREE ENERGY PREDICTED BY IDOCK:   -7.53 KCAL/MOL
REMARK 924 INTRA-LIGAND FREE ENERGY PREDICTED BY IDOCK:   -0.44 KCAL/MOL
REMARK 927      BINDING AFFINITY PREDICTED BY RF-SCORE:    0.00 PKD
ROOT
HETATM    1  O   UNL     1     -13.464  12.144  72.651  1.00  0.00    -0.213 OA 
HETATM    2  N   UNL     1     -13.175  11.130  71.995  1.00  0.00    -0.447 N  
HETATM    3  C   UNL     1     -12.438  11.345  70.770  1.00  0.00    -0.365 A  
HETATM    4  O   UNL     1     -13.474   9.969  72.296  1.00  0.00    -0.417 OA 
HETATM    5  C   UNL     1     -12.088  12.560  70.200  1.00  0.00    -0.292 A  
HETATM    6  N   UNL     1     -11.423  12.211  69.063  1.00  0.00    -0.274 NA 
HETATM    7  C   UNL     1     -10.780  13.074  68.101  1.00  0.00    -0.242 C  
HETATM    8  C   UNL     1     -10.358  12.342  66.813  1.00  0.00    -0.217 C  
HETATM    9  C   UNL     1     -10.710  10.840  66.807  1.00  0.00    -0.231 C  
HETATM   10  C   UNL     1     -11.345  10.852  69.017  1.00  0.00    -0.281 A  
HETATM   11  N   UNL     1     -11.955  10.285  70.024  1.00  0.00    -0.230 NA 
HETATM   12  O   UNL     1     -10.666  10.205  68.079  1.00  0.00    -0.223 OA 
ENDROOT
BRANCH   8  13
HETATM   13  O   UNL     1     -10.990  13.017  65.714  1.00  0.00    -0.275 OA 
BRANCH  13  14
HETATM   14  C   UNL     1     -10.099  13.735  64.860  1.00  0.00    -0.267 C  
BRANCH  14  15
HETATM   15  C   UNL     1     -10.048  15.161  65.339  1.00  0.00    -0.384 A  
HETATM   16  C   UNL     1      -9.046  15.580  66.217  1.00  0.00    -0.369 A  
HETATM   17  C   UNL     1      -9.023  16.899  66.672  1.00  0.00    -0.279 A  
HETATM   18  C   UNL     1      -9.987  17.824  66.256  1.00  0.00    -0.318 A  
HETATM   19  C   UNL     1     -11.009  16.091  64.916  1.00  0.00    -0.399 A  
HETATM   20  C   UNL     1     -10.993  17.409  65.386  1.00  0.00     0.137 A  
BRANCH  18  21
HETATM   21  O   UNL     1      -9.830  19.061  66.800  1.00  0.00    -0.310 OA 
HETATM   22  C   UNL     1      -9.788  19.224  68.207  1.00  0.00    -0.400 C  
HETATM   23  F   UNL     1     -10.339  18.201  68.893  1.00  0.00    -0.362 F  
HETATM   24  F   UNL     1     -10.480  20.344  68.519  1.00  0.00    -0.505 F  
HETATM   25  F   UNL     1      -8.511  19.393  68.610  1.00  0.00    -0.363 F  
ENDBRANCH  18  21
ENDBRANCH  14  15
ENDBRANCH  13  14
ENDBRANCH   8  13
TORSDOF 4
ENDMDL
MODEL       63
REMARK 921   NORMALIZED FREE ENERGY PREDICTED BY IDOCK:   -6.07 KCAL/MOL
REMARK 922        TOTAL FREE ENERGY PREDICTED BY IDOCK:   -7.94 KCAL/MOL
REMARK 923 INTER-LIGAND FREE ENERGY PREDICTED BY IDOCK:   -7.85 KCAL/MOL
REMARK 924 INTRA-LIGAND FREE ENERGY PREDICTED BY IDOCK:   -0.09 KCAL/MOL
REMARK 927      BINDING AFFINITY PREDICTED BY RF-SCORE:    0.00 PKD
ROOT
HETATM    1  O   UNL     1     -13.784  15.364  73.035  1.00  0.00    -0.484 OA 
HETATM    2  N   UNL     1     -13.700  14.252  72.489  1.00  0.00    -0.501 N  
HETATM    3  C   UNL     1     -13.029  14.213  71.209  1.00  0.00    -0.356 A  
HETATM    4  O   UNL     1     -14.151  13.193  72.940  1.00  0.00    -0.475 OA 
HETATM    5  C   UNL     1     -12.539  15.288  70.482  1.00  0.00    -0.399 A  
HETATM    6  N   UNL     1     -12.018  14.716  69.360  1.00  0.00    -0.314 NA 
HETATM    7  C   UNL     1     -11.321  15.356  68.269  1.00  0.00    -0.348 C  
HETATM    8  C   UNL     1     -11.109  14.431  67.056  1.00  0.00    -0.313 C  
HETATM    9  C   UNL     1     -11.685  13.013  67.247  1.00  0.00    -0.375 C  
HETATM   10  C   UNL     1     -12.152  13.365  69.471  1.00  0.00    -0.278 A  
HETATM   11  N   UNL     1     -12.768  13.015  70.569  1.00  0.00    -0.110 NA 
HETATM   12  O   UNL     1     -11.648  12.521  68.580  1.00  0.00    -0.269 OA 
ENDROOT
BRANCH   8  13
HETATM   13  O   UNL     1     -11.707  15.076  65.921  1.00  0.00    -0.248 OA 
BRANCH  13  14
HETATM   14  C   UNL     1     -10.779  15.581  64.961  1.00  0.00    -0.441 C  
BRANCH  14  15
HETATM   15  C   UNL     1      -9.891  16.577  65.656  1.00  0.00    -0.187 A  
HETATM   16  C   UNL     1     -10.363  17.853  65.972  1.00  0.00    -0.318 A  
HETATM   17  C   UNL     1      -9.522  18.775  66.596  1.00  0.00    -0.346 A  
HETATM   18  C   UNL     1      -8.203  18.442  66.926  1.00  0.00    -0.247 A  
HETATM   19  C   UNL     1      -8.571  16.241  65.995  1.00  0.00    -0.246 A  
HETATM   20  C   UNL     1      -7.725  17.173  66.607  1.00  0.00    -0.300 A  
BRANCH  18  21
HETATM   21  O   UNL     1      -7.514  19.454  67.518  1.00  0.00    -0.235 OA 
HETATM   22  C   UNL     1      -6.686  19.197  68.638  1.00  0.00    -0.280 C  
HETATM   23  F   UNL     1      -6.986  18.054  69.289  1.00  0.00    -0.257 F  
HETATM   24  F   UNL     1      -6.837  20.217  69.514  1.00  0.00    -0.347 F  
HETATM   25  F   UNL     1      -5.392  19.163  68.253  1.00  0.00    -0.177 F  
ENDBRANCH  18  21
ENDBRANCH  14  15
ENDBRANCH  13  14
ENDBRANCH   8  13
TORSDOF 4
ENDMDL
MODEL       64
REMARK 921   NORMALIZED FREE ENERGY PREDICTED BY IDOCK:   -6.05 KCAL/MOL
REMARK 922        TOTAL FREE ENERGY PREDICTED BY IDOCK:   -7.91 KCAL/MOL
REMARK 923 INTER-LIGAND FREE ENERGY PREDICTED BY IDOCK:   -7.20 KCAL/MOL
REMARK 924 INTRA-LIGAND FREE ENERGY PREDICTED BY IDOCK:   -0.70 KCAL/MOL
REMARK 927      BINDING AFFINITY PREDICTED BY RF-SCORE:    0.00 PKD
ROOT
HETATM    1  O   UNL     1      -8.467   9.097  63.273  1.00  0.00    -0.189 OA 
HETATM    2  N   UNL     1      -8.515   8.554  64.389  1.00  0.00    -0.122 N  
HETATM    3  C   UNL     1      -9.294   9.232  65.401  1.00  0.00    -0.226 A  
HETATM    4  O   UNL     1      -7.947   7.502  64.702  1.00  0.00    -0.134 OA 
HETATM    5  C   UNL     1      -9.927  10.461  65.294  1.00  0.00    -0.309 A  
HETATM    6  N   UNL     1     -10.502  10.643  66.515  1.00  0.00    -0.239 NA 
HETATM    7  C   UNL     1     -11.341  11.732  66.957  1.00  0.00    -0.321 C  
HETATM    8  C   UNL     1     -11.591  11.730  68.478  1.00  0.00    -0.321 C  
HETATM    9  C   UNL     1     -10.893  10.573  69.220  1.00  0.00    -0.243 C  
HETATM   10  C   UNL     1     -10.256   9.536  67.270  1.00  0.00    -0.234 A  
HETATM   11  N   UNL     1      -9.519   8.659  66.640  1.00  0.00    -0.189 NA 
HETATM   12  O   UNL     1     -10.773   9.365  68.479  1.00  0.00    -0.214 OA 
ENDROOT
BRANCH   8  13
HETATM   13  O   UNL     1     -11.148  13.000  68.982  1.00  0.00    -0.249 OA 
BRANCH  13  14
HETATM   14  C   UNL     1     -12.070  14.073  68.797  1.00  0.00    -0.303 C  
BRANCH  14  15
HETATM   15  C   UNL     1     -11.304  15.255  68.265  1.00  0.00    -0.344 A  
HETATM   16  C   UNL     1     -10.988  16.330  69.098  1.00  0.00    -0.324 A  
HETATM   17  C   UNL     1     -10.297  17.430  68.587  1.00  0.00    -0.364 A  
HETATM   18  C   UNL     1      -9.899  17.474  67.246  1.00  0.00    -0.294 A  
HETATM   19  C   UNL     1     -10.898  15.296  66.923  1.00  0.00    -0.317 A  
HETATM   20  C   UNL     1     -10.218  16.406  66.410  1.00  0.00    -0.325 A  
BRANCH  18  21
HETATM   21  O   UNL     1      -9.247  18.617  66.905  1.00  0.00    -0.286 OA 
HETATM   22  C   UNL     1      -9.977  19.779  66.548  1.00  0.00    -0.459 C  
HETATM   23  F   UNL     1     -11.245  19.530  66.158  1.00  0.00    -0.376 F  
HETATM   24  F   UNL     1      -9.340  20.372  65.513  1.00  0.00    -0.273 F  
HETATM   25  F   UNL     1      -9.993  20.646  67.583  1.00  0.00    -0.551 F  
ENDBRANCH  18  21
ENDBRANCH  14  15
ENDBRANCH  13  14
ENDBRANCH   8  13
TORSDOF 4
ENDMDL
MODEL       65
REMARK 921   NORMALIZED FREE ENERGY PREDICTED BY IDOCK:   -6.05 KCAL/MOL
REMARK 922        TOTAL FREE ENERGY PREDICTED BY IDOCK:   -7.91 KCAL/MOL
REMARK 923 INTER-LIGAND FREE ENERGY PREDICTED BY IDOCK:   -7.19 KCAL/MOL
REMARK 924 INTRA-LIGAND FREE ENERGY PREDICTED BY IDOCK:   -0.72 KCAL/MOL
REMARK 927      BINDING AFFINITY PREDICTED BY RF-SCORE:    0.00 PKD
ROOT
HETATM    1  O   UNL     1     -10.544  18.435  66.922  1.00  0.00    -0.386 OA 
HETATM    2  N   UNL     1      -9.901  17.452  66.518  1.00  0.00    -0.291 N  
HETATM    3  C   UNL     1     -10.308  16.163  67.030  1.00  0.00    -0.290 A  
HETATM    4  O   UNL     1      -8.946  17.490  65.734  1.00  0.00    -0.512 OA 
HETATM    5  C   UNL     1     -11.281  15.904  67.984  1.00  0.00    -0.319 A  
HETATM    6  N   UNL     1     -11.263  14.548  68.113  1.00  0.00    -0.272 NA 
HETATM    7  C   UNL     1     -12.111  13.715  68.933  1.00  0.00    -0.300 C  
HETATM    8  C   UNL     1     -11.628  12.255  69.022  1.00  0.00    -0.316 C  
HETATM    9  C   UNL     1     -10.337  11.978  68.226  1.00  0.00    -0.204 C  
HETATM   10  C   UNL     1     -10.358  14.049  67.227  1.00  0.00    -0.264 A  
HETATM   11  N   UNL     1      -9.747  14.990  66.556  1.00  0.00    -0.252 NA 
HETATM   12  O   UNL     1     -10.182  12.747  67.040  1.00  0.00    -0.238 OA 
ENDROOT
BRANCH   8  13
HETATM   13  O   UNL     1     -11.443  11.954  70.414  1.00  0.00    -0.106 OA 
BRANCH  13  14
HETATM   14  C   UNL     1     -12.501  11.204  71.011  1.00  0.00    -0.403 C  
BRANCH  14  15
HETATM   15  C   UNL     1     -12.009   9.797  71.220  1.00  0.00    -0.471 A  
HETATM   16  C   UNL     1     -10.641   9.520  71.259  1.00  0.00    -0.358 A  
HETATM   17  C   UNL     1     -10.198   8.208  71.430  1.00  0.00    -0.248 A  
HETATM   18  C   UNL     1     -11.106   7.152  71.575  1.00  0.00    -0.239 A  
HETATM   19  C   UNL     1     -12.918   8.739  71.374  1.00  0.00    -0.306 A  
HETATM   20  C   UNL     1     -12.471   7.422  71.531  1.00  0.00    -0.394 A  
BRANCH  18  21
HETATM   21  O   UNL     1     -10.513   5.937  71.721  1.00  0.00    -0.212 OA 
HETATM   22  C   UNL     1     -10.173   5.165  70.582  1.00  0.00    -0.256 C  
HETATM   23  F   UNL     1     -10.854   5.505  69.468  1.00  0.00    -0.358 F  
HETATM   24  F   UNL     1     -10.454   3.871  70.854  1.00  0.00    -0.076 F  
HETATM   25  F   UNL     1      -8.848   5.265  70.340  1.00  0.00    -0.117 F  
ENDBRANCH  18  21
ENDBRANCH  14  15
ENDBRANCH  13  14
ENDBRANCH   8  13
TORSDOF 4
ENDMDL
MODEL       66
REMARK 921   NORMALIZED FREE ENERGY PREDICTED BY IDOCK:   -6.03 KCAL/MOL
REMARK 922        TOTAL FREE ENERGY PREDICTED BY IDOCK:   -7.88 KCAL/MOL
REMARK 923 INTER-LIGAND FREE ENERGY PREDICTED BY IDOCK:   -7.43 KCAL/MOL
REMARK 924 INTRA-LIGAND FREE ENERGY PREDICTED BY IDOCK:   -0.46 KCAL/MOL
REMARK 927      BINDING AFFINITY PREDICTED BY RF-SCORE:    0.00 PKD
ROOT
HETATM    1  O   UNL     1     -10.671   5.065  66.608  1.00  0.00    -0.254 OA 
HETATM    2  N   UNL     1      -9.784   5.655  67.245  1.00  0.00    -0.128 N  
HETATM    3  C   UNL     1     -10.149   6.145  68.556  1.00  0.00    -0.162 A  
HETATM    4  O   UNL     1      -8.632   5.866  66.847  1.00  0.00    -0.112 OA 
HETATM    5  C   UNL     1     -11.400   6.103  69.151  1.00  0.00    -0.232 A  
HETATM    6  N   UNL     1     -11.208   6.697  70.362  1.00  0.00    -0.317 NA 
HETATM    7  C   UNL     1     -12.161   6.880  71.432  1.00  0.00    -0.364 C  
HETATM    8  C   UNL     1     -11.658   7.824  72.541  1.00  0.00    -0.367 C  
HETATM    9  C   UNL     1     -10.245   8.386  72.285  1.00  0.00    -0.326 C  
HETATM   10  C   UNL     1      -9.888   7.012  70.476  1.00  0.00    -0.179 A  
HETATM   11  N   UNL     1      -9.209   6.705  69.402  1.00  0.00    -0.142 NA 
HETATM   12  O   UNL     1      -9.365   7.513  71.587  1.00  0.00    -0.145 OA 
ENDROOT
BRANCH   8  13
HETATM   13  O   UNL     1     -12.616   8.887  72.660  1.00  0.00    -0.352 OA 
BRANCH  13  14
HETATM   14  C   UNL     1     -13.323   9.195  71.459  1.00  0.00    -0.355 C  
BRANCH  14  15
HETATM   15  C   UNL     1     -12.861  10.546  70.984  1.00  0.00    -0.502 A  
HETATM   16  C   UNL     1     -12.191  10.682  69.766  1.00  0.00    -0.318 A  
HETATM   17  C   UNL     1     -11.747  11.936  69.348  1.00  0.00    -0.401 A  
HETATM   18  C   UNL     1     -11.970  13.078  70.127  1.00  0.00    -0.303 A  
HETATM   19  C   UNL     1     -13.091  11.692  71.760  1.00  0.00    -0.487 A  
HETATM   20  C   UNL     1     -12.632  12.947  71.346  1.00  0.00    -0.319 A  
BRANCH  18  21
HETATM   21  O   UNL     1     -11.465  14.219  69.585  1.00  0.00    -0.263 OA 
HETATM   22  C   UNL     1     -12.021  15.478  69.921  1.00  0.00    -0.362 C  
HETATM   23  F   UNL     1     -13.276  15.409  70.412  1.00  0.00    -0.393 F  
HETATM   24  F   UNL     1     -12.063  16.231  68.798  1.00  0.00    -0.317 F  
HETATM   25  F   UNL     1     -11.227  16.104  70.817  1.00  0.00    -0.330 F  
ENDBRANCH  18  21
ENDBRANCH  14  15
ENDBRANCH  13  14
ENDBRANCH   8  13
TORSDOF 4
ENDMDL
MODEL       67
REMARK 921   NORMALIZED FREE ENERGY PREDICTED BY IDOCK:   -6.01 KCAL/MOL
REMARK 922        TOTAL FREE ENERGY PREDICTED BY IDOCK:   -7.86 KCAL/MOL
REMARK 923 INTER-LIGAND FREE ENERGY PREDICTED BY IDOCK:   -7.38 KCAL/MOL
REMARK 924 INTRA-LIGAND FREE ENERGY PREDICTED BY IDOCK:   -0.47 KCAL/MOL
REMARK 927      BINDING AFFINITY PREDICTED BY RF-SCORE:    0.00 PKD
ROOT
HETATM    1  O   UNL     1      -9.172   5.057  72.728  1.00  0.00    -0.132 OA 
HETATM    2  N   UNL     1      -9.408   4.711  71.560  1.00  0.00    -0.141 N  
HETATM    3  C   UNL     1      -9.599   5.776  70.600  1.00  0.00    -0.174 A  
HETATM    4  O   UNL     1      -9.504   3.546  71.160  1.00  0.00    -0.135 OA 
HETATM    5  C   UNL     1      -9.630   7.140  70.850  1.00  0.00    -0.167 A  
HETATM    6  N   UNL     1      -9.846   7.694  69.625  1.00  0.00    -0.179 NA 
HETATM    7  C   UNL     1      -9.914   9.093  69.274  1.00  0.00    -0.187 C  
HETATM    8  C   UNL     1     -10.432   9.338  67.844  1.00  0.00    -0.236 C  
HETATM    9  C   UNL     1     -10.778   8.045  67.078  1.00  0.00    -0.193 C  
HETATM   10  C   UNL     1      -9.878   6.691  68.704  1.00  0.00    -0.137 A  
HETATM   11  N   UNL     1      -9.743   5.511  69.250  1.00  0.00    -0.148 NA 
HETATM   12  O   UNL     1      -9.972   6.918  67.401  1.00  0.00    -0.145 OA 
ENDROOT
BRANCH   8  13
HETATM   13  O   UNL     1     -11.583  10.191  67.950  1.00  0.00    -0.256 OA 
BRANCH  13  14
HETATM   14  C   UNL     1     -11.313  11.584  67.794  1.00  0.00    -0.296 C  
BRANCH  14  15
HETATM   15  C   UNL     1     -11.784  12.288  69.038  1.00  0.00    -0.376 A  
HETATM   16  C   UNL     1     -12.157  11.559  70.170  1.00  0.00    -0.432 A  
HETATM   17  C   UNL     1     -12.614  12.222  71.309  1.00  0.00    -0.336 A  
HETATM   18  C   UNL     1     -12.698  13.619  71.347  1.00  0.00    -0.352 A  
HETATM   19  C   UNL     1     -11.861  13.688  69.080  1.00  0.00    -0.394 A  
HETATM   20  C   UNL     1     -12.334  14.350  70.218  1.00  0.00    -0.410 A  
BRANCH  18  21
HETATM   21  O   UNL     1     -13.174  14.108  72.524  1.00  0.00    -0.435 OA 
HETATM   22  C   UNL     1     -12.469  15.125  73.213  1.00  0.00    -0.483 C  
HETATM   23  F   UNL     1     -11.168  15.219  72.868  1.00  0.00    -0.517 F  
HETATM   24  F   UNL     1     -12.521  14.848  74.536  1.00  0.00    -0.609 F  
HETATM   25  F   UNL     1     -13.070  16.318  73.010  1.00  0.00    -0.512 F  
ENDBRANCH  18  21
ENDBRANCH  14  15
ENDBRANCH  13  14
ENDBRANCH   8  13
TORSDOF 4
ENDMDL
MODEL       68
REMARK 921   NORMALIZED FREE ENERGY PREDICTED BY IDOCK:   -6.00 KCAL/MOL
REMARK 922        TOTAL FREE ENERGY PREDICTED BY IDOCK:   -7.84 KCAL/MOL
REMARK 923 INTER-LIGAND FREE ENERGY PREDICTED BY IDOCK:   -7.16 KCAL/MOL
REMARK 924 INTRA-LIGAND FREE ENERGY PREDICTED BY IDOCK:   -0.68 KCAL/MOL
REMARK 927      BINDING AFFINITY PREDICTED BY RF-SCORE:    0.00 PKD
ROOT
HETATM    1  O   UNL     1     -11.796  12.816  63.121  1.00  0.00    -0.493 OA 
HETATM    2  N   UNL     1     -12.177  13.573  64.027  1.00  0.00    -0.424 N  
HETATM    3  C   UNL     1     -11.900  13.148  65.381  1.00  0.00    -0.372 A  
HETATM    4  O   UNL     1     -12.779  14.641  63.867  1.00  0.00    -0.788 OA 
HETATM    5  C   UNL     1     -11.328  11.951  65.787  1.00  0.00    -0.299 A  
HETATM    6  N   UNL     1     -11.300  12.044  67.146  1.00  0.00    -0.315 NA 
HETATM    7  C   UNL     1     -10.756  11.103  68.097  1.00  0.00    -0.204 C  
HETATM    8  C   UNL     1     -11.138  11.422  69.555  1.00  0.00    -0.211 C  
HETATM    9  C   UNL     1     -12.026  12.674  69.706  1.00  0.00    -0.295 C  
HETATM   10  C   UNL     1     -11.782  13.268  67.498  1.00  0.00    -0.366 A  
HETATM   11  N   UNL     1     -12.167  13.967  66.463  1.00  0.00    -0.459 NA 
HETATM   12  O   UNL     1     -11.788  13.701  68.752  1.00  0.00    -0.323 OA 
ENDROOT
BRANCH   8  13
HETATM   13  O   UNL     1     -11.799  10.261  70.084  1.00  0.00    -0.264 OA 
BRANCH  13  14
HETATM   14  C   UNL     1     -11.266   9.778  71.316  1.00  0.00    -0.347 C  
BRANCH  14  15
HETATM   15  C   UNL     1     -10.936   8.321  71.137  1.00  0.00    -0.286 A  
HETATM   16  C   UNL     1      -9.752   7.790  71.653  1.00  0.00    -0.200 A  
HETATM   17  C   UNL     1      -9.447   6.443  71.459  1.00  0.00    -0.162 A  
HETATM   18  C   UNL     1     -10.317   5.598  70.760  1.00  0.00    -0.243 A  
HETATM   19  C   UNL     1     -11.812   7.471  70.443  1.00  0.00    -0.062 A  
HETATM   20  C   UNL     1     -11.496   6.123  70.238  1.00  0.00    -0.357 A  
BRANCH  18  21
HETATM   21  O   UNL     1      -9.868   4.319  70.650  1.00  0.00    -0.196 OA 
HETATM   22  C   UNL     1      -9.062   3.936  69.549  1.00  0.00    -0.130 C  
HETATM   23  F   UNL     1      -9.167   4.756  68.482  1.00  0.00    -0.117 F  
HETATM   24  F   UNL     1      -9.452   2.702  69.154  1.00  0.00    -0.199 F  
HETATM   25  F   UNL     1      -7.768   3.865  69.930  1.00  0.00    -0.050 F  
ENDBRANCH  18  21
ENDBRANCH  14  15
ENDBRANCH  13  14
ENDBRANCH   8  13
TORSDOF 4
ENDMDL
MODEL       69
REMARK 921   NORMALIZED FREE ENERGY PREDICTED BY IDOCK:   -5.97 KCAL/MOL
REMARK 922        TOTAL FREE ENERGY PREDICTED BY IDOCK:   -7.81 KCAL/MOL
REMARK 923 INTER-LIGAND FREE ENERGY PREDICTED BY IDOCK:   -6.96 KCAL/MOL
REMARK 924 INTRA-LIGAND FREE ENERGY PREDICTED BY IDOCK:   -0.85 KCAL/MOL
REMARK 927      BINDING AFFINITY PREDICTED BY RF-SCORE:    0.00 PKD
ROOT
HETATM    1  O   UNL     1      -6.951   8.843  63.671  1.00  0.00    -0.089 OA 
HETATM    2  N   UNL     1      -8.138   9.129  63.447  1.00  0.00    -0.153 N  
HETATM    3  C   UNL     1      -8.744  10.099  64.332  1.00  0.00    -0.202 A  
HETATM    4  O   UNL     1      -8.837   8.647  62.549  1.00  0.00    -0.144 OA 
HETATM    5  C   UNL     1      -8.176  10.686  65.453  1.00  0.00    -0.125 A  
HETATM    6  N   UNL     1      -9.156  11.505  65.927  1.00  0.00    -0.203 NA 
HETATM    7  C   UNL     1      -9.102  12.410  67.051  1.00  0.00    -0.207 C  
HETATM    8  C   UNL     1     -10.479  12.975  67.446  1.00  0.00    -0.234 C  
HETATM    9  C   UNL     1     -11.637  12.459  66.568  1.00  0.00    -0.387 C  
HETATM   10  C   UNL     1     -10.219  11.432  65.078  1.00  0.00    -0.281 A  
HETATM   11  N   UNL     1     -10.018  10.585  64.103  1.00  0.00    -0.333 NA 
HETATM   12  O   UNL     1     -11.296  12.194  65.213  1.00  0.00    -0.324 OA 
ENDROOT
BRANCH   8  13
HETATM   13  O   UNL     1     -10.696  12.640  68.825  1.00  0.00    -0.235 OA 
BRANCH  13  14
HETATM   14  C   UNL     1     -11.957  12.031  69.103  1.00  0.00    -0.268 C  
BRANCH  14  15
HETATM   15  C   UNL     1     -11.716  10.875  70.036  1.00  0.00    -0.427 A  
HETATM   16  C   UNL     1     -12.700  10.474  70.942  1.00  0.00    -0.495 A  
HETATM   17  C   UNL     1     -12.455   9.416  71.817  1.00  0.00    -0.471 A  
HETATM   18  C   UNL     1     -11.234   8.731  71.799  1.00  0.00    -0.340 A  
HETATM   19  C   UNL     1     -10.496  10.182  70.013  1.00  0.00    -0.325 A  
HETATM   20  C   UNL     1     -10.247   9.130  70.901  1.00  0.00    -0.351 A  
BRANCH  18  21
HETATM   21  O   UNL     1     -11.151   7.735  72.721  1.00  0.00    -0.342 OA 
HETATM   22  C   UNL     1     -11.176   6.378  72.313  1.00  0.00    -0.276 C  
HETATM   23  F   UNL     1     -11.715   6.184  71.091  1.00  0.00    -0.367 F  
HETATM   24  F   UNL     1     -11.925   5.687  73.203  1.00  0.00    -0.205 F  
HETATM   25  F   UNL     1      -9.925   5.869  72.334  1.00  0.00    -0.177 F  
ENDBRANCH  18  21
ENDBRANCH  14  15
ENDBRANCH  13  14
ENDBRANCH   8  13
TORSDOF 4
ENDMDL
MODEL       70
REMARK 921   NORMALIZED FREE ENERGY PREDICTED BY IDOCK:   -5.96 KCAL/MOL
REMARK 922        TOTAL FREE ENERGY PREDICTED BY IDOCK:   -7.80 KCAL/MOL
REMARK 923 INTER-LIGAND FREE ENERGY PREDICTED BY IDOCK:   -6.90 KCAL/MOL
REMARK 924 INTRA-LIGAND FREE ENERGY PREDICTED BY IDOCK:   -0.90 KCAL/MOL
REMARK 927      BINDING AFFINITY PREDICTED BY RF-SCORE:    0.00 PKD
ROOT
HETATM    1  O   UNL     1     -12.006  15.671  70.118  1.00  0.00    -0.338 OA 
HETATM    2  N   UNL     1     -11.389  16.083  69.123  1.00  0.00    -0.342 N  
HETATM    3  C   UNL     1     -11.415  15.233  67.953  1.00  0.00    -0.316 A  
HETATM    4  O   UNL     1     -10.751  17.140  69.058  1.00  0.00    -0.309 OA 
HETATM    5  C   UNL     1     -11.982  13.973  67.840  1.00  0.00    -0.351 A  
HETATM    6  N   UNL     1     -11.724  13.610  66.552  1.00  0.00    -0.362 NA 
HETATM    7  C   UNL     1     -12.133  12.410  65.861  1.00  0.00    -0.281 C  
HETATM    8  C   UNL     1     -11.436  12.225  64.499  1.00  0.00    -0.341 C  
HETATM    9  C   UNL     1     -10.441  13.351  64.152  1.00  0.00    -0.181 C  
HETATM   10  C   UNL     1     -11.086  14.646  65.939  1.00  0.00    -0.338 A  
HETATM   11  N   UNL     1     -10.869  15.646  66.751  1.00  0.00    -0.307 NA 
HETATM   12  O   UNL     1     -10.789  14.638  64.646  1.00  0.00    -0.385 OA 
ENDROOT
BRANCH   8  13
HETATM   13  O   UNL     1     -10.773  10.951  64.532  1.00  0.00    -0.327 OA 
BRANCH  13  14
HETATM   14  C   UNL     1      -9.495  10.956  65.167  1.00  0.00    -0.227 C  
BRANCH  14  15
HETATM   15  C   UNL     1      -9.477   9.842  66.178  1.00  0.00    -0.261 A  
HETATM   16  C   UNL     1      -9.002   8.575  65.833  1.00  0.00    -0.235 A  
HETATM   17  C   UNL     1      -9.012   7.545  66.773  1.00  0.00    -0.164 A  
HETATM   18  C   UNL     1      -9.485   7.758  68.074  1.00  0.00    -0.144 A  
HETATM   19  C   UNL     1      -9.942  10.057  67.484  1.00  0.00    -0.232 A  
HETATM   20  C   UNL     1      -9.966   9.018  68.421  1.00  0.00    -0.200 A  
BRANCH  18  21
HETATM   21  O   UNL     1      -9.438   6.650  68.862  1.00  0.00    -0.132 OA 
HETATM   22  C   UNL     1     -10.468   5.679  68.794  1.00  0.00    -0.219 C  
HETATM   23  F   UNL     1     -11.623   6.143  68.272  1.00  0.00    -0.342 F  
HETATM   24  F   UNL     1     -10.729   5.258  70.053  1.00  0.00    -0.360 F  
HETATM   25  F   UNL     1     -10.050   4.617  68.074  1.00  0.00    -0.205 F  
ENDBRANCH  18  21
ENDBRANCH  14  15
ENDBRANCH  13  14
ENDBRANCH   8  13
TORSDOF 4
ENDMDL
MODEL       71
REMARK 921   NORMALIZED FREE ENERGY PREDICTED BY IDOCK:   -5.95 KCAL/MOL
REMARK 922        TOTAL FREE ENERGY PREDICTED BY IDOCK:   -7.79 KCAL/MOL
REMARK 923 INTER-LIGAND FREE ENERGY PREDICTED BY IDOCK:   -6.70 KCAL/MOL
REMARK 924 INTRA-LIGAND FREE ENERGY PREDICTED BY IDOCK:   -1.09 KCAL/MOL
REMARK 927      BINDING AFFINITY PREDICTED BY RF-SCORE:    0.00 PKD
ROOT
HETATM    1  O   UNL     1     -12.055   8.264  72.591  1.00  0.00    -0.384 OA 
HETATM    2  N   UNL     1     -11.984   7.795  71.444  1.00  0.00    -0.299 N  
HETATM    3  C   UNL     1     -10.953   8.340  70.589  1.00  0.00    -0.240 A  
HETATM    4  O   UNL     1     -12.722   6.921  70.977  1.00  0.00    -0.356 OA 
HETATM    5  C   UNL     1     -10.087   9.385  70.875  1.00  0.00    -0.296 A  
HETATM    6  N   UNL     1      -9.334   9.507  69.746  1.00  0.00    -0.195 NA 
HETATM    7  C   UNL     1      -8.229  10.403  69.498  1.00  0.00    -0.126 C  
HETATM    8  C   UNL     1      -7.793  10.439  68.021  1.00  0.00    -0.104 C  
HETATM    9  C   UNL     1      -8.624   9.518  67.105  1.00  0.00    -0.132 C  
HETATM   10  C   UNL     1      -9.716   8.533  68.873  1.00  0.00    -0.170 A  
HETATM   11  N   UNL     1     -10.700   7.809  69.337  1.00  0.00    -0.208 NA 
HETATM   12  O   UNL     1      -9.098   8.325  67.718  1.00  0.00    -0.132 OA 
ENDROOT
BRANCH   8  13
HETATM   13  O   UNL     1      -7.881  11.804  67.586  1.00  0.00    -0.123 OA 
BRANCH  13  14
HETATM   14  C   UNL     1      -9.004  12.098  66.756  1.00  0.00    -0.203 C  
BRANCH  14  15
HETATM   15  C   UNL     1      -9.906  13.034  67.515  1.00  0.00    -0.209 A  
HETATM   16  C   UNL     1      -9.372  14.073  68.281  1.00  0.00    -0.208 A  
HETATM   17  C   UNL     1     -10.218  14.919  68.998  1.00  0.00    -0.243 A  
HETATM   18  C   UNL     1     -11.607  14.755  68.958  1.00  0.00    -0.297 A  
HETATM   19  C   UNL     1     -11.300  12.876  67.469  1.00  0.00    -0.354 A  
HETATM   20  C   UNL     1     -12.145  13.717  68.201  1.00  0.00    -0.316 A  
BRANCH  18  21
HETATM   21  O   UNL     1     -12.287  15.654  69.720  1.00  0.00    -0.333 OA 
HETATM   22  C   UNL     1     -12.394  15.468  71.121  1.00  0.00    -0.411 C  
HETATM   23  F   UNL     1     -12.185  14.196  71.522  1.00  0.00    -0.377 F  
HETATM   24  F   UNL     1     -13.647  15.813  71.494  1.00  0.00    -0.531 F  
HETATM   25  F   UNL     1     -11.527  16.283  71.759  1.00  0.00    -0.454 F  
ENDBRANCH  18  21
ENDBRANCH  14  15
ENDBRANCH  13  14
ENDBRANCH   8  13
TORSDOF 4
ENDMDL
MODEL       72
REMARK 921   NORMALIZED FREE ENERGY PREDICTED BY IDOCK:   -5.94 KCAL/MOL
REMARK 922        TOTAL FREE ENERGY PREDICTED BY IDOCK:   -7.77 KCAL/MOL
REMARK 923 INTER-LIGAND FREE ENERGY PREDICTED BY IDOCK:   -7.01 KCAL/MOL
REMARK 924 INTRA-LIGAND FREE ENERGY PREDICTED BY IDOCK:   -0.77 KCAL/MOL
REMARK 927      BINDING AFFINITY PREDICTED BY RF-SCORE:    0.00 PKD
ROOT
HETATM    1  O   UNL     1      -9.433  10.373  63.793  1.00  0.00    -0.262 OA 
HETATM    2  N   UNL     1      -9.645   9.918  64.929  1.00  0.00    -0.297 N  
HETATM    3  C   UNL     1     -10.283  10.811  65.870  1.00  0.00    -0.259 A  
HETATM    4  O   UNL     1      -9.346   8.783  65.317  1.00  0.00    -0.122 OA 
HETATM    5  C   UNL     1     -10.612  12.144  65.676  1.00  0.00    -0.262 A  
HETATM    6  N   UNL     1     -11.174  12.520  66.859  1.00  0.00    -0.285 NA 
HETATM    7  C   UNL     1     -11.755  13.794  67.210  1.00  0.00    -0.382 C  
HETATM    8  C   UNL     1     -12.054  13.934  68.715  1.00  0.00    -0.309 C  
HETATM    9  C   UNL     1     -11.670  12.691  69.543  1.00  0.00    -0.308 C  
HETATM   10  C   UNL     1     -11.218  11.429  67.674  1.00  0.00    -0.283 A  
HETATM   11  N   UNL     1     -10.680  10.374  67.121  1.00  0.00    -0.266 NA 
HETATM   12  O   UNL     1     -11.804  11.448  68.864  1.00  0.00    -0.316 OA 
ENDROOT
BRANCH   8  13
HETATM   13  O   UNL     1     -11.349  15.095  69.182  1.00  0.00    -0.264 OA 
BRANCH  13  14
HETATM   14  C   UNL     1     -11.757  16.325  68.583  1.00  0.00    -0.113 C  
BRANCH  14  15
HETATM   15  C   UNL     1     -10.525  17.159  68.356  1.00  0.00    -0.376 A  
HETATM   16  C   UNL     1      -9.254  16.585  68.427  1.00  0.00    -0.222 A  
HETATM   17  C   UNL     1      -8.120  17.374  68.238  1.00  0.00    -0.249 A  
HETATM   18  C   UNL     1      -8.229  18.743  67.964  1.00  0.00    -0.291 A  
HETATM   19  C   UNL     1     -10.634  18.529  68.073  1.00  0.00    -0.347 A  
HETATM   20  C   UNL     1      -9.494  19.322  67.898  1.00  0.00    -0.393 A  
BRANCH  18  21
HETATM   21  O   UNL     1      -7.030  19.369  67.818  1.00  0.00    -0.234 OA 
HETATM   22  C   UNL     1      -6.287  19.767  68.957  1.00  0.00    -0.306 C  
HETATM   23  F   UNL     1      -7.026  19.881  70.080  1.00  0.00    -0.357 F  
HETATM   24  F   UNL     1      -5.745  20.980  68.700  1.00  0.00    -0.320 F  
HETATM   25  F   UNL     1      -5.279  18.895  69.174  1.00  0.00    -0.185 F  
ENDBRANCH  18  21
ENDBRANCH  14  15
ENDBRANCH  13  14
ENDBRANCH   8  13
TORSDOF 4
ENDMDL
MODEL       73
REMARK 921   NORMALIZED FREE ENERGY PREDICTED BY IDOCK:   -5.91 KCAL/MOL
REMARK 922        TOTAL FREE ENERGY PREDICTED BY IDOCK:   -7.74 KCAL/MOL
REMARK 923 INTER-LIGAND FREE ENERGY PREDICTED BY IDOCK:   -6.97 KCAL/MOL
REMARK 924 INTRA-LIGAND FREE ENERGY PREDICTED BY IDOCK:   -0.77 KCAL/MOL
REMARK 927      BINDING AFFINITY PREDICTED BY RF-SCORE:    0.00 PKD
ROOT
HETATM    1  O   UNL     1      -9.748   3.485  71.939  1.00  0.00    -0.145 OA 
HETATM    2  N   UNL     1     -10.553   4.185  72.573  1.00  0.00    -0.135 N  
HETATM    3  C   UNL     1     -10.864   5.480  72.009  1.00  0.00    -0.226 A  
HETATM    4  O   UNL     1     -11.093   3.873  73.641  1.00  0.00    -0.243 OA 
HETATM    5  C   UNL     1     -10.303   6.063  70.883  1.00  0.00    -0.222 A  
HETATM    6  N   UNL     1     -10.927   7.271  70.793  1.00  0.00    -0.245 NA 
HETATM    7  C   UNL     1     -10.778   8.283  69.774  1.00  0.00    -0.221 C  
HETATM    8  C   UNL     1     -11.445   9.622  70.143  1.00  0.00    -0.189 C  
HETATM    9  C   UNL     1     -12.133   9.614  71.523  1.00  0.00    -0.401 C  
HETATM   10  C   UNL     1     -11.849   7.348  71.793  1.00  0.00    -0.294 A  
HETATM   11  N   UNL     1     -11.839   6.291  72.561  1.00  0.00    -0.213 NA 
HETATM   12  O   UNL     1     -12.692   8.365  71.912  1.00  0.00    -0.323 OA 
ENDROOT
BRANCH   8  13
HETATM   13  O   UNL     1     -10.428  10.634  70.086  1.00  0.00    -0.144 OA 
BRANCH  13  14
HETATM   14  C   UNL     1      -9.436  10.431  69.080  1.00  0.00    -0.197 C  
BRANCH  14  15
HETATM   15  C   UNL     1      -9.817  11.258  67.882  1.00  0.00    -0.187 A  
HETATM   16  C   UNL     1      -9.827  10.696  66.603  1.00  0.00    -0.245 A  
HETATM   17  C   UNL     1     -10.159  11.480  65.498  1.00  0.00    -0.286 A  
HETATM   18  C   UNL     1     -10.498  12.830  65.645  1.00  0.00    -0.278 A  
HETATM   19  C   UNL     1     -10.165  12.609  68.029  1.00  0.00    -0.230 A  
HETATM   20  C   UNL     1     -10.484  13.397  66.917  1.00  0.00    -0.273 A  
BRANCH  18  21
HETATM   21  O   UNL     1     -10.785  13.454  64.471  1.00  0.00    -0.380 OA 
HETATM   22  C   UNL     1     -12.131  13.646  64.072  1.00  0.00    -0.425 C  
HETATM   23  F   UNL     1     -13.004  12.813  64.676  1.00  0.00    -0.470 F  
HETATM   24  F   UNL     1     -12.208  13.422  62.740  1.00  0.00    -0.498 F  
HETATM   25  F   UNL     1     -12.500  14.923  64.306  1.00  0.00    -0.504 F  
ENDBRANCH  18  21
ENDBRANCH  14  15
ENDBRANCH  13  14
ENDBRANCH   8  13
TORSDOF 4
ENDMDL
MODEL       74
REMARK 921   NORMALIZED FREE ENERGY PREDICTED BY IDOCK:   -5.89 KCAL/MOL
REMARK 922        TOTAL FREE ENERGY PREDICTED BY IDOCK:   -7.72 KCAL/MOL
REMARK 923 INTER-LIGAND FREE ENERGY PREDICTED BY IDOCK:   -7.15 KCAL/MOL
REMARK 924 INTRA-LIGAND FREE ENERGY PREDICTED BY IDOCK:   -0.57 KCAL/MOL
REMARK 927      BINDING AFFINITY PREDICTED BY RF-SCORE:    0.00 PKD
ROOT
HETATM    1  O   UNL     1      -9.951  11.795  63.008  1.00  0.00    -0.396 OA 
HETATM    2  N   UNL     1     -10.899  12.266  63.657  1.00  0.00    -0.435 N  
HETATM    3  C   UNL     1     -10.902  11.997  65.078  1.00  0.00    -0.304 A  
HETATM    4  O   UNL     1     -11.834  12.925  63.189  1.00  0.00    -0.506 OA 
HETATM    5  C   UNL     1     -10.012  11.205  65.787  1.00  0.00    -0.245 A  
HETATM    6  N   UNL     1     -10.460  11.276  67.072  1.00  0.00    -0.223 NA 
HETATM    7  C   UNL     1      -9.880  10.688  68.256  1.00  0.00    -0.163 C  
HETATM    8  C   UNL     1     -10.803  10.761  69.487  1.00  0.00    -0.242 C  
HETATM    9  C   UNL     1     -12.158  11.443  69.208  1.00  0.00    -0.289 C  
HETATM   10  C   UNL     1     -11.527  12.121  67.103  1.00  0.00    -0.346 A  
HETATM   11  N   UNL     1     -11.838  12.574  65.917  1.00  0.00    -0.460 NA 
HETATM   12  O   UNL     1     -12.124  12.478  68.233  1.00  0.00    -0.284 OA 
ENDROOT
BRANCH   8  13
HETATM   13  O   UNL     1     -10.995   9.418  69.955  1.00  0.00    -0.230 OA 
BRANCH  13  14
HETATM   14  C   UNL     1     -11.973   9.275  70.985  1.00  0.00    -0.300 C  
BRANCH  14  15
HETATM   15  C   UNL     1     -11.629   8.045  71.781  1.00  0.00    -0.331 A  
HETATM   16  C   UNL     1     -12.348   6.861  71.608  1.00  0.00    -0.413 A  
HETATM   17  C   UNL     1     -12.035   5.735  72.369  1.00  0.00    -0.164 A  
HETATM   18  C   UNL     1     -10.995   5.763  73.306  1.00  0.00    -0.253 A  
HETATM   19  C   UNL     1     -10.582   8.070  72.715  1.00  0.00    -0.420 A  
HETATM   20  C   UNL     1     -10.279   6.943  73.488  1.00  0.00    -0.345 A  
BRANCH  18  21
HETATM   21  O   UNL     1     -10.826   4.589  73.972  1.00  0.00    -0.268 OA 
HETATM   22  C   UNL     1      -9.940   3.603  73.470  1.00  0.00    -0.117 C  
HETATM   23  F   UNL     1      -9.670   3.729  72.155  1.00  0.00    -0.178 F  
HETATM   24  F   UNL     1     -10.515   2.392  73.654  1.00  0.00    -0.148 F  
HETATM   25  F   UNL     1      -8.784   3.628  74.167  1.00  0.00    -0.086 F  
ENDBRANCH  18  21
ENDBRANCH  14  15
ENDBRANCH  13  14
ENDBRANCH   8  13
TORSDOF 4
ENDMDL
MODEL       75
REMARK 921   NORMALIZED FREE ENERGY PREDICTED BY IDOCK:   -5.88 KCAL/MOL
REMARK 922        TOTAL FREE ENERGY PREDICTED BY IDOCK:   -7.70 KCAL/MOL
REMARK 923 INTER-LIGAND FREE ENERGY PREDICTED BY IDOCK:   -6.69 KCAL/MOL
REMARK 924 INTRA-LIGAND FREE ENERGY PREDICTED BY IDOCK:   -1.01 KCAL/MOL
REMARK 927      BINDING AFFINITY PREDICTED BY RF-SCORE:    0.00 PKD
ROOT
HETATM    1  O   UNL     1      -7.772  16.116  69.372  1.00  0.00    -0.236 OA 
HETATM    2  N   UNL     1      -7.905  16.586  68.231  1.00  0.00    -0.168 N  
HETATM    3  C   UNL     1      -9.063  16.146  67.484  1.00  0.00    -0.203 A  
HETATM    4  O   UNL     1      -7.129  17.379  67.685  1.00  0.00    -0.158 OA 
HETATM    5  C   UNL     1      -9.999  15.197  67.865  1.00  0.00    -0.221 A  
HETATM    6  N   UNL     1     -10.864  15.149  66.814  1.00  0.00    -0.319 NA 
HETATM    7  C   UNL     1     -12.073  14.370  66.684  1.00  0.00    -0.367 C  
HETATM    8  C   UNL     1     -12.650  14.374  65.255  1.00  0.00    -0.327 C  
HETATM    9  C   UNL     1     -11.821  15.202  64.253  1.00  0.00    -0.251 C  
HETATM   10  C   UNL     1     -10.471  16.076  65.897  1.00  0.00    -0.359 A  
HETATM   11  N   UNL     1      -9.378  16.697  66.255  1.00  0.00    -0.282 NA 
HETATM   12  O   UNL     1     -11.172  16.342  64.802  1.00  0.00    -0.493 OA 
ENDROOT
BRANCH   8  13
HETATM   13  O   UNL     1     -12.743  13.005  64.831  1.00  0.00    -0.644 OA 
BRANCH  13  14
HETATM   14  C   UNL     1     -12.129  12.723  63.574  1.00  0.00    -0.559 C  
BRANCH  14  15
HETATM   15  C   UNL     1     -11.066  11.682  63.802  1.00  0.00    -0.499 A  
HETATM   16  C   UNL     1     -10.965  11.025  65.030  1.00  0.00    -0.117 A  
HETATM   17  C   UNL     1      -9.961  10.079  65.236  1.00  0.00    -0.368 A  
HETATM   18  C   UNL     1      -9.048   9.762  64.223  1.00  0.00    -0.246 A  
HETATM   19  C   UNL     1     -10.156  11.358  62.785  1.00  0.00    -0.115 A  
HETATM   20  C   UNL     1      -9.140  10.419  62.999  1.00  0.00    -0.279 A  
BRANCH  18  21
HETATM   21  O   UNL     1      -8.127   8.831  64.588  1.00  0.00    -0.140 OA 
HETATM   22  C   UNL     1      -6.967   9.214  65.307  1.00  0.00    -0.084 C  
HETATM   23  F   UNL     1      -6.660  10.523  65.191  1.00  0.00    -0.122 F  
HETATM   24  F   UNL     1      -5.921   8.505  64.822  1.00  0.00    -0.058 F  
HETATM   25  F   UNL     1      -7.114   8.905  66.613  1.00  0.00    -0.078 F  
ENDBRANCH  18  21
ENDBRANCH  14  15
ENDBRANCH  13  14
ENDBRANCH   8  13
TORSDOF 4
ENDMDL
MODEL       76
REMARK 921   NORMALIZED FREE ENERGY PREDICTED BY IDOCK:   -5.88 KCAL/MOL
REMARK 922        TOTAL FREE ENERGY PREDICTED BY IDOCK:   -7.70 KCAL/MOL
REMARK 923 INTER-LIGAND FREE ENERGY PREDICTED BY IDOCK:   -6.91 KCAL/MOL
REMARK 924 INTRA-LIGAND FREE ENERGY PREDICTED BY IDOCK:   -0.79 KCAL/MOL
REMARK 927      BINDING AFFINITY PREDICTED BY RF-SCORE:    0.00 PKD
ROOT
HETATM    1  O   UNL     1      -7.336  17.394  68.599  1.00  0.00    -0.224 OA 
HETATM    2  N   UNL     1      -7.678  17.693  67.443  1.00  0.00    -0.197 N  
HETATM    3  C   UNL     1      -8.833  17.002  66.915  1.00  0.00    -0.230 A  
HETATM    4  O   UNL     1      -7.108  18.512  66.714  1.00  0.00    -0.201 OA 
HETATM    5  C   UNL     1      -9.556  15.985  67.520  1.00  0.00    -0.222 A  
HETATM    6  N   UNL     1     -10.523  15.682  66.610  1.00  0.00    -0.296 NA 
HETATM    7  C   UNL     1     -11.601  14.728  66.732  1.00  0.00    -0.324 C  
HETATM    8  C   UNL     1     -12.338  14.469  65.405  1.00  0.00    -0.284 C  
HETATM    9  C   UNL     1     -11.777  15.274  64.215  1.00  0.00    -0.215 C  
HETATM   10  C   UNL     1     -10.394  16.531  65.554  1.00  0.00    -0.284 A  
HETATM   11  N   UNL     1      -9.377  17.342  65.689  1.00  0.00    -0.410 NA 
HETATM   12  O   UNL     1     -11.255  16.555  64.545  1.00  0.00    -0.775 OA 
ENDROOT
BRANCH   8  13
HETATM   13  O   UNL     1     -12.265  13.059  65.146  1.00  0.00    -0.403 OA 
BRANCH  13  14
HETATM   14  C   UNL     1     -10.993  12.598  64.691  1.00  0.00    -0.313 C  
BRANCH  14  15
HETATM   15  C   UNL     1     -10.638  11.368  65.482  1.00  0.00    -0.328 A  
HETATM   16  C   UNL     1     -10.946  11.282  66.841  1.00  0.00    -0.348 A  
HETATM   17  C   UNL     1     -10.590  10.147  67.569  1.00  0.00    -0.327 A  
HETATM   18  C   UNL     1      -9.933   9.073  66.957  1.00  0.00    -0.230 A  
HETATM   19  C   UNL     1      -9.986  10.288  64.868  1.00  0.00    -0.393 A  
HETATM   20  C   UNL     1      -9.617   9.156  65.603  1.00  0.00    -0.287 A  
BRANCH  18  21
HETATM   21  O   UNL     1      -9.647   8.050  67.806  1.00  0.00    -0.145 OA 
HETATM   22  C   UNL     1      -8.601   8.177  68.754  1.00  0.00    -0.127 C  
HETATM   23  F   UNL     1      -7.698   9.131  68.447  1.00  0.00    -0.089 F  
HETATM   24  F   UNL     1      -7.944   6.996  68.813  1.00  0.00    -0.110 F  
HETATM   25  F   UNL     1      -9.119   8.431  69.975  1.00  0.00    -0.142 F  
ENDBRANCH  18  21
ENDBRANCH  14  15
ENDBRANCH  13  14
ENDBRANCH   8  13
TORSDOF 4
ENDMDL
MODEL       77
REMARK 921   NORMALIZED FREE ENERGY PREDICTED BY IDOCK:   -5.86 KCAL/MOL
REMARK 922        TOTAL FREE ENERGY PREDICTED BY IDOCK:   -7.67 KCAL/MOL
REMARK 923 INTER-LIGAND FREE ENERGY PREDICTED BY IDOCK:   -7.03 KCAL/MOL
REMARK 924 INTRA-LIGAND FREE ENERGY PREDICTED BY IDOCK:   -0.64 KCAL/MOL
REMARK 927      BINDING AFFINITY PREDICTED BY RF-SCORE:    0.00 PKD
ROOT
HETATM    1  O   UNL     1     -11.980   5.101  72.918  1.00  0.00    -0.218 OA 
HETATM    2  N   UNL     1     -10.909   5.552  72.481  1.00  0.00    -0.238 N  
HETATM    3  C   UNL     1     -10.959   6.871  71.890  1.00  0.00    -0.235 A  
HETATM    4  O   UNL     1      -9.821   4.965  72.499  1.00  0.00    -0.149 OA 
HETATM    5  C   UNL     1     -12.082   7.657  71.681  1.00  0.00    -0.306 A  
HETATM    6  N   UNL     1     -11.589   8.783  71.093  1.00  0.00    -0.279 NA 
HETATM    7  C   UNL     1     -12.304   9.976  70.702  1.00  0.00    -0.253 C  
HETATM    8  C   UNL     1     -11.465  10.931  69.832  1.00  0.00    -0.323 C  
HETATM    9  C   UNL     1     -10.038  10.422  69.549  1.00  0.00    -0.219 C  
HETATM   10  C   UNL     1     -10.234   8.668  71.023  1.00  0.00    -0.220 A  
HETATM   11  N   UNL     1      -9.808   7.522  71.485  1.00  0.00    -0.166 NA 
HETATM   12  O   UNL     1      -9.454   9.650  70.591  1.00  0.00    -0.244 OA 
ENDROOT
BRANCH   8  13
HETATM   13  O   UNL     1     -12.187  11.133  68.607  1.00  0.00    -0.582 OA 
BRANCH  13  14
HETATM   14  C   UNL     1     -11.385  11.104  67.427  1.00  0.00    -0.255 C  
BRANCH  14  15
HETATM   15  C   UNL     1     -11.129  12.526  67.007  1.00  0.00    -0.326 A  
HETATM   16  C   UNL     1     -12.072  13.524  67.263  1.00  0.00    -0.367 A  
HETATM   17  C   UNL     1     -11.833  14.835  66.848  1.00  0.00    -0.279 A  
HETATM   18  C   UNL     1     -10.649  15.177  66.183  1.00  0.00    -0.313 A  
HETATM   19  C   UNL     1      -9.940  12.872  66.348  1.00  0.00    -0.267 A  
HETATM   20  C   UNL     1      -9.708  14.184  65.920  1.00  0.00    -0.267 A  
BRANCH  18  21
HETATM   21  O   UNL     1     -10.576  16.491  65.837  1.00  0.00    -0.325 OA 
HETATM   22  C   UNL     1      -9.926  17.420  66.687  1.00  0.00    -0.308 C  
HETATM   23  F   UNL     1      -9.814  17.005  67.966  1.00  0.00    -0.248 F  
HETATM   24  F   UNL     1     -10.650  18.562  66.690  1.00  0.00    -0.379 F  
HETATM   25  F   UNL     1      -8.697  17.702  66.202  1.00  0.00    -0.265 F  
ENDBRANCH  18  21
ENDBRANCH  14  15
ENDBRANCH  13  14
ENDBRANCH   8  13
TORSDOF 4
ENDMDL
MODEL       78
REMARK 921   NORMALIZED FREE ENERGY PREDICTED BY IDOCK:   -5.86 KCAL/MOL
REMARK 922        TOTAL FREE ENERGY PREDICTED BY IDOCK:   -7.67 KCAL/MOL
REMARK 923 INTER-LIGAND FREE ENERGY PREDICTED BY IDOCK:   -7.10 KCAL/MOL
REMARK 924 INTRA-LIGAND FREE ENERGY PREDICTED BY IDOCK:   -0.57 KCAL/MOL
REMARK 927      BINDING AFFINITY PREDICTED BY RF-SCORE:    0.00 PKD
ROOT
HETATM    1  O   UNL     1      -8.992  19.632  65.653  1.00  0.00    -0.325 OA 
HETATM    2  N   UNL     1      -9.531  19.623  66.771  1.00  0.00    -0.344 N  
HETATM    3  C   UNL     1      -9.841  18.325  67.326  1.00  0.00    -0.321 A  
HETATM    4  O   UNL     1      -9.832  20.624  67.432  1.00  0.00    -0.464 OA 
HETATM    5  C   UNL     1      -9.680  17.089  66.718  1.00  0.00    -0.269 A  
HETATM    6  N   UNL     1     -10.126  16.202  67.652  1.00  0.00    -0.243 NA 
HETATM    7  C   UNL     1     -10.140  14.760  67.583  1.00  0.00    -0.227 C  
HETATM    8  C   UNL     1     -10.957  14.104  68.712  1.00  0.00    -0.257 C  
HETATM    9  C   UNL     1     -11.597  15.115  69.683  1.00  0.00    -0.311 C  
HETATM   10  C   UNL     1     -10.473  16.900  68.769  1.00  0.00    -0.343 A  
HETATM   11  N   UNL     1     -10.326  18.190  68.614  1.00  0.00    -0.350 NA 
HETATM   12  O   UNL     1     -10.851  16.308  69.894  1.00  0.00    -0.331 OA 
ENDROOT
BRANCH   8  13
HETATM   13  O   UNL     1     -11.961  13.287  68.090  1.00  0.00    -0.344 OA 
BRANCH  13  14
HETATM   14  C   UNL     1     -11.866  11.893  68.383  1.00  0.00    -0.289 C  
BRANCH  14  15
HETATM   15  C   UNL     1     -11.101  11.237  67.265  1.00  0.00    -0.367 A  
HETATM   16  C   UNL     1     -11.005  11.849  66.014  1.00  0.00    -0.355 A  
HETATM   17  C   UNL     1     -10.313  11.220  64.979  1.00  0.00    -0.359 A  
HETATM   18  C   UNL     1      -9.696   9.978  65.173  1.00  0.00    -0.311 A  
HETATM   19  C   UNL     1     -10.475   9.997  67.461  1.00  0.00    -0.307 A  
HETATM   20  C   UNL     1      -9.794   9.361  66.418  1.00  0.00    -0.337 A  
BRANCH  18  21
HETATM   21  O   UNL     1      -9.073   9.496  64.064  1.00  0.00    -0.228 OA 
HETATM   22  C   UNL     1      -7.673   9.645  63.908  1.00  0.00    -0.131 C  
HETATM   23  F   UNL     1      -7.140  10.629  64.662  1.00  0.00    -0.097 F  
HETATM   24  F   UNL     1      -7.426   9.945  62.612  1.00  0.00    -0.111 F  
HETATM   25  F   UNL     1      -7.053   8.480  64.194  1.00  0.00    -0.081 F  
ENDBRANCH  18  21
ENDBRANCH  14  15
ENDBRANCH  13  14
ENDBRANCH   8  13
TORSDOF 4
ENDMDL
MODEL       79
REMARK 921   NORMALIZED FREE ENERGY PREDICTED BY IDOCK:   -5.86 KCAL/MOL
REMARK 922        TOTAL FREE ENERGY PREDICTED BY IDOCK:   -7.67 KCAL/MOL
REMARK 923 INTER-LIGAND FREE ENERGY PREDICTED BY IDOCK:   -6.93 KCAL/MOL
REMARK 924 INTRA-LIGAND FREE ENERGY PREDICTED BY IDOCK:   -0.74 KCAL/MOL
REMARK 927      BINDING AFFINITY PREDICTED BY RF-SCORE:    0.00 PKD
ROOT
HETATM    1  O   UNL     1     -10.005   5.397  66.939  1.00  0.00    -0.148 OA 
HETATM    2  N   UNL     1      -9.039   6.120  67.228  1.00  0.00    -0.115 N  
HETATM    3  C   UNL     1      -9.312   7.534  67.363  1.00  0.00    -0.140 A  
HETATM    4  O   UNL     1      -7.877   5.735  67.397  1.00  0.00    -0.100 OA 
HETATM    5  C   UNL     1     -10.512   8.186  67.124  1.00  0.00    -0.326 A  
HETATM    6  N   UNL     1     -10.233   9.494  67.384  1.00  0.00    -0.212 NA 
HETATM    7  C   UNL     1     -11.131  10.625  67.355  1.00  0.00    -0.272 C  
HETATM    8  C   UNL     1     -10.407  11.981  67.448  1.00  0.00    -0.207 C  
HETATM    9  C   UNL     1      -8.873  11.860  67.549  1.00  0.00    -0.169 C  
HETATM   10  C   UNL     1      -8.942   9.577  67.810  1.00  0.00    -0.122 A  
HETATM   11  N   UNL     1      -8.342   8.416  67.803  1.00  0.00    -0.129 NA 
HETATM   12  O   UNL     1      -8.401  10.709  68.239  1.00  0.00    -0.113 OA 
ENDROOT
BRANCH   8  13
HETATM   13  O   UNL     1     -10.784  12.744  66.292  1.00  0.00    -0.265 OA 
BRANCH  13  14
HETATM   14  C   UNL     1     -11.793  13.726  66.524  1.00  0.00    -0.407 C  
BRANCH  14  15
HETATM   15  C   UNL     1     -11.108  15.014  66.894  1.00  0.00    -0.331 A  
HETATM   16  C   UNL     1     -11.332  15.606  68.139  1.00  0.00    -0.340 A  
HETATM   17  C   UNL     1     -10.709  16.812  68.461  1.00  0.00    -0.358 A  
HETATM   18  C   UNL     1      -9.845  17.443  67.558  1.00  0.00    -0.277 A  
HETATM   19  C   UNL     1     -10.235  15.642  65.993  1.00  0.00    -0.354 A  
HETATM   20  C   UNL     1      -9.623  16.859  66.313  1.00  0.00    -0.300 A  
BRANCH  18  21
HETATM   21  O   UNL     1      -9.329  18.614  68.020  1.00  0.00    -0.296 OA 
HETATM   22  C   UNL     1     -10.046  19.825  67.857  1.00  0.00    -0.430 C  
HETATM   23  F   UNL     1     -10.974  19.784  66.879  1.00  0.00    -0.569 F  
HETATM   24  F   UNL     1      -9.160  20.796  67.539  1.00  0.00    -0.445 F  
HETATM   25  F   UNL     1     -10.641  20.166  69.021  1.00  0.00    -0.505 F  
ENDBRANCH  18  21
ENDBRANCH  14  15
ENDBRANCH  13  14
ENDBRANCH   8  13
TORSDOF 4
ENDMDL
MODEL       80
REMARK 921   NORMALIZED FREE ENERGY PREDICTED BY IDOCK:   -5.85 KCAL/MOL
REMARK 922        TOTAL FREE ENERGY PREDICTED BY IDOCK:   -7.66 KCAL/MOL
REMARK 923 INTER-LIGAND FREE ENERGY PREDICTED BY IDOCK:   -7.02 KCAL/MOL
REMARK 924 INTRA-LIGAND FREE ENERGY PREDICTED BY IDOCK:   -0.65 KCAL/MOL
REMARK 927      BINDING AFFINITY PREDICTED BY RF-SCORE:    0.00 PKD
ROOT
HETATM    1  O   UNL     1     -11.736   2.589  73.582  1.00  0.00    -0.200 OA 
HETATM    2  N   UNL     1     -10.797   3.355  73.852  1.00  0.00    -0.216 N  
HETATM    3  C   UNL     1     -10.927   4.719  73.389  1.00  0.00    -0.323 A  
HETATM    4  O   UNL     1      -9.769   3.046  74.464  1.00  0.00    -0.096 OA 
HETATM    5  C   UNL     1     -11.942   5.250  72.608  1.00  0.00     0.056 A  
HETATM    6  N   UNL     1     -11.587   6.556  72.450  1.00  0.00    -0.274 NA 
HETATM    7  C   UNL     1     -12.309   7.604  71.769  1.00  0.00    -0.319 C  
HETATM    8  C   UNL     1     -11.478   8.886  71.569  1.00  0.00    -0.321 C  
HETATM    9  C   UNL     1     -10.045   8.791  72.131  1.00  0.00    -0.292 C  
HETATM   10  C   UNL     1     -10.446   6.775  73.161  1.00  0.00    -0.270 A  
HETATM   11  N   UNL     1     -10.004   5.689  73.738  1.00  0.00    -0.178 NA 
HETATM   12  O   UNL     1      -9.903   7.978  73.289  1.00  0.00    -0.291 OA 
ENDROOT
BRANCH   8  13
HETATM   13  O   UNL     1     -11.456   9.163  70.160  1.00  0.00    -0.208 OA 
BRANCH  13  14
HETATM   14  C   UNL     1     -10.199   9.615  69.657  1.00  0.00    -0.222 C  
BRANCH  14  15
HETATM   15  C   UNL     1     -10.462  10.766  68.724  1.00  0.00    -0.221 A  
HETATM   16  C   UNL     1     -11.632  11.520  68.836  1.00  0.00    -0.384 A  
HETATM   17  C   UNL     1     -11.875  12.570  67.951  1.00  0.00    -0.383 A  
HETATM   18  C   UNL     1     -10.955  12.896  66.947  1.00  0.00    -0.266 A  
HETATM   19  C   UNL     1      -9.537  11.100  67.724  1.00  0.00    -0.180 A  
HETATM   20  C   UNL     1      -9.789  12.144  66.827  1.00  0.00    -0.218 A  
BRANCH  18  21
HETATM   21  O   UNL     1     -11.346  13.936  66.163  1.00  0.00    -0.310 OA 
HETATM   22  C   UNL     1     -12.414  13.778  65.244  1.00  0.00    -0.480 C  
HETATM   23  F   UNL     1     -12.667  12.493  64.916  1.00  0.00    -0.530 F  
HETATM   24  F   UNL     1     -12.088  14.433  64.107  1.00  0.00    -0.455 F  
HETATM   25  F   UNL     1     -13.536  14.338  65.745  1.00  0.00    -0.435 F  
ENDBRANCH  18  21
ENDBRANCH  14  15
ENDBRANCH  13  14
ENDBRANCH   8  13
TORSDOF 4
ENDMDL
MODEL       81
REMARK 921   NORMALIZED FREE ENERGY PREDICTED BY IDOCK:   -5.85 KCAL/MOL
REMARK 922        TOTAL FREE ENERGY PREDICTED BY IDOCK:   -7.66 KCAL/MOL
REMARK 923 INTER-LIGAND FREE ENERGY PREDICTED BY IDOCK:   -6.88 KCAL/MOL
REMARK 924 INTRA-LIGAND FREE ENERGY PREDICTED BY IDOCK:   -0.78 KCAL/MOL
REMARK 927      BINDING AFFINITY PREDICTED BY RF-SCORE:    0.00 PKD
ROOT
HETATM    1  O   UNL     1     -10.637   6.824  73.645  1.00  0.00    -0.314 OA 
HETATM    2  N   UNL     1     -11.172   6.191  72.721  1.00  0.00    -0.257 N  
HETATM    3  C   UNL     1     -10.847   6.616  71.378  1.00  0.00    -0.242 A  
HETATM    4  O   UNL     1     -11.959   5.248  72.857  1.00  0.00    -0.227 OA 
HETATM    5  C   UNL     1     -10.071   7.702  71.003  1.00  0.00    -0.189 A  
HETATM    6  N   UNL     1     -10.089   7.665  69.641  1.00  0.00    -0.190 NA 
HETATM    7  C   UNL     1      -9.399   8.528  68.712  1.00  0.00    -0.143 C  
HETATM    8  C   UNL     1      -9.863   8.350  67.254  1.00  0.00    -0.203 C  
HETATM    9  C   UNL     1     -10.972   7.292  67.080  1.00  0.00    -0.215 C  
HETATM   10  C   UNL     1     -10.798   6.567  69.256  1.00  0.00    -0.307 A  
HETATM   11  N   UNL     1     -11.285   5.908  70.273  1.00  0.00    -0.309 NA 
HETATM   12  O   UNL     1     -10.910   6.198  67.987  1.00  0.00    -0.275 OA 
ENDROOT
BRANCH   8  13
HETATM   13  O   UNL     1     -10.307   9.634  66.789  1.00  0.00    -0.239 OA 
BRANCH  13  14
HETATM   14  C   UNL     1      -9.333  10.674  66.882  1.00  0.00    -0.159 C  
BRANCH  14  15
HETATM   15  C   UNL     1     -10.002  11.879  67.486  1.00  0.00    -0.197 A  
HETATM   16  C   UNL     1     -11.394  11.988  67.503  1.00  0.00    -0.387 A  
HETATM   17  C   UNL     1     -12.000  13.121  68.045  1.00  0.00    -0.345 A  
HETATM   18  C   UNL     1     -11.236  14.160  68.589  1.00  0.00    -0.266 A  
HETATM   19  C   UNL     1      -9.236  12.917  68.040  1.00  0.00    -0.212 A  
HETATM   20  C   UNL     1      -9.846  14.060  68.569  1.00  0.00    -0.225 A  
BRANCH  18  21
HETATM   21  O   UNL     1     -11.978  15.195  69.065  1.00  0.00    -0.309 OA 
HETATM   22  C   UNL     1     -12.096  15.409  70.461  1.00  0.00    -0.371 C  
HETATM   23  F   UNL     1     -11.821  14.319  71.206  1.00  0.00    -0.370 F  
HETATM   24  F   UNL     1     -13.373  15.771  70.722  1.00  0.00    -0.534 F  
HETATM   25  F   UNL     1     -11.287  16.422  70.839  1.00  0.00    -0.393 F  
ENDBRANCH  18  21
ENDBRANCH  14  15
ENDBRANCH  13  14
ENDBRANCH   8  13
TORSDOF 4
ENDMDL
MODEL       82
REMARK 921   NORMALIZED FREE ENERGY PREDICTED BY IDOCK:   -5.82 KCAL/MOL
REMARK 922        TOTAL FREE ENERGY PREDICTED BY IDOCK:   -7.63 KCAL/MOL
REMARK 923 INTER-LIGAND FREE ENERGY PREDICTED BY IDOCK:   -6.84 KCAL/MOL
REMARK 924 INTRA-LIGAND FREE ENERGY PREDICTED BY IDOCK:   -0.79 KCAL/MOL
REMARK 927      BINDING AFFINITY PREDICTED BY RF-SCORE:    0.00 PKD
ROOT
HETATM    1  O   UNL     1      -8.492   6.443  69.058  1.00  0.00    -0.122 OA 
HETATM    2  N   UNL     1      -9.324   7.168  69.626  1.00  0.00    -0.150 N  
HETATM    3  C   UNL     1      -9.820   8.295  68.867  1.00  0.00    -0.180 A  
HETATM    4  O   UNL     1      -9.745   7.014  70.778  1.00  0.00    -0.169 OA 
HETATM    5  C   UNL     1      -9.414   8.706  67.607  1.00  0.00    -0.141 A  
HETATM    6  N   UNL     1     -10.177   9.807  67.358  1.00  0.00    -0.215 NA 
HETATM    7  C   UNL     1     -10.219  10.616  66.162  1.00  0.00    -0.248 C  
HETATM    8  C   UNL     1     -11.006  11.928  66.342  1.00  0.00    -0.292 C  
HETATM    9  C   UNL     1     -11.585  12.116  67.759  1.00  0.00    -0.342 C  
HETATM   10  C   UNL     1     -11.025   9.982  68.409  1.00  0.00    -0.217 A  
HETATM   11  N   UNL     1     -10.838   9.097  69.351  1.00  0.00    -0.194 NA 
HETATM   12  O   UNL     1     -11.968  10.915  68.419  1.00  0.00    -0.543 OA 
ENDROOT
BRANCH   8  13
HETATM   13  O   UNL     1     -10.117  13.005  66.007  1.00  0.00    -0.275 OA 
BRANCH  13  14
HETATM   14  C   UNL     1      -9.493  13.637  67.125  1.00  0.00    -0.244 C  
BRANCH  14  15
HETATM   15  C   UNL     1      -9.562  15.125  66.912  1.00  0.00    -0.252 A  
HETATM   16  C   UNL     1      -8.460  15.825  66.417  1.00  0.00    -0.313 A  
HETATM   17  C   UNL     1      -8.530  17.208  66.247  1.00  0.00    -0.279 A  
HETATM   18  C   UNL     1      -9.698  17.916  66.555  1.00  0.00    -0.329 A  
HETATM   19  C   UNL     1     -10.735  15.834  67.212  1.00  0.00    -0.313 A  
HETATM   20  C   UNL     1     -10.798  17.223  67.055  1.00  0.00    -0.045 A  
BRANCH  18  21
HETATM   21  O   UNL     1      -9.598  19.256  66.344  1.00  0.00    -0.341 OA 
HETATM   22  C   UNL     1      -9.036  20.097  67.336  1.00  0.00    -0.352 C  
HETATM   23  F   UNL     1      -9.045  19.563  68.575  1.00  0.00    -0.366 F  
HETATM   24  F   UNL     1      -9.762  21.237  67.378  1.00  0.00    -0.611 F  
HETATM   25  F   UNL     1      -7.768  20.419  66.999  1.00  0.00    -0.309 F  
ENDBRANCH  18  21
ENDBRANCH  14  15
ENDBRANCH  13  14
ENDBRANCH   8  13
TORSDOF 4
ENDMDL
MODEL       83
REMARK 921   NORMALIZED FREE ENERGY PREDICTED BY IDOCK:   -5.81 KCAL/MOL
REMARK 922        TOTAL FREE ENERGY PREDICTED BY IDOCK:   -7.61 KCAL/MOL
REMARK 923 INTER-LIGAND FREE ENERGY PREDICTED BY IDOCK:   -6.87 KCAL/MOL
REMARK 924 INTRA-LIGAND FREE ENERGY PREDICTED BY IDOCK:   -0.74 KCAL/MOL
REMARK 927      BINDING AFFINITY PREDICTED BY RF-SCORE:    0.00 PKD
ROOT
HETATM    1  O   UNL     1     -10.490  20.330  65.949  1.00  0.00    -0.363 OA 
HETATM    2  N   UNL     1      -9.682  19.663  66.615  1.00  0.00    -0.360 N  
HETATM    3  C   UNL     1      -9.674  18.237  66.377  1.00  0.00    -0.334 A  
HETATM    4  O   UNL     1      -8.905  20.115  67.464  1.00  0.00    -0.334 OA 
HETATM    5  C   UNL     1     -10.521  17.517  65.549  1.00  0.00    -0.068 A  
HETATM    6  N   UNL     1     -10.103  16.228  65.691  1.00  0.00    -0.489 NA 
HETATM    7  C   UNL     1     -10.591  15.048  65.016  1.00  0.00    -0.412 C  
HETATM    8  C   UNL     1     -10.059  13.736  65.622  1.00  0.00    -0.298 C  
HETATM    9  C   UNL     1      -9.119  13.944  66.827  1.00  0.00    -0.223 C  
HETATM   10  C   UNL     1      -9.024  16.221  66.521  1.00  0.00    -0.278 A  
HETATM   11  N   UNL     1      -8.734  17.414  66.970  1.00  0.00    -0.227 NA 
HETATM   12  O   UNL     1      -8.325  15.123  66.777  1.00  0.00    -0.231 OA 
ENDROOT
BRANCH   8  13
HETATM   13  O   UNL     1     -11.200  12.947  65.995  1.00  0.00    -0.280 OA 
BRANCH  13  14
HETATM   14  C   UNL     1     -11.126  11.572  65.621  1.00  0.00    -0.199 C  
BRANCH  14  15
HETATM   15  C   UNL     1     -10.981  10.758  66.878  1.00  0.00    -0.255 A  
HETATM   16  C   UNL     1     -10.467   9.461  66.831  1.00  0.00    -0.281 A  
HETATM   17  C   UNL     1     -10.359   8.708  68.000  1.00  0.00    -0.277 A  
HETATM   18  C   UNL     1     -10.749   9.235  69.237  1.00  0.00    -0.196 A  
HETATM   19  C   UNL     1     -11.363  11.289  68.120  1.00  0.00    -0.372 A  
HETATM   20  C   UNL     1     -11.268  10.527  69.289  1.00  0.00    -0.320 A  
BRANCH  18  21
HETATM   21  O   UNL     1     -10.591   8.371  70.275  1.00  0.00    -0.217 OA 
HETATM   22  C   UNL     1      -9.577   8.591  71.242  1.00  0.00    -0.203 C  
HETATM   23  F   UNL     1      -8.580   9.394  70.816  1.00  0.00    -0.208 F  
HETATM   24  F   UNL     1      -9.032   7.394  71.555  1.00  0.00    -0.125 F  
HETATM   25  F   UNL     1     -10.119   9.112  72.364  1.00  0.00    -0.323 F  
ENDBRANCH  18  21
ENDBRANCH  14  15
ENDBRANCH  13  14
ENDBRANCH   8  13
TORSDOF 4
ENDMDL
MODEL       84
REMARK 921   NORMALIZED FREE ENERGY PREDICTED BY IDOCK:   -5.80 KCAL/MOL
REMARK 922        TOTAL FREE ENERGY PREDICTED BY IDOCK:   -7.60 KCAL/MOL
REMARK 923 INTER-LIGAND FREE ENERGY PREDICTED BY IDOCK:   -6.67 KCAL/MOL
REMARK 924 INTRA-LIGAND FREE ENERGY PREDICTED BY IDOCK:   -0.93 KCAL/MOL
REMARK 927      BINDING AFFINITY PREDICTED BY RF-SCORE:    0.00 PKD
ROOT
HETATM    1  O   UNL     1     -13.237  12.338  63.209  1.00  0.00    -0.592 OA 
HETATM    2  N   UNL     1     -12.745  12.733  64.278  1.00  0.00    -0.302 N  
HETATM    3  C   UNL     1     -11.456  12.183  64.635  1.00  0.00    -0.328 A  
HETATM    4  O   UNL     1     -13.268  13.537  65.057  1.00  0.00    -0.721 OA 
HETATM    5  C   UNL     1     -10.743  11.203  63.961  1.00  0.00    -0.339 A  
HETATM    6  N   UNL     1      -9.615  11.043  64.709  1.00  0.00    -0.234 NA 
HETATM    7  C   UNL     1      -8.482  10.187  64.449  1.00  0.00    -0.175 C  
HETATM    8  C   UNL     1      -7.517  10.074  65.644  1.00  0.00    -0.137 C  
HETATM    9  C   UNL     1      -7.955  10.891  66.876  1.00  0.00    -0.138 C  
HETATM   10  C   UNL     1      -9.656  11.937  65.735  1.00  0.00    -0.224 A  
HETATM   11  N   UNL     1     -10.757  12.641  65.737  1.00  0.00    -0.263 NA 
HETATM   12  O   UNL     1      -8.650  12.098  66.585  1.00  0.00    -0.185 OA 
ENDROOT
BRANCH   8  13
HETATM   13  O   UNL     1      -7.405   8.680  65.970  1.00  0.00    -0.082 OA 
BRANCH  13  14
HETATM   14  C   UNL     1      -8.526   7.883  65.586  1.00  0.00    -0.147 C  
BRANCH  14  15
HETATM   15  C   UNL     1      -9.118   7.288  66.835  1.00  0.00    -0.162 A  
HETATM   16  C   UNL     1     -10.476   6.969  66.896  1.00  0.00    -0.356 A  
HETATM   17  C   UNL     1     -11.018   6.439  68.067  1.00  0.00    -0.400 A  
HETATM   18  C   UNL     1     -10.219   6.207  69.193  1.00  0.00    -0.194 A  
HETATM   19  C   UNL     1      -8.316   7.047  67.961  1.00  0.00    -0.119 A  
HETATM   20  C   UNL     1      -8.864   6.530  69.139  1.00  0.00    -0.128 A  
BRANCH  18  21
HETATM   21  O   UNL     1     -10.901   5.700  70.254  1.00  0.00    -0.300 OA 
HETATM   22  C   UNL     1     -11.619   6.560  71.121  1.00  0.00    -0.335 C  
HETATM   23  F   UNL     1     -11.213   7.846  71.075  1.00  0.00    -0.250 F  
HETATM   24  F   UNL     1     -11.441   6.121  72.388  1.00  0.00    -0.291 F  
HETATM   25  F   UNL     1     -12.938   6.499  70.837  1.00  0.00    -0.266 F  
ENDBRANCH  18  21
ENDBRANCH  14  15
ENDBRANCH  13  14
ENDBRANCH   8  13
TORSDOF 4
ENDMDL
MODEL       85
REMARK 921   NORMALIZED FREE ENERGY PREDICTED BY IDOCK:   -5.80 KCAL/MOL
REMARK 922        TOTAL FREE ENERGY PREDICTED BY IDOCK:   -7.60 KCAL/MOL
REMARK 923 INTER-LIGAND FREE ENERGY PREDICTED BY IDOCK:   -6.91 KCAL/MOL
REMARK 924 INTRA-LIGAND FREE ENERGY PREDICTED BY IDOCK:   -0.69 KCAL/MOL
REMARK 927      BINDING AFFINITY PREDICTED BY RF-SCORE:    0.00 PKD
ROOT
HETATM    1  O   UNL     1      -9.756   6.572  71.528  1.00  0.00    -0.169 OA 
HETATM    2  N   UNL     1     -10.063   6.428  70.334  1.00  0.00    -0.183 N  
HETATM    3  C   UNL     1     -10.053   7.623  69.519  1.00  0.00    -0.192 A  
HETATM    4  O   UNL     1     -10.383   5.362  69.797  1.00  0.00    -0.258 OA 
HETATM    5  C   UNL     1      -9.821   8.924  69.936  1.00  0.00    -0.182 A  
HETATM    6  N   UNL     1      -9.936   9.661  68.796  1.00  0.00    -0.167 NA 
HETATM    7  C   UNL     1      -9.737  11.081  68.622  1.00  0.00    -0.195 C  
HETATM    8  C   UNL     1     -10.210  11.599  67.251  1.00  0.00    -0.201 C  
HETATM    9  C   UNL     1     -10.803  10.502  66.343  1.00  0.00    -0.024 C  
HETATM   10  C   UNL     1     -10.167   8.807  67.760  1.00  0.00    -0.228 A  
HETATM   11  N   UNL     1     -10.256   7.563  68.152  1.00  0.00    -0.183 NA 
HETATM   12  O   UNL     1     -10.226   9.212  66.498  1.00  0.00    -0.278 OA 
ENDROOT
BRANCH   8  13
HETATM   13  O   UNL     1     -11.175  12.633  67.497  1.00  0.00    -0.258 OA 
BRANCH  13  14
HETATM   14  C   UNL     1     -11.445  13.480  66.380  1.00  0.00    -0.331 C  
BRANCH  14  15
HETATM   15  C   UNL     1     -10.852  14.832  66.671  1.00  0.00    -0.319 A  
HETATM   16  C   UNL     1     -10.703  15.276  67.986  1.00  0.00    -0.268 A  
HETATM   17  C   UNL     1     -10.173  16.541  68.241  1.00  0.00    -0.268 A  
HETATM   18  C   UNL     1      -9.772  17.381  67.195  1.00  0.00    -0.267 A  
HETATM   19  C   UNL     1     -10.441  15.670  65.623  1.00  0.00    -0.402 A  
HETATM   20  C   UNL     1      -9.923  16.945  65.881  1.00  0.00    -0.274 A  
BRANCH  18  21
HETATM   21  O   UNL     1      -9.288  18.581  67.612  1.00  0.00    -0.277 OA 
HETATM   22  C   UNL     1     -10.175  19.640  67.927  1.00  0.00    -0.448 C  
HETATM   23  F   UNL     1     -11.400  19.510  67.375  1.00  0.00    -0.534 F  
HETATM   24  F   UNL     1      -9.637  20.790  67.459  1.00  0.00    -0.536 F  
HETATM   25  F   UNL     1     -10.300  19.750  69.267  1.00  0.00    -0.468 F  
ENDBRANCH  18  21
ENDBRANCH  14  15
ENDBRANCH  13  14
ENDBRANCH   8  13
TORSDOF 4
ENDMDL
MODEL       86
REMARK 921   NORMALIZED FREE ENERGY PREDICTED BY IDOCK:   -5.76 KCAL/MOL
REMARK 922        TOTAL FREE ENERGY PREDICTED BY IDOCK:   -7.56 KCAL/MOL
REMARK 923 INTER-LIGAND FREE ENERGY PREDICTED BY IDOCK:   -7.38 KCAL/MOL
REMARK 924 INTRA-LIGAND FREE ENERGY PREDICTED BY IDOCK:   -0.18 KCAL/MOL
REMARK 927      BINDING AFFINITY PREDICTED BY RF-SCORE:    0.00 PKD
ROOT
HETATM    1  O   UNL     1      -9.245  10.081  65.620  1.00  0.00    -0.162 OA 
HETATM    2  N   UNL     1      -9.887  10.999  65.085  1.00  0.00    -0.249 N  
HETATM    3  C   UNL     1      -9.689  12.325  65.629  1.00  0.00    -0.192 A  
HETATM    4  O   UNL     1     -10.680  10.870  64.145  1.00  0.00    -0.362 OA 
HETATM    5  C   UNL     1      -8.927  12.677  66.733  1.00  0.00    -0.197 A  
HETATM    6  N   UNL     1      -9.084  14.027  66.823  1.00  0.00    -0.250 NA 
HETATM    7  C   UNL     1      -8.469  14.939  67.758  1.00  0.00    -0.154 C  
HETATM    8  C   UNL     1      -9.083  16.352  67.725  1.00  0.00    -0.199 C  
HETATM    9  C   UNL     1     -10.230  16.507  66.706  1.00  0.00    -0.295 C  
HETATM   10  C   UNL     1      -9.856  14.436  65.778  1.00  0.00    -0.302 A  
HETATM   11  N   UNL     1     -10.254  13.438  65.034  1.00  0.00    -0.326 NA 
HETATM   12  O   UNL     1     -10.105  15.715  65.531  1.00  0.00    -0.343 OA 
ENDROOT
BRANCH   8  13
HETATM   13  O   UNL     1      -9.538  16.649  69.054  1.00  0.00    -0.258 OA 
BRANCH  13  14
HETATM   14  C   UNL     1     -10.951  16.807  69.183  1.00  0.00    -0.223 C  
BRANCH  14  15
HETATM   15  C   UNL     1     -11.499  15.560  69.823  1.00  0.00    -0.339 A  
HETATM   16  C   UNL     1     -11.817  14.444  69.047  1.00  0.00    -0.358 A  
HETATM   17  C   UNL     1     -12.346  13.302  69.649  1.00  0.00    -0.154 A  
HETATM   18  C   UNL     1     -12.558  13.246  71.032  1.00  0.00    -0.324 A  
HETATM   19  C   UNL     1     -11.703  15.500  71.210  1.00  0.00    -0.457 A  
HETATM   20  C   UNL     1     -12.248  14.360  71.809  1.00  0.00    -0.357 A  
BRANCH  18  21
HETATM   21  O   UNL     1     -13.089  12.069  71.458  1.00  0.00    -0.390 OA 
HETATM   22  C   UNL     1     -12.589  10.838  70.965  1.00  0.00    -0.420 C  
HETATM   23  F   UNL     1     -11.925  10.946  69.795  1.00  0.00    -0.306 F  
HETATM   24  F   UNL     1     -13.640  10.011  70.763  1.00  0.00    -0.432 F  
HETATM   25  F   UNL     1     -11.780  10.271  71.885  1.00  0.00    -0.331 F  
ENDBRANCH  18  21
ENDBRANCH  14  15
ENDBRANCH  13  14
ENDBRANCH   8  13
TORSDOF 4
ENDMDL
MODEL       87
REMARK 921   NORMALIZED FREE ENERGY PREDICTED BY IDOCK:   -5.75 KCAL/MOL
REMARK 922        TOTAL FREE ENERGY PREDICTED BY IDOCK:   -7.54 KCAL/MOL
REMARK 923 INTER-LIGAND FREE ENERGY PREDICTED BY IDOCK:   -6.99 KCAL/MOL
REMARK 924 INTRA-LIGAND FREE ENERGY PREDICTED BY IDOCK:   -0.55 KCAL/MOL
REMARK 927      BINDING AFFINITY PREDICTED BY RF-SCORE:    0.00 PKD
ROOT
HETATM    1  O   UNL     1     -10.412   4.703  66.143  1.00  0.00    -0.289 OA 
HETATM    2  N   UNL     1      -9.329   5.310  66.162  1.00  0.00    -0.153 N  
HETATM    3  C   UNL     1      -9.354   6.654  66.694  1.00  0.00    -0.163 A  
HETATM    4  O   UNL     1      -8.249   4.866  65.757  1.00  0.00    -0.110 OA 
HETATM    5  C   UNL     1     -10.464   7.375  67.109  1.00  0.00    -0.333 A  
HETATM    6  N   UNL     1      -9.948   8.573  67.505  1.00  0.00    -0.184 NA 
HETATM    7  C   UNL     1     -10.642   9.699  68.085  1.00  0.00    -0.226 C  
HETATM    8  C   UNL     1      -9.779  10.972  68.162  1.00  0.00    -0.174 C  
HETATM    9  C   UNL     1      -8.354  10.791  67.603  1.00  0.00    -0.119 C  
HETATM   10  C   UNL     1      -8.594   8.516  67.377  1.00  0.00    -0.127 A  
HETATM   11  N   UNL     1      -8.189   7.377  66.879  1.00  0.00    -0.119 NA 
HETATM   12  O   UNL     1      -7.795   9.495  67.779  1.00  0.00    -0.094 OA 
ENDROOT
BRANCH   8  13
HETATM   13  O   UNL     1     -10.480  12.004  67.450  1.00  0.00    -0.211 OA 
BRANCH  13  14
HETATM   14  C   UNL     1      -9.960  13.320  67.636  1.00  0.00    -0.229 C  
BRANCH  14  15
HETATM   15  C   UNL     1     -10.781  13.995  68.701  1.00  0.00    -0.269 A  
HETATM   16  C   UNL     1     -10.439  15.267  69.164  1.00  0.00    -0.247 A  
HETATM   17  C   UNL     1     -11.196  15.873  70.167  1.00  0.00    -0.368 A  
HETATM   18  C   UNL     1     -12.310  15.230  70.720  1.00  0.00    -0.380 A  
HETATM   19  C   UNL     1     -11.903  13.355  69.249  1.00  0.00    -0.385 A  
HETATM   20  C   UNL     1     -12.652  13.958  70.266  1.00  0.00    -0.328 A  
BRANCH  18  21
HETATM   21  O   UNL     1     -12.930  15.949  71.694  1.00  0.00    -0.465 OA 
HETATM   22  C   UNL     1     -12.369  16.027  72.993  1.00  0.00    -0.520 C  
HETATM   23  F   UNL     1     -11.501  15.033  73.274  1.00  0.00    -0.454 F  
HETATM   24  F   UNL     1     -13.379  15.953  73.890  1.00  0.00    -0.541 F  
HETATM   25  F   UNL     1     -11.751  17.217  73.154  1.00  0.00    -0.505 F  
ENDBRANCH  18  21
ENDBRANCH  14  15
ENDBRANCH  13  14
ENDBRANCH   8  13
TORSDOF 4
ENDMDL
MODEL       88
REMARK 921   NORMALIZED FREE ENERGY PREDICTED BY IDOCK:   -5.74 KCAL/MOL
REMARK 922        TOTAL FREE ENERGY PREDICTED BY IDOCK:   -7.52 KCAL/MOL
REMARK 923 INTER-LIGAND FREE ENERGY PREDICTED BY IDOCK:   -6.78 KCAL/MOL
REMARK 924 INTRA-LIGAND FREE ENERGY PREDICTED BY IDOCK:   -0.74 KCAL/MOL
REMARK 927      BINDING AFFINITY PREDICTED BY RF-SCORE:    0.00 PKD
ROOT
HETATM    1  O   UNL     1     -11.071  16.429  64.271  1.00  0.00    -0.845 OA 
HETATM    2  N   UNL     1     -11.815  15.444  64.403  1.00  0.00    -0.347 N  
HETATM    3  C   UNL     1     -11.470  14.514  65.455  1.00  0.00    -0.348 A  
HETATM    4  O   UNL     1     -12.805  15.192  63.707  1.00  0.00    -0.636 OA 
HETATM    5  C   UNL     1     -10.358  14.552  66.281  1.00  0.00    -0.294 A  
HETATM    6  N   UNL     1     -10.502  13.457  67.078  1.00  0.00    -0.256 NA 
HETATM    7  C   UNL     1      -9.660  13.026  68.170  1.00  0.00    -0.227 C  
HETATM    8  C   UNL     1      -9.988  11.605  68.667  1.00  0.00    -0.184 C  
HETATM    9  C   UNL     1     -11.141  10.928  67.899  1.00  0.00    -0.302 C  
HETATM   10  C   UNL     1     -11.679  12.851  66.758  1.00  0.00    -0.383 A  
HETATM   11  N   UNL     1     -12.295  13.450  65.774  1.00  0.00    -0.456 NA 
HETATM   12  O   UNL     1     -12.154  11.810  67.430  1.00  0.00    -0.595 OA 
ENDROOT
BRANCH   8  13
HETATM   13  O   UNL     1      -8.783  10.831  68.563  1.00  0.00    -0.134 OA 
BRANCH  13  14
HETATM   14  C   UNL     1      -8.487  10.026  69.704  1.00  0.00    -0.180 C  
BRANCH  14  15
HETATM   15  C   UNL     1      -8.477   8.587  69.264  1.00  0.00    -0.128 A  
HETATM   16  C   UNL     1      -8.993   7.586  70.090  1.00  0.00    -0.147 A  
HETATM   17  C   UNL     1      -8.957   6.253  69.680  1.00  0.00    -0.135 A  
HETATM   18  C   UNL     1      -8.417   5.893  68.439  1.00  0.00    -0.111 A  
HETATM   19  C   UNL     1      -7.944   8.226  68.017  1.00  0.00    -0.123 A  
HETATM   20  C   UNL     1      -7.895   6.887  67.614  1.00  0.00    -0.112 A  
BRANCH  18  21
HETATM   21  O   UNL     1      -8.447   4.556  68.196  1.00  0.00    -0.094 OA 
HETATM   22  C   UNL     1      -9.397   4.012  67.296  1.00  0.00    -0.184 C  
HETATM   23  F   UNL     1     -10.468   4.805  67.087  1.00  0.00    -0.223 F  
HETATM   24  F   UNL     1      -9.846   2.847  67.815  1.00  0.00    -0.225 F  
HETATM   25  F   UNL     1      -8.805   3.744  66.112  1.00  0.00    -0.112 F  
ENDBRANCH  18  21
ENDBRANCH  14  15
ENDBRANCH  13  14
ENDBRANCH   8  13
TORSDOF 4
ENDMDL
MODEL       89
REMARK 921   NORMALIZED FREE ENERGY PREDICTED BY IDOCK:   -5.71 KCAL/MOL
REMARK 922        TOTAL FREE ENERGY PREDICTED BY IDOCK:   -7.50 KCAL/MOL
REMARK 923 INTER-LIGAND FREE ENERGY PREDICTED BY IDOCK:   -7.02 KCAL/MOL
REMARK 924 INTRA-LIGAND FREE ENERGY PREDICTED BY IDOCK:   -0.48 KCAL/MOL
REMARK 927      BINDING AFFINITY PREDICTED BY RF-SCORE:    0.00 PKD
ROOT
HETATM    1  O   UNL     1     -10.844  17.138  68.782  1.00  0.00    -0.305 OA 
HETATM    2  N   UNL     1     -10.845  16.196  67.974  1.00  0.00    -0.324 N  
HETATM    3  C   UNL     1     -11.269  14.911  68.484  1.00  0.00    -0.279 A  
HETATM    4  O   UNL     1     -10.506  16.265  66.787  1.00  0.00    -0.296 OA 
HETATM    5  C   UNL     1     -11.595  14.591  69.794  1.00  0.00    -0.295 A  
HETATM    6  N   UNL     1     -11.910  13.267  69.740  1.00  0.00    -0.324 NA 
HETATM    7  C   UNL     1     -12.381  12.414  70.806  1.00  0.00    -0.286 C  
HETATM    8  C   UNL     1     -12.382  10.919  70.435  1.00  0.00    -0.351 C  
HETATM    9  C   UNL     1     -11.877  10.633  69.006  1.00  0.00    -0.185 C  
HETATM   10  C   UNL     1     -11.824  12.862  68.442  1.00  0.00    -0.318 A  
HETATM   11  N   UNL     1     -11.429  13.821  67.648  1.00  0.00    -0.305 NA 
HETATM   12  O   UNL     1     -12.170  11.643  68.049  1.00  0.00    -0.551 OA 
ENDROOT
BRANCH   8  13
HETATM   13  O   UNL     1     -11.572  10.240  71.407  1.00  0.00    -0.317 OA 
BRANCH  13  14
HETATM   14  C   UNL     1     -10.368   9.670  70.893  1.00  0.00    -0.264 C  
BRANCH  14  15
HETATM   15  C   UNL     1     -10.156   8.345  71.574  1.00  0.00    -0.293 A  
HETATM   16  C   UNL     1     -10.482   7.152  70.926  1.00  0.00    -0.225 A  
HETATM   17  C   UNL     1     -10.302   5.931  71.577  1.00  0.00    -0.273 A  
HETATM   18  C   UNL     1      -9.787   5.875  72.877  1.00  0.00    -0.167 A  
HETATM   19  C   UNL     1      -9.632   8.287  72.874  1.00  0.00    -0.320 A  
HETATM   20  C   UNL     1      -9.467   7.062  73.530  1.00  0.00    -0.226 A  
BRANCH  18  21
HETATM   21  O   UNL     1      -9.685   4.612  73.371  1.00  0.00    -0.130 OA 
HETATM   22  C   UNL     1     -10.814   3.756  73.386  1.00  0.00    -0.222 C  
HETATM   23  F   UNL     1     -11.994   4.405  73.309  1.00  0.00    -0.344 F  
HETATM   24  F   UNL     1     -10.803   3.067  74.550  1.00  0.00    -0.225 F  
HETATM   25  F   UNL     1     -10.729   2.867  72.372  1.00  0.00    -0.195 F  
ENDBRANCH  18  21
ENDBRANCH  14  15
ENDBRANCH  13  14
ENDBRANCH   8  13
TORSDOF 4
ENDMDL
MODEL       90
REMARK 921   NORMALIZED FREE ENERGY PREDICTED BY IDOCK:   -5.71 KCAL/MOL
REMARK 922        TOTAL FREE ENERGY PREDICTED BY IDOCK:   -7.49 KCAL/MOL
REMARK 923 INTER-LIGAND FREE ENERGY PREDICTED BY IDOCK:   -6.86 KCAL/MOL
REMARK 924 INTRA-LIGAND FREE ENERGY PREDICTED BY IDOCK:   -0.64 KCAL/MOL
REMARK 927      BINDING AFFINITY PREDICTED BY RF-SCORE:    0.00 PKD
ROOT
HETATM    1  O   UNL     1      -8.379  19.518  65.714  1.00  0.00    -0.420 OA 
HETATM    2  N   UNL     1      -9.416  19.478  66.395  1.00  0.00    -0.368 N  
HETATM    3  C   UNL     1      -9.708  18.221  67.048  1.00  0.00    -0.303 A  
HETATM    4  O   UNL     1     -10.213  20.410  66.547  1.00  0.00    -0.405 OA 
HETATM    5  C   UNL     1      -9.007  17.030  66.934  1.00  0.00    -0.229 A  
HETATM    6  N   UNL     1      -9.695  16.166  67.732  1.00  0.00    -0.228 NA 
HETATM    7  C   UNL     1      -9.384  14.790  68.040  1.00  0.00    -0.196 C  
HETATM    8  C   UNL     1     -10.527  14.055  68.765  1.00  0.00    -0.233 C  
HETATM    9  C   UNL     1     -11.772  14.931  69.012  1.00  0.00    -0.319 C  
HETATM   10  C   UNL     1     -10.713  16.852  68.323  1.00  0.00    -0.377 A  
HETATM   11  N   UNL     1     -10.766  18.098  67.930  1.00  0.00    -0.370 NA 
HETATM   12  O   UNL     1     -11.505  16.309  69.238  1.00  0.00    -0.316 OA 
ENDROOT
BRANCH   8  13
HETATM   13  O   UNL     1     -10.861  12.905  67.974  1.00  0.00    -0.227 OA 
BRANCH  13  14
HETATM   14  C   UNL     1     -11.739  11.975  68.607  1.00  0.00    -0.326 C  
BRANCH  14  15
HETATM   15  C   UNL     1     -11.078  10.623  68.580  1.00  0.00    -0.315 A  
HETATM   16  C   UNL     1     -10.601  10.088  67.382  1.00  0.00    -0.330 A  
HETATM   17  C   UNL     1     -10.011   8.824  67.367  1.00  0.00    -0.267 A  
HETATM   18  C   UNL     1      -9.875   8.076  68.542  1.00  0.00    -0.174 A  
HETATM   19  C   UNL     1     -10.933   9.876  69.759  1.00  0.00    -0.304 A  
HETATM   20  C   UNL     1     -10.354   8.602  69.739  1.00  0.00    -0.212 A  
BRANCH  18  21
HETATM   21  O   UNL     1      -9.290   6.862  68.355  1.00  0.00    -0.131 OA 
HETATM   22  C   UNL     1     -10.069   5.745  67.962  1.00  0.00    -0.161 C  
HETATM   23  F   UNL     1     -11.386   5.876  68.226  1.00  0.00    -0.340 F  
HETATM   24  F   UNL     1      -9.622   4.664  68.640  1.00  0.00    -0.168 F  
HETATM   25  F   UNL     1      -9.902   5.512  66.642  1.00  0.00    -0.137 F  
ENDBRANCH  18  21
ENDBRANCH  14  15
ENDBRANCH  13  14
ENDBRANCH   8  13
TORSDOF 4
ENDMDL
MODEL       91
REMARK 921   NORMALIZED FREE ENERGY PREDICTED BY IDOCK:   -5.66 KCAL/MOL
REMARK 922        TOTAL FREE ENERGY PREDICTED BY IDOCK:   -7.43 KCAL/MOL
REMARK 923 INTER-LIGAND FREE ENERGY PREDICTED BY IDOCK:   -6.82 KCAL/MOL
REMARK 924 INTRA-LIGAND FREE ENERGY PREDICTED BY IDOCK:   -0.61 KCAL/MOL
REMARK 927      BINDING AFFINITY PREDICTED BY RF-SCORE:    0.00 PKD
ROOT
HETATM    1  O   UNL     1     -10.642   4.742  66.069  1.00  0.00    -0.311 OA 
HETATM    2  N   UNL     1     -10.162   5.009  67.182  1.00  0.00    -0.199 N  
HETATM    3  C   UNL     1     -10.242   6.391  67.603  1.00  0.00    -0.169 A  
HETATM    4  O   UNL     1      -9.619   4.202  67.944  1.00  0.00    -0.169 OA 
HETATM    5  C   UNL     1     -10.718   7.467  66.870  1.00  0.00    -0.229 A  
HETATM    6  N   UNL     1     -10.565   8.530  67.709  1.00  0.00    -0.212 NA 
HETATM    7  C   UNL     1     -10.948   9.905  67.492  1.00  0.00    -0.173 C  
HETATM    8  C   UNL     1     -10.381  10.869  68.551  1.00  0.00    -0.187 C  
HETATM    9  C   UNL     1      -9.517  10.176  69.624  1.00  0.00    -0.200 C  
HETATM   10  C   UNL     1     -10.075   8.069  68.893  1.00  0.00    -0.201 A  
HETATM   11  N   UNL     1      -9.854   6.781  68.872  1.00  0.00    -0.143 NA 
HETATM   12  O   UNL     1      -9.912   8.850  69.953  1.00  0.00    -0.179 OA 
ENDROOT
BRANCH   8  13
HETATM   13  O   UNL     1      -9.622  11.868  67.853  1.00  0.00    -0.181 OA 
BRANCH  13  14
HETATM   14  C   UNL     1      -9.963  12.027  66.476  1.00  0.00    -0.204 C  
BRANCH  14  15
HETATM   15  C   UNL     1      -9.985  13.500  66.172  1.00  0.00    -0.310 A  
HETATM   16  C   UNL     1      -9.076  14.367  66.782  1.00  0.00    -0.278 A  
HETATM   17  C   UNL     1      -9.122  15.734  66.510  1.00  0.00    -0.327 A  
HETATM   18  C   UNL     1     -10.064  16.262  65.618  1.00  0.00    -0.312 A  
HETATM   19  C   UNL     1     -10.923  14.029  65.272  1.00  0.00    -0.335 A  
HETATM   20  C   UNL     1     -10.977  15.403  65.011  1.00  0.00    -0.450 A  
BRANCH  18  21
HETATM   21  O   UNL     1      -9.983  17.612  65.472  1.00  0.00    -0.533 OA 
HETATM   22  C   UNL     1     -10.290  18.469  66.558  1.00  0.00    -0.414 C  
HETATM   23  F   UNL     1     -11.052  17.893  67.511  1.00  0.00    -0.345 F  
HETATM   24  F   UNL     1     -10.976  19.529  66.072  1.00  0.00    -0.487 F  
HETATM   25  F   UNL     1      -9.150  18.928  67.117  1.00  0.00    -0.274 F  
ENDBRANCH  18  21
ENDBRANCH  14  15
ENDBRANCH  13  14
ENDBRANCH   8  13
TORSDOF 4
ENDMDL
MODEL       92
REMARK 921   NORMALIZED FREE ENERGY PREDICTED BY IDOCK:   -5.66 KCAL/MOL
REMARK 922        TOTAL FREE ENERGY PREDICTED BY IDOCK:   -7.43 KCAL/MOL
REMARK 923 INTER-LIGAND FREE ENERGY PREDICTED BY IDOCK:   -6.74 KCAL/MOL
REMARK 924 INTRA-LIGAND FREE ENERGY PREDICTED BY IDOCK:   -0.69 KCAL/MOL
REMARK 927      BINDING AFFINITY PREDICTED BY RF-SCORE:    0.00 PKD
ROOT
HETATM    1  O   UNL     1     -10.219  19.981  68.472  1.00  0.00    -0.442 OA 
HETATM    2  N   UNL     1     -10.164  19.672  67.271  1.00  0.00    -0.402 N  
HETATM    3  C   UNL     1     -10.431  18.288  66.950  1.00  0.00    -0.373 A  
HETATM    4  O   UNL     1      -9.891  20.441  66.342  1.00  0.00    -0.400 OA 
HETATM    5  C   UNL     1     -10.660  17.247  67.837  1.00  0.00    -0.384 A  
HETATM    6  N   UNL     1     -10.842  16.163  67.032  1.00  0.00    -0.252 NA 
HETATM    7  C   UNL     1     -11.172  14.810  67.413  1.00  0.00    -0.339 C  
HETATM    8  C   UNL     1     -11.040  13.801  66.256  1.00  0.00    -0.302 C  
HETATM    9  C   UNL     1     -10.578  14.436  64.928  1.00  0.00    -0.434 C  
HETATM   10  C   UNL     1     -10.777  16.580  65.737  1.00  0.00    -0.225 A  
HETATM   11  N   UNL     1     -10.520  17.857  65.638  1.00  0.00    -0.619 NA 
HETATM   12  O   UNL     1     -11.018  15.772  64.712  1.00  0.00    -0.448 OA 
ENDROOT
BRANCH   8  13
HETATM   13  O   UNL     1     -10.120  12.784  66.682  1.00  0.00    -0.235 OA 
BRANCH  13  14
HETATM   14  C   UNL     1     -10.713  11.514  66.951  1.00  0.00    -0.263 C  
BRANCH  14  15
HETATM   15  C   UNL     1      -9.912  10.468  66.223  1.00  0.00    -0.276 A  
HETATM   16  C   UNL     1      -9.223  10.787  65.051  1.00  0.00    -0.241 A  
HETATM   17  C   UNL     1      -8.504   9.802  64.373  1.00  0.00    -0.185 A  
HETATM   18  C   UNL     1      -8.448   8.488  64.853  1.00  0.00    -0.147 A  
HETATM   19  C   UNL     1      -9.849   9.153  66.708  1.00  0.00    -0.291 A  
HETATM   20  C   UNL     1      -9.139   8.163  66.018  1.00  0.00    -0.218 A  
BRANCH  18  21
HETATM   21  O   UNL     1      -7.717   7.650  64.071  1.00  0.00    -0.114 OA 
HETATM   22  C   UNL     1      -6.410   7.265  64.461  1.00  0.00    -0.037 C  
HETATM   23  F   UNL     1      -5.837   8.101  65.353  1.00  0.00    -0.042 F  
HETATM   24  F   UNL     1      -5.630   7.251  63.356  1.00  0.00    -0.034 F  
HETATM   25  F   UNL     1      -6.434   6.016  64.974  1.00  0.00    -0.034 F  
ENDBRANCH  18  21
ENDBRANCH  14  15
ENDBRANCH  13  14
ENDBRANCH   8  13
TORSDOF 4
ENDMDL
MODEL       93
REMARK 921   NORMALIZED FREE ENERGY PREDICTED BY IDOCK:   -5.58 KCAL/MOL
REMARK 922        TOTAL FREE ENERGY PREDICTED BY IDOCK:   -7.33 KCAL/MOL
REMARK 923 INTER-LIGAND FREE ENERGY PREDICTED BY IDOCK:   -6.54 KCAL/MOL
REMARK 924 INTRA-LIGAND FREE ENERGY PREDICTED BY IDOCK:   -0.79 KCAL/MOL
REMARK 927      BINDING AFFINITY PREDICTED BY RF-SCORE:    0.00 PKD
ROOT
HETATM    1  O   UNL     1     -10.757   5.044  65.994  1.00  0.00    -0.298 OA 
HETATM    2  N   UNL     1      -9.647   5.596  66.059  1.00  0.00    -0.123 N  
HETATM    3  C   UNL     1      -9.618   6.912  66.660  1.00  0.00    -0.168 A  
HETATM    4  O   UNL     1      -8.582   5.123  65.646  1.00  0.00    -0.128 OA 
HETATM    5  C   UNL     1     -10.699   7.662  67.097  1.00  0.00    -0.290 A  
HETATM    6  N   UNL     1     -10.135   8.812  67.562  1.00  0.00    -0.205 NA 
HETATM    7  C   UNL     1     -10.784   9.938  68.191  1.00  0.00    -0.233 C  
HETATM    8  C   UNL     1      -9.864  11.163  68.346  1.00  0.00    -0.185 C  
HETATM    9  C   UNL     1      -8.440  10.945  67.796  1.00  0.00    -0.124 C  
HETATM   10  C   UNL     1      -8.782   8.697  67.448  1.00  0.00    -0.134 A  
HETATM   11  N   UNL     1      -8.423   7.568  66.898  1.00  0.00    -0.120 NA 
HETATM   12  O   UNL     1      -7.945   9.616  67.912  1.00  0.00    -0.097 OA 
ENDROOT
BRANCH   8  13
HETATM   13  O   UNL     1     -10.505  12.262  67.679  1.00  0.00    -0.209 OA 
BRANCH  13  14
HETATM   14  C   UNL     1      -9.973  12.575  66.392  1.00  0.00    -0.252 C  
BRANCH  14  15
HETATM   15  C   UNL     1      -9.899  14.074  66.275  1.00  0.00    -0.318 A  
HETATM   16  C   UNL     1     -10.685  14.755  65.344  1.00  0.00    -0.385 A  
HETATM   17  C   UNL     1     -10.589  16.142  65.230  1.00  0.00    -0.390 A  
HETATM   18  C   UNL     1      -9.720  16.876  66.046  1.00  0.00    -0.233 A  
HETATM   19  C   UNL     1      -9.034  14.811  67.099  1.00  0.00    -0.239 A  
HETATM   20  C   UNL     1      -8.929  16.201  66.973  1.00  0.00    -0.232 A  
BRANCH  18  21
HETATM   21  O   UNL     1      -9.738  18.214  65.801  1.00  0.00    -0.503 OA 
HETATM   22  C   UNL     1     -10.342  19.103  66.725  1.00  0.00    -0.421 C  
HETATM   23  F   UNL     1     -11.228  18.511  67.554  1.00  0.00    -0.386 F  
HETATM   24  F   UNL     1     -11.009  20.047  66.022  1.00  0.00    -0.508 F  
HETATM   25  F   UNL     1      -9.390  19.720  67.458  1.00  0.00    -0.356 F  
ENDBRANCH  18  21
ENDBRANCH  14  15
ENDBRANCH  13  14
ENDBRANCH   8  13
TORSDOF 4
ENDMDL
MODEL       94
REMARK 921   NORMALIZED FREE ENERGY PREDICTED BY IDOCK:   -5.56 KCAL/MOL
REMARK 922        TOTAL FREE ENERGY PREDICTED BY IDOCK:   -7.30 KCAL/MOL
REMARK 923 INTER-LIGAND FREE ENERGY PREDICTED BY IDOCK:   -6.59 KCAL/MOL
REMARK 924 INTRA-LIGAND FREE ENERGY PREDICTED BY IDOCK:   -0.71 KCAL/MOL
REMARK 927      BINDING AFFINITY PREDICTED BY RF-SCORE:    0.00 PKD
ROOT
HETATM    1  O   UNL     1     -13.601  15.718  71.340  1.00  0.00    -0.526 OA 
HETATM    2  N   UNL     1     -12.379  15.788  71.135  1.00  0.00    -0.420 N  
HETATM    3  C   UNL     1     -11.902  15.224  69.892  1.00  0.00    -0.335 A  
HETATM    4  O   UNL     1     -11.548  16.284  71.904  1.00  0.00    -0.456 OA 
HETATM    5  C   UNL     1     -12.641  14.540  68.939  1.00  0.00     0.314 A  
HETATM    6  N   UNL     1     -11.727  14.216  67.983  1.00  0.00    -0.340 NA 
HETATM    7  C   UNL     1     -11.947  13.544  66.724  1.00  0.00    -0.404 C  
HETATM    8  C   UNL     1     -10.642  13.118  66.025  1.00  0.00    -0.281 C  
HETATM    9  C   UNL     1      -9.367  13.490  66.808  1.00  0.00    -0.257 C  
HETATM   10  C   UNL     1     -10.526  14.745  68.347  1.00  0.00    -0.243 A  
HETATM   11  N   UNL     1     -10.581  15.356  69.502  1.00  0.00    -0.250 NA 
HETATM   12  O   UNL     1      -9.453  14.689  67.569  1.00  0.00    -0.194 OA 
ENDROOT
BRANCH   8  13
HETATM   13  O   UNL     1     -10.716  11.699  65.815  1.00  0.00    -0.266 OA 
BRANCH  13  14
HETATM   14  C   UNL     1      -9.494  10.996  66.036  1.00  0.00    -0.207 C  
BRANCH  14  15
HETATM   15  C   UNL     1      -9.714  10.034  67.173  1.00  0.00    -0.217 A  
HETATM   16  C   UNL     1     -10.639  10.321  68.179  1.00  0.00    -0.258 A  
HETATM   17  C   UNL     1     -10.817   9.432  69.239  1.00  0.00    -0.190 A  
HETATM   18  C   UNL     1     -10.088   8.240  69.312  1.00  0.00    -0.199 A  
HETATM   19  C   UNL     1      -8.990   8.834  67.242  1.00  0.00    -0.144 A  
HETATM   20  C   UNL     1      -9.160   7.951  68.315  1.00  0.00    -0.134 A  
BRANCH  18  21
HETATM   21  O   UNL     1     -10.371   7.491  70.412  1.00  0.00    -0.208 OA 
HETATM   22  C   UNL     1     -10.941   6.202  70.274  1.00  0.00    -0.349 C  
HETATM   23  F   UNL     1     -11.554   5.999  69.089  1.00  0.00    -0.456 F  
HETATM   24  F   UNL     1     -11.869   6.048  71.245  1.00  0.00    -0.344 F  
HETATM   25  F   UNL     1      -9.990   5.259  70.449  1.00  0.00    -0.225 F  
ENDBRANCH  18  21
ENDBRANCH  14  15
ENDBRANCH  13  14
ENDBRANCH   8  13
TORSDOF 4
ENDMDL
MODEL       95
REMARK 921   NORMALIZED FREE ENERGY PREDICTED BY IDOCK:   -5.51 KCAL/MOL
REMARK 922        TOTAL FREE ENERGY PREDICTED BY IDOCK:   -7.24 KCAL/MOL
REMARK 923 INTER-LIGAND FREE ENERGY PREDICTED BY IDOCK:   -6.55 KCAL/MOL
REMARK 924 INTRA-LIGAND FREE ENERGY PREDICTED BY IDOCK:   -0.70 KCAL/MOL
REMARK 927      BINDING AFFINITY PREDICTED BY RF-SCORE:    0.00 PKD
ROOT
HETATM    1  O   UNL     1      -8.160  17.389  68.656  1.00  0.00    -0.262 OA 
HETATM    2  N   UNL     1      -9.094  17.433  67.839  1.00  0.00    -0.250 N  
HETATM    3  C   UNL     1      -9.797  16.193  67.598  1.00  0.00    -0.236 A  
HETATM    4  O   UNL     1      -9.457  18.436  67.215  1.00  0.00    -0.272 OA 
HETATM    5  C   UNL     1      -9.497  14.941  68.113  1.00  0.00    -0.202 A  
HETATM    6  N   UNL     1     -10.447  14.127  67.573  1.00  0.00    -0.248 NA 
HETATM    7  C   UNL     1     -10.656  12.717  67.806  1.00  0.00    -0.220 C  
HETATM    8  C   UNL     1     -11.658  12.079  66.825  1.00  0.00    -0.321 C  
HETATM    9  C   UNL     1     -12.231  13.069  65.791  1.00  0.00    -0.453 C  
HETATM   10  C   UNL     1     -11.290  14.894  66.828  1.00  0.00    -0.328 A  
HETATM   11  N   UNL     1     -10.930  16.150  66.805  1.00  0.00    -0.162 NA 
HETATM   12  O   UNL     1     -12.382  14.406  66.254  1.00  0.00    -0.409 OA 
ENDROOT
BRANCH   8  13
HETATM   13  O   UNL     1     -10.980  10.995  66.171  1.00  0.00    -0.205 OA 
BRANCH  13  14
HETATM   14  C   UNL     1      -9.813  10.524  66.845  1.00  0.00    -0.193 C  
BRANCH  14  15
HETATM   15  C   UNL     1     -10.152   9.210  67.495  1.00  0.00    -0.284 A  
HETATM   16  C   UNL     1     -10.396   9.138  68.868  1.00  0.00    -0.232 A  
HETATM   17  C   UNL     1     -10.687   7.910  69.462  1.00  0.00    -0.195 A  
HETATM   18  C   UNL     1     -10.752   6.736  68.701  1.00  0.00    -0.234 A  
HETATM   19  C   UNL     1     -10.226   8.035  66.732  1.00  0.00    -0.367 A  
HETATM   20  C   UNL     1     -10.503   6.802  67.332  1.00  0.00    -0.330 A  
BRANCH  18  21
HETATM   21  O   UNL     1     -11.034   5.624  69.432  1.00  0.00    -0.320 OA 
HETATM   22  C   UNL     1     -10.034   5.021  70.234  1.00  0.00    -0.255 C  
HETATM   23  F   UNL     1      -8.774   5.343  69.871  1.00  0.00    -0.112 F  
HETATM   24  F   UNL     1     -10.161   3.679  70.123  1.00  0.00    -0.223 F  
HETATM   25  F   UNL     1     -10.222   5.355  71.529  1.00  0.00    -0.234 F  
ENDBRANCH  18  21
ENDBRANCH  14  15
ENDBRANCH  13  14
ENDBRANCH   8  13
TORSDOF 4
ENDMDL
MODEL       96
REMARK 921   NORMALIZED FREE ENERGY PREDICTED BY IDOCK:   -5.50 KCAL/MOL
REMARK 922        TOTAL FREE ENERGY PREDICTED BY IDOCK:   -7.23 KCAL/MOL
REMARK 923 INTER-LIGAND FREE ENERGY PREDICTED BY IDOCK:   -6.71 KCAL/MOL
REMARK 924 INTRA-LIGAND FREE ENERGY PREDICTED BY IDOCK:   -0.52 KCAL/MOL
REMARK 927      BINDING AFFINITY PREDICTED BY RF-SCORE:    0.00 PKD
ROOT
HETATM    1  O   UNL     1      -9.895  20.827  67.653  1.00  0.00    -0.396 OA 
HETATM    2  N   UNL     1      -9.219  20.014  67.002  1.00  0.00    -0.356 N  
HETATM    3  C   UNL     1      -9.638  18.631  67.067  1.00  0.00    -0.304 A  
HETATM    4  O   UNL     1      -8.223  20.287  66.322  1.00  0.00    -0.249 OA 
HETATM    5  C   UNL     1     -10.658  18.096  67.839  1.00  0.00    -0.371 A  
HETATM    6  N   UNL     1     -10.631  16.766  67.543  1.00  0.00    -0.324 NA 
HETATM    7  C   UNL     1     -11.513  15.725  68.017  1.00  0.00    -0.264 C  
HETATM    8  C   UNL     1     -11.018  14.307  67.678  1.00  0.00    -0.277 C  
HETATM    9  C   UNL     1      -9.682  14.282  66.908  1.00  0.00    -0.264 C  
HETATM   10  C   UNL     1      -9.673  16.561  66.598  1.00  0.00    -0.260 A  
HETATM   11  N   UNL     1      -9.038  17.660  66.286  1.00  0.00    -0.442 NA 
HETATM   12  O   UNL     1      -9.472  15.380  66.028  1.00  0.00    -0.306 OA 
ENDROOT
BRANCH   8  13
HETATM   13  O   UNL     1     -10.906  13.589  68.917  1.00  0.00    -0.244 OA 
BRANCH  13  14
HETATM   14  C   UNL     1     -11.941  12.635  69.153  1.00  0.00    -0.243 C  
BRANCH  14  15
HETATM   15  C   UNL     1     -11.374  11.265  68.897  1.00  0.00    -0.340 A  
HETATM   16  C   UNL     1     -11.028  10.428  69.961  1.00  0.00    -0.370 A  
HETATM   17  C   UNL     1     -10.481   9.170  69.710  1.00  0.00    -0.234 A  
HETATM   18  C   UNL     1     -10.279   8.717  68.401  1.00  0.00    -0.200 A  
HETATM   19  C   UNL     1     -11.179  10.807  67.586  1.00  0.00    -0.370 A  
HETATM   20  C   UNL     1     -10.617   9.550  67.337  1.00  0.00    -0.337 A  
BRANCH  18  21
HETATM   21  O   UNL     1      -9.728   7.475  68.330  1.00  0.00    -0.150 OA 
HETATM   22  C   UNL     1      -8.361   7.317  67.992  1.00  0.00    -0.123 C  
HETATM   23  F   UNL     1      -7.830   8.378  67.349  1.00  0.00    -0.094 F  
HETATM   24  F   UNL     1      -8.254   6.247  67.172  1.00  0.00    -0.106 F  
HETATM   25  F   UNL     1      -7.640   7.067  69.106  1.00  0.00    -0.089 F  
ENDBRANCH  18  21
ENDBRANCH  14  15
ENDBRANCH  13  14
ENDBRANCH   8  13
TORSDOF 4
ENDMDL
MODEL       97
REMARK 921   NORMALIZED FREE ENERGY PREDICTED BY IDOCK:   -5.46 KCAL/MOL
REMARK 922        TOTAL FREE ENERGY PREDICTED BY IDOCK:   -7.18 KCAL/MOL
REMARK 923 INTER-LIGAND FREE ENERGY PREDICTED BY IDOCK:   -7.42 KCAL/MOL
REMARK 924 INTRA-LIGAND FREE ENERGY PREDICTED BY IDOCK:    0.24 KCAL/MOL
REMARK 927      BINDING AFFINITY PREDICTED BY RF-SCORE:    0.00 PKD
ROOT
HETATM    1  O   UNL     1     -11.546  11.591  63.612  1.00  0.00    -0.394 OA 
HETATM    2  N   UNL     1     -12.081  12.704  63.484  1.00  0.00    -0.534 N  
HETATM    3  C   UNL     1     -11.444  13.807  64.169  1.00  0.00    -0.293 A  
HETATM    4  O   UNL     1     -13.107  12.938  62.836  1.00  0.00    -0.004 OA 
HETATM    5  C   UNL     1     -10.352  13.750  65.021  1.00  0.00    -0.382 A  
HETATM    6  N   UNL     1     -10.163  15.045  65.401  1.00  0.00    -0.366 NA 
HETATM    7  C   UNL     1      -9.125  15.590  66.244  1.00  0.00    -0.334 C  
HETATM    8  C   UNL     1      -9.385  17.049  66.664  1.00  0.00    -0.255 C  
HETATM    9  C   UNL     1     -10.698  17.632  66.106  1.00  0.00    -0.105 C  
HETATM   10  C   UNL     1     -11.075  15.817  64.746  1.00  0.00    -0.400 A  
HETATM   11  N   UNL     1     -11.878  15.108  63.997  1.00  0.00    -0.351 NA 
HETATM   12  O   UNL     1     -11.082  17.141  64.828  1.00  0.00    -0.909 OA 
ENDROOT
BRANCH   8  13
HETATM   13  O   UNL     1      -9.380  17.085  68.100  1.00  0.00    -0.241 OA 
BRANCH  13  14
HETATM   14  C   UNL     1      -8.699  15.997  68.725  1.00  0.00    -0.223 C  
BRANCH  14  15
HETATM   15  C   UNL     1      -9.685  14.874  68.900  1.00  0.00    -0.223 A  
HETATM   16  C   UNL     1      -9.367  13.577  68.491  1.00  0.00    -0.108 A  
HETATM   17  C   UNL     1     -10.299  12.549  68.638  1.00  0.00    -0.193 A  
HETATM   18  C   UNL     1     -11.557  12.790  69.203  1.00  0.00    -0.319 A  
HETATM   19  C   UNL     1     -10.943  15.112  69.474  1.00  0.00    -0.279 A  
HETATM   20  C   UNL     1     -11.882  14.083  69.607  1.00  0.00    -0.386 A  
BRANCH  18  21
HETATM   21  O   UNL     1     -12.350  11.687  69.263  1.00  0.00    -0.208 OA 
HETATM   22  C   UNL     1     -12.320  10.846  70.403  1.00  0.00    -0.351 C  
HETATM   23  F   UNL     1     -11.199  10.967  71.143  1.00  0.00    -0.149 F  
HETATM   24  F   UNL     1     -12.393   9.563  69.979  1.00  0.00    -0.023 F  
HETATM   25  F   UNL     1     -13.396  11.091  71.183  1.00  0.00    -0.391 F  
ENDBRANCH  18  21
ENDBRANCH  14  15
ENDBRANCH  13  14
ENDBRANCH   8  13
TORSDOF 4
ENDMDL
MODEL       98
REMARK 921   NORMALIZED FREE ENERGY PREDICTED BY IDOCK:   -5.46 KCAL/MOL
REMARK 922        TOTAL FREE ENERGY PREDICTED BY IDOCK:   -7.18 KCAL/MOL
REMARK 923 INTER-LIGAND FREE ENERGY PREDICTED BY IDOCK:   -6.35 KCAL/MOL
REMARK 924 INTRA-LIGAND FREE ENERGY PREDICTED BY IDOCK:   -0.84 KCAL/MOL
REMARK 927      BINDING AFFINITY PREDICTED BY RF-SCORE:    0.00 PKD
ROOT
HETATM    1  O   UNL     1     -12.038  15.806  68.926  1.00  0.00    -0.333 OA 
HETATM    2  N   UNL     1     -10.835  15.500  68.932  1.00  0.00    -0.241 N  
HETATM    3  C   UNL     1     -10.454  14.373  68.110  1.00  0.00    -0.237 A  
HETATM    4  O   UNL     1      -9.952  16.066  69.587  1.00  0.00    -0.263 OA 
HETATM    5  C   UNL     1     -11.291  13.543  67.379  1.00  0.00    -0.311 A  
HETATM    6  N   UNL     1     -10.443  12.647  66.802  1.00  0.00    -0.239 NA 
HETATM    7  C   UNL     1     -10.758  11.579  65.882  1.00  0.00    -0.272 C  
HETATM    8  C   UNL     1      -9.583  10.611  65.647  1.00  0.00    -0.218 C  
HETATM    9  C   UNL     1      -8.312  10.971  66.442  1.00  0.00    -0.165 C  
HETATM   10  C   UNL     1      -9.169  12.987  67.143  1.00  0.00    -0.226 A  
HETATM   11  N   UNL     1      -9.128  14.020  67.943  1.00  0.00    -0.180 NA 
HETATM   12  O   UNL     1      -8.106  12.363  66.653  1.00  0.00    -0.055 OA 
ENDROOT
BRANCH   8  13
HETATM   13  O   UNL     1     -10.043   9.294  65.991  1.00  0.00    -0.297 OA 
BRANCH  13  14
HETATM   14  C   UNL     1      -9.155   8.547  66.823  1.00  0.00    -0.151 C  
BRANCH  14  15
HETATM   15  C   UNL     1      -9.949   8.022  67.989  1.00  0.00    -0.216 A  
HETATM   16  C   UNL     1     -10.121   8.795  69.138  1.00  0.00    -0.203 A  
HETATM   17  C   UNL     1     -10.839   8.287  70.221  1.00  0.00    -0.241 A  
HETATM   18  C   UNL     1     -11.406   7.008  70.176  1.00  0.00    -0.277 A  
HETATM   19  C   UNL     1     -10.525   6.743  67.941  1.00  0.00    -0.265 A  
HETATM   20  C   UNL     1     -11.232   6.230  69.034  1.00  0.00    -0.415 A  
BRANCH  18  21
HETATM   21  O   UNL     1     -12.062   6.659  71.315  1.00  0.00    -0.348 OA 
HETATM   22  C   UNL     1     -11.338   6.235  72.457  1.00  0.00    -0.275 C  
HETATM   23  F   UNL     1     -10.091   5.800  72.183  1.00  0.00    -0.191 F  
HETATM   24  F   UNL     1     -12.014   5.209  73.024  1.00  0.00    -0.379 F  
HETATM   25  F   UNL     1     -11.271   7.241  73.356  1.00  0.00    -0.347 F  
ENDBRANCH  18  21
ENDBRANCH  14  15
ENDBRANCH  13  14
ENDBRANCH   8  13
TORSDOF 4
ENDMDL
MODEL       99
REMARK 921   NORMALIZED FREE ENERGY PREDICTED BY IDOCK:   -5.46 KCAL/MOL
REMARK 922        TOTAL FREE ENERGY PREDICTED BY IDOCK:   -7.18 KCAL/MOL
REMARK 923 INTER-LIGAND FREE ENERGY PREDICTED BY IDOCK:   -6.59 KCAL/MOL
REMARK 924 INTRA-LIGAND FREE ENERGY PREDICTED BY IDOCK:   -0.58 KCAL/MOL
REMARK 927      BINDING AFFINITY PREDICTED BY RF-SCORE:    0.00 PKD
ROOT
HETATM    1  O   UNL     1     -13.606  14.492  72.958  1.00  0.00    -0.586 OA 
HETATM    2  N   UNL     1     -12.754  15.005  72.215  1.00  0.00    -0.321 N  
HETATM    3  C   UNL     1     -12.289  14.192  71.113  1.00  0.00    -0.372 A  
HETATM    4  O   UNL     1     -12.269  16.134  72.348  1.00  0.00    -0.469 OA 
HETATM    5  C   UNL     1     -12.624  12.875  70.838  1.00  0.00    -0.270 A  
HETATM    6  N   UNL     1     -11.915  12.583  69.712  1.00  0.00    -0.311 NA 
HETATM    7  C   UNL     1     -11.921  11.361  68.941  1.00  0.00    -0.304 C  
HETATM    8  C   UNL     1     -10.800  11.302  67.887  1.00  0.00    -0.228 C  
HETATM    9  C   UNL     1      -9.897  12.551  67.868  1.00  0.00    -0.207 C  
HETATM   10  C   UNL     1     -11.248  13.706  69.327  1.00  0.00    -0.233 A  
HETATM   11  N   UNL     1     -11.436  14.703  70.151  1.00  0.00    -0.266 NA 
HETATM   12  O   UNL     1     -10.546  13.771  68.203  1.00  0.00    -0.241 OA 
ENDROOT
BRANCH   8  13
HETATM   13  O   UNL     1     -10.029  10.119  68.153  1.00  0.00    -0.143 OA 
BRANCH  13  14
HETATM   14  C   UNL     1     -10.621   8.903  67.697  1.00  0.00    -0.224 C  
BRANCH  14  15
HETATM   15  C   UNL     1     -10.696   7.959  68.867  1.00  0.00    -0.098 A  
HETATM   16  C   UNL     1     -10.791   6.581  68.665  1.00  0.00    -0.357 A  
HETATM   17  C   UNL     1     -10.883   5.719  69.758  1.00  0.00    -0.419 A  
HETATM   18  C   UNL     1     -10.871   6.210  71.069  1.00  0.00    -0.279 A  
HETATM   19  C   UNL     1     -10.675   8.450  70.182  1.00  0.00    -0.238 A  
HETATM   20  C   UNL     1     -10.782   7.584  71.276  1.00  0.00    -0.242 A  
BRANCH  18  21
HETATM   21  O   UNL     1     -10.980   5.241  72.017  1.00  0.00    -0.208 OA 
HETATM   22  C   UNL     1      -9.846   4.845  72.769  1.00  0.00    -0.157 C  
HETATM   23  F   UNL     1      -8.668   5.151  72.186  1.00  0.00    -0.123 F  
HETATM   24  F   UNL     1      -9.891   3.501  72.917  1.00  0.00    -0.151 F  
HETATM   25  F   UNL     1      -9.892   5.404  73.998  1.00  0.00    -0.147 F  
ENDBRANCH  18  21
ENDBRANCH  14  15
ENDBRANCH  13  14
ENDBRANCH   8  13
TORSDOF 4
ENDMDL
MODEL      100
REMARK 921   NORMALIZED FREE ENERGY PREDICTED BY IDOCK:   -5.46 KCAL/MOL
REMARK 922        TOTAL FREE ENERGY PREDICTED BY IDOCK:   -7.18 KCAL/MOL
REMARK 923 INTER-LIGAND FREE ENERGY PREDICTED BY IDOCK:   -6.86 KCAL/MOL
REMARK 924 INTRA-LIGAND FREE ENERGY PREDICTED BY IDOCK:   -0.31 KCAL/MOL
REMARK 927      BINDING AFFINITY PREDICTED BY RF-SCORE:    0.00 PKD
ROOT
HETATM    1  O   UNL     1     -10.051  14.930  65.145  1.00  0.00    -0.365 OA 
HETATM    2  N   UNL     1     -10.549  15.498  66.130  1.00  0.00    -0.307 N  
HETATM    3  C   UNL     1     -10.862  14.659  67.266  1.00  0.00    -0.305 A  
HETATM    4  O   UNL     1     -10.807  16.704  66.212  1.00  0.00    -0.174 OA 
HETATM    5  C   UNL     1     -10.746  13.280  67.351  1.00  0.00    -0.258 A  
HETATM    6  N   UNL     1     -11.175  12.991  68.612  1.00  0.00    -0.260 NA 
HETATM    7  C   UNL     1     -11.218  11.707  69.271  1.00  0.00    -0.265 C  
HETATM    8  C   UNL     1     -12.005  11.728  70.595  1.00  0.00    -0.222 C  
HETATM    9  C   UNL     1     -12.592  13.110  70.947  1.00  0.00    -0.295 C  
HETATM   10  C   UNL     1     -11.468  14.163  69.240  1.00  0.00    -0.292 A  
HETATM   11  N   UNL     1     -11.304  15.199  68.460  1.00  0.00    -0.293 NA 
HETATM   12  O   UNL     1     -11.816  14.222  70.518  1.00  0.00    -0.295 OA 
ENDROOT
BRANCH   8  13
HETATM   13  O   UNL     1     -13.046  10.745  70.485  1.00  0.00    -0.254 OA 
BRANCH  13  14
HETATM   14  C   UNL     1     -13.380  10.086  71.707  1.00  0.00    -0.393 C  
BRANCH  14  15
HETATM   15  C   UNL     1     -12.473   8.894  71.852  1.00  0.00    -0.445 A  
HETATM   16  C   UNL     1     -11.167   9.047  72.324  1.00  0.00    -0.160 A  
HETATM   17  C   UNL     1     -10.329   7.937  72.432  1.00  0.00    -0.333 A  
HETATM   18  C   UNL     1     -10.776   6.657  72.083  1.00  0.00    -0.218 A  
HETATM   19  C   UNL     1     -12.922   7.610  71.510  1.00  0.00    -0.378 A  
HETATM   20  C   UNL     1     -12.075   6.500  71.605  1.00  0.00    -0.381 A  
BRANCH  18  21
HETATM   21  O   UNL     1      -9.834   5.688  72.234  1.00  0.00    -0.158 OA 
HETATM   22  C   UNL     1     -10.156   4.472  72.887  1.00  0.00    -0.157 C  
HETATM   23  F   UNL     1     -11.243   4.550  73.683  1.00  0.00    -0.319 F  
HETATM   24  F   UNL     1      -9.106   4.122  73.664  1.00  0.00    -0.096 F  
HETATM   25  F   UNL     1     -10.345   3.497  71.972  1.00  0.00    -0.242 F  
ENDBRANCH  18  21
ENDBRANCH  14  15
ENDBRANCH  13  14
ENDBRANCH   8  13
TORSDOF 4
ENDMDL
MODEL      101
REMARK 921   NORMALIZED FREE ENERGY PREDICTED BY IDOCK:   -5.43 KCAL/MOL
REMARK 922        TOTAL FREE ENERGY PREDICTED BY IDOCK:   -7.15 KCAL/MOL
REMARK 923 INTER-LIGAND FREE ENERGY PREDICTED BY IDOCK:   -6.35 KCAL/MOL
REMARK 924 INTRA-LIGAND FREE ENERGY PREDICTED BY IDOCK:   -0.80 KCAL/MOL
REMARK 927      BINDING AFFINITY PREDICTED BY RF-SCORE:    0.00 PKD
ROOT
HETATM    1  O   UNL     1     -11.270   4.220  65.078  1.00  0.00    -0.249 OA 
HETATM    2  N   UNL     1     -10.134   4.634  65.361  1.00  0.00    -0.176 N  
HETATM    3  C   UNL     1     -10.038   5.517  66.503  1.00  0.00    -0.204 A  
HETATM    4  O   UNL     1      -9.096   4.367  64.746  1.00  0.00    -0.142 OA 
HETATM    5  C   UNL     1     -11.079   6.019  67.269  1.00  0.00    -0.146 A  
HETATM    6  N   UNL     1     -10.457   6.797  68.199  1.00  0.00    -0.194 NA 
HETATM    7  C   UNL     1     -11.048   7.526  69.297  1.00  0.00     0.050 C  
HETATM    8  C   UNL     1     -10.069   8.501  69.978  1.00  0.00    -0.192 C  
HETATM    9  C   UNL     1      -8.661   8.507  69.350  1.00  0.00    -0.136 C  
HETATM   10  C   UNL     1      -9.113   6.696  68.008  1.00  0.00    -0.114 A  
HETATM   11  N   UNL     1      -8.812   5.939  66.985  1.00  0.00    -0.113 NA 
HETATM   12  O   UNL     1      -8.230   7.259  68.822  1.00  0.00    -0.126 OA 
ENDROOT
BRANCH   8  13
HETATM   13  O   UNL     1     -10.661   9.808  69.916  1.00  0.00    -0.227 OA 
BRANCH  13  14
HETATM   14  C   UNL     1      -9.812  10.826  69.386  1.00  0.00    -0.085 C  
BRANCH  14  15
HETATM   15  C   UNL     1     -10.619  11.635  68.405  1.00  0.00    -0.235 A  
HETATM   16  C   UNL     1     -10.974  11.101  67.165  1.00  0.00    -0.350 A  
HETATM   17  C   UNL     1     -11.701  11.870  66.256  1.00  0.00    -0.223 A  
HETATM   18  C   UNL     1     -12.098  13.176  66.568  1.00  0.00    -0.358 A  
HETATM   19  C   UNL     1     -11.024  12.941  68.721  1.00  0.00    -0.292 A  
HETATM   20  C   UNL     1     -11.741  13.715  67.802  1.00  0.00    -0.397 A  
BRANCH  18  21
HETATM   21  O   UNL     1     -12.789  13.791  65.572  1.00  0.00    -0.596 OA 
HETATM   22  C   UNL     1     -12.127  14.195  64.385  1.00  0.00    -0.463 C  
HETATM   23  F   UNL     1     -10.791  14.326  64.521  1.00  0.00    -0.385 F  
HETATM   24  F   UNL     1     -12.620  15.401  64.021  1.00  0.00    -0.453 F  
HETATM   25  F   UNL     1     -12.389  13.317  63.393  1.00  0.00    -0.549 F  
ENDBRANCH  18  21
ENDBRANCH  14  15
ENDBRANCH  13  14
ENDBRANCH   8  13
TORSDOF 4
ENDMDL
MODEL      102
REMARK 921   NORMALIZED FREE ENERGY PREDICTED BY IDOCK:   -5.43 KCAL/MOL
REMARK 922        TOTAL FREE ENERGY PREDICTED BY IDOCK:   -7.15 KCAL/MOL
REMARK 923 INTER-LIGAND FREE ENERGY PREDICTED BY IDOCK:   -6.25 KCAL/MOL
REMARK 924 INTRA-LIGAND FREE ENERGY PREDICTED BY IDOCK:   -0.90 KCAL/MOL
REMARK 927      BINDING AFFINITY PREDICTED BY RF-SCORE:    0.00 PKD
ROOT
HETATM    1  O   UNL     1     -11.963  13.164  63.076  1.00  0.00    -0.411 OA 
HETATM    2  N   UNL     1     -12.389  13.114  64.241  1.00  0.00    -0.369 N  
HETATM    3  C   UNL     1     -11.611  13.810  65.242  1.00  0.00    -0.321 A  
HETATM    4  O   UNL     1     -13.404  12.513  64.611  1.00  0.00    -0.804 OA 
HETATM    5  C   UNL     1     -10.399  14.460  65.063  1.00  0.00    -0.421 A  
HETATM    6  N   UNL     1     -10.093  14.931  66.304  1.00  0.00    -0.269 NA 
HETATM    7  C   UNL     1      -8.963  15.738  66.703  1.00  0.00    -0.280 C  
HETATM    8  C   UNL     1      -8.810  15.859  68.231  1.00  0.00    -0.179 C  
HETATM    9  C   UNL     1      -9.886  15.093  69.026  1.00  0.00    -0.238 C  
HETATM   10  C   UNL     1     -11.117  14.614  67.144  1.00  0.00    -0.326 A  
HETATM   11  N   UNL     1     -12.054  13.926  66.547  1.00  0.00    -0.439 NA 
HETATM   12  O   UNL     1     -11.163  15.026  68.404  1.00  0.00    -0.267 OA 
ENDROOT
BRANCH   8  13
HETATM   13  O   UNL     1      -7.495  15.385  68.564  1.00  0.00    -0.111 OA 
BRANCH  13  14
HETATM   14  C   UNL     1      -6.933  14.468  67.626  1.00  0.00    -0.184 C  
BRANCH  14  15
HETATM   15  C   UNL     1      -7.273  13.075  68.081  1.00  0.00    -0.116 A  
HETATM   16  C   UNL     1      -8.173  12.290  67.357  1.00  0.00    -0.178 A  
HETATM   17  C   UNL     1      -8.497  11.008  67.802  1.00  0.00    -0.122 A  
HETATM   18  C   UNL     1      -7.926  10.481  68.967  1.00  0.00    -0.136 A  
HETATM   19  C   UNL     1      -6.694  12.543  69.243  1.00  0.00    -0.060 A  
HETATM   20  C   UNL     1      -7.033  11.263  69.696  1.00  0.00    -0.057 A  
BRANCH  18  21
HETATM   21  O   UNL     1      -8.356   9.227  69.269  1.00  0.00    -0.115 OA 
HETATM   22  C   UNL     1      -9.670   9.018  69.757  1.00  0.00    -0.175 C  
HETATM   23  F   UNL     1     -10.236  10.121  70.290  1.00  0.00    -0.291 F  
HETATM   24  F   UNL     1      -9.611   8.079  70.729  1.00  0.00    -0.159 F  
HETATM   25  F   UNL     1     -10.458   8.548  68.766  1.00  0.00    -0.217 F  
ENDBRANCH  18  21
ENDBRANCH  14  15
ENDBRANCH  13  14
ENDBRANCH   8  13
TORSDOF 4
ENDMDL
MODEL      103
REMARK 921   NORMALIZED FREE ENERGY PREDICTED BY IDOCK:   -5.42 KCAL/MOL
REMARK 922        TOTAL FREE ENERGY PREDICTED BY IDOCK:   -7.13 KCAL/MOL
REMARK 923 INTER-LIGAND FREE ENERGY PREDICTED BY IDOCK:   -6.62 KCAL/MOL
REMARK 924 INTRA-LIGAND FREE ENERGY PREDICTED BY IDOCK:   -0.52 KCAL/MOL
REMARK 927      BINDING AFFINITY PREDICTED BY RF-SCORE:    0.00 PKD
ROOT
HETATM    1  O   UNL     1     -11.278  17.805  64.530  1.00  0.00    -0.692 OA 
HETATM    2  N   UNL     1     -10.525  18.014  65.495  1.00  0.00    -0.131 N  
HETATM    3  C   UNL     1      -9.876  16.855  66.067  1.00  0.00    -0.258 A  
HETATM    4  O   UNL     1     -10.300  19.116  66.006  1.00  0.00    -0.444 OA 
HETATM    5  C   UNL     1     -10.061  15.527  65.714  1.00  0.00    -0.360 A  
HETATM    6  N   UNL     1      -9.232  14.845  66.554  1.00  0.00    -0.274 NA 
HETATM    7  C   UNL     1      -8.972  13.425  66.598  1.00  0.00    -0.122 C  
HETATM    8  C   UNL     1      -8.182  12.990  67.846  1.00  0.00    -0.166 C  
HETATM    9  C   UNL     1      -7.832  14.152  68.797  1.00  0.00    -0.114 C  
HETATM   10  C   UNL     1      -8.559  15.752  67.314  1.00  0.00    -0.188 A  
HETATM   11  N   UNL     1      -8.924  16.981  67.062  1.00  0.00    -0.215 NA 
HETATM   12  O   UNL     1      -7.600  15.403  68.162  1.00  0.00    -0.108 OA 
ENDROOT
BRANCH   8  13
HETATM   13  O   UNL     1      -8.969  11.997  68.522  1.00  0.00    -0.171 OA 
BRANCH  13  14
HETATM   14  C   UNL     1      -8.253  10.823  68.906  1.00  0.00    -0.149 C  
BRANCH  14  15
HETATM   15  C   UNL     1      -9.156   9.997  69.782  1.00  0.00    -0.219 A  
HETATM   16  C   UNL     1     -10.535   9.974  69.563  1.00  0.00    -0.260 A  
HETATM   17  C   UNL     1     -11.363   9.224  70.397  1.00  0.00    -0.283 A  
HETATM   18  C   UNL     1     -10.835   8.475  71.455  1.00  0.00    -0.263 A  
HETATM   19  C   UNL     1      -8.627   9.240  70.838  1.00  0.00    -0.220 A  
HETATM   20  C   UNL     1      -9.461   8.499  71.683  1.00  0.00    -0.316 A  
BRANCH  18  21
HETATM   21  O   UNL     1     -11.776   7.810  72.179  1.00  0.00    -0.289 OA 
HETATM   22  C   UNL     1     -12.217   6.527  71.770  1.00  0.00    -0.322 C  
HETATM   23  F   UNL     1     -11.988   6.258  70.468  1.00  0.00    -0.419 F  
HETATM   24  F   UNL     1     -13.553   6.460  71.972  1.00  0.00    -0.317 F  
HETATM   25  F   UNL     1     -11.630   5.577  72.530  1.00  0.00    -0.320 F  
ENDBRANCH  18  21
ENDBRANCH  14  15
ENDBRANCH  13  14
ENDBRANCH   8  13
TORSDOF 4
ENDMDL
MODEL      104
REMARK 921   NORMALIZED FREE ENERGY PREDICTED BY IDOCK:   -5.41 KCAL/MOL
REMARK 922        TOTAL FREE ENERGY PREDICTED BY IDOCK:   -7.13 KCAL/MOL
REMARK 923 INTER-LIGAND FREE ENERGY PREDICTED BY IDOCK:   -6.39 KCAL/MOL
REMARK 924 INTRA-LIGAND FREE ENERGY PREDICTED BY IDOCK:   -0.73 KCAL/MOL
REMARK 927      BINDING AFFINITY PREDICTED BY RF-SCORE:    0.00 PKD
ROOT
HETATM    1  O   UNL     1     -11.643  15.580  66.804  1.00  0.00    -0.080 OA 
HETATM    2  N   UNL     1     -11.093  14.878  65.941  1.00  0.00    -0.335 N  
HETATM    3  C   UNL     1     -10.991  13.465  66.230  1.00  0.00    -0.288 A  
HETATM    4  O   UNL     1     -10.621  15.287  64.874  1.00  0.00    -0.407 OA 
HETATM    5  C   UNL     1     -11.363  12.816  67.398  1.00  0.00    -0.313 A  
HETATM    6  N   UNL     1     -11.052  11.510  67.162  1.00  0.00    -0.282 NA 
HETATM    7  C   UNL     1     -11.276  10.367  68.016  1.00  0.00    -0.272 C  
HETATM    8  C   UNL     1     -10.558   9.094  67.530  1.00  0.00    -0.249 C  
HETATM    9  C   UNL     1      -9.744   9.295  66.236  1.00  0.00    -0.271 C  
HETATM   10  C   UNL     1     -10.576  11.410  65.890  1.00  0.00    -0.263 A  
HETATM   11  N   UNL     1     -10.512  12.570  65.290  1.00  0.00    -0.281 NA 
HETATM   12  O   UNL     1     -10.281  10.246  65.326  1.00  0.00    -0.307 OA 
ENDROOT
BRANCH   8  13
HETATM   13  O   UNL     1      -9.713   8.648  68.601  1.00  0.00    -0.157 OA 
BRANCH  13  14
HETATM   14  C   UNL     1      -9.971   9.261  69.864  1.00  0.00    -0.205 C  
BRANCH  14  15
HETATM   15  C   UNL     1     -10.378   8.179  70.828  1.00  0.00    -0.217 A  
HETATM   16  C   UNL     1      -9.485   7.717  71.798  1.00  0.00    -0.191 A  
HETATM   17  C   UNL     1      -9.866   6.697  72.670  1.00  0.00    -0.180 A  
HETATM   18  C   UNL     1     -11.143   6.127  72.601  1.00  0.00    -0.272 A  
HETATM   19  C   UNL     1     -11.660   7.612  70.765  1.00  0.00    -0.284 A  
HETATM   20  C   UNL     1     -12.035   6.579  71.631  1.00  0.00    -0.387 A  
BRANCH  18  21
HETATM   21  O   UNL     1     -11.351   5.139  73.512  1.00  0.00    -0.296 OA 
HETATM   22  C   UNL     1     -10.779   3.857  73.321  1.00  0.00    -0.199 C  
HETATM   23  F   UNL     1     -10.436   3.596  72.042  1.00  0.00    -0.223 F  
HETATM   24  F   UNL     1     -11.692   2.931  73.696  1.00  0.00    -0.322 F  
HETATM   25  F   UNL     1      -9.692   3.718  74.110  1.00  0.00    -0.112 F  
ENDBRANCH  18  21
ENDBRANCH  14  15
ENDBRANCH  13  14
ENDBRANCH   8  13
TORSDOF 4
ENDMDL
MODEL      105
REMARK 921   NORMALIZED FREE ENERGY PREDICTED BY IDOCK:   -5.39 KCAL/MOL
REMARK 922        TOTAL FREE ENERGY PREDICTED BY IDOCK:   -7.10 KCAL/MOL
REMARK 923 INTER-LIGAND FREE ENERGY PREDICTED BY IDOCK:   -6.37 KCAL/MOL
REMARK 924 INTRA-LIGAND FREE ENERGY PREDICTED BY IDOCK:   -0.73 KCAL/MOL
REMARK 927      BINDING AFFINITY PREDICTED BY RF-SCORE:    0.00 PKD
ROOT
HETATM    1  O   UNL     1     -10.352   3.253  63.277  1.00  0.00    -0.164 OA 
HETATM    2  N   UNL     1      -9.658   2.933  64.255  1.00  0.00    -0.149 N  
HETATM    3  C   UNL     1      -9.799   3.751  65.439  1.00  0.00    -0.130 A  
HETATM    4  O   UNL     1      -8.858   1.992  64.292  1.00  0.00    -0.095 OA 
HETATM    5  C   UNL     1     -10.559   4.902  65.582  1.00  0.00    -0.121 A  
HETATM    6  N   UNL     1     -10.338   5.284  66.871  1.00  0.00    -0.242 NA 
HETATM    7  C   UNL     1     -10.922   6.392  67.589  1.00  0.00    -0.349 C  
HETATM    8  C   UNL     1     -10.239   6.669  68.942  1.00  0.00    -0.177 C  
HETATM    9  C   UNL     1      -9.070   5.713  69.255  1.00  0.00    -0.113 C  
HETATM   10  C   UNL     1      -9.531   4.356  67.457  1.00  0.00    -0.166 A  
HETATM   11  N   UNL     1      -9.171   3.415  66.625  1.00  0.00    -0.166 NA 
HETATM   12  O   UNL     1      -9.216   4.393  68.745  1.00  0.00    -0.116 OA 
ENDROOT
BRANCH   8  13
HETATM   13  O   UNL     1      -9.791   8.033  68.920  1.00  0.00    -0.167 OA 
BRANCH  13  14
HETATM   14  C   UNL     1     -10.722   8.979  69.446  1.00  0.00    -0.191 C  
BRANCH  14  15
HETATM   15  C   UNL     1     -10.887  10.077  68.430  1.00  0.00    -0.277 A  
HETATM   16  C   UNL     1     -10.339   9.952  67.151  1.00  0.00    -0.304 A  
HETATM   17  C   UNL     1     -10.480  10.987  66.227  1.00  0.00    -0.310 A  
HETATM   18  C   UNL     1     -11.176  12.157  66.552  1.00  0.00    -0.328 A  
HETATM   19  C   UNL     1     -11.592  11.246  68.752  1.00  0.00    -0.383 A  
HETATM   20  C   UNL     1     -11.719  12.289  67.828  1.00  0.00    -0.403 A  
BRANCH  18  21
HETATM   21  O   UNL     1     -11.212  13.071  65.545  1.00  0.00    -0.284 OA 
HETATM   22  C   UNL     1     -12.376  13.214  64.750  1.00  0.00    -0.423 C  
HETATM   23  F   UNL     1     -13.192  12.140  64.776  1.00  0.00    -0.386 F  
HETATM   24  F   UNL     1     -11.987  13.400  63.468  1.00  0.00    -0.495 F  
HETATM   25  F   UNL     1     -13.066  14.307  65.142  1.00  0.00    -0.429 F  
ENDBRANCH  18  21
ENDBRANCH  14  15
ENDBRANCH  13  14
ENDBRANCH   8  13
TORSDOF 4
ENDMDL
MODEL      106
REMARK 921   NORMALIZED FREE ENERGY PREDICTED BY IDOCK:   -5.39 KCAL/MOL
REMARK 922        TOTAL FREE ENERGY PREDICTED BY IDOCK:   -7.09 KCAL/MOL
REMARK 923 INTER-LIGAND FREE ENERGY PREDICTED BY IDOCK:   -6.33 KCAL/MOL
REMARK 924 INTRA-LIGAND FREE ENERGY PREDICTED BY IDOCK:   -0.76 KCAL/MOL
REMARK 927      BINDING AFFINITY PREDICTED BY RF-SCORE:    0.00 PKD
ROOT
HETATM    1  O   UNL     1     -13.608  15.936  73.658  1.00  0.00    -0.413 OA 
HETATM    2  N   UNL     1     -12.765  15.711  72.775  1.00  0.00    -0.393 N  
HETATM    3  C   UNL     1     -12.786  14.390  72.187  1.00  0.00    -0.323 A  
HETATM    4  O   UNL     1     -11.913  16.512  72.373  1.00  0.00    -0.513 OA 
HETATM    5  C   UNL     1     -13.585  13.318  72.554  1.00  0.00    -0.532 A  
HETATM    6  N   UNL     1     -13.208  12.321  71.705  1.00  0.00    -0.351 NA 
HETATM    7  C   UNL     1     -13.749  10.987  71.593  1.00  0.00     0.326 C  
HETATM    8  C   UNL     1     -12.900  10.058  70.706  1.00  0.00    -0.264 C  
HETATM    9  C   UNL     1     -11.644  10.734  70.121  1.00  0.00    -0.337 C  
HETATM   10  C   UNL     1     -12.273  12.822  70.851  1.00  0.00    -0.191 A  
HETATM   11  N   UNL     1     -11.978  14.068  71.111  1.00  0.00    -0.265 NA 
HETATM   12  O   UNL     1     -11.782  12.121  69.837  1.00  0.00    -0.314 OA 
ENDROOT
BRANCH   8  13
HETATM   13  O   UNL     1     -12.541   8.920  71.505  1.00  0.00    -0.312 OA 
BRANCH  13  14
HETATM   14  C   UNL     1     -11.300   9.042  72.199  1.00  0.00    -0.241 C  
BRANCH  14  15
HETATM   15  C   UNL     1     -10.917   7.677  72.704  1.00  0.00    -0.405 A  
HETATM   16  C   UNL     1     -11.667   6.552  72.355  1.00  0.00    -0.271 A  
HETATM   17  C   UNL     1     -11.315   5.296  72.848  1.00  0.00    -0.368 A  
HETATM   18  C   UNL     1     -10.206   5.134  73.686  1.00  0.00    -0.205 A  
HETATM   19  C   UNL     1      -9.800   7.512  73.537  1.00  0.00    -0.372 A  
HETATM   20  C   UNL     1      -9.457   6.253  74.043  1.00  0.00    -0.176 A  
BRANCH  18  21
HETATM   21  O   UNL     1     -10.006   3.850  74.088  1.00  0.00    -0.116 OA 
HETATM   22  C   UNL     1      -8.996   3.060  73.484  1.00  0.00    -0.079 C  
HETATM   23  F   UNL     1      -8.608   3.503  72.270  1.00  0.00    -0.080 F  
HETATM   24  F   UNL     1      -9.483   1.808  73.326  1.00  0.00    -0.070 F  
HETATM   25  F   UNL     1      -7.920   2.992  74.297  1.00  0.00    -0.063 F  
ENDBRANCH  18  21
ENDBRANCH  14  15
ENDBRANCH  13  14
ENDBRANCH   8  13
TORSDOF 4
ENDMDL
MODEL      107
REMARK 921   NORMALIZED FREE ENERGY PREDICTED BY IDOCK:   -5.38 KCAL/MOL
REMARK 922        TOTAL FREE ENERGY PREDICTED BY IDOCK:   -7.08 KCAL/MOL
REMARK 923 INTER-LIGAND FREE ENERGY PREDICTED BY IDOCK:   -6.41 KCAL/MOL
REMARK 924 INTRA-LIGAND FREE ENERGY PREDICTED BY IDOCK:   -0.67 KCAL/MOL
REMARK 927      BINDING AFFINITY PREDICTED BY RF-SCORE:    0.00 PKD
ROOT
HETATM    1  O   UNL     1      -6.958  14.930  69.983  1.00  0.00    -0.187 OA 
HETATM    2  N   UNL     1      -6.896  15.314  68.805  1.00  0.00    -0.105 N  
HETATM    3  C   UNL     1      -8.143  15.345  68.072  1.00  0.00    -0.140 A  
HETATM    4  O   UNL     1      -5.866  15.655  68.212  1.00  0.00    -0.101 OA 
HETATM    5  C   UNL     1      -9.387  14.916  68.509  1.00  0.00    -0.196 A  
HETATM    6  N   UNL     1     -10.208  15.152  67.447  1.00  0.00    -0.234 NA 
HETATM    7  C   UNL     1     -11.634  14.949  67.356  1.00  0.00    -0.332 C  
HETATM    8  C   UNL     1     -12.177  15.077  65.920  1.00  0.00     0.230 C  
HETATM    9  C   UNL     1     -11.091  15.390  64.871  1.00  0.00    -0.423 C  
HETATM   10  C   UNL     1      -9.473  15.744  66.466  1.00  0.00    -0.272 A  
HETATM   11  N   UNL     1      -8.215  15.872  66.795  1.00  0.00    -0.247 NA 
HETATM   12  O   UNL     1     -10.012  16.190  65.339  1.00  0.00    -0.482 OA 
ENDROOT
BRANCH   8  13
HETATM   13  O   UNL     1     -12.848  13.846  65.608  1.00  0.00    -0.541 OA 
BRANCH  13  14
HETATM   14  C   UNL     1     -12.279  13.111  64.525  1.00  0.00    -0.406 C  
BRANCH  14  15
HETATM   15  C   UNL     1     -11.449  11.998  65.108  1.00  0.00    -0.344 A  
HETATM   16  C   UNL     1     -11.479  11.730  66.478  1.00  0.00    -0.325 A  
HETATM   17  C   UNL     1     -10.688  10.712  67.008  1.00  0.00    -0.317 A  
HETATM   18  C   UNL     1      -9.862   9.935  66.186  1.00  0.00    -0.260 A  
HETATM   19  C   UNL     1     -10.628  11.214  64.283  1.00  0.00    -0.425 A  
HETATM   20  C   UNL     1      -9.824  10.203  64.819  1.00  0.00    -0.382 A  
BRANCH  18  21
HETATM   21  O   UNL     1      -9.148   8.994  66.859  1.00  0.00    -0.127 OA 
HETATM   22  C   UNL     1      -9.553   7.636  66.835  1.00  0.00    -0.193 C  
HETATM   23  F   UNL     1     -10.850   7.458  66.508  1.00  0.00    -0.342 F  
HETATM   24  F   UNL     1      -9.371   7.124  68.074  1.00  0.00    -0.131 F  
HETATM   25  F   UNL     1      -8.777   6.941  65.975  1.00  0.00    -0.129 F  
ENDBRANCH  18  21
ENDBRANCH  14  15
ENDBRANCH  13  14
ENDBRANCH   8  13
TORSDOF 4
ENDMDL
MODEL      108
REMARK 921   NORMALIZED FREE ENERGY PREDICTED BY IDOCK:   -5.37 KCAL/MOL
REMARK 922        TOTAL FREE ENERGY PREDICTED BY IDOCK:   -7.08 KCAL/MOL
REMARK 923 INTER-LIGAND FREE ENERGY PREDICTED BY IDOCK:   -6.32 KCAL/MOL
REMARK 924 INTRA-LIGAND FREE ENERGY PREDICTED BY IDOCK:   -0.75 KCAL/MOL
REMARK 927      BINDING AFFINITY PREDICTED BY RF-SCORE:    0.00 PKD
ROOT
HETATM    1  O   UNL     1     -12.669  11.865  63.349  1.00  0.00    -0.662 OA 
HETATM    2  N   UNL     1     -12.321  12.805  64.081  1.00  0.00    -0.408 N  
HETATM    3  C   UNL     1     -11.152  12.582  64.902  1.00  0.00    -0.299 A  
HETATM    4  O   UNL     1     -12.895  13.896  64.173  1.00  0.00    -0.586 OA 
HETATM    5  C   UNL     1     -10.421  11.410  65.027  1.00  0.00    -0.303 A  
HETATM    6  N   UNL     1      -9.442  11.727  65.920  1.00  0.00    -0.229 NA 
HETATM    7  C   UNL     1      -8.353  10.900  66.384  1.00  0.00    -0.162 C  
HETATM    8  C   UNL     1      -7.600  11.503  67.585  1.00  0.00    -0.115 C  
HETATM    9  C   UNL     1      -8.161  12.862  68.052  1.00  0.00    -0.159 C  
HETATM   10  C   UNL     1      -9.573  13.042  66.246  1.00  0.00    -0.238 A  
HETATM   11  N   UNL     1     -10.601  13.599  65.662  1.00  0.00    -0.286 NA 
HETATM   12  O   UNL     1      -8.703  13.677  67.020  1.00  0.00    -0.220 OA 
ENDROOT
BRANCH   8  13
HETATM   13  O   UNL     1      -7.651  10.538  68.647  1.00  0.00    -0.087 OA 
BRANCH  13  14
HETATM   14  C   UNL     1      -7.532   9.179  68.229  1.00  0.00    -0.083 C  
BRANCH  14  15
HETATM   15  C   UNL     1      -8.674   8.408  68.833  1.00  0.00    -0.136 A  
HETATM   16  C   UNL     1      -9.901   9.028  69.079  1.00  0.00    -0.178 A  
HETATM   17  C   UNL     1     -10.945   8.308  69.660  1.00  0.00    -0.092 A  
HETATM   18  C   UNL     1     -10.792   6.958  69.997  1.00  0.00    -0.262 A  
HETATM   19  C   UNL     1      -8.525   7.052  69.162  1.00  0.00    -0.129 A  
HETATM   20  C   UNL     1      -9.568   6.336  69.759  1.00  0.00    -0.169 A  
BRANCH  18  21
HETATM   21  O   UNL     1     -11.897   6.406  70.564  1.00  0.00    -0.374 OA 
HETATM   22  C   UNL     1     -12.185   6.628  71.934  1.00  0.00    -0.335 C  
HETATM   23  F   UNL     1     -11.115   7.008  72.663  1.00  0.00    -0.243 F  
HETATM   24  F   UNL     1     -12.646   5.469  72.458  1.00  0.00    -0.254 F  
HETATM   25  F   UNL     1     -13.157   7.558  72.053  1.00  0.00    -0.315 F  
ENDBRANCH  18  21
ENDBRANCH  14  15
ENDBRANCH  13  14
ENDBRANCH   8  13
TORSDOF 4
ENDMDL
MODEL      109
REMARK 921   NORMALIZED FREE ENERGY PREDICTED BY IDOCK:   -5.37 KCAL/MOL
REMARK 922        TOTAL FREE ENERGY PREDICTED BY IDOCK:   -7.07 KCAL/MOL
REMARK 923 INTER-LIGAND FREE ENERGY PREDICTED BY IDOCK:   -6.23 KCAL/MOL
REMARK 924 INTRA-LIGAND FREE ENERGY PREDICTED BY IDOCK:   -0.84 KCAL/MOL
REMARK 927      BINDING AFFINITY PREDICTED BY RF-SCORE:    0.00 PKD
ROOT
HETATM    1  O   UNL     1     -13.362  10.966  72.231  1.00  0.00    -0.380 OA 
HETATM    2  N   UNL     1     -13.393   9.731  72.108  1.00  0.00    -0.451 N  
HETATM    3  C   UNL     1     -12.228   9.115  71.512  1.00  0.00    -0.349 A  
HETATM    4  O   UNL     1     -14.332   8.998  72.438  1.00  0.00    -0.499 OA 
HETATM    5  C   UNL     1     -11.114   9.753  70.986  1.00  0.00    -0.361 A  
HETATM    6  N   UNL     1     -10.327   8.731  70.548  1.00  0.00    -0.195 NA 
HETATM    7  C   UNL     1      -9.010   8.804  69.959  1.00  0.00    -0.158 C  
HETATM    8  C   UNL     1      -8.542   7.469  69.348  1.00  0.00    -0.133 C  
HETATM    9  C   UNL     1      -9.570   6.328  69.484  1.00  0.00    -0.147 C  
HETATM   10  C   UNL     1     -10.940   7.556  70.863  1.00  0.00    -0.253 A  
HETATM   11  N   UNL     1     -12.099   7.740  71.439  1.00  0.00    -0.304 NA 
HETATM   12  O   UNL     1     -10.373   6.375  70.657  1.00  0.00    -0.189 OA 
ENDROOT
BRANCH   8  13
HETATM   13  O   UNL     1      -8.235   7.718  67.968  1.00  0.00    -0.121 OA 
BRANCH  13  14
HETATM   14  C   UNL     1      -9.371   7.795  67.106  1.00  0.00    -0.150 C  
BRANCH  14  15
HETATM   15  C   UNL     1      -9.636   9.248  66.820  1.00  0.00    -0.240 A  
HETATM   16  C   UNL     1     -10.902   9.797  67.040  1.00  0.00    -0.165 A  
HETATM   17  C   UNL     1     -11.141  11.140  66.749  1.00  0.00    -0.280 A  
HETATM   18  C   UNL     1     -10.126  11.963  66.246  1.00  0.00    -0.220 A  
HETATM   19  C   UNL     1      -8.618  10.076  66.324  1.00  0.00    -0.137 A  
HETATM   20  C   UNL     1      -8.864  11.419  66.019  1.00  0.00    -0.177 A  
BRANCH  18  21
HETATM   21  O   UNL     1     -10.525  13.240  66.005  1.00  0.00    -0.276 OA 
HETATM   22  C   UNL     1     -10.486  14.210  67.038  1.00  0.00    -0.271 C  
HETATM   23  F   UNL     1     -10.466  13.684  68.281  1.00  0.00    -0.221 F  
HETATM   24  F   UNL     1     -11.596  14.976  66.936  1.00  0.00    -0.349 F  
HETATM   25  F   UNL     1      -9.409  15.008  66.876  1.00  0.00    -0.206 F  
ENDBRANCH  18  21
ENDBRANCH  14  15
ENDBRANCH  13  14
ENDBRANCH   8  13
TORSDOF 4
ENDMDL
MODEL      110
REMARK 921   NORMALIZED FREE ENERGY PREDICTED BY IDOCK:   -5.37 KCAL/MOL
REMARK 922        TOTAL FREE ENERGY PREDICTED BY IDOCK:   -7.07 KCAL/MOL
REMARK 923 INTER-LIGAND FREE ENERGY PREDICTED BY IDOCK:   -7.00 KCAL/MOL
REMARK 924 INTRA-LIGAND FREE ENERGY PREDICTED BY IDOCK:   -0.07 KCAL/MOL
REMARK 927      BINDING AFFINITY PREDICTED BY RF-SCORE:    0.00 PKD
ROOT
HETATM    1  O   UNL     1     -10.595  18.415  67.885  1.00  0.00    -0.394 OA 
HETATM    2  N   UNL     1     -10.098  17.797  66.930  1.00  0.00    -0.326 N  
HETATM    3  C   UNL     1     -10.493  16.413  66.784  1.00  0.00    -0.273 A  
HETATM    4  O   UNL     1      -9.294  18.260  66.113  1.00  0.00    -0.469 OA 
HETATM    5  C   UNL     1     -11.299  15.674  67.635  1.00  0.00    -0.228 A  
HETATM    6  N   UNL     1     -11.348  14.442  67.055  1.00  0.00    -0.332 NA 
HETATM    7  C   UNL     1     -12.093  13.280  67.479  1.00  0.00    -0.264 C  
HETATM    8  C   UNL     1     -11.697  11.995  66.728  1.00  0.00    -0.264 C  
HETATM    9  C   UNL     1     -10.586  12.204  65.680  1.00  0.00    -0.262 C  
HETATM   10  C   UNL     1     -10.645  14.494  65.889  1.00  0.00    -0.309 A  
HETATM   11  N   UNL     1     -10.101  15.665  65.688  1.00  0.00    -0.347 NA 
HETATM   12  O   UNL     1     -10.590  13.475  65.041  1.00  0.00    -0.329 OA 
ENDROOT
BRANCH   8  13
HETATM   13  O   UNL     1     -11.293  11.033  67.715  1.00  0.00    -0.314 OA 
BRANCH  13  14
HETATM   14  C   UNL     1     -11.706  11.332  69.048  1.00  0.00    -0.342 C  
BRANCH  14  15
HETATM   15  C   UNL     1     -11.312  10.174  69.924  1.00  0.00    -0.335 A  
HETATM   16  C   UNL     1     -12.035   9.879  71.082  1.00  0.00    -0.473 A  
HETATM   17  C   UNL     1     -11.645   8.817  71.898  1.00  0.00    -0.432 A  
HETATM   18  C   UNL     1     -10.538   8.024  71.573  1.00  0.00    -0.226 A  
HETATM   19  C   UNL     1     -10.207   9.374  69.595  1.00  0.00    -0.225 A  
HETATM   20  C   UNL     1      -9.809   8.318  70.423  1.00  0.00    -0.194 A  
BRANCH  18  21
HETATM   21  O   UNL     1     -10.285   7.039  72.476  1.00  0.00    -0.177 OA 
HETATM   22  C   UNL     1      -8.957   6.603  72.706  1.00  0.00    -0.122 C  
HETATM   23  F   UNL     1      -8.104   6.894  71.701  1.00  0.00    -0.102 F  
HETATM   24  F   UNL     1      -8.977   5.257  72.846  1.00  0.00    -0.121 F  
HETATM   25  F   UNL     1      -8.491   7.137  73.855  1.00  0.00    -0.139 F  
ENDBRANCH  18  21
ENDBRANCH  14  15
ENDBRANCH  13  14
ENDBRANCH   8  13
TORSDOF 4
ENDMDL
MODEL      111
REMARK 921   NORMALIZED FREE ENERGY PREDICTED BY IDOCK:   -5.36 KCAL/MOL
REMARK 922        TOTAL FREE ENERGY PREDICTED BY IDOCK:   -7.06 KCAL/MOL
REMARK 923 INTER-LIGAND FREE ENERGY PREDICTED BY IDOCK:   -6.29 KCAL/MOL
REMARK 924 INTRA-LIGAND FREE ENERGY PREDICTED BY IDOCK:   -0.76 KCAL/MOL
REMARK 927      BINDING AFFINITY PREDICTED BY RF-SCORE:    0.00 PKD
ROOT
HETATM    1  O   UNL     1      -9.361   6.581  68.914  1.00  0.00    -0.132 OA 
HETATM    2  N   UNL     1      -9.936   7.044  67.916  1.00  0.00    -0.148 N  
HETATM    3  C   UNL     1      -9.879   8.480  67.749  1.00  0.00    -0.175 A  
HETATM    4  O   UNL     1     -10.557   6.387  67.073  1.00  0.00    -0.248 OA 
HETATM    5  C   UNL     1      -9.325   9.407  68.619  1.00  0.00    -0.142 A  
HETATM    6  N   UNL     1      -9.541  10.604  68.005  1.00  0.00    -0.155 NA 
HETATM    7  C   UNL     1      -9.124  11.918  68.433  1.00  0.00    -0.167 C  
HETATM    8  C   UNL     1      -9.773  13.057  67.623  1.00  0.00    -0.212 C  
HETATM    9  C   UNL     1     -10.739  12.567  66.526  1.00  0.00    -0.240 C  
HETATM   10  C   UNL     1     -10.142  10.364  66.807  1.00  0.00    -0.214 A  
HETATM   11  N   UNL     1     -10.376   9.093  66.613  1.00  0.00    -0.247 NA 
HETATM   12  O   UNL     1     -10.392  11.325  65.927  1.00  0.00    -0.239 OA 
ENDROOT
BRANCH   8  13
HETATM   13  O   UNL     1     -10.453  13.908  68.559  1.00  0.00    -0.240 OA 
BRANCH  13  14
HETATM   14  C   UNL     1     -11.480  14.722  67.992  1.00  0.00    -0.331 C  
BRANCH  14  15
HETATM   15  C   UNL     1     -10.923  16.108  67.810  1.00  0.00    -0.293 A  
HETATM   16  C   UNL     1     -10.775  16.654  66.534  1.00  0.00    -0.127 A  
HETATM   17  C   UNL     1     -10.236  17.931  66.377  1.00  0.00    -0.372 A  
HETATM   18  C   UNL     1      -9.845  18.691  67.486  1.00  0.00    -0.320 A  
HETATM   19  C   UNL     1     -10.539  16.874  68.922  1.00  0.00    -0.353 A  
HETATM   20  C   UNL     1      -9.985  18.149  68.762  1.00  0.00    -0.389 A  
BRANCH  18  21
HETATM   21  O   UNL     1      -9.329  19.907  67.162  1.00  0.00    -0.327 OA 
HETATM   22  C   UNL     1      -7.980  20.024  66.744  1.00  0.00    -0.314 C  
HETATM   23  F   UNL     1      -7.200  18.987  67.116  1.00  0.00    -0.206 F  
HETATM   24  F   UNL     1      -7.464  21.143  67.302  1.00  0.00    -0.406 F  
HETATM   25  F   UNL     1      -7.927  20.161  65.401  1.00  0.00    -0.297 F  
ENDBRANCH  18  21
ENDBRANCH  14  15
ENDBRANCH  13  14
ENDBRANCH   8  13
TORSDOF 4
ENDMDL
MODEL      112
REMARK 921   NORMALIZED FREE ENERGY PREDICTED BY IDOCK:   -5.36 KCAL/MOL
REMARK 922        TOTAL FREE ENERGY PREDICTED BY IDOCK:   -7.06 KCAL/MOL
REMARK 923 INTER-LIGAND FREE ENERGY PREDICTED BY IDOCK:   -6.04 KCAL/MOL
REMARK 924 INTRA-LIGAND FREE ENERGY PREDICTED BY IDOCK:   -1.02 KCAL/MOL
REMARK 927      BINDING AFFINITY PREDICTED BY RF-SCORE:    0.00 PKD
ROOT
HETATM    1  O   UNL     1     -11.210  12.560  68.306  1.00  0.00    -0.229 OA 
HETATM    2  N   UNL     1     -10.033  12.237  68.080  1.00  0.00    -0.196 N  
HETATM    3  C   UNL     1      -9.802  10.856  67.720  1.00  0.00    -0.175 A  
HETATM    4  O   UNL     1      -9.055  12.990  68.149  1.00  0.00    -0.196 OA 
HETATM    5  C   UNL     1     -10.734   9.830  67.679  1.00  0.00    -0.274 A  
HETATM    6  N   UNL     1     -10.009   8.742  67.297  1.00  0.00    -0.200 NA 
HETATM    7  C   UNL     1     -10.475   7.400  67.036  1.00  0.00    -0.333 C  
HETATM    8  C   UNL     1      -9.334   6.377  66.882  1.00  0.00    -0.134 C  
HETATM    9  C   UNL     1      -7.927   6.988  67.041  1.00  0.00    -0.116 C  
HETATM   10  C   UNL     1      -8.727   9.143  67.073  1.00  0.00    -0.123 A  
HETATM   11  N   UNL     1      -8.552  10.414  67.326  1.00  0.00    -0.126 NA 
HETATM   12  O   UNL     1      -7.796   8.330  66.590  1.00  0.00    -0.092 OA 
ENDROOT
BRANCH   8  13
HETATM   13  O   UNL     1      -9.555   5.345  67.855  1.00  0.00    -0.120 OA 
BRANCH  13  14
HETATM   14  C   UNL     1      -8.866   5.528  69.091  1.00  0.00    -0.102 C  
BRANCH  14  15
HETATM   15  C   UNL     1      -9.715   6.410  69.967  1.00  0.00    -0.183 A  
HETATM   16  C   UNL     1     -11.043   6.075  70.240  1.00  0.00    -0.415 A  
HETATM   17  C   UNL     1     -11.826   6.912  71.034  1.00  0.00    -0.411 A  
HETATM   18  C   UNL     1     -11.301   8.090  71.579  1.00  0.00    -0.259 A  
HETATM   19  C   UNL     1      -9.187   7.586  70.520  1.00  0.00    -0.157 A  
HETATM   20  C   UNL     1      -9.979   8.432  71.305  1.00  0.00    -0.261 A  
BRANCH  18  21
HETATM   21  O   UNL     1     -12.196   8.798  72.318  1.00  0.00    -0.364 OA 
HETATM   22  C   UNL     1     -13.091   9.699  71.688  1.00  0.00    -0.412 C  
HETATM   23  F   UNL     1     -12.691  10.101  70.464  1.00  0.00    -0.350 F  
HETATM   24  F   UNL     1     -13.193  10.800  72.467  1.00  0.00    -0.446 F  
HETATM   25  F   UNL     1     -14.316   9.137  71.594  1.00  0.00    -0.363 F  
ENDBRANCH  18  21
ENDBRANCH  14  15
ENDBRANCH  13  14
ENDBRANCH   8  13
TORSDOF 4
ENDMDL
MODEL      113
REMARK 921   NORMALIZED FREE ENERGY PREDICTED BY IDOCK:   -5.34 KCAL/MOL
REMARK 922        TOTAL FREE ENERGY PREDICTED BY IDOCK:   -7.04 KCAL/MOL
REMARK 923 INTER-LIGAND FREE ENERGY PREDICTED BY IDOCK:   -6.30 KCAL/MOL
REMARK 924 INTRA-LIGAND FREE ENERGY PREDICTED BY IDOCK:   -0.74 KCAL/MOL
REMARK 927      BINDING AFFINITY PREDICTED BY RF-SCORE:    0.00 PKD
ROOT
HETATM    1  O   UNL     1     -10.252   3.885  71.998  1.00  0.00    -0.169 OA 
HETATM    2  N   UNL     1     -10.750   4.910  72.491  1.00  0.00    -0.211 N  
HETATM    3  C   UNL     1     -10.806   6.074  71.635  1.00  0.00    -0.260 A  
HETATM    4  O   UNL     1     -11.184   5.017  73.644  1.00  0.00    -0.315 OA 
HETATM    5  C   UNL     1     -10.293   6.202  70.353  1.00  0.00    -0.213 A  
HETATM    6  N   UNL     1     -10.599   7.482  70.002  1.00  0.00    -0.232 NA 
HETATM    7  C   UNL     1     -10.355   8.149  68.744  1.00  0.00    -0.202 C  
HETATM    8  C   UNL     1     -10.600   9.669  68.803  1.00  0.00    -0.216 C  
HETATM    9  C   UNL     1     -11.052  10.172  70.189  1.00  0.00    -0.315 C  
HETATM   10  C   UNL     1     -11.309   8.043  71.019  1.00  0.00    -0.273 A  
HETATM   11  N   UNL     1     -11.451   7.231  72.034  1.00  0.00    -0.261 NA 
HETATM   12  O   UNL     1     -11.842   9.255  70.937  1.00  0.00    -0.283 OA 
ENDROOT
BRANCH   8  13
HETATM   13  O   UNL     1      -9.382  10.311  68.399  1.00  0.00    -0.136 OA 
BRANCH  13  14
HETATM   14  C   UNL     1      -9.371  10.785  67.053  1.00  0.00    -0.156 C  
BRANCH  14  15
HETATM   15  C   UNL     1      -9.443  12.288  67.091  1.00  0.00    -0.196 A  
HETATM   16  C   UNL     1      -8.947  12.996  68.188  1.00  0.00    -0.198 A  
HETATM   17  C   UNL     1      -9.041  14.388  68.222  1.00  0.00    -0.193 A  
HETATM   18  C   UNL     1      -9.618  15.099  67.163  1.00  0.00    -0.218 A  
HETATM   19  C   UNL     1     -10.013  13.003  66.027  1.00  0.00    -0.277 A  
HETATM   20  C   UNL     1     -10.120  14.397  66.070  1.00  0.00    -0.338 A  
BRANCH  18  21
HETATM   21  O   UNL     1      -9.642  16.445  67.357  1.00  0.00    -0.227 OA 
HETATM   22  C   UNL     1     -10.659  17.036  68.147  1.00  0.00    -0.369 C  
HETATM   23  F   UNL     1     -11.761  16.270  68.284  1.00  0.00    -0.340 F  
HETATM   24  F   UNL     1     -11.035  18.190  67.550  1.00  0.00    -0.409 F  
HETATM   25  F   UNL     1     -10.172  17.337  69.370  1.00  0.00    -0.288 F  
ENDBRANCH  18  21
ENDBRANCH  14  15
ENDBRANCH  13  14
ENDBRANCH   8  13
TORSDOF 4
ENDMDL
MODEL      114
REMARK 921   NORMALIZED FREE ENERGY PREDICTED BY IDOCK:   -5.32 KCAL/MOL
REMARK 922        TOTAL FREE ENERGY PREDICTED BY IDOCK:   -7.01 KCAL/MOL
REMARK 923 INTER-LIGAND FREE ENERGY PREDICTED BY IDOCK:   -6.25 KCAL/MOL
REMARK 924 INTRA-LIGAND FREE ENERGY PREDICTED BY IDOCK:   -0.76 KCAL/MOL
REMARK 927      BINDING AFFINITY PREDICTED BY RF-SCORE:    0.00 PKD
ROOT
HETATM    1  O   UNL     1     -14.292  15.311  72.412  1.00  0.00    -0.514 OA 
HETATM    2  N   UNL     1     -13.145  15.783  72.355  1.00  0.00    -0.457 N  
HETATM    3  C   UNL     1     -12.456  15.648  71.091  1.00  0.00    -0.448 A  
HETATM    4  O   UNL     1     -12.549  16.339  73.284  1.00  0.00    -0.467 OA 
HETATM    5  C   UNL     1     -12.897  14.981  69.958  1.00  0.00    -0.082 A  
HETATM    6  N   UNL     1     -11.882  15.144  69.064  1.00  0.00    -0.315 NA 
HETATM    7  C   UNL     1     -11.819  14.704  67.690  1.00  0.00    -0.337 C  
HETATM    8  C   UNL     1     -10.415  14.837  67.071  1.00  0.00    -0.270 C  
HETATM    9  C   UNL     1      -9.360  15.407  68.041  1.00  0.00    -0.196 C  
HETATM   10  C   UNL     1     -10.926  15.923  69.643  1.00  0.00    -0.319 A  
HETATM   11  N   UNL     1     -11.226  16.244  70.874  1.00  0.00    -0.318 NA 
HETATM   12  O   UNL     1      -9.854  16.347  68.987  1.00  0.00    -0.244 OA 
ENDROOT
BRANCH   8  13
HETATM   13  O   UNL     1     -10.030  13.534  66.608  1.00  0.00    -0.267 OA 
BRANCH  13  14
HETATM   14  C   UNL     1      -9.614  12.631  67.632  1.00  0.00    -0.188 C  
BRANCH  14  15
HETATM   15  C   UNL     1      -9.247  11.327  66.978  1.00  0.00    -0.173 A  
HETATM   16  C   UNL     1      -7.923  11.056  66.623  1.00  0.00    -0.156 A  
HETATM   17  C   UNL     1      -7.599   9.853  65.996  1.00  0.00    -0.106 A  
HETATM   18  C   UNL     1      -8.582   8.895  65.720  1.00  0.00    -0.160 A  
HETATM   19  C   UNL     1     -10.229  10.362  66.709  1.00  0.00    -0.282 A  
HETATM   20  C   UNL     1      -9.904   9.162  66.066  1.00  0.00    -0.342 A  
BRANCH  18  21
HETATM   21  O   UNL     1      -8.104   7.785  65.097  1.00  0.00    -0.126 OA 
HETATM   22  C   UNL     1      -7.893   7.786  63.695  1.00  0.00    -0.128 C  
HETATM   23  F   UNL     1      -8.588   8.738  63.038  1.00  0.00    -0.193 F  
HETATM   24  F   UNL     1      -8.286   6.586  63.212  1.00  0.00    -0.097 F  
HETATM   25  F   UNL     1      -6.577   7.934  63.430  1.00  0.00    -0.064 F  
ENDBRANCH  18  21
ENDBRANCH  14  15
ENDBRANCH  13  14
ENDBRANCH   8  13
TORSDOF 4
ENDMDL
MODEL      115
REMARK 921   NORMALIZED FREE ENERGY PREDICTED BY IDOCK:   -5.32 KCAL/MOL
REMARK 922        TOTAL FREE ENERGY PREDICTED BY IDOCK:   -7.00 KCAL/MOL
REMARK 923 INTER-LIGAND FREE ENERGY PREDICTED BY IDOCK:   -6.41 KCAL/MOL
REMARK 924 INTRA-LIGAND FREE ENERGY PREDICTED BY IDOCK:   -0.60 KCAL/MOL
REMARK 927      BINDING AFFINITY PREDICTED BY RF-SCORE:    0.00 PKD
ROOT
HETATM    1  O   UNL     1     -11.601  16.312  69.509  1.00  0.00    -0.284 OA 
HETATM    2  N   UNL     1     -11.140  16.504  68.372  1.00  0.00    -0.359 N  
HETATM    3  C   UNL     1     -11.142  15.368  67.476  1.00  0.00    -0.315 A  
HETATM    4  O   UNL     1     -10.675  17.571  67.955  1.00  0.00    -0.387 OA 
HETATM    5  C   UNL     1     -11.524  14.067  67.767  1.00  0.00    -0.322 A  
HETATM    6  N   UNL     1     -11.327  13.398  66.597  1.00  0.00    -0.313 NA 
HETATM    7  C   UNL     1     -11.612  12.014  66.298  1.00  0.00    -0.310 C  
HETATM    8  C   UNL     1     -11.017  11.545  64.957  1.00  0.00    -0.241 C  
HETATM    9  C   UNL     1     -10.235  12.643  64.207  1.00  0.00    -0.332 C  
HETATM   10  C   UNL     1     -10.906  14.293  65.661  1.00  0.00    -0.309 A  
HETATM   11  N   UNL     1     -10.770  15.497  66.150  1.00  0.00    -0.314 NA 
HETATM   12  O   UNL     1     -10.726  13.965  64.388  1.00  0.00    -0.394 OA 
ENDROOT
BRANCH   8  13
HETATM   13  O   UNL     1     -10.172  10.419  65.238  1.00  0.00    -0.299 OA 
BRANCH  13  14
HETATM   14  C   UNL     1     -10.270   9.913  66.569  1.00  0.00    -0.222 C  
BRANCH  14  15
HETATM   15  C   UNL     1      -9.868   8.463  66.543  1.00  0.00    -0.338 A  
HETATM   16  C   UNL     1     -10.586   7.512  67.271  1.00  0.00    -0.394 A  
HETATM   17  C   UNL     1     -10.189   6.175  67.257  1.00  0.00    -0.236 A  
HETATM   18  C   UNL     1      -9.080   5.758  66.510  1.00  0.00    -0.141 A  
HETATM   19  C   UNL     1      -8.762   8.043  65.788  1.00  0.00    -0.175 A  
HETATM   20  C   UNL     1      -8.357   6.703  65.787  1.00  0.00    -0.143 A  
BRANCH  18  21
HETATM   21  O   UNL     1      -8.820   4.427  66.612  1.00  0.00    -0.111 OA 
HETATM   22  C   UNL     1      -8.731   3.624  65.448  1.00  0.00    -0.118 C  
HETATM   23  F   UNL     1      -9.337   4.158  64.367  1.00  0.00    -0.137 F  
HETATM   24  F   UNL     1      -9.331   2.440  65.709  1.00  0.00    -0.145 F  
HETATM   25  F   UNL     1      -7.435   3.382  65.157  1.00  0.00    -0.067 F  
ENDBRANCH  18  21
ENDBRANCH  14  15
ENDBRANCH  13  14
ENDBRANCH   8  13
TORSDOF 4
ENDMDL
MODEL      116
REMARK 921   NORMALIZED FREE ENERGY PREDICTED BY IDOCK:   -5.31 KCAL/MOL
REMARK 922        TOTAL FREE ENERGY PREDICTED BY IDOCK:   -6.99 KCAL/MOL
REMARK 923 INTER-LIGAND FREE ENERGY PREDICTED BY IDOCK:   -6.20 KCAL/MOL
REMARK 924 INTRA-LIGAND FREE ENERGY PREDICTED BY IDOCK:   -0.79 KCAL/MOL
REMARK 927      BINDING AFFINITY PREDICTED BY RF-SCORE:    0.00 PKD
ROOT
HETATM    1  O   UNL     1     -10.758  12.067  63.016  1.00  0.00    -0.294 OA 
HETATM    2  N   UNL     1     -11.572  12.529  63.831  1.00  0.00    -0.401 N  
HETATM    3  C   UNL     1     -11.387  12.145  65.213  1.00  0.00    -0.336 A  
HETATM    4  O   UNL     1     -12.522  13.272  63.557  1.00  0.00    -0.728 OA 
HETATM    5  C   UNL     1     -10.455  11.253  65.721  1.00  0.00    -0.254 A  
HETATM    6  N   UNL     1     -10.709  11.240  67.060  1.00  0.00    -0.247 NA 
HETATM    7  C   UNL     1     -10.003  10.526  68.098  1.00  0.00    -0.153 C  
HETATM    8  C   UNL     1     -10.733  10.544  69.454  1.00  0.00    -0.241 C  
HETATM    9  C   UNL     1     -12.069  11.314  69.430  1.00  0.00    -0.315 C  
HETATM   10  C   UNL     1     -11.706  12.132  67.312  1.00  0.00    -0.299 A  
HETATM   11  N   UNL     1     -12.155  12.697  66.222  1.00  0.00    -0.568 NA 
HETATM   12  O   UNL     1     -12.111  12.423  68.541  1.00  0.00    -0.271 OA 
ENDROOT
BRANCH   8  13
HETATM   13  O   UNL     1     -10.939   9.178  69.844  1.00  0.00    -0.235 OA 
BRANCH  13  14
HETATM   14  C   UNL     1      -9.831   8.570  70.509  1.00  0.00    -0.180 C  
BRANCH  14  15
HETATM   15  C   UNL     1      -9.555   7.253  69.836  1.00  0.00    -0.163 A  
HETATM   16  C   UNL     1      -8.416   7.081  69.047  1.00  0.00    -0.129 A  
HETATM   17  C   UNL     1      -8.184   5.862  68.410  1.00  0.00    -0.109 A  
HETATM   18  C   UNL     1      -9.072   4.790  68.556  1.00  0.00    -0.117 A  
HETATM   19  C   UNL     1     -10.440   6.175  69.989  1.00  0.00    -0.294 A  
HETATM   20  C   UNL     1     -10.213   4.957  69.338  1.00  0.00    -0.229 A  
BRANCH  18  21
HETATM   21  O   UNL     1      -8.707   3.678  67.863  1.00  0.00    -0.095 OA 
HETATM   22  C   UNL     1      -9.061   3.538  66.498  1.00  0.00    -0.162 C  
HETATM   23  F   UNL     1     -10.097   4.314  66.119  1.00  0.00    -0.201 F  
HETATM   24  F   UNL     1      -9.419   2.250  66.288  1.00  0.00    -0.090 F  
HETATM   25  F   UNL     1      -7.993   3.809  65.717  1.00  0.00    -0.089 F  
ENDBRANCH  18  21
ENDBRANCH  14  15
ENDBRANCH  13  14
ENDBRANCH   8  13
TORSDOF 4
ENDMDL
MODEL      117
REMARK 921   NORMALIZED FREE ENERGY PREDICTED BY IDOCK:   -5.25 KCAL/MOL
REMARK 922        TOTAL FREE ENERGY PREDICTED BY IDOCK:   -6.92 KCAL/MOL
REMARK 923 INTER-LIGAND FREE ENERGY PREDICTED BY IDOCK:   -6.42 KCAL/MOL
REMARK 924 INTRA-LIGAND FREE ENERGY PREDICTED BY IDOCK:   -0.50 KCAL/MOL
REMARK 927      BINDING AFFINITY PREDICTED BY RF-SCORE:    0.00 PKD
ROOT
HETATM    1  O   UNL     1      -5.131  19.307  63.935  1.00  0.00    -0.171 OA 
HETATM    2  N   UNL     1      -5.904  20.124  64.460  1.00  0.00    -0.222 N  
HETATM    3  C   UNL     1      -6.832  19.596  65.435  1.00  0.00    -0.273 A  
HETATM    4  O   UNL     1      -5.953  21.333  64.209  1.00  0.00    -0.259 OA 
HETATM    5  C   UNL     1      -7.013  18.268  65.793  1.00  0.00    -0.249 A  
HETATM    6  N   UNL     1      -8.000  18.312  66.731  1.00  0.00    -0.236 NA 
HETATM    7  C   UNL     1      -8.558  17.221  67.495  1.00  0.00    -0.209 C  
HETATM    8  C   UNL     1      -9.833  17.609  68.268  1.00  0.00    -0.324 C  
HETATM    9  C   UNL     1     -10.259  19.077  68.068  1.00  0.00    -0.399 C  
HETATM   10  C   UNL     1      -8.327  19.617  66.943  1.00  0.00    -0.301 A  
HETATM   11  N   UNL     1      -7.653  20.430  66.173  1.00  0.00    -0.185 NA 
HETATM   12  O   UNL     1      -9.190  19.996  67.877  1.00  0.00    -0.336 OA 
ENDROOT
BRANCH   8  13
HETATM   13  O   UNL     1     -10.874  16.714  67.846  1.00  0.00    -0.347 OA 
BRANCH  13  14
HETATM   14  C   UNL     1     -11.487  15.969  68.898  1.00  0.00    -0.362 C  
BRANCH  14  15
HETATM   15  C   UNL     1     -11.175  14.514  68.676  1.00  0.00    -0.281 A  
HETATM   16  C   UNL     1     -11.748  13.531  69.486  1.00  0.00    -0.382 A  
HETATM   17  C   UNL     1     -11.432  12.187  69.285  1.00  0.00    -0.363 A  
HETATM   18  C   UNL     1     -10.552  11.796  68.269  1.00  0.00    -0.211 A  
HETATM   19  C   UNL     1     -10.300  14.120  67.652  1.00  0.00    -0.241 A  
HETATM   20  C   UNL     1      -9.974  12.773  67.461  1.00  0.00    -0.210 A  
BRANCH  18  21
HETATM   21  O   UNL     1     -10.342  10.454  68.213  1.00  0.00    -0.157 OA 
HETATM   22  C   UNL     1     -10.501   9.754  66.991  1.00  0.00    -0.227 C  
HETATM   23  F   UNL     1     -11.265  10.401  66.086  1.00  0.00    -0.042 F  
HETATM   24  F   UNL     1     -11.100   8.572  67.260  1.00  0.00    -0.268 F  
HETATM   25  F   UNL     1      -9.291   9.498  66.449  1.00  0.00    -0.170 F  
ENDBRANCH  18  21
ENDBRANCH  14  15
ENDBRANCH  13  14
ENDBRANCH   8  13
TORSDOF 4
ENDMDL
MODEL      118
REMARK 921   NORMALIZED FREE ENERGY PREDICTED BY IDOCK:   -5.24 KCAL/MOL
REMARK 922        TOTAL FREE ENERGY PREDICTED BY IDOCK:   -6.92 KCAL/MOL
REMARK 923 INTER-LIGAND FREE ENERGY PREDICTED BY IDOCK:   -6.30 KCAL/MOL
REMARK 924 INTRA-LIGAND FREE ENERGY PREDICTED BY IDOCK:   -0.61 KCAL/MOL
REMARK 927      BINDING AFFINITY PREDICTED BY RF-SCORE:    0.00 PKD
ROOT
HETATM    1  O   UNL     1      -7.335   9.191  67.244  1.00  0.00    -0.086 OA 
HETATM    2  N   UNL     1      -8.108   9.774  66.468  1.00  0.00    -0.116 N  
HETATM    3  C   UNL     1      -8.520  11.107  66.850  1.00  0.00    -0.147 A  
HETATM    4  O   UNL     1      -8.559   9.307  65.415  1.00  0.00    -0.138 OA 
HETATM    5  C   UNL     1      -8.215  11.778  68.024  1.00  0.00    -0.152 A  
HETATM    6  N   UNL     1      -8.848  12.977  67.892  1.00  0.00    -0.183 NA 
HETATM    7  C   UNL     1      -8.831  14.103  68.795  1.00  0.00    -0.061 C  
HETATM    8  C   UNL     1      -9.872  15.183  68.442  1.00  0.00    -0.223 C  
HETATM    9  C   UNL     1     -10.723  14.844  67.202  1.00  0.00    -0.296 C  
HETATM   10  C   UNL     1      -9.441  13.011  66.667  1.00  0.00    -0.256 A  
HETATM   11  N   UNL     1      -9.278  11.896  66.004  1.00  0.00    -0.206 NA 
HETATM   12  O   UNL     1     -10.054  14.091  66.198  1.00  0.00    -0.290 OA 
ENDROOT
BRANCH   8  13
HETATM   13  O   UNL     1     -10.704  15.365  69.598  1.00  0.00    -0.240 OA 
BRANCH  13  14
HETATM   14  C   UNL     1     -12.078  15.029  69.406  1.00  0.00    -0.255 C  
BRANCH  14  15
HETATM   15  C   UNL     1     -12.300  13.651  69.967  1.00  0.00    -0.342 A  
HETATM   16  C   UNL     1     -12.130  12.520  69.165  1.00  0.00    -0.187 A  
HETATM   17  C   UNL     1     -12.361  11.249  69.691  1.00  0.00    -0.262 A  
HETATM   18  C   UNL     1     -12.754  11.079  71.024  1.00  0.00    -0.386 A  
HETATM   19  C   UNL     1     -12.685  13.479  71.305  1.00  0.00    -0.432 A  
HETATM   20  C   UNL     1     -12.931  12.204  71.826  1.00  0.00    -0.437 A  
BRANCH  18  21
HETATM   21  O   UNL     1     -12.949   9.780  71.376  1.00  0.00    -0.347 OA 
HETATM   22  C   UNL     1     -11.842   8.921  71.585  1.00  0.00    -0.345 C  
HETATM   23  F   UNL     1     -10.703   9.344  70.998  1.00  0.00    -0.299 F  
HETATM   24  F   UNL     1     -12.146   7.711  71.062  1.00  0.00    -0.311 F  
HETATM   25  F   UNL     1     -11.628   8.763  72.909  1.00  0.00    -0.309 F  
ENDBRANCH  18  21
ENDBRANCH  14  15
ENDBRANCH  13  14
ENDBRANCH   8  13
TORSDOF 4
ENDMDL
MODEL      119
REMARK 921   NORMALIZED FREE ENERGY PREDICTED BY IDOCK:   -5.24 KCAL/MOL
REMARK 922        TOTAL FREE ENERGY PREDICTED BY IDOCK:   -6.92 KCAL/MOL
REMARK 923 INTER-LIGAND FREE ENERGY PREDICTED BY IDOCK:   -5.96 KCAL/MOL
REMARK 924 INTRA-LIGAND FREE ENERGY PREDICTED BY IDOCK:   -0.95 KCAL/MOL
REMARK 927      BINDING AFFINITY PREDICTED BY RF-SCORE:    0.00 PKD
ROOT
HETATM    1  O   UNL     1      -5.263  13.303  68.300  1.00  0.00    -0.078 OA 
HETATM    2  N   UNL     1      -5.764  12.441  67.560  1.00  0.00    -0.125 N  
HETATM    3  C   UNL     1      -7.200  12.490  67.396  1.00  0.00    -0.146 A  
HETATM    4  O   UNL     1      -5.143  11.549  66.972  1.00  0.00    -0.070 OA 
HETATM    5  C   UNL     1      -8.092  13.338  68.034  1.00  0.00    -0.157 A  
HETATM    6  N   UNL     1      -9.307  12.970  67.540  1.00  0.00    -0.193 NA 
HETATM    7  C   UNL     1     -10.599  13.554  67.812  1.00  0.00    -0.246 C  
HETATM    8  C   UNL     1     -11.773  12.710  67.280  1.00  0.00    -0.370 C  
HETATM    9  C   UNL     1     -11.335  11.413  66.570  1.00  0.00    -0.122 C  
HETATM   10  C   UNL     1      -9.110  11.991  66.614  1.00  0.00    -0.205 A  
HETATM   11  N   UNL     1      -7.851  11.660  66.500  1.00  0.00    -0.082 NA 
HETATM   12  O   UNL     1     -10.095  11.493  65.878  1.00  0.00    -0.215 OA 
ENDROOT
BRANCH   8  13
HETATM   13  O   UNL     1     -12.626  12.417  68.397  1.00  0.00     0.244 OA 
BRANCH  13  14
HETATM   14  C   UNL     1     -12.031  12.629  69.678  1.00  0.00    -0.286 C  
BRANCH  14  15
HETATM   15  C   UNL     1     -11.844  11.284  70.328  1.00  0.00    -0.446 A  
HETATM   16  C   UNL     1     -12.822  10.762  71.176  1.00  0.00    -0.513 A  
HETATM   17  C   UNL     1     -12.627   9.525  71.791  1.00  0.00    -0.490 A  
HETATM   18  C   UNL     1     -11.462   8.782  71.565  1.00  0.00    -0.305 A  
HETATM   19  C   UNL     1     -10.681  10.535  70.095  1.00  0.00    -0.232 A  
HETATM   20  C   UNL     1     -10.480   9.301  70.724  1.00  0.00    -0.343 A  
BRANCH  18  21
HETATM   21  O   UNL     1     -11.421   7.606  72.247  1.00  0.00    -0.281 OA 
HETATM   22  C   UNL     1     -11.846   6.404  71.628  1.00  0.00    -0.306 C  
HETATM   23  F   UNL     1     -12.659   6.593  70.567  1.00  0.00    -0.406 F  
HETATM   24  F   UNL     1     -12.531   5.682  72.543  1.00  0.00    -0.311 F  
HETATM   25  F   UNL     1     -10.772   5.683  71.242  1.00  0.00    -0.284 F  
ENDBRANCH  18  21
ENDBRANCH  14  15
ENDBRANCH  13  14
ENDBRANCH   8  13
TORSDOF 4
ENDMDL
MODEL      120
REMARK 921   NORMALIZED FREE ENERGY PREDICTED BY IDOCK:   -5.22 KCAL/MOL
REMARK 922        TOTAL FREE ENERGY PREDICTED BY IDOCK:   -6.89 KCAL/MOL
REMARK 923 INTER-LIGAND FREE ENERGY PREDICTED BY IDOCK:   -6.20 KCAL/MOL
REMARK 924 INTRA-LIGAND FREE ENERGY PREDICTED BY IDOCK:   -0.69 KCAL/MOL
REMARK 927      BINDING AFFINITY PREDICTED BY RF-SCORE:    0.00 PKD
ROOT
HETATM    1  O   UNL     1      -7.755   5.424  66.744  1.00  0.00    -0.097 OA 
HETATM    2  N   UNL     1      -7.568   5.667  65.541  1.00  0.00    -0.081 N  
HETATM    3  C   UNL     1      -7.964   6.979  65.080  1.00  0.00    -0.128 A  
HETATM    4  O   UNL     1      -7.088   4.882  64.715  1.00  0.00    -0.059 OA 
HETATM    5  C   UNL     1      -8.605   7.969  65.809  1.00  0.00    -0.153 A  
HETATM    6  N   UNL     1      -8.757   8.988  64.917  1.00  0.00    -0.181 NA 
HETATM    7  C   UNL     1      -9.314  10.301  65.143  1.00  0.00    -0.226 C  
HETATM    8  C   UNL     1      -9.562  11.089  63.844  1.00  0.00    -0.272 C  
HETATM    9  C   UNL     1      -9.172  10.320  62.566  1.00  0.00    -0.300 C  
HETATM   10  C   UNL     1      -8.174   8.616  63.744  1.00  0.00    -0.145 A  
HETATM   11  N   UNL     1      -7.689   7.403  63.793  1.00  0.00    -0.121 NA 
HETATM   12  O   UNL     1      -8.066   9.436  62.707  1.00  0.00    -0.128 OA 
ENDROOT
BRANCH   8  13
HETATM   13  O   UNL     1     -10.954  11.443  63.821  1.00  0.00    -0.381 OA 
BRANCH  13  14
HETATM   14  C   UNL     1     -11.217  12.845  63.871  1.00  0.00    -0.423 C  
BRANCH  14  15
HETATM   15  C   UNL     1     -11.108  13.285  65.306  1.00  0.00    -0.306 A  
HETATM   16  C   UNL     1     -10.289  14.358  65.662  1.00  0.00    -0.360 A  
HETATM   17  C   UNL     1     -10.179  14.741  66.998  1.00  0.00    -0.253 A  
HETATM   18  C   UNL     1     -10.889  14.071  68.002  1.00  0.00    -0.246 A  
HETATM   19  C   UNL     1     -11.826  12.620  66.312  1.00  0.00    -0.471 A  
HETATM   20  C   UNL     1     -11.702  12.996  67.654  1.00  0.00    -0.415 A  
BRANCH  18  21
HETATM   21  O   UNL     1     -10.663  14.560  69.252  1.00  0.00    -0.243 OA 
HETATM   22  C   UNL     1     -11.622  15.393  69.879  1.00  0.00    -0.323 C  
HETATM   23  F   UNL     1     -12.479  15.983  69.020  1.00  0.00    -0.251 F  
HETATM   24  F   UNL     1     -10.960  16.374  70.534  1.00  0.00    -0.326 F  
HETATM   25  F   UNL     1     -12.323  14.681  70.788  1.00  0.00    -0.306 F  
ENDBRANCH  18  21
ENDBRANCH  14  15
ENDBRANCH  13  14
ENDBRANCH   8  13
TORSDOF 4
ENDMDL
MODEL      121
REMARK 921   NORMALIZED FREE ENERGY PREDICTED BY IDOCK:   -5.21 KCAL/MOL
REMARK 922        TOTAL FREE ENERGY PREDICTED BY IDOCK:   -6.88 KCAL/MOL
REMARK 923 INTER-LIGAND FREE ENERGY PREDICTED BY IDOCK:   -6.15 KCAL/MOL
REMARK 924 INTRA-LIGAND FREE ENERGY PREDICTED BY IDOCK:   -0.73 KCAL/MOL
REMARK 927      BINDING AFFINITY PREDICTED BY RF-SCORE:    0.00 PKD
ROOT
HETATM    1  O   UNL     1      -9.329  18.231  65.823  1.00  0.00    -0.460 OA 
HETATM    2  N   UNL     1     -10.182  18.228  66.725  1.00  0.00    -0.359 N  
HETATM    3  C   UNL     1     -10.396  16.970  67.405  1.00  0.00    -0.319 A  
HETATM    4  O   UNL     1     -10.862  19.199  67.075  1.00  0.00    -0.455 OA 
HETATM    5  C   UNL     1      -9.817  15.745  67.110  1.00  0.00    -0.226 A  
HETATM    6  N   UNL     1     -10.357  14.896  68.029  1.00  0.00    -0.241 NA 
HETATM    7  C   UNL     1     -10.071  13.495  68.231  1.00  0.00    -0.247 C  
HETATM    8  C   UNL     1     -11.062  12.803  69.186  1.00  0.00    -0.189 C  
HETATM    9  C   UNL     1     -12.159  13.740  69.730  1.00  0.00    -0.340 C  
HETATM   10  C   UNL     1     -11.166  15.619  68.851  1.00  0.00    -0.311 A  
HETATM   11  N   UNL     1     -11.229  16.878  68.505  1.00  0.00    -0.218 NA 
HETATM   12  O   UNL     1     -11.760  15.093  69.914  1.00  0.00    -0.273 OA 
ENDROOT
BRANCH   8  13
HETATM   13  O   UNL     1     -11.641  11.700  68.472  1.00  0.00    -0.266 OA 
BRANCH  13  14
HETATM   14  C   UNL     1     -12.358  10.770  69.283  1.00  0.00     0.016 C  
BRANCH  14  15
HETATM   15  C   UNL     1     -11.353   9.878  69.960  1.00  0.00    -0.303 A  
HETATM   16  C   UNL     1     -11.418   9.649  71.336  1.00  0.00    -0.455 A  
HETATM   17  C   UNL     1     -10.466   8.839  71.956  1.00  0.00    -0.414 A  
HETATM   18  C   UNL     1      -9.442   8.233  71.218  1.00  0.00    -0.172 A  
HETATM   19  C   UNL     1     -10.332   9.263  69.220  1.00  0.00    -0.222 A  
HETATM   20  C   UNL     1      -9.370   8.463  69.846  1.00  0.00    -0.155 A  
BRANCH  18  21
HETATM   21  O   UNL     1      -8.592   7.485  71.972  1.00  0.00    -0.105 OA 
HETATM   22  C   UNL     1      -7.391   8.049  72.469  1.00  0.00    -0.102 C  
HETATM   23  F   UNL     1      -6.982   9.145  71.795  1.00  0.00    -0.085 F  
HETATM   24  F   UNL     1      -6.417   7.118  72.364  1.00  0.00    -0.051 F  
HETATM   25  F   UNL     1      -7.537   8.359  73.775  1.00  0.00    -0.193 F  
ENDBRANCH  18  21
ENDBRANCH  14  15
ENDBRANCH  13  14
ENDBRANCH   8  13
TORSDOF 4
ENDMDL
MODEL      122
REMARK 921   NORMALIZED FREE ENERGY PREDICTED BY IDOCK:   -5.20 KCAL/MOL
REMARK 922        TOTAL FREE ENERGY PREDICTED BY IDOCK:   -6.86 KCAL/MOL
REMARK 923 INTER-LIGAND FREE ENERGY PREDICTED BY IDOCK:   -5.73 KCAL/MOL
REMARK 924 INTRA-LIGAND FREE ENERGY PREDICTED BY IDOCK:   -1.13 KCAL/MOL
REMARK 927      BINDING AFFINITY PREDICTED BY RF-SCORE:    0.00 PKD
ROOT
HETATM    1  O   UNL     1     -12.557  11.232  71.554  1.00  0.00    -0.361 OA 
HETATM    2  N   UNL     1     -12.925  10.103  71.916  1.00  0.00    -0.441 N  
HETATM    3  C   UNL     1     -11.918   9.066  71.911  1.00  0.00    -0.375 A  
HETATM    4  O   UNL     1     -14.072   9.797  72.262  1.00  0.00    -0.191 OA 
HETATM    5  C   UNL     1     -10.607   9.167  71.471  1.00  0.00    -0.358 A  
HETATM    6  N   UNL     1     -10.095   7.920  71.671  1.00  0.00    -0.177 NA 
HETATM    7  C   UNL     1      -8.746   7.459  71.442  1.00  0.00    -0.125 C  
HETATM    8  C   UNL     1      -8.603   5.928  71.532  1.00  0.00    -0.132 C  
HETATM    9  C   UNL     1      -9.925   5.197  71.842  1.00  0.00    -0.184 C  
HETATM   10  C   UNL     1     -11.058   7.155  72.255  1.00  0.00    -0.254 A  
HETATM   11  N   UNL     1     -12.182   7.803  72.411  1.00  0.00    -0.251 NA 
HETATM   12  O   UNL     1     -10.833   5.915  72.669  1.00  0.00    -0.222 OA 
ENDROOT
BRANCH   8  13
HETATM   13  O   UNL     1      -8.052   5.479  70.284  1.00  0.00    -0.098 OA 
BRANCH  13  14
HETATM   14  C   UNL     1      -9.008   4.964  69.358  1.00  0.00    -0.097 C  
BRANCH  14  15
HETATM   15  C   UNL     1      -9.302   6.043  68.350  1.00  0.00    -0.120 A  
HETATM   16  C   UNL     1      -8.268   6.799  67.795  1.00  0.00    -0.120 A  
HETATM   17  C   UNL     1      -8.555   7.811  66.880  1.00  0.00    -0.130 A  
HETATM   18  C   UNL     1      -9.873   8.082  66.492  1.00  0.00    -0.219 A  
HETATM   19  C   UNL     1     -10.622   6.309  67.955  1.00  0.00    -0.327 A  
HETATM   20  C   UNL     1     -10.909   7.335  67.048  1.00  0.00    -0.350 A  
BRANCH  18  21
HETATM   21  O   UNL     1      -9.983   9.105  65.603  1.00  0.00    -0.232 OA 
HETATM   22  C   UNL     1     -10.055  10.445  66.059  1.00  0.00    -0.243 C  
HETATM   23  F   UNL     1     -10.444  10.565  67.346  1.00  0.00    -0.224 F  
HETATM   24  F   UNL     1     -10.962  11.099  65.297  1.00  0.00    -0.325 F  
HETATM   25  F   UNL     1      -8.858  11.049  65.898  1.00  0.00    -0.174 F  
ENDBRANCH  18  21
ENDBRANCH  14  15
ENDBRANCH  13  14
ENDBRANCH   8  13
TORSDOF 4
ENDMDL
MODEL      123
REMARK 921   NORMALIZED FREE ENERGY PREDICTED BY IDOCK:   -5.19 KCAL/MOL
REMARK 922        TOTAL FREE ENERGY PREDICTED BY IDOCK:   -6.85 KCAL/MOL
REMARK 923 INTER-LIGAND FREE ENERGY PREDICTED BY IDOCK:   -5.74 KCAL/MOL
REMARK 924 INTRA-LIGAND FREE ENERGY PREDICTED BY IDOCK:   -1.11 KCAL/MOL
REMARK 927      BINDING AFFINITY PREDICTED BY RF-SCORE:    0.00 PKD
ROOT
HETATM    1  O   UNL     1     -11.235  14.268  67.893  1.00  0.00    -0.265 OA 
HETATM    2  N   UNL     1     -10.039  14.098  67.608  1.00  0.00    -0.235 N  
HETATM    3  C   UNL     1      -9.679  12.794  67.096  1.00  0.00    -0.216 A  
HETATM    4  O   UNL     1      -9.142  14.939  67.736  1.00  0.00    -0.180 OA 
HETATM    5  C   UNL     1     -10.501  11.685  66.964  1.00  0.00    -0.224 A  
HETATM    6  N   UNL     1      -9.680  10.727  66.451  1.00  0.00    -0.192 NA 
HETATM    7  C   UNL     1     -10.014   9.378  66.056  1.00  0.00    -0.281 C  
HETATM    8  C   UNL     1      -8.779   8.504  65.767  1.00  0.00    -0.179 C  
HETATM    9  C   UNL     1      -7.438   9.240  65.960  1.00  0.00    -0.095 C  
HETATM   10  C   UNL     1      -8.454  11.284  66.243  1.00  0.00    -0.156 A  
HETATM   11  N   UNL     1      -8.404  12.531  66.629  1.00  0.00    -0.033 NA 
HETATM   12  O   UNL     1      -7.462  10.629  65.655  1.00  0.00    -0.148 OA 
ENDROOT
BRANCH   8  13
HETATM   13  O   UNL     1      -8.860   7.357  66.627  1.00  0.00    -0.130 OA 
BRANCH  13  14
HETATM   14  C   UNL     1      -8.124   7.467  67.845  1.00  0.00    -0.119 C  
BRANCH  14  15
HETATM   15  C   UNL     1      -9.046   8.033  68.892  1.00  0.00    -0.144 A  
HETATM   16  C   UNL     1     -10.295   7.456  69.127  1.00  0.00    -0.208 A  
HETATM   17  C   UNL     1     -11.150   8.004  70.084  1.00  0.00    -0.191 A  
HETATM   18  C   UNL     1     -10.773   9.126  70.830  1.00  0.00    -0.275 A  
HETATM   19  C   UNL     1      -8.666   9.153  69.647  1.00  0.00    -0.145 A  
HETATM   20  C   UNL     1      -9.530   9.710  70.596  1.00  0.00    -0.190 A  
BRANCH  18  21
HETATM   21  O   UNL     1     -11.722   9.542  71.711  1.00  0.00    -0.383 OA 
HETATM   22  C   UNL     1     -12.805  10.344  71.272  1.00  0.00    -0.433 C  
HETATM   23  F   UNL     1     -12.572  10.987  70.109  1.00  0.00    -0.352 F  
HETATM   24  F   UNL     1     -13.041  11.282  72.217  1.00  0.00    -0.579 F  
HETATM   25  F   UNL     1     -13.915   9.586  71.147  1.00  0.00    -0.391 F  
ENDBRANCH  18  21
ENDBRANCH  14  15
ENDBRANCH  13  14
ENDBRANCH   8  13
TORSDOF 4
ENDMDL
MODEL      124
REMARK 921   NORMALIZED FREE ENERGY PREDICTED BY IDOCK:   -5.19 KCAL/MOL
REMARK 922        TOTAL FREE ENERGY PREDICTED BY IDOCK:   -6.85 KCAL/MOL
REMARK 923 INTER-LIGAND FREE ENERGY PREDICTED BY IDOCK:   -5.86 KCAL/MOL
REMARK 924 INTRA-LIGAND FREE ENERGY PREDICTED BY IDOCK:   -0.99 KCAL/MOL
REMARK 927      BINDING AFFINITY PREDICTED BY RF-SCORE:    0.00 PKD
ROOT
HETATM    1  O   UNL     1     -13.478  13.316  65.195  1.00  0.00    -0.441 OA 
HETATM    2  N   UNL     1     -12.570  12.713  64.600  1.00  0.00    -0.472 N  
HETATM    3  C   UNL     1     -11.454  12.273  65.408  1.00  0.00    -0.354 A  
HETATM    4  O   UNL     1     -12.539  12.474  63.388  1.00  0.00    -0.690 OA 
HETATM    5  C   UNL     1     -11.241  12.519  66.756  1.00  0.00    -0.296 A  
HETATM    6  N   UNL     1     -10.056  11.902  67.020  1.00  0.00    -0.204 NA 
HETATM    7  C   UNL     1      -9.370  11.782  68.285  1.00  0.00    -0.193 C  
HETATM    8  C   UNL     1      -7.932  11.246  68.151  1.00  0.00    -0.131 C  
HETATM    9  C   UNL     1      -7.513  10.950  66.697  1.00  0.00    -0.139 C  
HETATM   10  C   UNL     1      -9.638  11.280  65.883  1.00  0.00    -0.221 A  
HETATM   11  N   UNL     1     -10.448  11.486  64.878  1.00  0.00    -0.276 NA 
HETATM   12  O   UNL     1      -8.562  10.505  65.845  1.00  0.00    -0.151 OA 
ENDROOT
BRANCH   8  13
HETATM   13  O   UNL     1      -7.059  12.219  68.745  1.00  0.00    -0.102 OA 
BRANCH  13  14
HETATM   14  C   UNL     1      -6.177  12.871  67.831  1.00  0.00    -0.125 C  
BRANCH  14  15
HETATM   15  C   UNL     1      -6.423  14.353  67.930  1.00  0.00    -0.175 A  
HETATM   16  C   UNL     1      -7.557  14.926  67.350  1.00  0.00    -0.232 A  
HETATM   17  C   UNL     1      -7.761  16.304  67.428  1.00  0.00    -0.187 A  
HETATM   18  C   UNL     1      -6.850  17.133  68.094  1.00  0.00    -0.176 A  
HETATM   19  C   UNL     1      -5.515  15.183  68.604  1.00  0.00    -0.092 A  
HETATM   20  C   UNL     1      -5.715  16.567  68.670  1.00  0.00    -0.117 A  
BRANCH  18  21
HETATM   21  O   UNL     1      -7.189  18.450  68.070  1.00  0.00    -0.230 OA 
HETATM   22  C   UNL     1      -6.879  19.248  66.941  1.00  0.00    -0.197 C  
HETATM   23  F   UNL     1      -5.894  18.744  66.169  1.00  0.00    -0.164 F  
HETATM   24  F   UNL     1      -6.472  20.459  67.384  1.00  0.00    -0.219 F  
HETATM   25  F   UNL     1      -7.986  19.427  66.189  1.00  0.00    -0.274 F  
ENDBRANCH  18  21
ENDBRANCH  14  15
ENDBRANCH  13  14
ENDBRANCH   8  13
TORSDOF 4
ENDMDL
MODEL      125
REMARK 921   NORMALIZED FREE ENERGY PREDICTED BY IDOCK:   -5.18 KCAL/MOL
REMARK 922        TOTAL FREE ENERGY PREDICTED BY IDOCK:   -6.84 KCAL/MOL
REMARK 923 INTER-LIGAND FREE ENERGY PREDICTED BY IDOCK:   -6.55 KCAL/MOL
REMARK 924 INTRA-LIGAND FREE ENERGY PREDICTED BY IDOCK:   -0.29 KCAL/MOL
REMARK 927      BINDING AFFINITY PREDICTED BY RF-SCORE:    0.00 PKD
ROOT
HETATM    1  O   UNL     1      -7.479   8.667  62.336  1.00  0.00    -0.101 OA 
HETATM    2  N   UNL     1      -7.600   8.739  63.569  1.00  0.00    -0.112 N  
HETATM    3  C   UNL     1      -8.677   9.569  64.062  1.00  0.00    -0.216 A  
HETATM    4  O   UNL     1      -6.876   8.176  64.398  1.00  0.00    -0.067 OA 
HETATM    5  C   UNL     1      -9.539  10.360  63.318  1.00  0.00    -0.308 A  
HETATM    6  N   UNL     1     -10.347  10.936  64.252  1.00  0.00    -0.363 NA 
HETATM    7  C   UNL     1     -11.471  11.817  64.042  1.00  0.00    -0.359 C  
HETATM    8  C   UNL     1     -11.978  12.476  65.339  1.00  0.00    -0.437 C  
HETATM    9  C   UNL     1     -11.183  12.068  66.596  1.00  0.00    -0.327 C  
HETATM   10  C   UNL     1      -9.997  10.448  65.474  1.00  0.00    -0.282 A  
HETATM   11  N   UNL     1      -8.984   9.625  65.410  1.00  0.00    -0.176 NA 
HETATM   12  O   UNL     1     -10.668  10.742  66.580  1.00  0.00    -0.249 OA 
ENDROOT
BRANCH   8  13
HETATM   13  O   UNL     1     -11.926  13.897  65.142  1.00  0.00    -0.350 OA 
BRANCH  13  14
HETATM   14  C   UNL     1     -10.618  14.425  64.924  1.00  0.00    -0.434 C  
BRANCH  14  15
HETATM   15  C   UNL     1     -10.333  15.420  66.017  1.00  0.00    -0.339 A  
HETATM   16  C   UNL     1     -11.329  15.783  66.925  1.00  0.00     0.050 A  
HETATM   17  C   UNL     1     -11.059  16.724  67.919  1.00  0.00    -0.178 A  
HETATM   18  C   UNL     1      -9.793  17.311  68.034  1.00  0.00    -0.284 A  
HETATM   19  C   UNL     1      -9.062  16.002  66.138  1.00  0.00    -0.387 A  
HETATM   20  C   UNL     1      -8.798  16.957  67.126  1.00  0.00    -0.221 A  
BRANCH  18  21
HETATM   21  O   UNL     1      -9.698  18.215  69.045  1.00  0.00    -0.287 OA 
HETATM   22  C   UNL     1      -9.116  19.487  68.817  1.00  0.00    -0.328 C  
HETATM   23  F   UNL     1      -8.315  19.534  67.732  1.00  0.00    -0.310 F  
HETATM   24  F   UNL     1      -8.362  19.801  69.895  1.00  0.00    -0.040 F  
HETATM   25  F   UNL     1     -10.085  20.420  68.696  1.00  0.00    -0.449 F  
ENDBRANCH  18  21
ENDBRANCH  14  15
ENDBRANCH  13  14
ENDBRANCH   8  13
TORSDOF 4
ENDMDL
MODEL      126
REMARK 921   NORMALIZED FREE ENERGY PREDICTED BY IDOCK:   -5.14 KCAL/MOL
REMARK 922        TOTAL FREE ENERGY PREDICTED BY IDOCK:   -6.79 KCAL/MOL
REMARK 923 INTER-LIGAND FREE ENERGY PREDICTED BY IDOCK:   -7.29 KCAL/MOL
REMARK 924 INTRA-LIGAND FREE ENERGY PREDICTED BY IDOCK:    0.50 KCAL/MOL
REMARK 927      BINDING AFFINITY PREDICTED BY RF-SCORE:    0.00 PKD
ROOT
HETATM    1  O   UNL     1     -10.328  17.359  65.238  1.00  0.00    -0.616 OA 
HETATM    2  N   UNL     1     -11.046  16.445  64.802  1.00  0.00    -0.348 N  
HETATM    3  C   UNL     1     -10.934  15.166  65.467  1.00  0.00    -0.365 A  
HETATM    4  O   UNL     1     -11.830  16.538  63.851  1.00  0.00    -1.059 OA 
HETATM    5  C   UNL     1     -10.055  14.819  66.482  1.00  0.00    -0.273 A  
HETATM    6  N   UNL     1     -10.349  13.514  66.740  1.00  0.00    -0.261 NA 
HETATM    7  C   UNL     1      -9.781  12.650  67.748  1.00  0.00    -0.206 C  
HETATM    8  C   UNL     1     -10.169  11.170  67.570  1.00  0.00    -0.186 C  
HETATM    9  C   UNL     1     -11.079  10.907  66.353  1.00  0.00    -0.007 C  
HETATM   10  C   UNL     1     -11.392  13.148  65.944  1.00  0.00    -0.311 A  
HETATM   11  N   UNL     1     -11.773  14.113  65.149  1.00  0.00    -0.345 NA 
HETATM   12  O   UNL     1     -11.978  11.962  66.033  1.00  0.00    -0.511 OA 
ENDROOT
BRANCH   8  13
HETATM   13  O   UNL     1      -8.949  10.421  67.465  1.00  0.00    -0.134 OA 
BRANCH  13  14
HETATM   14  C   UNL     1      -8.301  10.152  68.709  1.00  0.00    -0.122 C  
BRANCH  14  15
HETATM   15  C   UNL     1      -9.349   9.688  69.684  1.00  0.00    -0.226 A  
HETATM   16  C   UNL     1      -9.493   8.331  69.983  1.00  0.00    -0.167 A  
HETATM   17  C   UNL     1     -10.483   7.912  70.871  1.00  0.00    -0.217 A  
HETATM   18  C   UNL     1     -11.340   8.833  71.486  1.00  0.00    -0.304 A  
HETATM   19  C   UNL     1     -10.202  10.611  70.307  1.00  0.00     0.374 A  
HETATM   20  C   UNL     1     -11.205  10.187  71.186  1.00  0.00    -0.244 A  
BRANCH  18  21
HETATM   21  O   UNL     1     -12.255   8.263  72.314  1.00  0.00    -0.344 OA 
HETATM   22  C   UNL     1     -13.640   8.372  72.034  1.00  0.00    -0.357 C  
HETATM   23  F   UNL     1     -13.953   9.396  71.212  1.00  0.00    -0.411 F  
HETATM   24  F   UNL     1     -14.289   8.575  73.203  1.00  0.00    -0.201 F  
HETATM   25  F   UNL     1     -14.092   7.218  71.498  1.00  0.00    -0.452 F  
ENDBRANCH  18  21
ENDBRANCH  14  15
ENDBRANCH  13  14
ENDBRANCH   8  13
TORSDOF 4
ENDMDL
MODEL      127
REMARK 921   NORMALIZED FREE ENERGY PREDICTED BY IDOCK:   -5.14 KCAL/MOL
REMARK 922        TOTAL FREE ENERGY PREDICTED BY IDOCK:   -6.78 KCAL/MOL
REMARK 923 INTER-LIGAND FREE ENERGY PREDICTED BY IDOCK:   -6.07 KCAL/MOL
REMARK 924 INTRA-LIGAND FREE ENERGY PREDICTED BY IDOCK:   -0.72 KCAL/MOL
REMARK 927      BINDING AFFINITY PREDICTED BY RF-SCORE:    0.00 PKD
ROOT
HETATM    1  O   UNL     1      -8.707   9.138  62.410  1.00  0.00    -0.213 OA 
HETATM    2  N   UNL     1      -7.927   9.017  63.368  1.00  0.00    -0.141 N  
HETATM    3  C   UNL     1      -8.474   9.280  64.681  1.00  0.00    -0.178 A  
HETATM    4  O   UNL     1      -6.733   8.706  63.288  1.00  0.00    -0.089 OA 
HETATM    5  C   UNL     1      -9.748   9.732  64.987  1.00  0.00    -0.233 A  
HETATM    6  N   UNL     1      -9.747   9.824  66.346  1.00  0.00    -0.200 NA 
HETATM    7  C   UNL     1     -10.836  10.193  67.220  1.00  0.00    -0.230 C  
HETATM    8  C   UNL     1     -10.393  10.441  68.674  1.00  0.00    -0.184 C  
HETATM    9  C   UNL     1      -8.880  10.252  68.904  1.00  0.00    -0.157 C  
HETATM   10  C   UNL     1      -8.540   9.387  66.800  1.00  0.00    -0.127 A  
HETATM   11  N   UNL     1      -7.733   9.057  65.827  1.00  0.00    -0.090 NA 
HETATM   12  O   UNL     1      -8.265   9.259  68.092  1.00  0.00    -0.117 OA 
ENDROOT
BRANCH   8  13
HETATM   13  O   UNL     1     -10.799  11.775  69.020  1.00  0.00    -0.214 OA 
BRANCH  13  14
HETATM   14  C   UNL     1     -11.692  12.389  68.091  1.00  0.00    -0.353 C  
BRANCH  14  15
HETATM   15  C   UNL     1     -11.455  13.874  68.136  1.00  0.00    -0.346 A  
HETATM   16  C   UNL     1     -10.759  14.515  67.109  1.00  0.00    -0.286 A  
HETATM   17  C   UNL     1     -10.526  15.889  67.175  1.00  0.00    -0.313 A  
HETATM   18  C   UNL     1     -10.989  16.651  68.254  1.00  0.00    -0.341 A  
HETATM   19  C   UNL     1     -11.927  14.640  69.214  1.00  0.00    -0.337 A  
HETATM   20  C   UNL     1     -11.679  16.015  69.284  1.00  0.00    -0.302 A  
BRANCH  18  21
HETATM   21  O   UNL     1     -10.670  17.970  68.171  1.00  0.00    -0.355 OA 
HETATM   22  C   UNL     1      -9.324  18.391  68.316  1.00  0.00    -0.326 C  
HETATM   23  F   UNL     1      -8.537  17.498  68.952  1.00  0.00    -0.271 F  
HETATM   24  F   UNL     1      -9.318  19.531  69.043  1.00  0.00    -0.407 F  
HETATM   25  F   UNL     1      -8.797  18.664  67.103  1.00  0.00    -0.260 F  
ENDBRANCH  18  21
ENDBRANCH  14  15
ENDBRANCH  13  14
ENDBRANCH   8  13
TORSDOF 4
ENDMDL
MODEL      128
REMARK 921   NORMALIZED FREE ENERGY PREDICTED BY IDOCK:   -5.13 KCAL/MOL
REMARK 922        TOTAL FREE ENERGY PREDICTED BY IDOCK:   -6.77 KCAL/MOL
REMARK 923 INTER-LIGAND FREE ENERGY PREDICTED BY IDOCK:   -6.16 KCAL/MOL
REMARK 924 INTRA-LIGAND FREE ENERGY PREDICTED BY IDOCK:   -0.61 KCAL/MOL
REMARK 927      BINDING AFFINITY PREDICTED BY RF-SCORE:    0.00 PKD
ROOT
HETATM    1  O   UNL     1      -6.363  18.792  64.516  1.00  0.00    -0.462 OA 
HETATM    2  N   UNL     1      -6.984  19.472  65.347  1.00  0.00    -0.268 N  
HETATM    3  C   UNL     1      -7.776  18.743  66.313  1.00  0.00    -0.272 A  
HETATM    4  O   UNL     1      -6.989  20.707  65.407  1.00  0.00    -0.199 OA 
HETATM    5  C   UNL     1      -7.988  17.374  66.366  1.00  0.00    -0.290 A  
HETATM    6  N   UNL     1      -8.805  17.209  67.444  1.00  0.00    -0.210 NA 
HETATM    7  C   UNL     1      -9.306  15.978  68.008  1.00  0.00    -0.202 C  
HETATM    8  C   UNL     1     -10.410  16.195  69.060  1.00  0.00    -0.258 C  
HETATM    9  C   UNL     1     -10.761  17.678  69.296  1.00  0.00     0.250 C  
HETATM   10  C   UNL     1      -9.004  18.428  68.017  1.00  0.00    -0.290 A  
HETATM   11  N   UNL     1      -8.408  19.389  67.360  1.00  0.00    -0.285 NA 
HETATM   12  O   UNL     1      -9.676  18.586  69.149  1.00  0.00    -0.269 OA 
ENDROOT
BRANCH   8  13
HETATM   13  O   UNL     1     -11.564  15.461  68.622  1.00  0.00    -0.329 OA 
BRANCH  13  14
HETATM   14  C   UNL     1     -11.954  14.388  69.479  1.00  0.00    -0.330 C  
BRANCH  14  15
HETATM   15  C   UNL     1     -11.643  13.097  68.772  1.00  0.00    -0.348 A  
HETATM   16  C   UNL     1     -11.207  13.099  67.445  1.00  0.00    -0.319 A  
HETATM   17  C   UNL     1     -10.945  11.893  66.794  1.00  0.00    -0.337 A  
HETATM   18  C   UNL     1     -11.101  10.667  67.451  1.00  0.00    -0.272 A  
HETATM   19  C   UNL     1     -11.791  11.868  69.433  1.00  0.00    -0.389 A  
HETATM   20  C   UNL     1     -11.542  10.659  68.773  1.00  0.00    -0.309 A  
BRANCH  18  21
HETATM   21  O   UNL     1     -10.816   9.588  66.674  1.00  0.00    -0.083 OA 
HETATM   22  C   UNL     1      -9.699   8.768  66.969  1.00  0.00    -0.198 C  
HETATM   23  F   UNL     1      -8.764   9.371  67.733  1.00  0.00    -0.116 F  
HETATM   24  F   UNL     1      -9.111   8.425  65.800  1.00  0.00    -0.199 F  
HETATM   25  F   UNL     1     -10.110   7.636  67.581  1.00  0.00    -0.179 F  
ENDBRANCH  18  21
ENDBRANCH  14  15
ENDBRANCH  13  14
ENDBRANCH   8  13
TORSDOF 4
ENDMDL
MODEL      129
REMARK 921   NORMALIZED FREE ENERGY PREDICTED BY IDOCK:   -5.09 KCAL/MOL
REMARK 922        TOTAL FREE ENERGY PREDICTED BY IDOCK:   -6.73 KCAL/MOL
REMARK 923 INTER-LIGAND FREE ENERGY PREDICTED BY IDOCK:   -5.69 KCAL/MOL
REMARK 924 INTRA-LIGAND FREE ENERGY PREDICTED BY IDOCK:   -1.03 KCAL/MOL
REMARK 927      BINDING AFFINITY PREDICTED BY RF-SCORE:    0.00 PKD
ROOT
HETATM    1  O   UNL     1     -12.159  13.761  67.675  1.00  0.00    -0.363 OA 
HETATM    2  N   UNL     1     -10.934  13.686  67.864  1.00  0.00    -0.254 N  
HETATM    3  C   UNL     1     -10.236  12.639  67.151  1.00  0.00    -0.225 A  
HETATM    4  O   UNL     1     -10.276  14.416  68.613  1.00  0.00    -0.235 OA 
HETATM    5  C   UNL     1     -10.789  11.657  66.344  1.00  0.00    -0.287 A  
HETATM    6  N   UNL     1      -9.715  10.928  65.930  1.00  0.00    -0.213 NA 
HETATM    7  C   UNL     1      -9.690   9.807  65.020  1.00  0.00    -0.233 C  
HETATM    8  C   UNL     1      -8.336   9.074  64.993  1.00  0.00    -0.166 C  
HETATM    9  C   UNL     1      -7.284   9.678  65.944  1.00  0.00    -0.099 C  
HETATM   10  C   UNL     1      -8.590  11.506  66.434  1.00  0.00    -0.159 A  
HETATM   11  N   UNL     1      -8.857  12.539  67.188  1.00  0.00    -0.196 NA 
HETATM   12  O   UNL     1      -7.370  11.086  66.125  1.00  0.00    -0.129 OA 
ENDROOT
BRANCH   8  13
HETATM   13  O   UNL     1      -8.591   7.699  65.322  1.00  0.00    -0.119 OA 
BRANCH  13  14
HETATM   14  C   UNL     1      -7.868   7.208  66.450  1.00  0.00    -0.109 C  
BRANCH  14  15
HETATM   15  C   UNL     1      -8.854   6.961  67.559  1.00  0.00    -0.118 A  
HETATM   16  C   UNL     1      -8.453   7.023  68.895  1.00  0.00    -0.125 A  
HETATM   17  C   UNL     1      -9.372   6.770  69.914  1.00  0.00    -0.157 A  
HETATM   18  C   UNL     1     -10.706   6.461  69.623  1.00  0.00    -0.282 A  
HETATM   19  C   UNL     1     -10.194   6.661  67.269  1.00  0.00    -0.256 A  
HETATM   20  C   UNL     1     -11.110   6.392  68.292  1.00  0.00    -0.359 A  
BRANCH  18  21
HETATM   21  O   UNL     1     -11.468   6.231  70.726  1.00  0.00    -0.333 OA 
HETATM   22  C   UNL     1     -12.326   7.241  71.227  1.00  0.00    -0.366 C  
HETATM   23  F   UNL     1     -11.995   8.487  70.830  1.00  0.00    -0.289 F  
HETATM   24  F   UNL     1     -12.261   7.212  72.578  1.00  0.00    -0.240 F  
HETATM   25  F   UNL     1     -13.601   6.982  70.863  1.00  0.00    -0.383 F  
ENDBRANCH  18  21
ENDBRANCH  14  15
ENDBRANCH  13  14
ENDBRANCH   8  13
TORSDOF 4
ENDMDL
MODEL      130
REMARK 921   NORMALIZED FREE ENERGY PREDICTED BY IDOCK:   -5.09 KCAL/MOL
REMARK 922        TOTAL FREE ENERGY PREDICTED BY IDOCK:   -6.72 KCAL/MOL
REMARK 923 INTER-LIGAND FREE ENERGY PREDICTED BY IDOCK:   -6.24 KCAL/MOL
REMARK 924 INTRA-LIGAND FREE ENERGY PREDICTED BY IDOCK:   -0.49 KCAL/MOL
REMARK 927      BINDING AFFINITY PREDICTED BY RF-SCORE:    0.00 PKD
ROOT
HETATM    1  O   UNL     1      -9.599   3.007  65.258  1.00  0.00    -0.122 OA 
HETATM    2  N   UNL     1      -8.837   3.975  65.105  1.00  0.00    -0.123 N  
HETATM    3  C   UNL     1      -9.023   5.089  66.008  1.00  0.00    -0.136 A  
HETATM    4  O   UNL     1      -7.953   4.067  64.245  1.00  0.00    -0.084 OA 
HETATM    5  C   UNL     1     -10.008   5.235  66.973  1.00  0.00    -0.189 A  
HETATM    6  N   UNL     1      -9.745   6.450  67.531  1.00  0.00    -0.118 NA 
HETATM    7  C   UNL     1     -10.421   7.096  68.631  1.00  0.00    -0.197 C  
HETATM    8  C   UNL     1     -10.017   8.571  68.813  1.00  0.00    -0.186 C  
HETATM    9  C   UNL     1      -8.979   9.062  67.784  1.00  0.00    -0.127 C  
HETATM   10  C   UNL     1      -8.621   6.951  66.947  1.00  0.00    -0.116 A  
HETATM   11  N   UNL     1      -8.154   6.166  66.012  1.00  0.00    -0.113 NA 
HETATM   12  O   UNL     1      -8.049   8.079  67.347  1.00  0.00    -0.119 OA 
ENDROOT
BRANCH   8  13
HETATM   13  O   UNL     1     -11.219   9.353  68.738  1.00  0.00    -0.020 OA 
BRANCH  13  14
HETATM   14  C   UNL     1     -11.019  10.732  68.430  1.00  0.00    -0.248 C  
BRANCH  14  15
HETATM   15  C   UNL     1     -11.667  11.547  69.517  1.00  0.00    -0.413 A  
HETATM   16  C   UNL     1     -11.777  12.934  69.398  1.00  0.00    -0.382 A  
HETATM   17  C   UNL     1     -12.359  13.680  70.423  1.00  0.00    -0.415 A  
HETATM   18  C   UNL     1     -12.851  13.060  71.578  1.00  0.00    -0.290 A  
HETATM   19  C   UNL     1     -12.168  10.926  70.671  1.00  0.00    -0.472 A  
HETATM   20  C   UNL     1     -12.738  11.677  71.705  1.00  0.00    -0.375 A  
BRANCH  18  21
HETATM   21  O   UNL     1     -13.376  13.928  72.484  1.00  0.00    -0.484 OA 
HETATM   22  C   UNL     1     -12.570  14.947  73.048  1.00  0.00    -0.426 C  
HETATM   23  F   UNL     1     -11.245  14.704  72.969  1.00  0.00    -0.099 F  
HETATM   24  F   UNL     1     -12.888  15.054  74.359  1.00  0.00    -0.504 F  
HETATM   25  F   UNL     1     -12.842  16.129  72.454  1.00  0.00    -0.477 F  
ENDBRANCH  18  21
ENDBRANCH  14  15
ENDBRANCH  13  14
ENDBRANCH   8  13
TORSDOF 4
ENDMDL
MODEL      131
REMARK 921   NORMALIZED FREE ENERGY PREDICTED BY IDOCK:   -5.09 KCAL/MOL
REMARK 922        TOTAL FREE ENERGY PREDICTED BY IDOCK:   -6.72 KCAL/MOL
REMARK 923 INTER-LIGAND FREE ENERGY PREDICTED BY IDOCK:   -6.30 KCAL/MOL
REMARK 924 INTRA-LIGAND FREE ENERGY PREDICTED BY IDOCK:   -0.42 KCAL/MOL
REMARK 927      BINDING AFFINITY PREDICTED BY RF-SCORE:    0.00 PKD
ROOT
HETATM    1  O   UNL     1     -11.451  11.466  64.299  1.00  0.00    -0.253 OA 
HETATM    2  N   UNL     1     -12.062  12.514  64.032  1.00  0.00    -0.434 N  
HETATM    3  C   UNL     1     -11.436  13.748  64.452  1.00  0.00    -0.372 A  
HETATM    4  O   UNL     1     -13.153  12.583  63.456  1.00  0.00    -0.654 OA 
HETATM    5  C   UNL     1     -10.272  13.893  65.191  1.00  0.00    -0.358 A  
HETATM    6  N   UNL     1     -10.130  15.242  65.321  1.00  0.00    -0.347 NA 
HETATM    7  C   UNL     1      -9.058  15.973  65.954  1.00  0.00    -0.257 C  
HETATM    8  C   UNL     1      -9.368  17.471  66.138  1.00  0.00    -0.143 C  
HETATM    9  C   UNL     1     -10.758  17.886  65.617  1.00  0.00    -0.052 C  
HETATM   10  C   UNL     1     -11.141  15.843  64.635  1.00  0.00    -0.354 A  
HETATM   11  N   UNL     1     -11.962  14.978  64.100  1.00  0.00    -0.458 NA 
HETATM   12  O   UNL     1     -11.222  17.159  64.486  1.00  0.00    -1.104 OA 
ENDROOT
BRANCH   8  13
HETATM   13  O   UNL     1      -9.240  17.761  67.539  1.00  0.00    -0.242 OA 
BRANCH  13  14
HETATM   14  C   UNL     1      -7.927  18.134  67.957  1.00  0.00    -0.264 C  
BRANCH  14  15
HETATM   15  C   UNL     1      -7.233  16.897  68.459  1.00  0.00    -0.199 A  
HETATM   16  C   UNL     1      -6.012  16.495  67.914  1.00  0.00    -0.137 A  
HETATM   17  C   UNL     1      -5.390  15.333  68.373  1.00  0.00    -0.106 A  
HETATM   18  C   UNL     1      -5.965  14.558  69.387  1.00  0.00    -0.101 A  
HETATM   19  C   UNL     1      -7.805  16.124  69.481  1.00  0.00    -0.002 A  
HETATM   20  C   UNL     1      -7.187  14.951  69.929  1.00  0.00    -0.069 A  
BRANCH  18  21
HETATM   21  O   UNL     1      -5.241  13.454  69.710  1.00  0.00    -0.084 OA 
HETATM   22  C   UNL     1      -5.740  12.160  69.421  1.00  0.00    -0.083 C  
HETATM   23  F   UNL     1      -7.077  12.116  69.244  1.00  0.00    -0.102 F  
HETATM   24  F   UNL     1      -5.440  11.352  70.464  1.00  0.00    -0.082 F  
HETATM   25  F   UNL     1      -5.130  11.668  68.320  1.00  0.00    -0.043 F  
ENDBRANCH  18  21
ENDBRANCH  14  15
ENDBRANCH  13  14
ENDBRANCH   8  13
TORSDOF 4
ENDMDL
MODEL      132
REMARK 921   NORMALIZED FREE ENERGY PREDICTED BY IDOCK:   -5.08 KCAL/MOL
REMARK 922        TOTAL FREE ENERGY PREDICTED BY IDOCK:   -6.72 KCAL/MOL
REMARK 923 INTER-LIGAND FREE ENERGY PREDICTED BY IDOCK:   -6.10 KCAL/MOL
REMARK 924 INTRA-LIGAND FREE ENERGY PREDICTED BY IDOCK:   -0.61 KCAL/MOL
REMARK 927      BINDING AFFINITY PREDICTED BY RF-SCORE:    0.00 PKD
ROOT
HETATM    1  O   UNL     1      -8.514   3.916  64.762  1.00  0.00    -0.103 OA 
HETATM    2  N   UNL     1      -8.565   3.550  65.947  1.00  0.00    -0.112 N  
HETATM    3  C   UNL     1      -9.115   4.497  66.891  1.00  0.00    -0.124 A  
HETATM    4  O   UNL     1      -8.176   2.459  66.381  1.00  0.00    -0.082 OA 
HETATM    5  C   UNL     1      -9.518   5.800  66.638  1.00  0.00    -0.149 A  
HETATM    6  N   UNL     1      -9.942   6.254  67.850  1.00  0.00    -0.127 NA 
HETATM    7  C   UNL     1     -10.524   7.536  68.173  1.00  0.00    -0.183 C  
HETATM    8  C   UNL     1     -10.638   7.789  69.688  1.00  0.00    -0.242 C  
HETATM    9  C   UNL     1     -10.106   6.629  70.554  1.00  0.00    -0.187 C  
HETATM   10  C   UNL     1      -9.841   5.233  68.746  1.00  0.00    -0.161 A  
HETATM   11  N   UNL     1      -9.335   4.153  68.212  1.00  0.00    -0.148 NA 
HETATM   12  O   UNL     1     -10.275   5.332  69.996  1.00  0.00    -0.243 OA 
ENDROOT
BRANCH   8  13
HETATM   13  O   UNL     1      -9.927   9.004  69.970  1.00  0.00    -0.174 OA 
BRANCH  13  14
HETATM   14  C   UNL     1      -9.916   9.954  68.904  1.00  0.00    -0.181 C  
BRANCH  14  15
HETATM   15  C   UNL     1     -10.750  11.133  69.327  1.00  0.00    -0.241 A  
HETATM   16  C   UNL     1     -10.537  12.393  68.765  1.00  0.00    -0.213 A  
HETATM   17  C   UNL     1     -11.302  13.483  69.183  1.00  0.00    -0.333 A  
HETATM   18  C   UNL     1     -12.297  13.336  70.156  1.00  0.00    -0.236 A  
HETATM   19  C   UNL     1     -11.754  10.985  70.297  1.00  0.00    -0.445 A  
HETATM   20  C   UNL     1     -12.509  12.082  70.725  1.00  0.00    -0.372 A  
BRANCH  18  21
HETATM   21  O   UNL     1     -12.942  14.495  70.458  1.00  0.00    -0.350 OA 
HETATM   22  C   UNL     1     -12.422  15.367  71.447  1.00  0.00    -0.392 C  
HETATM   23  F   UNL     1     -11.570  14.772  72.308  1.00  0.00    -0.408 F  
HETATM   24  F   UNL     1     -13.460  15.849  72.168  1.00  0.00    -0.506 F  
HETATM   25  F   UNL     1     -11.800  16.410  70.856  1.00  0.00    -0.393 F  
ENDBRANCH  18  21
ENDBRANCH  14  15
ENDBRANCH  13  14
ENDBRANCH   8  13
TORSDOF 4
ENDMDL
MODEL      133
REMARK 921   NORMALIZED FREE ENERGY PREDICTED BY IDOCK:   -5.06 KCAL/MOL
REMARK 922        TOTAL FREE ENERGY PREDICTED BY IDOCK:   -6.69 KCAL/MOL
REMARK 923 INTER-LIGAND FREE ENERGY PREDICTED BY IDOCK:   -6.01 KCAL/MOL
REMARK 924 INTRA-LIGAND FREE ENERGY PREDICTED BY IDOCK:   -0.68 KCAL/MOL
REMARK 927      BINDING AFFINITY PREDICTED BY RF-SCORE:    0.00 PKD
ROOT
HETATM    1  O   UNL     1     -10.920  16.151  64.349  1.00  0.00    -0.612 OA 
HETATM    2  N   UNL     1     -11.728  15.222  64.509  1.00  0.00    -0.368 N  
HETATM    3  C   UNL     1     -11.378  14.229  65.500  1.00  0.00    -0.325 A  
HETATM    4  O   UNL     1     -12.786  15.073  63.887  1.00  0.00    -0.775 OA 
HETATM    5  C   UNL     1     -10.205  14.150  66.236  1.00  0.00    -0.295 A  
HETATM    6  N   UNL     1     -10.375  13.039  67.007  1.00  0.00    -0.246 NA 
HETATM    7  C   UNL     1      -9.488  12.504  68.013  1.00  0.00    -0.209 C  
HETATM    8  C   UNL     1      -9.888  11.095  68.490  1.00  0.00    -0.198 C  
HETATM    9  C   UNL     1     -11.148  10.538  67.796  1.00  0.00    -0.317 C  
HETATM   10  C   UNL     1     -11.617  12.538  66.763  1.00  0.00    -0.382 A  
HETATM   11  N   UNL     1     -12.258  13.220  65.850  1.00  0.00    -0.437 NA 
HETATM   12  O   UNL     1     -12.120  11.513  67.437  1.00  0.00    -0.593 OA 
ENDROOT
BRANCH   8  13
HETATM   13  O   UNL     1      -8.761  10.235  68.266  1.00  0.00    -0.121 OA 
BRANCH  13  14
HETATM   14  C   UNL     1      -8.968   8.868  68.623  1.00  0.00    -0.137 C  
BRANCH  14  15
HETATM   15  C   UNL     1      -8.723   8.029  67.398  1.00  0.00    -0.124 A  
HETATM   16  C   UNL     1      -8.825   6.637  67.457  1.00  0.00    -0.116 A  
HETATM   17  C   UNL     1      -8.572   5.870  66.320  1.00  0.00    -0.132 A  
HETATM   18  C   UNL     1      -8.226   6.471  65.104  1.00  0.00    -0.126 A  
HETATM   19  C   UNL     1      -8.385   8.631  66.177  1.00  0.00    -0.127 A  
HETATM   20  C   UNL     1      -8.118   7.858  65.041  1.00  0.00    -0.144 A  
BRANCH  18  21
HETATM   21  O   UNL     1      -8.002   5.583  64.098  1.00  0.00    -0.107 OA 
HETATM   22  C   UNL     1      -6.720   5.007  63.924  1.00  0.00    -0.042 C  
HETATM   23  F   UNL     1      -5.722   5.710  64.499  1.00  0.00    -0.018 F  
HETATM   24  F   UNL     1      -6.464   4.945  62.597  1.00  0.00    -0.023 F  
HETATM   25  F   UNL     1      -6.714   3.747  64.412  1.00  0.00    -0.039 F  
ENDBRANCH  18  21
ENDBRANCH  14  15
ENDBRANCH  13  14
ENDBRANCH   8  13
TORSDOF 4
ENDMDL
MODEL      134
REMARK 921   NORMALIZED FREE ENERGY PREDICTED BY IDOCK:   -5.06 KCAL/MOL
REMARK 922        TOTAL FREE ENERGY PREDICTED BY IDOCK:   -6.68 KCAL/MOL
REMARK 923 INTER-LIGAND FREE ENERGY PREDICTED BY IDOCK:   -6.01 KCAL/MOL
REMARK 924 INTRA-LIGAND FREE ENERGY PREDICTED BY IDOCK:   -0.67 KCAL/MOL
REMARK 927      BINDING AFFINITY PREDICTED BY RF-SCORE:    0.00 PKD
ROOT
HETATM    1  O   UNL     1     -13.534  15.608  71.538  1.00  0.00    -0.494 OA 
HETATM    2  N   UNL     1     -12.307  15.779  71.455  1.00  0.00    -0.425 N  
HETATM    3  C   UNL     1     -11.653  15.197  70.304  1.00  0.00    -0.289 A  
HETATM    4  O   UNL     1     -11.608  16.387  72.274  1.00  0.00    -0.442 OA 
HETATM    5  C   UNL     1     -12.225  14.400  69.324  1.00  0.00    -0.239 A  
HETATM    6  N   UNL     1     -11.188  14.113  68.487  1.00  0.00    -0.247 NA 
HETATM    7  C   UNL     1     -11.214  13.359  67.256  1.00  0.00    -0.295 C  
HETATM    8  C   UNL     1      -9.810  13.019  66.721  1.00  0.00    -0.243 C  
HETATM    9  C   UNL     1      -8.663  13.545  67.607  1.00  0.00    -0.194 C  
HETATM   10  C   UNL     1     -10.083  14.767  68.940  1.00  0.00    -0.237 A  
HETATM   11  N   UNL     1     -10.314  15.428  70.044  1.00  0.00    -0.294 NA 
HETATM   12  O   UNL     1      -8.932  14.768  68.281  1.00  0.00    -0.169 OA 
ENDROOT
BRANCH   8  13
HETATM   13  O   UNL     1      -9.740  11.590  66.591  1.00  0.00    -0.193 OA 
BRANCH  13  14
HETATM   14  C   UNL     1     -10.370  10.861  67.643  1.00  0.00    -0.197 C  
BRANCH  14  15
HETATM   15  C   UNL     1      -9.993   9.412  67.491  1.00  0.00    -0.250 A  
HETATM   16  C   UNL     1      -9.862   8.589  68.611  1.00  0.00    -0.180 A  
HETATM   17  C   UNL     1      -9.489   7.253  68.458  1.00  0.00    -0.140 A  
HETATM   18  C   UNL     1      -9.252   6.710  67.190  1.00  0.00    -0.126 A  
HETATM   19  C   UNL     1      -9.763   8.865  66.219  1.00  0.00    -0.345 A  
HETATM   20  C   UNL     1      -9.375   7.529  66.069  1.00  0.00    -0.061 A  
BRANCH  18  21
HETATM   21  O   UNL     1      -8.887   5.401  67.214  1.00  0.00    -0.108 OA 
HETATM   22  C   UNL     1      -9.725   4.413  66.639  1.00  0.00    -0.215 C  
HETATM   23  F   UNL     1     -11.010   4.799  66.501  1.00  0.00    -0.257 F  
HETATM   24  F   UNL     1      -9.708   3.328  67.447  1.00  0.00    -0.246 F  
HETATM   25  F   UNL     1      -9.239   4.046  65.433  1.00  0.00    -0.124 F  
ENDBRANCH  18  21
ENDBRANCH  14  15
ENDBRANCH  13  14
ENDBRANCH   8  13
TORSDOF 4
ENDMDL
MODEL      135
REMARK 921   NORMALIZED FREE ENERGY PREDICTED BY IDOCK:   -5.05 KCAL/MOL
REMARK 922        TOTAL FREE ENERGY PREDICTED BY IDOCK:   -6.67 KCAL/MOL
REMARK 923 INTER-LIGAND FREE ENERGY PREDICTED BY IDOCK:   -5.94 KCAL/MOL
REMARK 924 INTRA-LIGAND FREE ENERGY PREDICTED BY IDOCK:   -0.73 KCAL/MOL
REMARK 927      BINDING AFFINITY PREDICTED BY RF-SCORE:    0.00 PKD
ROOT
HETATM    1  O   UNL     1      -7.854  17.489  65.734  1.00  0.00    -0.544 OA 
HETATM    2  N   UNL     1      -8.822  17.907  66.391  1.00  0.00    -0.255 N  
HETATM    3  C   UNL     1      -9.452  16.957  67.281  1.00  0.00    -0.242 A  
HETATM    4  O   UNL     1      -9.290  19.049  66.336  1.00  0.00    -0.328 OA 
HETATM    5  C   UNL     1      -9.153  15.611  67.425  1.00  0.00    -0.194 A  
HETATM    6  N   UNL     1     -10.034  15.178  68.370  1.00  0.00    -0.218 NA 
HETATM    7  C   UNL     1     -10.142  13.863  68.958  1.00  0.00    -0.018 C  
HETATM    8  C   UNL     1     -11.420  13.675  69.797  1.00  0.00    -0.187 C  
HETATM    9  C   UNL     1     -12.327  14.921  69.837  1.00  0.00    -0.280 C  
HETATM   10  C   UNL     1     -10.767  16.246  68.790  1.00  0.00    -0.309 A  
HETATM   11  N   UNL     1     -10.456  17.343  68.151  1.00  0.00    -0.374 NA 
HETATM   12  O   UNL     1     -11.643  16.167  69.782  1.00  0.00    -0.314 OA 
ENDROOT
BRANCH   8  13
HETATM   13  O   UNL     1     -12.125  12.549  69.251  1.00  0.00    -0.256 OA 
BRANCH  13  14
HETATM   14  C   UNL     1     -12.289  11.451  70.148  1.00  0.00    -0.266 C  
BRANCH  14  15
HETATM   15  C   UNL     1     -11.623  10.249  69.534  1.00  0.00    -0.234 A  
HETATM   16  C   UNL     1     -11.362   9.111  70.299  1.00  0.00    -0.217 A  
HETATM   17  C   UNL     1     -10.724   8.012  69.724  1.00  0.00    -0.231 A  
HETATM   18  C   UNL     1     -10.344   8.021  68.376  1.00  0.00    -0.199 A  
HETATM   19  C   UNL     1     -11.250  10.254  68.181  1.00  0.00    -0.294 A  
HETATM   20  C   UNL     1     -10.596   9.157  67.609  1.00  0.00    -0.307 A  
BRANCH  18  21
HETATM   21  O   UNL     1      -9.723   6.880  67.974  1.00  0.00    -0.129 OA 
HETATM   22  C   UNL     1     -10.421   5.921  67.198  1.00  0.00    -0.272 C  
HETATM   23  F   UNL     1     -11.764   6.016  67.289  1.00  0.00     0.014 F  
HETATM   24  F   UNL     1     -10.068   4.691  67.637  1.00  0.00    -0.203 F  
HETATM   25  F   UNL     1     -10.054   6.026  65.903  1.00  0.00    -0.089 F  
ENDBRANCH  18  21
ENDBRANCH  14  15
ENDBRANCH  13  14
ENDBRANCH   8  13
TORSDOF 4
ENDMDL
MODEL      136
REMARK 921   NORMALIZED FREE ENERGY PREDICTED BY IDOCK:   -5.04 KCAL/MOL
REMARK 922        TOTAL FREE ENERGY PREDICTED BY IDOCK:   -6.66 KCAL/MOL
REMARK 923 INTER-LIGAND FREE ENERGY PREDICTED BY IDOCK:   -6.03 KCAL/MOL
REMARK 924 INTRA-LIGAND FREE ENERGY PREDICTED BY IDOCK:   -0.63 KCAL/MOL
REMARK 927      BINDING AFFINITY PREDICTED BY RF-SCORE:    0.00 PKD
ROOT
HETATM    1  O   UNL     1      -8.408  19.270  65.642  1.00  0.00    -0.371 OA 
HETATM    2  N   UNL     1      -9.456  19.099  66.284  1.00  0.00    -0.342 N  
HETATM    3  C   UNL     1      -9.708  17.756  66.758  1.00  0.00    -0.309 A  
HETATM    4  O   UNL     1     -10.296  19.970  66.536  1.00  0.00    -0.451 OA 
HETATM    5  C   UNL     1      -8.954  16.620  66.507  1.00  0.00    -0.277 A  
HETATM    6  N   UNL     1      -9.621  15.631  67.165  1.00  0.00    -0.216 NA 
HETATM    7  C   UNL     1      -9.258  14.239  67.298  1.00  0.00    -0.214 C  
HETATM    8  C   UNL     1     -10.383  13.369  67.889  1.00  0.00    -0.238 C  
HETATM    9  C   UNL     1     -11.669  14.154  68.215  1.00  0.00    -0.348 C  
HETATM   10  C   UNL     1     -10.680  16.191  67.814  1.00  0.00    -0.325 A  
HETATM   11  N   UNL     1     -10.778  17.474  67.588  1.00  0.00    -0.345 NA 
HETATM   12  O   UNL     1     -11.467  15.500  68.628  1.00  0.00    -0.322 OA 
ENDROOT
BRANCH   8  13
HETATM   13  O   UNL     1     -10.651  12.322  66.944  1.00  0.00    -0.219 OA 
BRANCH  13  14
HETATM   14  C   UNL     1     -11.104  11.096  67.519  1.00  0.00    -0.291 C  
BRANCH  14  15
HETATM   15  C   UNL     1     -10.315   9.975  66.898  1.00  0.00    -0.297 A  
HETATM   16  C   UNL     1     -10.613   8.644  67.197  1.00  0.00    -0.304 A  
HETATM   17  C   UNL     1      -9.859   7.615  66.633  1.00  0.00    -0.283 A  
HETATM   18  C   UNL     1      -8.804   7.890  65.755  1.00  0.00    -0.119 A  
HETATM   19  C   UNL     1      -9.262  10.250  66.011  1.00  0.00    -0.200 A  
HETATM   20  C   UNL     1      -8.498   9.216  65.458  1.00  0.00    -0.160 A  
BRANCH  18  21
HETATM   21  O   UNL     1      -8.163   6.779  65.303  1.00  0.00    -0.130 OA 
HETATM   22  C   UNL     1      -7.327   6.032  66.170  1.00  0.00    -0.081 C  
HETATM   23  F   UNL     1      -6.894   6.726  67.244  1.00  0.00    -0.061 F  
HETATM   24  F   UNL     1      -6.238   5.644  65.469  1.00  0.00    -0.029 F  
HETATM   25  F   UNL     1      -7.974   4.923  66.589  1.00  0.00    -0.099 F  
ENDBRANCH  18  21
ENDBRANCH  14  15
ENDBRANCH  13  14
ENDBRANCH   8  13
TORSDOF 4
ENDMDL
MODEL      137
REMARK 921   NORMALIZED FREE ENERGY PREDICTED BY IDOCK:   -5.00 KCAL/MOL
REMARK 922        TOTAL FREE ENERGY PREDICTED BY IDOCK:   -6.61 KCAL/MOL
REMARK 923 INTER-LIGAND FREE ENERGY PREDICTED BY IDOCK:   -6.17 KCAL/MOL
REMARK 924 INTRA-LIGAND FREE ENERGY PREDICTED BY IDOCK:   -0.44 KCAL/MOL
REMARK 927      BINDING AFFINITY PREDICTED BY RF-SCORE:    0.00 PKD
ROOT
HETATM    1  O   UNL     1      -9.547   2.474  71.748  1.00  0.00    -0.120 OA 
HETATM    2  N   UNL     1      -9.971   3.537  72.226  1.00  0.00    -0.162 N  
HETATM    3  C   UNL     1     -10.188   4.621  71.294  1.00  0.00    -0.135 A  
HETATM    4  O   UNL     1     -10.208   3.745  73.422  1.00  0.00    -0.130 OA 
HETATM    5  C   UNL     1      -9.899   4.635  69.938  1.00  0.00    -0.226 A  
HETATM    6  N   UNL     1     -10.280   5.879  69.533  1.00  0.00    -0.203 NA 
HETATM    7  C   UNL     1     -10.260   6.432  68.199  1.00  0.00    -0.167 C  
HETATM    8  C   UNL     1     -10.516   7.951  68.166  1.00  0.00    -0.173 C  
HETATM    9  C   UNL     1     -10.737   8.575  69.559  1.00  0.00    -0.174 C  
HETATM   10  C   UNL     1     -10.819   6.527  70.603  1.00  0.00    -0.266 A  
HETATM   11  N   UNL     1     -10.775   5.808  71.693  1.00  0.00    -0.248 NA 
HETATM   12  O   UNL     1     -11.376   7.727  70.506  1.00  0.00    -0.274 OA 
ENDROOT
BRANCH   8  13
HETATM   13  O   UNL     1      -9.393   8.557  67.508  1.00  0.00    -0.141 OA 
BRANCH  13  14
HETATM   14  C   UNL     1      -9.603   8.874  66.132  1.00  0.00    -0.265 C  
BRANCH  14  15
HETATM   15  C   UNL     1     -10.055  10.307  66.052  1.00  0.00    -0.311 A  
HETATM   16  C   UNL     1     -10.072  11.113  67.193  1.00  0.00    -0.223 A  
HETATM   17  C   UNL     1     -10.515  12.433  67.110  1.00  0.00    -0.236 A  
HETATM   18  C   UNL     1     -10.937  12.978  65.891  1.00  0.00    -0.271 A  
HETATM   19  C   UNL     1     -10.469  10.857  64.830  1.00  0.00    -0.373 A  
HETATM   20  C   UNL     1     -10.927  12.177  64.751  1.00  0.00    -0.356 A  
BRANCH  18  21
HETATM   21  O   UNL     1     -11.348  14.271  65.983  1.00  0.00    -0.322 OA 
HETATM   22  C   UNL     1     -10.446  15.330  65.716  1.00  0.00    -0.349 C  
HETATM   23  F   UNL     1      -9.146  14.979  65.816  1.00  0.00    -0.315 F  
HETATM   24  F   UNL     1     -10.674  16.312  66.617  1.00  0.00    -0.312 F  
HETATM   25  F   UNL     1     -10.678  15.830  64.483  1.00  0.00    -0.420 F  
ENDBRANCH  18  21
ENDBRANCH  14  15
ENDBRANCH  13  14
ENDBRANCH   8  13
TORSDOF 4
ENDMDL
MODEL      138
REMARK 921   NORMALIZED FREE ENERGY PREDICTED BY IDOCK:   -5.00 KCAL/MOL
REMARK 922        TOTAL FREE ENERGY PREDICTED BY IDOCK:   -6.61 KCAL/MOL
REMARK 923 INTER-LIGAND FREE ENERGY PREDICTED BY IDOCK:   -6.40 KCAL/MOL
REMARK 924 INTRA-LIGAND FREE ENERGY PREDICTED BY IDOCK:   -0.21 KCAL/MOL
REMARK 927      BINDING AFFINITY PREDICTED BY RF-SCORE:    0.00 PKD
ROOT
HETATM    1  O   UNL     1      -9.625  15.977  65.081  1.00  0.00    -0.281 OA 
HETATM    2  N   UNL     1     -10.261  16.563  65.972  1.00  0.00    -0.342 N  
HETATM    3  C   UNL     1     -10.638  15.769  67.121  1.00  0.00    -0.313 A  
HETATM    4  O   UNL     1     -10.603  17.750  65.949  1.00  0.00    -0.421 OA 
HETATM    5  C   UNL     1     -10.443  14.409  67.305  1.00  0.00    -0.269 A  
HETATM    6  N   UNL     1     -10.983  14.163  68.532  1.00  0.00    -0.245 NA 
HETATM    7  C   UNL     1     -11.013  12.918  69.264  1.00  0.00    -0.063 C  
HETATM    8  C   UNL     1     -11.937  12.959  70.496  1.00  0.00    -0.198 C  
HETATM    9  C   UNL     1     -12.646  14.313  70.697  1.00  0.00    -0.355 C  
HETATM   10  C   UNL     1     -11.417  15.345  69.050  1.00  0.00    -0.337 A  
HETATM   11  N   UNL     1     -11.238  16.344  68.227  1.00  0.00    -0.343 NA 
HETATM   12  O   UNL     1     -11.902  15.452  70.280  1.00  0.00    -0.286 OA 
ENDROOT
BRANCH   8  13
HETATM   13  O   UNL     1     -12.895  11.900  70.344  1.00  0.00    -0.007 OA 
BRANCH  13  14
HETATM   14  C   UNL     1     -12.965  10.992  71.443  1.00  0.00    -0.414 C  
BRANCH  14  15
HETATM   15  C   UNL     1     -12.027   9.850  71.160  1.00  0.00    -0.473 A  
HETATM   16  C   UNL     1     -11.621   9.569  69.853  1.00  0.00    -0.026 A  
HETATM   17  C   UNL     1     -10.770   8.494  69.601  1.00  0.00    -0.200 A  
HETATM   18  C   UNL     1     -10.299   7.686  70.643  1.00  0.00    -0.205 A  
HETATM   19  C   UNL     1     -11.548   9.045  72.204  1.00  0.00    -0.348 A  
HETATM   20  C   UNL     1     -10.706   7.957  71.947  1.00  0.00    -0.290 A  
BRANCH  18  21
HETATM   21  O   UNL     1      -9.489   6.674  70.229  1.00  0.00    -0.162 OA 
HETATM   22  C   UNL     1      -9.884   5.834  69.158  1.00  0.00    -0.162 C  
HETATM   23  F   UNL     1     -11.213   5.833  68.925  1.00  0.00    -0.370 F  
HETATM   24  F   UNL     1      -9.522   4.567  69.465  1.00  0.00    -0.165 F  
HETATM   25  F   UNL     1      -9.234   6.194  68.030  1.00  0.00    -0.120 F  
ENDBRANCH  18  21
ENDBRANCH  14  15
ENDBRANCH  13  14
ENDBRANCH   8  13
TORSDOF 4
ENDMDL
MODEL      139
REMARK 921   NORMALIZED FREE ENERGY PREDICTED BY IDOCK:   -4.92 KCAL/MOL
REMARK 922        TOTAL FREE ENERGY PREDICTED BY IDOCK:   -6.51 KCAL/MOL
REMARK 923 INTER-LIGAND FREE ENERGY PREDICTED BY IDOCK:   -5.57 KCAL/MOL
REMARK 924 INTRA-LIGAND FREE ENERGY PREDICTED BY IDOCK:   -0.94 KCAL/MOL
REMARK 927      BINDING AFFINITY PREDICTED BY RF-SCORE:    0.00 PKD
ROOT
HETATM    1  O   UNL     1     -11.884  12.354  62.957  1.00  0.00    -0.303 OA 
HETATM    2  N   UNL     1     -12.485  12.531  64.029  1.00  0.00    -0.438 N  
HETATM    3  C   UNL     1     -11.815  13.352  65.013  1.00  0.00    -0.352 A  
HETATM    4  O   UNL     1     -13.589  12.059  64.322  1.00  0.00    -0.527 OA 
HETATM    5  C   UNL     1     -10.542  13.895  64.931  1.00  0.00    -0.419 A  
HETATM    6  N   UNL     1     -10.392  14.562  66.110  1.00  0.00    -0.287 NA 
HETATM    7  C   UNL     1      -9.276  15.367  66.548  1.00  0.00    -0.292 C  
HETATM    8  C   UNL     1      -9.348  15.747  68.039  1.00  0.00    -0.197 C  
HETATM    9  C   UNL     1     -10.590  15.190  68.763  1.00  0.00    -0.236 C  
HETATM   10  C   UNL     1     -11.555  14.452  66.811  1.00  0.00    -0.385 A  
HETATM   11  N   UNL     1     -12.441  13.719  66.191  1.00  0.00    -0.441 NA 
HETATM   12  O   UNL     1     -11.759  15.081  67.961  1.00  0.00    -0.332 OA 
ENDROOT
BRANCH   8  13
HETATM   13  O   UNL     1      -8.142  15.271  68.657  1.00  0.00    -0.139 OA 
BRANCH  13  14
HETATM   14  C   UNL     1      -7.350  14.408  67.841  1.00  0.00    -0.154 C  
BRANCH  14  15
HETATM   15  C   UNL     1      -7.373  13.037  68.462  1.00  0.00    -0.115 A  
HETATM   16  C   UNL     1      -6.349  12.625  69.316  1.00  0.00    -0.109 A  
HETATM   17  C   UNL     1      -6.370  11.343  69.866  1.00  0.00    -0.141 A  
HETATM   18  C   UNL     1      -7.415  10.454  69.587  1.00  0.00    -0.157 A  
HETATM   19  C   UNL     1      -8.424  12.148  68.189  1.00  0.00    -0.175 A  
HETATM   20  C   UNL     1      -8.436  10.858  68.730  1.00  0.00    -0.150 A  
BRANCH  18  21
HETATM   21  O   UNL     1      -7.280   9.244  70.191  1.00  0.00    -0.061 OA 
HETATM   22  C   UNL     1      -6.439   8.252  69.629  1.00  0.00    -0.037 C  
HETATM   23  F   UNL     1      -6.182   8.433  68.316  1.00  0.00    -0.045 F  
HETATM   24  F   UNL     1      -7.056   7.055  69.762  1.00  0.00    -0.059 F  
HETATM   25  F   UNL     1      -5.273   8.201  70.307  1.00  0.00    -0.023 F  
ENDBRANCH  18  21
ENDBRANCH  14  15
ENDBRANCH  13  14
ENDBRANCH   8  13
TORSDOF 4
ENDMDL
MODEL      140
REMARK 921   NORMALIZED FREE ENERGY PREDICTED BY IDOCK:   -4.91 KCAL/MOL
REMARK 922        TOTAL FREE ENERGY PREDICTED BY IDOCK:   -6.51 KCAL/MOL
REMARK 923 INTER-LIGAND FREE ENERGY PREDICTED BY IDOCK:   -5.72 KCAL/MOL
REMARK 924 INTRA-LIGAND FREE ENERGY PREDICTED BY IDOCK:   -0.79 KCAL/MOL
REMARK 927      BINDING AFFINITY PREDICTED BY RF-SCORE:    0.00 PKD
ROOT
HETATM    1  O   UNL     1     -11.271  16.088  67.283  1.00  0.00    -0.196 OA 
HETATM    2  N   UNL     1     -10.401  16.004  68.164  1.00  0.00    -0.253 N  
HETATM    3  C   UNL     1      -9.480  14.894  68.055  1.00  0.00    -0.198 A  
HETATM    4  O   UNL     1     -10.269  16.776  69.121  1.00  0.00    -0.284 OA 
HETATM    5  C   UNL     1      -9.508  13.865  67.126  1.00  0.00    -0.246 A  
HETATM    6  N   UNL     1      -8.442  13.087  67.465  1.00  0.00    -0.178 NA 
HETATM    7  C   UNL     1      -7.952  11.901  66.803  1.00  0.00    -0.087 C  
HETATM    8  C   UNL     1      -6.889  11.142  67.620  1.00  0.00    -0.076 C  
HETATM    9  C   UNL     1      -6.567  11.795  68.979  1.00  0.00    -0.094 C  
HETATM   10  C   UNL     1      -7.799  13.679  68.509  1.00  0.00    -0.131 A  
HETATM   11  N   UNL     1      -8.397  14.771  68.907  1.00  0.00    -0.167 NA 
HETATM   12  O   UNL     1      -6.659  13.214  69.004  1.00  0.00    -0.096 OA 
ENDROOT
BRANCH   8  13
HETATM   13  O   UNL     1      -7.370   9.801  67.800  1.00  0.00    -0.088 OA 
BRANCH  13  14
HETATM   14  C   UNL     1      -8.694   9.569  67.318  1.00  0.00    -0.128 C  
BRANCH  14  15
HETATM   15  C   UNL     1      -9.642   9.727  68.476  1.00  0.00    -0.155 A  
HETATM   16  C   UNL     1      -9.332   9.189  69.727  1.00  0.00    -0.190 A  
HETATM   17  C   UNL     1     -10.230   9.322  70.786  1.00  0.00    -0.353 A  
HETATM   18  C   UNL     1     -11.444  10.001  70.624  1.00  0.00    -0.345 A  
HETATM   19  C   UNL     1     -10.854  10.414  68.317  1.00  0.00    -0.299 A  
HETATM   20  C   UNL     1     -11.760  10.534  69.377  1.00  0.00    -0.295 A  
BRANCH  18  21
HETATM   21  O   UNL     1     -12.208  10.032  71.748  1.00  0.00    -0.384 OA 
HETATM   22  C   UNL     1     -12.935   8.884  72.152  1.00  0.00    -0.416 C  
HETATM   23  F   UNL     1     -13.151   7.997  71.158  1.00  0.00    -0.293 F  
HETATM   24  F   UNL     1     -14.142   9.291  72.606  1.00  0.00    -0.473 F  
HETATM   25  F   UNL     1     -12.291   8.267  73.166  1.00  0.00    -0.292 F  
ENDBRANCH  18  21
ENDBRANCH  14  15
ENDBRANCH  13  14
ENDBRANCH   8  13
TORSDOF 4
ENDMDL
MODEL      141
REMARK 921   NORMALIZED FREE ENERGY PREDICTED BY IDOCK:   -4.86 KCAL/MOL
REMARK 922        TOTAL FREE ENERGY PREDICTED BY IDOCK:   -6.44 KCAL/MOL
REMARK 923 INTER-LIGAND FREE ENERGY PREDICTED BY IDOCK:   -5.64 KCAL/MOL
REMARK 924 INTRA-LIGAND FREE ENERGY PREDICTED BY IDOCK:   -0.79 KCAL/MOL
REMARK 927      BINDING AFFINITY PREDICTED BY RF-SCORE:    0.00 PKD
ROOT
HETATM    1  O   UNL     1      -8.434   8.806  63.018  1.00  0.00    -0.191 OA 
HETATM    2  N   UNL     1      -7.308   9.191  63.372  1.00  0.00    -0.095 N  
HETATM    3  C   UNL     1      -7.233   9.881  64.640  1.00  0.00    -0.137 A  
HETATM    4  O   UNL     1      -6.262   9.043  62.729  1.00  0.00    -0.094 OA 
HETATM    5  C   UNL     1      -8.287  10.236  65.469  1.00  0.00    -0.164 A  
HETATM    6  N   UNL     1      -7.684  10.867  66.515  1.00  0.00    -0.144 NA 
HETATM    7  C   UNL     1      -8.293  11.400  67.711  1.00  0.00    -0.127 C  
HETATM    8  C   UNL     1      -7.336  12.272  68.546  1.00  0.00    -0.105 C  
HETATM    9  C   UNL     1      -5.925  12.403  67.937  1.00  0.00    -0.093 C  
HETATM   10  C   UNL     1      -6.337  10.821  66.320  1.00  0.00    -0.129 A  
HETATM   11  N   UNL     1      -6.017  10.243  65.192  1.00  0.00    -0.119 NA 
HETATM   12  O   UNL     1      -5.468  11.264  67.219  1.00  0.00    -0.043 OA 
ENDROOT
BRANCH   8  13
HETATM   13  O   UNL     1      -7.952  13.561  68.689  1.00  0.00    -0.138 OA 
BRANCH  13  14
HETATM   14  C   UNL     1      -7.039  14.655  68.776  1.00  0.00    -0.113 C  
BRANCH  14  15
HETATM   15  C   UNL     1      -7.606  15.794  67.972  1.00  0.00    -0.134 A  
HETATM   16  C   UNL     1      -7.310  17.117  68.306  1.00  0.00    -0.214 A  
HETATM   17  C   UNL     1      -7.860  18.164  67.567  1.00  0.00    -0.223 A  
HETATM   18  C   UNL     1      -8.705  17.915  66.478  1.00  0.00    -0.256 A  
HETATM   19  C   UNL     1      -8.446  15.545  66.876  1.00  0.00    -0.289 A  
HETATM   20  C   UNL     1      -9.008  16.597  66.145  1.00  0.00    -0.321 A  
BRANCH  18  21
HETATM   21  O   UNL     1      -9.165  19.042  65.872  1.00  0.00    -0.450 OA 
HETATM   22  C   UNL     1     -10.319  19.700  66.367  1.00  0.00    -0.504 C  
HETATM   23  F   UNL     1     -11.112  18.916  67.127  1.00  0.00    -0.483 F  
HETATM   24  F   UNL     1     -11.050  20.115  65.307  1.00  0.00    -0.482 F  
HETATM   25  F   UNL     1      -9.956  20.789  67.078  1.00  0.00    -0.598 F  
ENDBRANCH  18  21
ENDBRANCH  14  15
ENDBRANCH  13  14
ENDBRANCH   8  13
TORSDOF 4
ENDMDL
MODEL      142
REMARK 921   NORMALIZED FREE ENERGY PREDICTED BY IDOCK:   -4.86 KCAL/MOL
REMARK 922        TOTAL FREE ENERGY PREDICTED BY IDOCK:   -6.44 KCAL/MOL
REMARK 923 INTER-LIGAND FREE ENERGY PREDICTED BY IDOCK:   -5.77 KCAL/MOL
REMARK 924 INTRA-LIGAND FREE ENERGY PREDICTED BY IDOCK:   -0.67 KCAL/MOL
REMARK 927      BINDING AFFINITY PREDICTED BY RF-SCORE:    0.00 PKD
ROOT
HETATM    1  O   UNL     1      -9.909   3.819  65.969  1.00  0.00    -0.164 OA 
HETATM    2  N   UNL     1      -9.236   4.791  65.590  1.00  0.00    -0.147 N  
HETATM    3  C   UNL     1      -9.359   6.002  66.371  1.00  0.00    -0.154 A  
HETATM    4  O   UNL     1      -8.491   4.810  64.604  1.00  0.00    -0.126 OA 
HETATM    5  C   UNL     1     -10.203   6.227  67.448  1.00  0.00    -0.180 A  
HETATM    6  N   UNL     1      -9.937   7.513  67.810  1.00  0.00    -0.161 NA 
HETATM    7  C   UNL     1     -10.488   8.265  68.914  1.00  0.00    -0.191 C  
HETATM    8  C   UNL     1     -10.151   9.767  68.856  1.00  0.00    -0.183 C  
HETATM    9  C   UNL     1      -9.302  10.167  67.633  1.00  0.00    -0.148 C  
HETATM   10  C   UNL     1      -8.940   7.983  67.011  1.00  0.00    -0.138 A  
HETATM   11  N   UNL     1      -8.565   7.106  66.117  1.00  0.00    -0.141 NA 
HETATM   12  O   UNL     1      -8.386   9.176  67.183  1.00  0.00    -0.115 OA 
ENDROOT
BRANCH   8  13
HETATM   13  O   UNL     1     -11.397  10.482  68.867  1.00  0.00    -0.251 OA 
BRANCH  13  14
HETATM   14  C   UNL     1     -11.734  11.119  67.635  1.00  0.00    -0.083 C  
BRANCH  14  15
HETATM   15  C   UNL     1     -11.683  12.607  67.856  1.00  0.00    -0.412 A  
HETATM   16  C   UNL     1     -11.851  13.491  66.788  1.00  0.00    -0.450 A  
HETATM   17  C   UNL     1     -11.779  14.867  67.002  1.00  0.00    -0.274 A  
HETATM   18  C   UNL     1     -11.550  15.389  68.281  1.00  0.00    -0.348 A  
HETATM   19  C   UNL     1     -11.462  13.130  69.139  1.00  0.00    -0.358 A  
HETATM   20  C   UNL     1     -11.376  14.511  69.349  1.00  0.00    -0.314 A  
BRANCH  18  21
HETATM   21  O   UNL     1     -11.497  16.747  68.317  1.00  0.00    -0.184 OA 
HETATM   22  C   UNL     1     -10.304  17.426  67.964  1.00  0.00    -0.362 C  
HETATM   23  F   UNL     1      -9.196  16.660  68.040  1.00  0.00    -0.210 F  
HETATM   24  F   UNL     1     -10.143  18.462  68.819  1.00  0.00    -0.344 F  
HETATM   25  F   UNL     1     -10.414  17.927  66.715  1.00  0.00    -0.326 F  
ENDBRANCH  18  21
ENDBRANCH  14  15
ENDBRANCH  13  14
ENDBRANCH   8  13
TORSDOF 4
ENDMDL
MODEL      143
REMARK 921   NORMALIZED FREE ENERGY PREDICTED BY IDOCK:   -4.85 KCAL/MOL
REMARK 922        TOTAL FREE ENERGY PREDICTED BY IDOCK:   -6.43 KCAL/MOL
REMARK 923 INTER-LIGAND FREE ENERGY PREDICTED BY IDOCK:   -7.38 KCAL/MOL
REMARK 924 INTRA-LIGAND FREE ENERGY PREDICTED BY IDOCK:    0.95 KCAL/MOL
REMARK 927      BINDING AFFINITY PREDICTED BY RF-SCORE:    0.00 PKD
ROOT
HETATM    1  O   UNL     1      -6.373  20.237  68.525  1.00  0.00    -0.283 OA 
HETATM    2  N   UNL     1      -7.018  20.328  67.468  1.00  0.00    -0.267 N  
HETATM    3  C   UNL     1      -7.973  19.274  67.205  1.00  0.00    -0.264 A  
HETATM    4  O   UNL     1      -6.902  21.229  66.629  1.00  0.00    -0.314 OA 
HETATM    5  C   UNL     1      -8.192  18.130  67.957  1.00  0.00    -0.260 A  
HETATM    6  N   UNL     1      -9.174  17.473  67.278  1.00  0.00    -0.237 NA 
HETATM    7  C   UNL     1      -9.840  16.242  67.634  1.00  0.00    -0.238 C  
HETATM    8  C   UNL     1     -10.708  15.669  66.498  1.00  0.00    -0.293 C  
HETATM    9  C   UNL     1     -10.688  16.519  65.211  1.00  0.00    -0.254 C  
HETATM   10  C   UNL     1      -9.541  18.241  66.214  1.00  0.00    -0.251 A  
HETATM   11  N   UNL     1      -8.833  19.336  66.124  1.00  0.00    -0.437 NA 
HETATM   12  O   UNL     1     -10.549  17.920  65.414  1.00  0.00    -0.656 OA 
ENDROOT
BRANCH   8  13
HETATM   13  O   UNL     1     -10.240  14.337  66.236  1.00  0.00    -0.283 OA 
BRANCH  13  14
HETATM   14  C   UNL     1     -11.201  13.307  66.468  1.00  0.00    -0.304 C  
BRANCH  14  15
HETATM   15  C   UNL     1     -11.583  13.351  67.923  1.00  0.00    -0.374 A  
HETATM   16  C   UNL     1     -11.205  12.324  68.790  1.00  0.00    -0.312 A  
HETATM   17  C   UNL     1     -11.585  12.365  70.131  1.00  0.00    -0.159 A  
HETATM   18  C   UNL     1     -12.338  13.432  70.637  1.00  0.00    -0.348 A  
HETATM   19  C   UNL     1     -12.330  14.424  68.432  1.00  0.00    -0.028 A  
HETATM   20  C   UNL     1     -12.723  14.457  69.775  1.00  0.00    -0.025 A  
BRANCH  18  21
HETATM   21  O   UNL     1     -12.635  13.316  71.959  1.00  0.00    -0.134 OA 
HETATM   22  C   UNL     1     -13.056  14.447  72.700  1.00  0.00    -0.476 C  
HETATM   23  F   UNL     1     -12.713  15.626  72.141  1.00  0.00    -0.370 F  
HETATM   24  F   UNL     1     -12.474  14.389  73.920  1.00  0.00    -0.511 F  
HETATM   25  F   UNL     1     -14.395  14.410  72.872  1.00  0.00    -0.305 F  
ENDBRANCH  18  21
ENDBRANCH  14  15
ENDBRANCH  13  14
ENDBRANCH   8  13
TORSDOF 4
ENDMDL
MODEL      144
REMARK 921   NORMALIZED FREE ENERGY PREDICTED BY IDOCK:   -4.83 KCAL/MOL
REMARK 922        TOTAL FREE ENERGY PREDICTED BY IDOCK:   -6.40 KCAL/MOL
REMARK 923 INTER-LIGAND FREE ENERGY PREDICTED BY IDOCK:   -5.68 KCAL/MOL
REMARK 924 INTRA-LIGAND FREE ENERGY PREDICTED BY IDOCK:   -0.73 KCAL/MOL
REMARK 927      BINDING AFFINITY PREDICTED BY RF-SCORE:    0.00 PKD
ROOT
HETATM    1  O   UNL     1     -11.127   5.357  73.440  1.00  0.00    -0.297 OA 
HETATM    2  N   UNL     1     -10.538   4.652  72.604  1.00  0.00    -0.201 N  
HETATM    3  C   UNL     1      -9.682   5.345  71.667  1.00  0.00    -0.157 A  
HETATM    4  O   UNL     1     -10.634   3.424  72.503  1.00  0.00    -0.112 OA 
HETATM    5  C   UNL     1      -9.507   6.715  71.541  1.00  0.00    -0.156 A  
HETATM    6  N   UNL     1      -8.617   6.840  70.516  1.00  0.00    -0.141 NA 
HETATM    7  C   UNL     1      -8.026   8.045  69.985  1.00  0.00    -0.106 C  
HETATM    8  C   UNL     1      -7.270   7.821  68.662  1.00  0.00    -0.085 C  
HETATM    9  C   UNL     1      -7.300   6.361  68.169  1.00  0.00    -0.089 C  
HETATM   10  C   UNL     1      -8.255   5.590  70.113  1.00  0.00    -0.102 A  
HETATM   11  N   UNL     1      -8.883   4.654  70.775  1.00  0.00    -0.116 NA 
HETATM   12  O   UNL     1      -7.321   5.377  69.196  1.00  0.00    -0.063 OA 
ENDROOT
BRANCH   8  13
HETATM   13  O   UNL     1      -7.851   8.701  67.687  1.00  0.00    -0.101 OA 
BRANCH  13  14
HETATM   14  C   UNL     1      -7.918  10.072  68.080  1.00  0.00    -0.101 C  
BRANCH  14  15
HETATM   15  C   UNL     1      -9.085  10.700  67.367  1.00  0.00    -0.146 A  
HETATM   16  C   UNL     1     -10.234  11.068  68.069  1.00  0.00    -0.201 A  
HETATM   17  C   UNL     1     -11.318  11.628  67.393  1.00  0.00    -0.367 A  
HETATM   18  C   UNL     1     -11.274  11.842  66.010  1.00  0.00    -0.324 A  
HETATM   19  C   UNL     1      -9.038  10.923  65.982  1.00  0.00    -0.208 A  
HETATM   20  C   UNL     1     -10.132  11.471  65.303  1.00  0.00    -0.314 A  
BRANCH  18  21
HETATM   21  O   UNL     1     -12.413  12.384  65.503  1.00  0.00    -0.643 OA 
HETATM   22  C   UNL     1     -12.443  13.743  65.102  1.00  0.00    -0.450 C  
HETATM   23  F   UNL     1     -11.472  14.498  65.657  1.00  0.00    -0.323 F  
HETATM   24  F   UNL     1     -13.632  14.265  65.481  1.00  0.00    -0.386 F  
HETATM   25  F   UNL     1     -12.357  13.826  63.757  1.00  0.00    -0.488 F  
ENDBRANCH  18  21
ENDBRANCH  14  15
ENDBRANCH  13  14
ENDBRANCH   8  13
TORSDOF 4
ENDMDL
MODEL      145
REMARK 921   NORMALIZED FREE ENERGY PREDICTED BY IDOCK:   -4.78 KCAL/MOL
REMARK 922        TOTAL FREE ENERGY PREDICTED BY IDOCK:   -6.34 KCAL/MOL
REMARK 923 INTER-LIGAND FREE ENERGY PREDICTED BY IDOCK:   -6.29 KCAL/MOL
REMARK 924 INTRA-LIGAND FREE ENERGY PREDICTED BY IDOCK:   -0.05 KCAL/MOL
REMARK 927      BINDING AFFINITY PREDICTED BY RF-SCORE:    0.00 PKD
ROOT
HETATM    1  O   UNL     1     -10.690  19.581  67.930  1.00  0.00    -0.416 OA 
HETATM    2  N   UNL     1      -9.560  19.087  68.071  1.00  0.00    -0.314 N  
HETATM    3  C   UNL     1      -9.457  17.656  67.893  1.00  0.00    -0.276 A  
HETATM    4  O   UNL     1      -8.533  19.712  68.359  1.00  0.00    -0.340 OA 
HETATM    5  C   UNL     1     -10.489  16.759  67.664  1.00  0.00    -0.328 A  
HETATM    6  N   UNL     1      -9.864  15.551  67.584  1.00  0.00    -0.213 NA 
HETATM    7  C   UNL     1     -10.444  14.259  67.300  1.00  0.00    -0.269 C  
HETATM    8  C   UNL     1      -9.475  13.088  67.551  1.00  0.00    -0.198 C  
HETATM    9  C   UNL     1      -8.086  13.528  68.057  1.00  0.00    -0.156 C  
HETATM   10  C   UNL     1      -8.523  15.758  67.704  1.00  0.00    -0.160 A  
HETATM   11  N   UNL     1      -8.230  17.016  67.903  1.00  0.00    -0.196 NA 
HETATM   12  O   UNL     1      -7.634  14.784  67.566  1.00  0.00    -0.163 OA 
ENDROOT
BRANCH   8  13
HETATM   13  O   UNL     1     -10.107  12.209  68.493  1.00  0.00    -0.209 OA 
BRANCH  13  14
HETATM   14  C   UNL     1     -10.838  11.130  67.911  1.00  0.00    -0.235 C  
BRANCH  14  15
HETATM   15  C   UNL     1     -10.699   9.936  68.816  1.00  0.00    -0.247 A  
HETATM   16  C   UNL     1     -10.652   8.644  68.288  1.00  0.00    -0.181 A  
HETATM   17  C   UNL     1     -10.547   7.544  69.139  1.00  0.00    -0.204 A  
HETATM   18  C   UNL     1     -10.476   7.709  70.528  1.00  0.00    -0.220 A  
HETATM   19  C   UNL     1     -10.619  10.101  70.207  1.00  0.00    -0.324 A  
HETATM   20  C   UNL     1     -10.529   8.995  71.060  1.00  0.00    -0.339 A  
BRANCH  18  21
HETATM   21  O   UNL     1     -10.388   6.539  71.215  1.00  0.00    -0.201 OA 
HETATM   22  C   UNL     1     -11.068   6.380  72.448  1.00  0.00    -0.268 C  
HETATM   23  F   UNL     1     -11.391   7.544  73.048  1.00  0.00    -0.353 F  
HETATM   24  F   UNL     1     -10.256   5.699  73.288  1.00  0.00    -0.173 F  
HETATM   25  F   UNL     1     -12.188   5.649  72.262  1.00  0.00    -0.306 F  
ENDBRANCH  18  21
ENDBRANCH  14  15
ENDBRANCH  13  14
ENDBRANCH   8  13
TORSDOF 4
ENDMDL
MODEL      146
REMARK 921   NORMALIZED FREE ENERGY PREDICTED BY IDOCK:   -4.77 KCAL/MOL
REMARK 922        TOTAL FREE ENERGY PREDICTED BY IDOCK:   -6.32 KCAL/MOL
REMARK 923 INTER-LIGAND FREE ENERGY PREDICTED BY IDOCK:   -5.56 KCAL/MOL
REMARK 924 INTRA-LIGAND FREE ENERGY PREDICTED BY IDOCK:   -0.76 KCAL/MOL
REMARK 927      BINDING AFFINITY PREDICTED BY RF-SCORE:    0.00 PKD
ROOT
HETATM    1  O   UNL     1     -10.766  17.739  65.236  1.00  0.00    -0.649 OA 
HETATM    2  N   UNL     1     -10.404  18.135  66.355  1.00  0.00    -0.394 N  
HETATM    3  C   UNL     1      -9.381  17.354  67.014  1.00  0.00    -0.260 A  
HETATM    4  O   UNL     1     -10.851  19.124  66.948  1.00  0.00    -0.439 OA 
HETATM    5  C   UNL     1      -8.816  16.166  66.576  1.00  0.00    -0.296 A  
HETATM    6  N   UNL     1      -7.925  15.845  67.556  1.00  0.00    -0.135 NA 
HETATM    7  C   UNL     1      -7.008  14.731  67.603  1.00  0.00    -0.182 C  
HETATM    8  C   UNL     1      -6.345  14.545  68.981  1.00  0.00    -0.095 C  
HETATM    9  C   UNL     1      -6.795  15.579  70.032  1.00  0.00    -0.020 C  
HETATM   10  C   UNL     1      -7.939  16.840  68.486  1.00  0.00    -0.235 A  
HETATM   11  N   UNL     1      -8.813  17.770  68.205  1.00  0.00    -0.271 NA 
HETATM   12  O   UNL     1      -7.104  16.868  69.517  1.00  0.00    -0.192 OA 
ENDROOT
BRANCH   8  13
HETATM   13  O   UNL     1      -6.643  13.210  69.419  1.00  0.00    -0.108 OA 
BRANCH  13  14
HETATM   14  C   UNL     1      -6.795  12.254  68.369  1.00  0.00    -0.075 C  
BRANCH  14  15
HETATM   15  C   UNL     1      -7.667  11.140  68.882  1.00  0.00    -0.137 A  
HETATM   16  C   UNL     1      -8.947  10.941  68.360  1.00  0.00    -0.154 A  
HETATM   17  C   UNL     1      -9.755   9.920  68.860  1.00  0.00    -0.176 A  
HETATM   18  C   UNL     1      -9.301   9.072  69.878  1.00  0.00    -0.173 A  
HETATM   19  C   UNL     1      -7.210  10.285  69.896  1.00  0.00    -0.162 A  
HETATM   20  C   UNL     1      -8.028   9.270  70.406  1.00  0.00    -0.171 A  
BRANCH  18  21
HETATM   21  O   UNL     1     -10.213   8.138  70.259  1.00  0.00    -0.195 OA 
HETATM   22  C   UNL     1     -11.216   8.461  71.206  1.00  0.00    -0.259 C  
HETATM   23  F   UNL     1     -10.922   9.533  71.970  1.00  0.00    -0.406 F  
HETATM   24  F   UNL     1     -11.370   7.401  72.031  1.00  0.00    -0.246 F  
HETATM   25  F   UNL     1     -12.391   8.675  70.573  1.00  0.00    -0.131 F  
ENDBRANCH  18  21
ENDBRANCH  14  15
ENDBRANCH  13  14
ENDBRANCH   8  13
TORSDOF 4
ENDMDL
MODEL      147
REMARK 921   NORMALIZED FREE ENERGY PREDICTED BY IDOCK:   -4.76 KCAL/MOL
REMARK 922        TOTAL FREE ENERGY PREDICTED BY IDOCK:   -6.32 KCAL/MOL
REMARK 923 INTER-LIGAND FREE ENERGY PREDICTED BY IDOCK:   -5.70 KCAL/MOL
REMARK 924 INTRA-LIGAND FREE ENERGY PREDICTED BY IDOCK:   -0.62 KCAL/MOL
REMARK 927      BINDING AFFINITY PREDICTED BY RF-SCORE:    0.00 PKD
ROOT
HETATM    1  O   UNL     1     -11.373  16.505  68.212  1.00  0.00    -0.331 OA 
HETATM    2  N   UNL     1     -10.519  16.028  67.449  1.00  0.00    -0.303 N  
HETATM    3  C   UNL     1     -10.544  14.593  67.272  1.00  0.00    -0.284 A  
HETATM    4  O   UNL     1      -9.652  16.672  66.846  1.00  0.00    -0.235 OA 
HETATM    5  C   UNL     1     -11.360  13.679  67.920  1.00  0.00    -0.295 A  
HETATM    6  N   UNL     1     -10.979  12.476  67.406  1.00  0.00    -0.250 NA 
HETATM    7  C   UNL     1     -11.532  11.170  67.679  1.00  0.00    -0.250 C  
HETATM    8  C   UNL     1     -10.678  10.018  67.117  1.00  0.00    -0.212 C  
HETATM    9  C   UNL     1      -9.406  10.487  66.383  1.00  0.00    -0.168 C  
HETATM   10  C   UNL     1     -10.025  12.700  66.461  1.00  0.00    -0.251 A  
HETATM   11  N   UNL     1      -9.722  13.967  66.352  1.00  0.00    -0.291 NA 
HETATM   12  O   UNL     1      -9.525  11.732  65.705  1.00  0.00    -0.231 OA 
ENDROOT
BRANCH   8  13
HETATM   13  O   UNL     1     -10.344   9.160  68.220  1.00  0.00    -0.199 OA 
BRANCH  13  14
HETATM   14  C   UNL     1      -9.477   8.074  67.894  1.00  0.00    -0.145 C  
BRANCH  14  15
HETATM   15  C   UNL     1      -9.685   6.993  68.920  1.00  0.00    -0.144 A  
HETATM   16  C   UNL     1     -10.908   6.866  69.582  1.00  0.00    -0.294 A  
HETATM   17  C   UNL     1     -11.081   5.874  70.547  1.00  0.00    -0.347 A  
HETATM   18  C   UNL     1     -10.046   4.986  70.864  1.00  0.00    -0.232 A  
HETATM   19  C   UNL     1      -8.652   6.097  69.231  1.00  0.00    -0.119 A  
HETATM   20  C   UNL     1      -8.822   5.112  70.211  1.00  0.00    -0.144 A  
BRANCH  18  21
HETATM   21  O   UNL     1     -10.372   4.089  71.832  1.00  0.00    -0.133 OA 
HETATM   22  C   UNL     1     -10.431   4.490  73.190  1.00  0.00    -0.195 C  
HETATM   23  F   UNL     1      -9.740   5.618  73.457  1.00  0.00    -0.146 F  
HETATM   24  F   UNL     1      -9.901   3.499  73.943  1.00  0.00    -0.118 F  
HETATM   25  F   UNL     1     -11.718   4.659  73.563  1.00  0.00    -0.379 F  
ENDBRANCH  18  21
ENDBRANCH  14  15
ENDBRANCH  13  14
ENDBRANCH   8  13
TORSDOF 4
ENDMDL
MODEL      148
REMARK 921   NORMALIZED FREE ENERGY PREDICTED BY IDOCK:   -4.71 KCAL/MOL
REMARK 922        TOTAL FREE ENERGY PREDICTED BY IDOCK:   -6.26 KCAL/MOL
REMARK 923 INTER-LIGAND FREE ENERGY PREDICTED BY IDOCK:   -5.52 KCAL/MOL
REMARK 924 INTRA-LIGAND FREE ENERGY PREDICTED BY IDOCK:   -0.74 KCAL/MOL
REMARK 927      BINDING AFFINITY PREDICTED BY RF-SCORE:    0.00 PKD
ROOT
HETATM    1  O   UNL     1      -6.106  11.925  66.453  1.00  0.00    -0.134 OA 
HETATM    2  N   UNL     1      -6.115  11.441  67.596  1.00  0.00    -0.050 N  
HETATM    3  C   UNL     1      -7.390  10.967  68.085  1.00  0.00    -0.089 A  
HETATM    4  O   UNL     1      -5.135  11.346  68.344  1.00  0.00    -0.040 OA 
HETATM    5  C   UNL     1      -8.622  11.065  67.456  1.00  0.00    -0.128 A  
HETATM    6  N   UNL     1      -9.487  10.481  68.333  1.00  0.00    -0.152 NA 
HETATM    7  C   UNL     1     -10.903  10.250  68.174  1.00  0.00    -0.265 C  
HETATM    8  C   UNL     1     -11.597   9.806  69.476  1.00  0.00     0.070 C  
HETATM    9  C   UNL     1     -10.644   9.701  70.684  1.00  0.00    -0.319 C  
HETATM   10  C   UNL     1      -8.768  10.017  69.393  1.00  0.00    -0.186 A  
HETATM   11  N   UNL     1      -7.496  10.297  69.291  1.00  0.00    -0.099 NA 
HETATM   12  O   UNL     1      -9.314   9.307  70.371  1.00  0.00    -0.211 OA 
ENDROOT
BRANCH   8  13
HETATM   13  O   UNL     1     -12.651  10.745  69.737  1.00  0.00    -0.264 OA 
BRANCH  13  14
HETATM   14  C   UNL     1     -12.382  11.671  70.790  1.00  0.00    -0.358 C  
BRANCH  14  15
HETATM   15  C   UNL     1     -12.267  13.042  70.181  1.00  0.00    -0.342 A  
HETATM   16  C   UNL     1     -11.955  13.197  68.829  1.00  0.00    -0.316 A  
HETATM   17  C   UNL     1     -11.828  14.474  68.282  1.00  0.00    -0.347 A  
HETATM   18  C   UNL     1     -12.020  15.618  69.066  1.00  0.00    -0.304 A  
HETATM   19  C   UNL     1     -12.467  14.189  70.964  1.00  0.00    -0.438 A  
HETATM   20  C   UNL     1     -12.325  15.469  70.417  1.00  0.00    -0.451 A  
BRANCH  18  21
HETATM   21  O   UNL     1     -11.849  16.783  68.385  1.00  0.00     0.173 OA 
HETATM   22  C   UNL     1     -10.552  17.327  68.212  1.00  0.00    -0.383 C  
HETATM   23  F   UNL     1      -9.646  16.875  69.103  1.00  0.00    -0.254 F  
HETATM   24  F   UNL     1     -10.638  18.669  68.362  1.00  0.00    -0.367 F  
HETATM   25  F   UNL     1     -10.112  17.072  66.961  1.00  0.00    -0.263 F  
ENDBRANCH  18  21
ENDBRANCH  14  15
ENDBRANCH  13  14
ENDBRANCH   8  13
TORSDOF 4
ENDMDL
MODEL      149
REMARK 921   NORMALIZED FREE ENERGY PREDICTED BY IDOCK:   -4.70 KCAL/MOL
REMARK 922        TOTAL FREE ENERGY PREDICTED BY IDOCK:   -6.25 KCAL/MOL
REMARK 923 INTER-LIGAND FREE ENERGY PREDICTED BY IDOCK:   -5.71 KCAL/MOL
REMARK 924 INTRA-LIGAND FREE ENERGY PREDICTED BY IDOCK:   -0.54 KCAL/MOL
REMARK 927      BINDING AFFINITY PREDICTED BY RF-SCORE:    0.00 PKD
ROOT
HETATM    1  O   UNL     1     -11.944  11.601  70.459  1.00  0.00    -0.360 OA 
HETATM    2  N   UNL     1     -12.386  10.795  71.293  1.00  0.00    -0.370 N  
HETATM    3  C   UNL     1     -11.538   9.668  71.612  1.00  0.00    -0.336 A  
HETATM    4  O   UNL     1     -13.484  10.872  71.856  1.00  0.00    -0.345 OA 
HETATM    5  C   UNL     1     -10.322   9.340  71.032  1.00  0.00    -0.318 A  
HETATM    6  N   UNL     1      -9.949   8.198  71.675  1.00  0.00    -0.180 NA 
HETATM    7  C   UNL     1      -8.731   7.438  71.517  1.00  0.00    -0.117 C  
HETATM    8  C   UNL     1      -8.774   6.067  72.218  1.00  0.00    -0.131 C  
HETATM    9  C   UNL     1     -10.105   5.780  72.942  1.00  0.00    -0.184 C  
HETATM   10  C   UNL     1     -10.885   7.919  72.624  1.00  0.00    -0.364 A  
HETATM   11  N   UNL     1     -11.871   8.777  72.616  1.00  0.00    -0.198 NA 
HETATM   12  O   UNL     1     -10.753   6.922  73.488  1.00  0.00    -0.325 OA 
ENDROOT
BRANCH   8  13
HETATM   13  O   UNL     1      -8.512   5.070  71.218  1.00  0.00    -0.116 OA 
BRANCH  13  14
HETATM   14  C   UNL     1      -9.619   4.222  70.912  1.00  0.00    -0.183 C  
BRANCH  14  15
HETATM   15  C   UNL     1      -9.618   3.979  69.427  1.00  0.00    -0.257 A  
HETATM   16  C   UNL     1      -9.431   2.692  68.917  1.00  0.00    -0.166 A  
HETATM   17  C   UNL     1      -9.410   2.484  67.538  1.00  0.00    -0.172 A  
HETATM   18  C   UNL     1      -9.585   3.547  66.643  1.00  0.00    -0.106 A  
HETATM   19  C   UNL     1      -9.802   5.042  68.530  1.00  0.00    -0.216 A  
HETATM   20  C   UNL     1      -9.765   4.833  67.147  1.00  0.00    -0.207 A  
BRANCH  18  21
HETATM   21  O   UNL     1      -9.525   3.178  65.336  1.00  0.00    -0.152 OA 
HETATM   22  C   UNL     1     -10.345   3.818  64.373  1.00  0.00    -0.227 C  
HETATM   23  F   UNL     1     -11.423   4.438  64.898  1.00  0.00    -0.354 F  
HETATM   24  F   UNL     1     -10.794   2.876  63.513  1.00  0.00    -0.206 F  
HETATM   25  F   UNL     1      -9.615   4.713  63.673  1.00  0.00    -0.121 F  
ENDBRANCH  18  21
ENDBRANCH  14  15
ENDBRANCH  13  14
ENDBRANCH   8  13
TORSDOF 4
ENDMDL
MODEL      150
REMARK 921   NORMALIZED FREE ENERGY PREDICTED BY IDOCK:   -4.68 KCAL/MOL
REMARK 922        TOTAL FREE ENERGY PREDICTED BY IDOCK:   -6.22 KCAL/MOL
REMARK 923 INTER-LIGAND FREE ENERGY PREDICTED BY IDOCK:   -5.52 KCAL/MOL
REMARK 924 INTRA-LIGAND FREE ENERGY PREDICTED BY IDOCK:   -0.70 KCAL/MOL
REMARK 927      BINDING AFFINITY PREDICTED BY RF-SCORE:    0.00 PKD
ROOT
HETATM    1  O   UNL     1     -11.880  16.045  63.456  1.00  0.00    -0.489 OA 
HETATM    2  N   UNL     1     -12.077  14.929  63.964  1.00  0.00    -0.259 N  
HETATM    3  C   UNL     1     -11.869  14.827  65.392  1.00  0.00    -0.249 A  
HETATM    4  O   UNL     1     -12.419  13.911  63.353  1.00  0.00    -0.833 OA 
HETATM    5  C   UNL     1     -11.395  15.810  66.246  1.00  0.00     0.146 A  
HETATM    6  N   UNL     1     -11.377  15.205  67.467  1.00  0.00    -0.333 NA 
HETATM    7  C   UNL     1     -11.024  15.776  68.745  1.00  0.00    -0.291 C  
HETATM    8  C   UNL     1     -10.868  14.725  69.860  1.00  0.00    -0.159 C  
HETATM    9  C   UNL     1     -11.116  13.278  69.389  1.00  0.00    -0.090 C  
HETATM   10  C   UNL     1     -11.875  13.945  67.324  1.00  0.00    -0.407 A  
HETATM   11  N   UNL     1     -12.177  13.668  66.083  1.00  0.00    -0.438 NA 
HETATM   12  O   UNL     1     -12.082  13.136  68.354  1.00  0.00    -0.318 OA 
ENDROOT
BRANCH   8  13
HETATM   13  O   UNL     1      -9.544  14.867  70.396  1.00  0.00     0.379 OA 
BRANCH  13  14
HETATM   14  C   UNL     1      -8.497  14.413  69.538  1.00  0.00     0.397 C  
BRANCH  14  15
HETATM   15  C   UNL     1      -7.971  15.604  68.782  1.00  0.00    -0.172 A  
HETATM   16  C   UNL     1      -7.645  16.785  69.452  1.00  0.00     0.009 A  
HETATM   17  C   UNL     1      -7.180  17.888  68.737  1.00  0.00    -0.275 A  
HETATM   18  C   UNL     1      -7.021  17.834  67.347  1.00  0.00    -0.180 A  
HETATM   19  C   UNL     1      -7.804  15.548  67.391  1.00  0.00    -0.213 A  
HETATM   20  C   UNL     1      -7.352  16.661  66.673  1.00  0.00    -0.290 A  
BRANCH  18  21
HETATM   21  O   UNL     1      -6.571  18.996  66.802  1.00  0.00    -0.188 OA 
HETATM   22  C   UNL     1      -7.477  20.040  66.492  1.00  0.00    -0.276 C  
HETATM   23  F   UNL     1      -8.757  19.632  66.361  1.00  0.00    -0.309 F  
HETATM   24  F   UNL     1      -7.100  20.585  65.312  1.00  0.00    -0.301 F  
HETATM   25  F   UNL     1      -7.411  21.001  67.438  1.00  0.00    -0.377 F  
ENDBRANCH  18  21
ENDBRANCH  14  15
ENDBRANCH  13  14
ENDBRANCH   8  13
TORSDOF 4
ENDMDL
MODEL      151
REMARK 921   NORMALIZED FREE ENERGY PREDICTED BY IDOCK:   -4.68 KCAL/MOL
REMARK 922        TOTAL FREE ENERGY PREDICTED BY IDOCK:   -6.21 KCAL/MOL
REMARK 923 INTER-LIGAND FREE ENERGY PREDICTED BY IDOCK:   -5.45 KCAL/MOL
REMARK 924 INTRA-LIGAND FREE ENERGY PREDICTED BY IDOCK:   -0.77 KCAL/MOL
REMARK 927      BINDING AFFINITY PREDICTED BY RF-SCORE:    0.00 PKD
ROOT
HETATM    1  O   UNL     1      -8.097   4.011  63.438  1.00  0.00    -0.085 OA 
HETATM    2  N   UNL     1      -8.508   3.593  64.533  1.00  0.00    -0.096 N  
HETATM    3  C   UNL     1      -9.061   4.582  65.432  1.00  0.00    -0.146 A  
HETATM    4  O   UNL     1      -8.472   2.418  64.914  1.00  0.00    -0.087 OA 
HETATM    5  C   UNL     1      -9.110   5.955  65.246  1.00  0.00     0.130 A  
HETATM    6  N   UNL     1      -9.712   6.419  66.377  1.00  0.00    -0.132 NA 
HETATM    7  C   UNL     1     -10.074   7.777  66.706  1.00  0.00    -0.270 C  
HETATM    8  C   UNL     1     -10.496   7.956  68.177  1.00  0.00    -0.173 C  
HETATM    9  C   UNL     1     -10.443   6.654  69.001  1.00  0.00    -0.214 C  
HETATM   10  C   UNL     1     -10.045   5.348  67.150  1.00  0.00    -0.198 A  
HETATM   11  N   UNL     1      -9.662   4.216  66.623  1.00  0.00    -0.210 NA 
HETATM   12  O   UNL     1     -10.738   5.467  68.275  1.00  0.00    -0.134 OA 
ENDROOT
BRANCH   8  13
HETATM   13  O   UNL     1      -9.638   8.956  68.747  1.00  0.00    -0.153 OA 
BRANCH  13  14
HETATM   14  C   UNL     1     -10.313  10.101  69.267  1.00  0.00    -0.223 C  
BRANCH  14  15
HETATM   15  C   UNL     1     -10.386  11.131  68.173  1.00  0.00    -0.207 A  
HETATM   16  C   UNL     1      -9.240  11.813  67.760  1.00  0.00    -0.181 A  
HETATM   17  C   UNL     1      -9.325  12.782  66.760  1.00  0.00    -0.241 A  
HETATM   18  C   UNL     1     -10.547  13.082  66.146  1.00  0.00    -0.277 A  
HETATM   19  C   UNL     1     -11.609  11.425  67.551  1.00  0.00    -0.298 A  
HETATM   20  C   UNL     1     -11.695  12.408  66.558  1.00  0.00    -0.443 A  
BRANCH  18  21
HETATM   21  O   UNL     1     -10.462  14.056  65.201  1.00  0.00    -0.348 OA 
HETATM   22  C   UNL     1     -10.500  15.422  65.576  1.00  0.00    -0.380 C  
HETATM   23  F   UNL     1     -11.052  15.641  66.788  1.00  0.00    -0.326 F  
HETATM   24  F   UNL     1     -11.244  16.086  64.663  1.00  0.00    -0.430 F  
HETATM   25  F   UNL     1      -9.252  15.938  65.556  1.00  0.00    -0.322 F  
ENDBRANCH  18  21
ENDBRANCH  14  15
ENDBRANCH  13  14
ENDBRANCH   8  13
TORSDOF 4
ENDMDL
MODEL      152
REMARK 921   NORMALIZED FREE ENERGY PREDICTED BY IDOCK:   -4.67 KCAL/MOL
REMARK 922        TOTAL FREE ENERGY PREDICTED BY IDOCK:   -6.21 KCAL/MOL
REMARK 923 INTER-LIGAND FREE ENERGY PREDICTED BY IDOCK:   -5.96 KCAL/MOL
REMARK 924 INTRA-LIGAND FREE ENERGY PREDICTED BY IDOCK:   -0.25 KCAL/MOL
REMARK 927      BINDING AFFINITY PREDICTED BY RF-SCORE:    0.00 PKD
ROOT
HETATM    1  O   UNL     1     -11.149  18.390  64.772  1.00  0.00    -0.465 OA 
HETATM    2  N   UNL     1     -10.612  18.823  65.804  1.00  0.00    -0.407 N  
HETATM    3  C   UNL     1      -9.674  17.940  66.460  1.00  0.00    -0.329 A  
HETATM    4  O   UNL     1     -10.823  19.928  66.315  1.00  0.00    -0.409 OA 
HETATM    5  C   UNL     1      -9.365  16.633  66.115  1.00  0.00    -0.284 A  
HETATM    6  N   UNL     1      -8.445  16.255  67.047  1.00  0.00    -0.186 NA 
HETATM    7  C   UNL     1      -7.729  15.005  67.143  1.00  0.00    -0.167 C  
HETATM    8  C   UNL     1      -6.969  14.839  68.473  1.00  0.00    -0.108 C  
HETATM    9  C   UNL     1      -7.128  16.036  69.433  1.00  0.00    -0.217 C  
HETATM   10  C   UNL     1      -8.196  17.323  67.855  1.00  0.00    -0.219 A  
HETATM   11  N   UNL     1      -8.925  18.362  67.544  1.00  0.00    -0.263 NA 
HETATM   12  O   UNL     1      -7.267  17.302  68.801  1.00  0.00    -0.224 OA 
ENDROOT
BRANCH   8  13
HETATM   13  O   UNL     1      -7.442  13.629  69.084  1.00  0.00    -0.035 OA 
BRANCH  13  14
HETATM   14  C   UNL     1      -7.228  12.445  68.315  1.00  0.00    -0.103 C  
BRANCH  14  15
HETATM   15  C   UNL     1      -8.504  12.135  67.580  1.00  0.00    -0.169 A  
HETATM   16  C   UNL     1      -8.477  11.444  66.367  1.00  0.00    -0.160 A  
HETATM   17  C   UNL     1      -9.665  11.183  65.684  1.00  0.00    -0.267 A  
HETATM   18  C   UNL     1     -10.900  11.595  66.200  1.00  0.00    -0.294 A  
HETATM   19  C   UNL     1      -9.743  12.540  68.100  1.00  0.00    -0.222 A  
HETATM   20  C   UNL     1     -10.932  12.291  67.406  1.00  0.00    -0.298 A  
BRANCH  18  21
HETATM   21  O   UNL     1     -11.959  11.274  65.409  1.00  0.00     0.181 OA 
HETATM   22  C   UNL     1     -12.173  11.959  64.187  1.00  0.00    -0.281 C  
HETATM   23  F   UNL     1     -11.562  13.160  64.119  1.00  0.00    -0.362 F  
HETATM   24  F   UNL     1     -13.502  12.169  64.052  1.00  0.00    -0.388 F  
HETATM   25  F   UNL     1     -11.762  11.192  63.153  1.00  0.00    -0.286 F  
ENDBRANCH  18  21
ENDBRANCH  14  15
ENDBRANCH  13  14
ENDBRANCH   8  13
TORSDOF 4
ENDMDL
MODEL      153
REMARK 921   NORMALIZED FREE ENERGY PREDICTED BY IDOCK:   -4.64 KCAL/MOL
REMARK 922        TOTAL FREE ENERGY PREDICTED BY IDOCK:   -6.17 KCAL/MOL
REMARK 923 INTER-LIGAND FREE ENERGY PREDICTED BY IDOCK:   -5.56 KCAL/MOL
REMARK 924 INTRA-LIGAND FREE ENERGY PREDICTED BY IDOCK:   -0.61 KCAL/MOL
REMARK 927      BINDING AFFINITY PREDICTED BY RF-SCORE:    0.00 PKD
ROOT
HETATM    1  O   UNL     1     -12.919  15.772  71.094  1.00  0.00    -0.491 OA 
HETATM    2  N   UNL     1     -12.288  15.357  70.109  1.00  0.00    -0.368 N  
HETATM    3  C   UNL     1     -12.072  13.929  70.038  1.00  0.00    -0.345 A  
HETATM    4  O   UNL     1     -11.824  16.059  69.203  1.00  0.00    -0.356 OA 
HETATM    5  C   UNL     1     -12.419  12.977  70.985  1.00  0.00    -0.296 A  
HETATM    6  N   UNL     1     -11.990  11.803  70.443  1.00  0.00    -0.356 NA 
HETATM    7  C   UNL     1     -12.138  10.466  70.970  1.00  0.00    -0.385 C  
HETATM    8  C   UNL     1     -11.300   9.417  70.214  1.00  0.00    -0.220 C  
HETATM    9  C   UNL     1     -10.471  10.003  69.053  1.00  0.00    -0.214 C  
HETATM   10  C   UNL     1     -11.473  12.067  69.211  1.00  0.00    -0.301 A  
HETATM   11  N   UNL     1     -11.492  13.342  68.927  1.00  0.00    -0.282 NA 
HETATM   12  O   UNL     1     -11.063  11.112  68.387  1.00  0.00    -0.207 OA 
ENDROOT
BRANCH   8  13
HETATM   13  O   UNL     1     -10.448   8.779  71.178  1.00  0.00    -0.210 OA 
BRANCH  13  14
HETATM   14  C   UNL     1     -11.129   7.970  72.137  1.00  0.00    -0.311 C  
BRANCH  14  15
HETATM   15  C   UNL     1     -10.208   6.846  72.529  1.00  0.00    -0.205 A  
HETATM   16  C   UNL     1     -10.716   5.672  73.089  1.00  0.00    -0.301 A  
HETATM   17  C   UNL     1      -9.849   4.648  73.470  1.00  0.00    -0.167 A  
HETATM   18  C   UNL     1      -8.466   4.767  73.291  1.00  0.00    -0.103 A  
HETATM   19  C   UNL     1      -8.822   6.962  72.343  1.00  0.00    -0.139 A  
HETATM   20  C   UNL     1      -7.953   5.939  72.740  1.00  0.00    -0.104 A  
BRANCH  18  21
HETATM   21  O   UNL     1      -7.762   3.687  73.725  1.00  0.00    -0.068 OA 
HETATM   22  C   UNL     1      -7.403   2.657  72.820  1.00  0.00    -0.040 C  
HETATM   23  F   UNL     1      -8.158   2.623  71.702  1.00  0.00    -0.052 F  
HETATM   24  F   UNL     1      -7.557   1.472  73.453  1.00  0.00    -0.027 F  
HETATM   25  F   UNL     1      -6.103   2.783  72.475  1.00  0.00    -0.008 F  
ENDBRANCH  18  21
ENDBRANCH  14  15
ENDBRANCH  13  14
ENDBRANCH   8  13
TORSDOF 4
ENDMDL
MODEL      154
REMARK 921   NORMALIZED FREE ENERGY PREDICTED BY IDOCK:   -4.62 KCAL/MOL
REMARK 922        TOTAL FREE ENERGY PREDICTED BY IDOCK:   -6.15 KCAL/MOL
REMARK 923 INTER-LIGAND FREE ENERGY PREDICTED BY IDOCK:   -5.42 KCAL/MOL
REMARK 924 INTRA-LIGAND FREE ENERGY PREDICTED BY IDOCK:   -0.72 KCAL/MOL
REMARK 927      BINDING AFFINITY PREDICTED BY RF-SCORE:    0.00 PKD
ROOT
HETATM    1  O   UNL     1     -10.067   6.791  73.455  1.00  0.00    -0.209 OA 
HETATM    2  N   UNL     1     -10.797   6.188  72.653  1.00  0.00    -0.232 N  
HETATM    3  C   UNL     1     -10.402   6.236  71.262  1.00  0.00    -0.212 A  
HETATM    4  O   UNL     1     -11.828   5.569  72.942  1.00  0.00    -0.247 OA 
HETATM    5  C   UNL     1      -9.347   6.946  70.711  1.00  0.00    -0.161 A  
HETATM    6  N   UNL     1      -9.419   6.662  69.380  1.00  0.00    -0.146 NA 
HETATM    7  C   UNL     1      -8.530   7.086  68.324  1.00  0.00    -0.123 C  
HETATM    8  C   UNL     1      -9.073   6.788  66.914  1.00  0.00    -0.137 C  
HETATM    9  C   UNL     1     -10.454   6.102  66.912  1.00  0.00    -0.276 C  
HETATM   10  C   UNL     1     -10.438   5.779  69.189  1.00  0.00    -0.276 A  
HETATM   11  N   UNL     1     -11.068   5.500  70.299  1.00  0.00    -0.149 NA 
HETATM   12  O   UNL     1     -10.697   5.230  68.009  1.00  0.00    -0.084 OA 
ENDROOT
BRANCH   8  13
HETATM   13  O   UNL     1      -9.122   8.036  66.205  1.00  0.00    -0.171 OA 
BRANCH  13  14
HETATM   14  C   UNL     1      -8.157   9.001  66.623  1.00  0.00    -0.107 C  
BRANCH  14  15
HETATM   15  C   UNL     1      -8.895  10.254  67.010  1.00  0.00    -0.143 A  
HETATM   16  C   UNL     1     -10.283  10.332  66.877  1.00  0.00    -0.286 A  
HETATM   17  C   UNL     1     -10.952  11.508  67.218  1.00  0.00    -0.323 A  
HETATM   18  C   UNL     1     -10.257  12.619  67.708  1.00  0.00    -0.222 A  
HETATM   19  C   UNL     1      -8.200  11.366  67.509  1.00  0.00    -0.130 A  
HETATM   20  C   UNL     1      -8.872  12.549  67.837  1.00  0.00    -0.185 A  
BRANCH  18  21
HETATM   21  O   UNL     1     -11.054  13.687  67.982  1.00  0.00    -0.247 OA 
HETATM   22  C   UNL     1     -11.250  14.702  67.012  1.00  0.00    -0.344 C  
HETATM   23  F   UNL     1     -10.291  14.744  66.064  1.00  0.00    -0.264 F  
HETATM   24  F   UNL     1     -11.247  15.895  67.649  1.00  0.00    -0.329 F  
HETATM   25  F   UNL     1     -12.454  14.544  66.421  1.00  0.00    -0.420 F  
ENDBRANCH  18  21
ENDBRANCH  14  15
ENDBRANCH  13  14
ENDBRANCH   8  13
TORSDOF 4
ENDMDL
MODEL      155
REMARK 921   NORMALIZED FREE ENERGY PREDICTED BY IDOCK:   -4.61 KCAL/MOL
REMARK 922        TOTAL FREE ENERGY PREDICTED BY IDOCK:   -6.14 KCAL/MOL
REMARK 923 INTER-LIGAND FREE ENERGY PREDICTED BY IDOCK:   -5.41 KCAL/MOL
REMARK 924 INTRA-LIGAND FREE ENERGY PREDICTED BY IDOCK:   -0.72 KCAL/MOL
REMARK 927      BINDING AFFINITY PREDICTED BY RF-SCORE:    0.00 PKD
ROOT
HETATM    1  O   UNL     1      -9.109   4.362  67.967  1.00  0.00    -0.114 OA 
HETATM    2  N   UNL     1      -8.816   4.302  66.763  1.00  0.00    -0.113 N  
HETATM    3  C   UNL     1      -8.635   5.564  66.080  1.00  0.00    -0.129 A  
HETATM    4  O   UNL     1      -8.682   3.263  66.106  1.00  0.00    -0.116 OA 
HETATM    5  C   UNL     1      -8.831   6.836  66.597  1.00  0.00    -0.137 A  
HETATM    6  N   UNL     1      -8.538   7.662  65.554  1.00  0.00    -0.127 NA 
HETATM    7  C   UNL     1      -8.517   9.106  65.534  1.00  0.00    -0.147 C  
HETATM    8  C   UNL     1      -8.398   9.694  64.116  1.00  0.00    -0.170 C  
HETATM    9  C   UNL     1      -8.331   8.628  63.004  1.00  0.00    -0.153 C  
HETATM   10  C   UNL     1      -8.135   6.895  64.503  1.00  0.00    -0.069 A  
HETATM   11  N   UNL     1      -8.188   5.617  64.772  1.00  0.00    -0.131 NA 
HETATM   12  O   UNL     1      -7.684   7.415  63.369  1.00  0.00    -0.114 OA 
ENDROOT
BRANCH   8  13
HETATM   13  O   UNL     1      -9.524  10.564  63.921  1.00  0.00    -0.241 OA 
BRANCH  13  14
HETATM   14  C   UNL     1     -10.495  10.532  64.967  1.00  0.00    -0.151 C  
BRANCH  14  15
HETATM   15  C   UNL     1     -10.704  11.943  65.446  1.00  0.00    -0.330 A  
HETATM   16  C   UNL     1     -11.305  12.193  66.682  1.00  0.00    -0.405 A  
HETATM   17  C   UNL     1     -11.515  13.506  67.104  1.00  0.00    -0.368 A  
HETATM   18  C   UNL     1     -11.121  14.591  66.312  1.00  0.00    -0.332 A  
HETATM   19  C   UNL     1     -10.302  13.031  64.657  1.00  0.00    -0.374 A  
HETATM   20  C   UNL     1     -10.527  14.347  65.076  1.00  0.00    -0.454 A  
BRANCH  18  21
HETATM   21  O   UNL     1     -11.407  15.802  66.862  1.00  0.00    -0.136 OA 
HETATM   22  C   UNL     1     -10.374  16.597  67.418  1.00  0.00    -0.292 C  
HETATM   23  F   UNL     1      -9.265  15.902  67.746  1.00  0.00    -0.196 F  
HETATM   24  F   UNL     1     -10.848  17.166  68.550  1.00  0.00    -0.337 F  
HETATM   25  F   UNL     1     -10.042  17.585  66.559  1.00  0.00    -0.276 F  
ENDBRANCH  18  21
ENDBRANCH  14  15
ENDBRANCH  13  14
ENDBRANCH   8  13
TORSDOF 4
ENDMDL
MODEL      156
REMARK 921   NORMALIZED FREE ENERGY PREDICTED BY IDOCK:   -4.61 KCAL/MOL
REMARK 922        TOTAL FREE ENERGY PREDICTED BY IDOCK:   -6.13 KCAL/MOL
REMARK 923 INTER-LIGAND FREE ENERGY PREDICTED BY IDOCK:   -5.70 KCAL/MOL
REMARK 924 INTRA-LIGAND FREE ENERGY PREDICTED BY IDOCK:   -0.43 KCAL/MOL
REMARK 927      BINDING AFFINITY PREDICTED BY RF-SCORE:    0.00 PKD
ROOT
HETATM    1  O   UNL     1     -10.555  17.215  65.585  1.00  0.00    -0.492 OA 
HETATM    2  N   UNL     1     -11.016  16.413  64.757  1.00  0.00    -0.350 N  
HETATM    3  C   UNL     1     -10.793  15.010  65.027  1.00  0.00    -0.422 A  
HETATM    4  O   UNL     1     -11.631  16.715  63.728  1.00  0.00    -1.045 OA 
HETATM    5  C   UNL     1     -10.052  14.459  66.062  1.00  0.00    -0.322 A  
HETATM    6  N   UNL     1     -10.150  13.116  65.858  1.00  0.00    -0.288 NA 
HETATM    7  C   UNL     1      -9.617  12.046  66.668  1.00  0.00    -0.216 C  
HETATM    8  C   UNL     1      -9.701  10.667  65.986  1.00  0.00    -0.208 C  
HETATM    9  C   UNL     1     -10.330  10.706  64.579  1.00  0.00    -0.282 C  
HETATM   10  C   UNL     1     -10.961  12.907  64.784  1.00  0.00    -0.318 A  
HETATM   11  N   UNL     1     -11.366  14.026  64.242  1.00  0.00    -0.316 NA 
HETATM   12  O   UNL     1     -11.334  11.696  64.394  1.00  0.00    -0.319 OA 
ENDROOT
BRANCH   8  13
HETATM   13  O   UNL     1      -8.367  10.137  65.935  1.00  0.00    -0.127 OA 
BRANCH  13  14
HETATM   14  C   UNL     1      -7.428  10.794  66.786  1.00  0.00    -0.129 C  
BRANCH  14  15
HETATM   15  C   UNL     1      -7.223   9.930  68.001  1.00  0.00    -0.083 A  
HETATM   16  C   UNL     1      -8.258   9.736  68.919  1.00  0.00    -0.117 A  
HETATM   17  C   UNL     1      -8.048   8.952  70.053  1.00  0.00    -0.116 A  
HETATM   18  C   UNL     1      -6.812   8.338  70.289  1.00  0.00    -0.036 A  
HETATM   19  C   UNL     1      -5.988   9.307  68.233  1.00  0.00    -0.045 A  
HETATM   20  C   UNL     1      -5.775   8.532  69.379  1.00  0.00    -0.031 A  
BRANCH  18  21
HETATM   21  O   UNL     1      -6.769   7.619  71.442  1.00  0.00    -0.048 OA 
HETATM   22  C   UNL     1      -6.475   8.257  72.673  1.00  0.00    -0.086 C  
HETATM   23  F   UNL     1      -5.838   9.439  72.538  1.00  0.00    -0.081 F  
HETATM   24  F   UNL     1      -5.668   7.438  73.386  1.00  0.00    -0.048 F  
HETATM   25  F   UNL     1      -7.612   8.442  73.377  1.00  0.00    -0.178 F  
ENDBRANCH  18  21
ENDBRANCH  14  15
ENDBRANCH  13  14
ENDBRANCH   8  13
TORSDOF 4
ENDMDL
MODEL      157
REMARK 921   NORMALIZED FREE ENERGY PREDICTED BY IDOCK:   -4.59 KCAL/MOL
REMARK 922        TOTAL FREE ENERGY PREDICTED BY IDOCK:   -6.11 KCAL/MOL
REMARK 923 INTER-LIGAND FREE ENERGY PREDICTED BY IDOCK:   -5.47 KCAL/MOL
REMARK 924 INTRA-LIGAND FREE ENERGY PREDICTED BY IDOCK:   -0.64 KCAL/MOL
REMARK 927      BINDING AFFINITY PREDICTED BY RF-SCORE:    0.00 PKD
ROOT
HETATM    1  O   UNL     1      -8.714   3.326  64.762  1.00  0.00    -0.100 OA 
HETATM    2  N   UNL     1      -7.959   3.740  65.656  1.00  0.00    -0.093 N  
HETATM    3  C   UNL     1      -8.521   4.700  66.579  1.00  0.00    -0.109 A  
HETATM    4  O   UNL     1      -6.777   3.411  65.809  1.00  0.00    -0.039 OA 
HETATM    5  C   UNL     1      -9.782   5.274  66.533  1.00  0.00    -0.167 A  
HETATM    6  N   UNL     1      -9.805   6.106  67.612  1.00  0.00    -0.115 NA 
HETATM    7  C   UNL     1     -10.897   6.922  68.091  1.00  0.00    -0.194 C  
HETATM    8  C   UNL     1     -10.474   7.927  69.179  1.00  0.00    -0.209 C  
HETATM    9  C   UNL     1      -8.975   7.863  69.535  1.00  0.00    -0.142 C  
HETATM   10  C   UNL     1      -8.627   5.968  68.280  1.00  0.00    -0.115 A  
HETATM   11  N   UNL     1      -7.814   5.135  67.686  1.00  0.00    -0.095 NA 
HETATM   12  O   UNL     1      -8.384   6.573  69.435  1.00  0.00    -0.121 OA 
ENDROOT
BRANCH   8  13
HETATM   13  O   UNL     1     -10.832   9.236  68.711  1.00  0.00    -0.187 OA 
BRANCH  13  14
HETATM   14  C   UNL     1     -11.656   9.987  69.602  1.00  0.00    -0.096 C  
BRANCH  14  15
HETATM   15  C   UNL     1     -11.725  11.400  69.088  1.00  0.00    -0.410 A  
HETATM   16  C   UNL     1     -11.585  11.668  67.725  1.00  0.00    -0.359 A  
HETATM   17  C   UNL     1     -11.628  12.984  67.263  1.00  0.00    -0.409 A  
HETATM   18  C   UNL     1     -11.820  14.053  68.146  1.00  0.00    -0.367 A  
HETATM   19  C   UNL     1     -11.926  12.471  69.971  1.00  0.00    -0.372 A  
HETATM   20  C   UNL     1     -11.954  13.791  69.508  1.00  0.00    -0.399 A  
BRANCH  18  21
HETATM   21  O   UNL     1     -11.825  15.270  67.540  1.00  0.00    -0.241 OA 
HETATM   22  C   UNL     1     -10.606  15.936  67.261  1.00  0.00    -0.314 C  
HETATM   23  F   UNL     1      -9.566  15.508  68.007  1.00  0.00    -0.198 F  
HETATM   24  F   UNL     1     -10.779  17.253  67.519  1.00  0.00    -0.341 F  
HETATM   25  F   UNL     1     -10.299  15.802  65.952  1.00  0.00    -0.281 F  
ENDBRANCH  18  21
ENDBRANCH  14  15
ENDBRANCH  13  14
ENDBRANCH   8  13
TORSDOF 4
ENDMDL
MODEL      158
REMARK 921   NORMALIZED FREE ENERGY PREDICTED BY IDOCK:   -4.58 KCAL/MOL
REMARK 922        TOTAL FREE ENERGY PREDICTED BY IDOCK:   -6.09 KCAL/MOL
REMARK 923 INTER-LIGAND FREE ENERGY PREDICTED BY IDOCK:   -5.95 KCAL/MOL
REMARK 924 INTRA-LIGAND FREE ENERGY PREDICTED BY IDOCK:   -0.15 KCAL/MOL
REMARK 927      BINDING AFFINITY PREDICTED BY RF-SCORE:    0.00 PKD
ROOT
HETATM    1  O   UNL     1      -6.170  20.155  68.823  1.00  0.00    -0.275 OA 
HETATM    2  N   UNL     1      -6.803  20.389  67.781  1.00  0.00    -0.284 N  
HETATM    3  C   UNL     1      -7.923  19.519  67.499  1.00  0.00    -0.273 A  
HETATM    4  O   UNL     1      -6.548  21.287  66.971  1.00  0.00    -0.413 OA 
HETATM    5  C   UNL     1      -8.323  18.401  68.216  1.00  0.00    -0.303 A  
HETATM    6  N   UNL     1      -9.408  17.943  67.533  1.00  0.00    -0.252 NA 
HETATM    7  C   UNL     1     -10.267  16.828  67.859  1.00  0.00    -0.300 C  
HETATM    8  C   UNL     1     -11.232  16.449  66.720  1.00  0.00     0.278 C  
HETATM    9  C   UNL     1     -11.084  17.328  65.462  1.00  0.00     0.266 C  
HETATM   10  C   UNL     1      -9.653  18.798  66.501  1.00  0.00    -0.348 A  
HETATM   11  N   UNL     1      -8.774  19.762  66.435  1.00  0.00    -0.358 NA 
HETATM   12  O   UNL     1     -10.710  18.678  65.709  1.00  0.00    -0.485 OA 
ENDROOT
BRANCH   8  13
HETATM   13  O   UNL     1     -10.996  15.067  66.407  1.00  0.00    -0.329 OA 
BRANCH  13  14
HETATM   14  C   UNL     1     -12.137  14.220  66.536  1.00  0.00    -0.429 C  
BRANCH  14  15
HETATM   15  C   UNL     1     -11.677  12.912  67.124  1.00  0.00    -0.437 A  
HETATM   16  C   UNL     1     -11.661  11.751  66.349  1.00  0.00    -0.237 A  
HETATM   17  C   UNL     1     -11.254  10.541  66.912  1.00  0.00     0.003 A  
HETATM   18  C   UNL     1     -10.847  10.467  68.250  1.00  0.00    -0.254 A  
HETATM   19  C   UNL     1     -11.261  12.839  68.462  1.00  0.00    -0.314 A  
HETATM   20  C   UNL     1     -10.867  11.621  69.028  1.00  0.00    -0.247 A  
BRANCH  18  21
HETATM   21  O   UNL     1     -10.493   9.215  68.646  1.00  0.00    -0.212 OA 
HETATM   22  C   UNL     1      -9.723   9.027  69.820  1.00  0.00    -0.175 C  
HETATM   23  F   UNL     1      -9.040  10.124  70.208  1.00  0.00    -0.215 F  
HETATM   24  F   UNL     1      -8.820   8.049  69.576  1.00  0.00    -0.138 F  
HETATM   25  F   UNL     1     -10.520   8.619  70.831  1.00  0.00    -0.215 F  
ENDBRANCH  18  21
ENDBRANCH  14  15
ENDBRANCH  13  14
ENDBRANCH   8  13
TORSDOF 4
ENDMDL
MODEL      159
REMARK 921   NORMALIZED FREE ENERGY PREDICTED BY IDOCK:   -4.58 KCAL/MOL
REMARK 922        TOTAL FREE ENERGY PREDICTED BY IDOCK:   -6.09 KCAL/MOL
REMARK 923 INTER-LIGAND FREE ENERGY PREDICTED BY IDOCK:   -5.33 KCAL/MOL
REMARK 924 INTRA-LIGAND FREE ENERGY PREDICTED BY IDOCK:   -0.76 KCAL/MOL
REMARK 927      BINDING AFFINITY PREDICTED BY RF-SCORE:    0.00 PKD
ROOT
HETATM    1  O   UNL     1     -11.020  16.569  70.132  1.00  0.00    -0.347 OA 
HETATM    2  N   UNL     1     -10.198  16.306  69.240  1.00  0.00    -0.253 N  
HETATM    3  C   UNL     1     -10.349  15.026  68.583  1.00  0.00    -0.236 A  
HETATM    4  O   UNL     1      -9.266  17.035  68.883  1.00  0.00    -0.264 OA 
HETATM    5  C   UNL     1     -11.256  14.024  68.890  1.00  0.00    -0.272 A  
HETATM    6  N   UNL     1     -10.976  13.040  67.991  1.00  0.00    -0.241 NA 
HETATM    7  C   UNL     1     -11.649  11.776  67.807  1.00  0.00    -0.304 C  
HETATM    8  C   UNL     1     -10.892  10.812  66.873  1.00  0.00    -0.229 C  
HETATM    9  C   UNL     1      -9.569  11.387  66.328  1.00  0.00    -0.213 C  
HETATM   10  C   UNL     1      -9.988  13.486  67.166  1.00  0.00    -0.246 A  
HETATM   11  N   UNL     1      -9.569  14.681  67.494  1.00  0.00    -0.204 NA 
HETATM   12  O   UNL     1      -9.563  12.793  66.118  1.00  0.00    -0.254 OA 
ENDROOT
BRANCH   8  13
HETATM   13  O   UNL     1     -10.657   9.603  67.611  1.00  0.00    -0.245 OA 
BRANCH  13  14
HETATM   14  C   UNL     1      -9.691   9.716  68.656  1.00  0.00    -0.155 C  
BRANCH  14  15
HETATM   15  C   UNL     1      -9.748   8.456  69.477  1.00  0.00    -0.177 A  
HETATM   16  C   UNL     1     -10.816   7.565  69.340  1.00  0.00    -0.161 A  
HETATM   17  C   UNL     1     -10.868   6.412  70.123  1.00  0.00    -0.355 A  
HETATM   18  C   UNL     1      -9.858   6.118  71.046  1.00  0.00    -0.182 A  
HETATM   19  C   UNL     1      -8.731   8.156  70.396  1.00  0.00    -0.136 A  
HETATM   20  C   UNL     1      -8.794   7.006  71.190  1.00  0.00    -0.141 A  
BRANCH  18  21
HETATM   21  O   UNL     1     -10.064   4.965  71.736  1.00  0.00    -0.189 OA 
HETATM   22  C   UNL     1      -9.462   3.756  71.307  1.00  0.00    -0.159 C  
HETATM   23  F   UNL     1      -9.089   3.761  70.010  1.00  0.00    -0.128 F  
HETATM   24  F   UNL     1     -10.363   2.760  71.468  1.00  0.00    -0.171 F  
HETATM   25  F   UNL     1      -8.389   3.479  72.078  1.00  0.00    -0.072 F  
ENDBRANCH  18  21
ENDBRANCH  14  15
ENDBRANCH  13  14
ENDBRANCH   8  13
TORSDOF 4
ENDMDL
MODEL      160
REMARK 921   NORMALIZED FREE ENERGY PREDICTED BY IDOCK:   -4.57 KCAL/MOL
REMARK 922        TOTAL FREE ENERGY PREDICTED BY IDOCK:   -6.08 KCAL/MOL
REMARK 923 INTER-LIGAND FREE ENERGY PREDICTED BY IDOCK:   -5.49 KCAL/MOL
REMARK 924 INTRA-LIGAND FREE ENERGY PREDICTED BY IDOCK:   -0.58 KCAL/MOL
REMARK 927      BINDING AFFINITY PREDICTED BY RF-SCORE:    0.00 PKD
ROOT
HETATM    1  O   UNL     1     -10.123  19.527  68.903  1.00  0.00    -0.442 OA 
HETATM    2  N   UNL     1      -8.968  19.104  68.733  1.00  0.00    -0.365 N  
HETATM    3  C   UNL     1      -8.844  17.732  68.292  1.00  0.00    -0.277 A  
HETATM    4  O   UNL     1      -7.931  19.750  68.920  1.00  0.00    -0.291 OA 
HETATM    5  C   UNL     1      -9.863  16.809  68.117  1.00  0.00    -0.264 A  
HETATM    6  N   UNL     1      -9.217  15.681  67.707  1.00  0.00    -0.193 NA 
HETATM    7  C   UNL     1      -9.788  14.412  67.321  1.00  0.00    -0.247 C  
HETATM    8  C   UNL     1      -8.740  13.293  67.171  1.00  0.00    -0.212 C  
HETATM    9  C   UNL     1      -7.297  13.749  67.466  1.00  0.00    -0.162 C  
HETATM   10  C   UNL     1      -7.890  15.967  67.598  1.00  0.00    -0.146 A  
HETATM   11  N   UNL     1      -7.615  17.194  67.952  1.00  0.00    -0.172 NA 
HETATM   12  O   UNL     1      -7.008  15.098  67.122  1.00  0.00    -0.229 OA 
ENDROOT
BRANCH   8  13
HETATM   13  O   UNL     1      -9.129  12.226  68.051  1.00  0.00    -0.178 OA 
BRANCH  13  14
HETATM   14  C   UNL     1     -10.222  11.434  67.588  1.00  0.00    -0.180 C  
BRANCH  14  15
HETATM   15  C   UNL     1      -9.800   9.990  67.639  1.00  0.00    -0.194 A  
HETATM   16  C   UNL     1     -10.313   9.066  66.727  1.00  0.00    -0.310 A  
HETATM   17  C   UNL     1      -9.932   7.726  66.799  1.00  0.00    -0.331 A  
HETATM   18  C   UNL     1      -9.027   7.284  67.772  1.00  0.00    -0.126 A  
HETATM   19  C   UNL     1      -8.887   9.548  68.608  1.00  0.00    -0.132 A  
HETATM   20  C   UNL     1      -8.517   8.201  68.688  1.00  0.00    -0.127 A  
BRANCH  18  21
HETATM   21  O   UNL     1      -8.769   5.950  67.715  1.00  0.00    -0.106 OA 
HETATM   22  C   UNL     1      -9.769   5.012  68.073  1.00  0.00    -0.151 C  
HETATM   23  F   UNL     1     -10.745   5.523  68.852  1.00  0.00    -0.290 F  
HETATM   24  F   UNL     1      -9.176   4.013  68.766  1.00  0.00    -0.144 F  
HETATM   25  F   UNL     1     -10.321   4.482  66.960  1.00  0.00    -0.226 F  
ENDBRANCH  18  21
ENDBRANCH  14  15
ENDBRANCH  13  14
ENDBRANCH   8  13
TORSDOF 4
ENDMDL
MODEL      161
REMARK 921   NORMALIZED FREE ENERGY PREDICTED BY IDOCK:   -4.55 KCAL/MOL
REMARK 922        TOTAL FREE ENERGY PREDICTED BY IDOCK:   -6.06 KCAL/MOL
REMARK 923 INTER-LIGAND FREE ENERGY PREDICTED BY IDOCK:   -5.90 KCAL/MOL
REMARK 924 INTRA-LIGAND FREE ENERGY PREDICTED BY IDOCK:   -0.16 KCAL/MOL
REMARK 927      BINDING AFFINITY PREDICTED BY RF-SCORE:    0.00 PKD
ROOT
HETATM    1  O   UNL     1     -12.110  15.190  69.052  1.00  0.00    -0.285 OA 
HETATM    2  N   UNL     1     -11.502  15.306  67.976  1.00  0.00    -0.345 N  
HETATM    3  C   UNL     1     -11.205  14.080  67.269  1.00  0.00    -0.312 A  
HETATM    4  O   UNL     1     -11.125  16.371  67.474  1.00  0.00    -0.241 OA 
HETATM    5  C   UNL     1     -11.448  12.783  67.695  1.00  0.00    -0.334 A  
HETATM    6  N   UNL     1     -10.975  12.009  66.679  1.00  0.00    -0.272 NA 
HETATM    7  C   UNL     1     -11.017  10.571  66.553  1.00  0.00     0.016 C  
HETATM    8  C   UNL     1     -10.154  10.035  65.395  1.00  0.00    -0.247 C  
HETATM    9  C   UNL     1      -9.417  11.137  64.608  1.00  0.00    -0.213 C  
HETATM   10  C   UNL     1     -10.534  12.832  65.688  1.00  0.00    -0.278 A  
HETATM   11  N   UNL     1     -10.643  14.095  66.005  1.00  0.00    -0.290 NA 
HETATM   12  O   UNL     1     -10.106  12.378  64.517  1.00  0.00    -0.291 OA 
ENDROOT
BRANCH   8  13
HETATM   13  O   UNL     1      -9.221   9.100  65.959  1.00  0.00    -0.181 OA 
BRANCH  13  14
HETATM   14  C   UNL     1      -8.635   9.508  67.195  1.00  0.00    -0.132 C  
BRANCH  14  15
HETATM   15  C   UNL     1      -9.362   8.801  68.307  1.00  0.00    -0.143 A  
HETATM   16  C   UNL     1      -9.678   9.472  69.490  1.00  0.00    -0.201 A  
HETATM   17  C   UNL     1     -10.331   8.799  70.522  1.00  0.00    -0.241 A  
HETATM   18  C   UNL     1     -10.692   7.452  70.392  1.00  0.00    -0.237 A  
HETATM   19  C   UNL     1      -9.732   7.454  68.174  1.00  0.00    -0.163 A  
HETATM   20  C   UNL     1     -10.374   6.777  69.216  1.00  0.00    -0.221 A  
BRANCH  18  21
HETATM   21  O   UNL     1     -11.311   6.943  71.491  1.00  0.00    -0.247 OA 
HETATM   22  C   UNL     1     -10.601   6.794  72.708  1.00  0.00    -0.235 C  
HETATM   23  F   UNL     1      -9.260   6.766  72.559  1.00  0.00    -0.138 F  
HETATM   24  F   UNL     1     -10.974   5.622  73.270  1.00  0.00    -0.253 F  
HETATM   25  F   UNL     1     -10.933   7.791  73.557  1.00  0.00    -0.416 F  
ENDBRANCH  18  21
ENDBRANCH  14  15
ENDBRANCH  13  14
ENDBRANCH   8  13
TORSDOF 4
ENDMDL
MODEL      162
REMARK 921   NORMALIZED FREE ENERGY PREDICTED BY IDOCK:   -4.50 KCAL/MOL
REMARK 922        TOTAL FREE ENERGY PREDICTED BY IDOCK:   -6.00 KCAL/MOL
REMARK 923 INTER-LIGAND FREE ENERGY PREDICTED BY IDOCK:   -4.89 KCAL/MOL
REMARK 924 INTRA-LIGAND FREE ENERGY PREDICTED BY IDOCK:   -1.10 KCAL/MOL
REMARK 927      BINDING AFFINITY PREDICTED BY RF-SCORE:    0.00 PKD
ROOT
HETATM    1  O   UNL     1      -9.621  13.005  68.159  1.00  0.00    -0.218 OA 
HETATM    2  N   UNL     1     -10.805  12.757  68.437  1.00  0.00    -0.240 N  
HETATM    3  C   UNL     1     -11.033  11.687  69.383  1.00  0.00    -0.152 A  
HETATM    4  O   UNL     1     -11.792  13.334  67.965  1.00  0.00    -0.340 OA 
HETATM    5  C   UNL     1     -10.085  10.852  69.955  1.00  0.00     0.361 A  
HETATM    6  N   UNL     1     -10.815  10.025  70.754  1.00  0.00    -0.308 NA 
HETATM    7  C   UNL     1     -10.341   8.986  71.638  1.00  0.00    -0.350 C  
HETATM    8  C   UNL     1     -11.468   8.087  72.181  1.00  0.00    -0.335 C  
HETATM    9  C   UNL     1     -12.871   8.472  71.670  1.00  0.00    -0.338 C  
HETATM   10  C   UNL     1     -12.119  10.410  70.687  1.00  0.00    -0.348 A  
HETATM   11  N   UNL     1     -12.301  11.407  69.861  1.00  0.00    -0.249 NA 
HETATM   12  O   UNL     1     -13.067   9.861  71.435  1.00  0.00    -0.359 OA 
ENDROOT
BRANCH   8  13
HETATM   13  O   UNL     1     -11.146   6.736  71.817  1.00  0.00    -0.230 OA 
BRANCH  13  14
HETATM   14  C   UNL     1     -11.768   6.273  70.618  1.00  0.00    -0.215 C  
BRANCH  14  15
HETATM   15  C   UNL     1     -10.711   6.194  69.550  1.00  0.00    -0.386 A  
HETATM   16  C   UNL     1      -9.444   5.682  69.839  1.00  0.00    -0.197 A  
HETATM   17  C   UNL     1      -8.466   5.635  68.845  1.00  0.00    -0.102 A  
HETATM   18  C   UNL     1      -8.733   6.086  67.547  1.00  0.00    -0.107 A  
HETATM   19  C   UNL     1     -10.980   6.637  68.246  1.00  0.00    -0.321 A  
HETATM   20  C   UNL     1      -9.993   6.603  67.255  1.00  0.00    -0.199 A  
BRANCH  18  21
HETATM   21  O   UNL     1      -7.672   5.983  66.703  1.00  0.00    -0.100 OA 
HETATM   22  C   UNL     1      -6.651   6.966  66.713  1.00  0.00    -0.048 C  
HETATM   23  F   UNL     1      -7.031   8.143  67.250  1.00  0.00    -0.068 F  
HETATM   24  F   UNL     1      -6.284   7.201  65.432  1.00  0.00    -0.035 F  
HETATM   25  F   UNL     1      -5.573   6.500  67.379  1.00  0.00    -0.010 F  
ENDBRANCH  18  21
ENDBRANCH  14  15
ENDBRANCH  13  14
ENDBRANCH   8  13
TORSDOF 4
ENDMDL
MODEL      163
REMARK 921   NORMALIZED FREE ENERGY PREDICTED BY IDOCK:   -4.49 KCAL/MOL
REMARK 922        TOTAL FREE ENERGY PREDICTED BY IDOCK:   -5.99 KCAL/MOL
REMARK 923 INTER-LIGAND FREE ENERGY PREDICTED BY IDOCK:   -5.05 KCAL/MOL
REMARK 924 INTRA-LIGAND FREE ENERGY PREDICTED BY IDOCK:   -0.94 KCAL/MOL
REMARK 927      BINDING AFFINITY PREDICTED BY RF-SCORE:    0.00 PKD
ROOT
HETATM    1  O   UNL     1     -10.554   5.160  69.177  1.00  0.00    -0.166 OA 
HETATM    2  N   UNL     1      -9.450   5.138  68.611  1.00  0.00    -0.126 N  
HETATM    3  C   UNL     1      -8.588   6.277  68.836  1.00  0.00    -0.125 A  
HETATM    4  O   UNL     1      -9.039   4.237  67.870  1.00  0.00    -0.116 OA 
HETATM    5  C   UNL     1      -8.886   7.430  69.546  1.00  0.00    -0.137 A  
HETATM    6  N   UNL     1      -7.752   8.180  69.446  1.00  0.00    -0.101 NA 
HETATM    7  C   UNL     1      -7.472   9.463  70.045  1.00  0.00    -0.107 C  
HETATM    8  C   UNL     1      -6.191  10.123  69.499  1.00  0.00    -0.048 C  
HETATM    9  C   UNL     1      -5.471   9.286  68.423  1.00  0.00    -0.037 C  
HETATM   10  C   UNL     1      -6.825   7.458  68.757  1.00  0.00    -0.072 A  
HETATM   11  N   UNL     1      -7.290   6.304  68.358  1.00  0.00    -0.084 NA 
HETATM   12  O   UNL     1      -5.579   7.877  68.581  1.00  0.00    -0.026 OA 
ENDROOT
BRANCH   8  13
HETATM   13  O   UNL     1      -6.565  11.409  68.980  1.00  0.00    -0.070 OA 
BRANCH  13  14
HETATM   14  C   UNL     1      -6.667  11.475  67.558  1.00  0.00    -0.087 C  
BRANCH  14  15
HETATM   15  C   UNL     1      -8.115  11.692  67.208  1.00  0.00    -0.160 A  
HETATM   16  C   UNL     1      -8.779  12.851  67.614  1.00  0.00    -0.185 A  
HETATM   17  C   UNL     1     -10.127  13.030  67.304  1.00  0.00    -0.235 A  
HETATM   18  C   UNL     1     -10.835  12.065  66.577  1.00  0.00    -0.277 A  
HETATM   19  C   UNL     1      -8.823  10.730  66.472  1.00  0.00    -0.162 A  
HETATM   20  C   UNL     1     -10.179  10.904  66.175  1.00  0.00    -0.304 A  
BRANCH  18  21
HETATM   21  O   UNL     1     -12.140  12.385  66.369  1.00  0.00    -0.607 OA 
HETATM   22  C   UNL     1     -12.533  13.053  65.182  1.00  0.00    -0.496 C  
HETATM   23  F   UNL     1     -11.526  13.699  64.559  1.00  0.00    -0.332 F  
HETATM   24  F   UNL     1     -13.468  13.974  65.510  1.00  0.00    -0.451 F  
HETATM   25  F   UNL     1     -13.095  12.172  64.325  1.00  0.00    -0.533 F  
ENDBRANCH  18  21
ENDBRANCH  14  15
ENDBRANCH  13  14
ENDBRANCH   8  13
TORSDOF 4
ENDMDL
MODEL      164
REMARK 921   NORMALIZED FREE ENERGY PREDICTED BY IDOCK:   -4.45 KCAL/MOL
REMARK 922        TOTAL FREE ENERGY PREDICTED BY IDOCK:   -5.94 KCAL/MOL
REMARK 923 INTER-LIGAND FREE ENERGY PREDICTED BY IDOCK:   -5.21 KCAL/MOL
REMARK 924 INTRA-LIGAND FREE ENERGY PREDICTED BY IDOCK:   -0.73 KCAL/MOL
REMARK 927      BINDING AFFINITY PREDICTED BY RF-SCORE:    0.00 PKD
ROOT
HETATM    1  O   UNL     1     -11.527  16.762  68.449  1.00  0.00    -0.200 OA 
HETATM    2  N   UNL     1     -10.295  16.909  68.488  1.00  0.00    -0.313 N  
HETATM    3  C   UNL     1      -9.498  15.765  68.103  1.00  0.00    -0.199 A  
HETATM    4  O   UNL     1      -9.704  17.937  68.836  1.00  0.00    -0.313 OA 
HETATM    5  C   UNL     1      -9.950  14.496  67.774  1.00  0.00    -0.225 A  
HETATM    6  N   UNL     1      -8.809  13.801  67.505  1.00  0.00    -0.186 NA 
HETATM    7  C   UNL     1      -8.679  12.436  67.052  1.00  0.00    -0.207 C  
HETATM    8  C   UNL     1      -7.231  11.912  67.106  1.00  0.00    -0.144 C  
HETATM    9  C   UNL     1      -6.216  12.946  67.634  1.00  0.00    -0.157 C  
HETATM   10  C   UNL     1      -7.754  14.655  67.618  1.00  0.00    -0.177 A  
HETATM   11  N   UNL     1      -8.122  15.853  67.988  1.00  0.00    -0.139 NA 
HETATM   12  O   UNL     1      -6.512  14.300  67.317  1.00  0.00    -0.291 OA 
ENDROOT
BRANCH   8  13
HETATM   13  O   UNL     1      -7.235  10.735  67.928  1.00  0.00    -0.084 OA 
BRANCH  13  14
HETATM   14  C   UNL     1      -7.336   9.504  67.213  1.00  0.00    -0.087 C  
BRANCH  14  15
HETATM   15  C   UNL     1      -8.319   8.627  67.941  1.00  0.00    -0.123 A  
HETATM   16  C   UNL     1      -7.874   7.632  68.814  1.00  0.00    -0.120 A  
HETATM   17  C   UNL     1      -8.794   6.810  69.465  1.00  0.00    -0.139 A  
HETATM   18  C   UNL     1     -10.171   6.969  69.268  1.00  0.00    -0.186 A  
HETATM   19  C   UNL     1      -9.699   8.791  67.750  1.00  0.00    -0.194 A  
HETATM   20  C   UNL     1     -10.620   7.956  68.393  1.00  0.00    -0.154 A  
BRANCH  18  21
HETATM   21  O   UNL     1     -10.930   6.082  69.965  1.00  0.00    -0.324 OA 
HETATM   22  C   UNL     1     -11.592   6.485  71.152  1.00  0.00    -0.335 C  
HETATM   23  F   UNL     1     -11.066   7.588  71.724  1.00  0.00    -0.237 F  
HETATM   24  F   UNL     1     -11.495   5.475  72.048  1.00  0.00    -0.305 F  
HETATM   25  F   UNL     1     -12.901   6.696  70.898  1.00  0.00    -0.367 F  
ENDBRANCH  18  21
ENDBRANCH  14  15
ENDBRANCH  13  14
ENDBRANCH   8  13
TORSDOF 4
ENDMDL
MODEL      165
REMARK 921   NORMALIZED FREE ENERGY PREDICTED BY IDOCK:   -4.42 KCAL/MOL
REMARK 922        TOTAL FREE ENERGY PREDICTED BY IDOCK:   -5.90 KCAL/MOL
REMARK 923 INTER-LIGAND FREE ENERGY PREDICTED BY IDOCK:   -4.91 KCAL/MOL
REMARK 924 INTRA-LIGAND FREE ENERGY PREDICTED BY IDOCK:   -0.98 KCAL/MOL
REMARK 927      BINDING AFFINITY PREDICTED BY RF-SCORE:    0.00 PKD
ROOT
HETATM    1  O   UNL     1      -5.724   7.018  66.674  1.00  0.00    -0.021 OA 
HETATM    2  N   UNL     1      -6.822   7.180  66.118  1.00  0.00    -0.056 N  
HETATM    3  C   UNL     1      -7.667   8.224  66.655  1.00  0.00    -0.093 A  
HETATM    4  O   UNL     1      -7.250   6.521  65.164  1.00  0.00    -0.065 OA 
HETATM    5  C   UNL     1      -7.427   9.011  67.771  1.00  0.00    -0.085 A  
HETATM    6  N   UNL     1      -8.522   9.818  67.846  1.00  0.00    -0.124 NA 
HETATM    7  C   UNL     1      -8.788  10.881  68.786  1.00  0.00    -0.161 C  
HETATM    8  C   UNL     1     -10.239  11.397  68.728  1.00  0.00    -0.197 C  
HETATM    9  C   UNL     1     -11.114  10.673  67.686  1.00  0.00    -0.319 C  
HETATM   10  C   UNL     1      -9.327   9.542  66.783  1.00  0.00    -0.153 A  
HETATM   11  N   UNL     1      -8.855   8.576  66.039  1.00  0.00    -0.163 NA 
HETATM   12  O   UNL     1     -10.427  10.235  66.520  1.00  0.00    -0.223 OA 
ENDROOT
BRANCH   8  13
HETATM   13  O   UNL     1     -10.793  11.255  70.046  1.00  0.00    -0.068 OA 
BRANCH  13  14
HETATM   14  C   UNL     1     -11.965  10.444  70.120  1.00  0.00    -0.276 C  
BRANCH  14  15
HETATM   15  C   UNL     1     -11.669   9.287  71.035  1.00  0.00    -0.378 A  
HETATM   16  C   UNL     1     -12.625   8.295  71.261  1.00  0.00    -0.237 A  
HETATM   17  C   UNL     1     -12.347   7.240  72.130  1.00  0.00    -0.229 A  
HETATM   18  C   UNL     1     -11.111   7.146  72.780  1.00  0.00    -0.300 A  
HETATM   19  C   UNL     1     -10.427   9.188  71.681  1.00  0.00    -0.403 A  
HETATM   20  C   UNL     1     -10.155   8.136  72.564  1.00  0.00    -0.370 A  
BRANCH  18  21
HETATM   21  O   UNL     1     -11.003   6.067  73.600  1.00  0.00    -0.210 OA 
HETATM   22  C   UNL     1     -10.309   4.908  73.172  1.00  0.00    -0.187 C  
HETATM   23  F   UNL     1     -10.186   4.809  71.832  1.00  0.00    -0.231 F  
HETATM   24  F   UNL     1     -10.997   3.825  73.600  1.00  0.00    -0.250 F  
HETATM   25  F   UNL     1      -9.082   4.875  73.734  1.00  0.00    -0.113 F  
ENDBRANCH  18  21
ENDBRANCH  14  15
ENDBRANCH  13  14
ENDBRANCH   8  13
TORSDOF 4
ENDMDL
MODEL      166
REMARK 921   NORMALIZED FREE ENERGY PREDICTED BY IDOCK:   -4.38 KCAL/MOL
REMARK 922        TOTAL FREE ENERGY PREDICTED BY IDOCK:   -5.85 KCAL/MOL
REMARK 923 INTER-LIGAND FREE ENERGY PREDICTED BY IDOCK:   -5.41 KCAL/MOL
REMARK 924 INTRA-LIGAND FREE ENERGY PREDICTED BY IDOCK:   -0.44 KCAL/MOL
REMARK 927      BINDING AFFINITY PREDICTED BY RF-SCORE:    0.00 PKD
ROOT
HETATM    1  O   UNL     1     -10.883  18.587  65.252  1.00  0.00    -0.606 OA 
HETATM    2  N   UNL     1     -10.419  19.114  66.276  1.00  0.00    -0.452 N  
HETATM    3  C   UNL     1      -9.217  18.519  66.817  1.00  0.00    -0.297 A  
HETATM    4  O   UNL     1     -10.903  20.085  66.868  1.00  0.00    -0.370 OA 
HETATM    5  C   UNL     1      -8.569  17.377  66.371  1.00  0.00    -0.247 A  
HETATM    6  N   UNL     1      -7.511  17.247  67.220  1.00  0.00    -0.171 NA 
HETATM    7  C   UNL     1      -6.457  16.260  67.193  1.00  0.00    -0.179 C  
HETATM    8  C   UNL     1      -5.583  16.268  68.462  1.00  0.00    -0.105 C  
HETATM    9  C   UNL     1      -6.009  17.321  69.504  1.00  0.00    -0.241 C  
HETATM   10  C   UNL     1      -7.522  18.304  68.078  1.00  0.00    -0.241 A  
HETATM   11  N   UNL     1      -8.543  19.095  67.878  1.00  0.00    -0.297 NA 
HETATM   12  O   UNL     1      -6.558  18.517  68.964  1.00  0.00    -0.248 OA 
ENDROOT
BRANCH   8  13
HETATM   13  O   UNL     1      -5.635  14.946  69.022  1.00  0.00    -0.095 OA 
BRANCH  13  14
HETATM   14  C   UNL     1      -5.337  13.894  68.104  1.00  0.00    -0.119 C  
BRANCH  14  15
HETATM   15  C   UNL     1      -6.517  12.961  68.073  1.00  0.00    -0.108 A  
HETATM   16  C   UNL     1      -7.710  13.342  67.456  1.00  0.00    -0.175 A  
HETATM   17  C   UNL     1      -8.804  12.476  67.455  1.00  0.00    -0.187 A  
HETATM   18  C   UNL     1      -8.728  11.214  68.056  1.00  0.00    -0.141 A  
HETATM   19  C   UNL     1      -6.439  11.692  68.668  1.00  0.00    -0.059 A  
HETATM   20  C   UNL     1      -7.542  10.831  68.678  1.00  0.00    -0.106 A  
BRANCH  18  21
HETATM   21  O   UNL     1      -9.882  10.500  67.977  1.00  0.00    -0.145 OA 
HETATM   22  C   UNL     1     -10.979  10.816  68.817  1.00  0.00    -0.247 C  
HETATM   23  F   UNL     1     -10.638  11.514  69.921  1.00  0.00    -0.084 F  
HETATM   24  F   UNL     1     -11.541   9.655  69.226  1.00  0.00    -0.131 F  
HETATM   25  F   UNL     1     -11.905  11.509  68.120  1.00  0.00    -0.356 F  
ENDBRANCH  18  21
ENDBRANCH  14  15
ENDBRANCH  13  14
ENDBRANCH   8  13
TORSDOF 4
ENDMDL
MODEL      167
REMARK 921   NORMALIZED FREE ENERGY PREDICTED BY IDOCK:   -4.36 KCAL/MOL
REMARK 922        TOTAL FREE ENERGY PREDICTED BY IDOCK:   -5.83 KCAL/MOL
REMARK 923 INTER-LIGAND FREE ENERGY PREDICTED BY IDOCK:   -5.13 KCAL/MOL
REMARK 924 INTRA-LIGAND FREE ENERGY PREDICTED BY IDOCK:   -0.70 KCAL/MOL
REMARK 927      BINDING AFFINITY PREDICTED BY RF-SCORE:    0.00 PKD
ROOT
HETATM    1  O   UNL     1     -10.146  10.583  62.594  1.00  0.00    -0.106 OA 
HETATM    2  N   UNL     1     -10.349  11.426  63.484  1.00  0.00    -0.387 N  
HETATM    3  C   UNL     1      -9.537  11.312  64.675  1.00  0.00    -0.231 A  
HETATM    4  O   UNL     1     -11.187  12.333  63.437  1.00  0.00    -0.438 OA 
HETATM    5  C   UNL     1      -8.615  10.320  64.974  1.00  0.00    -0.180 A  
HETATM    6  N   UNL     1      -8.143  10.670  66.203  1.00  0.00    -0.149 NA 
HETATM    7  C   UNL     1      -7.114  10.025  66.984  1.00  0.00    -0.089 C  
HETATM    8  C   UNL     1      -7.032  10.545  68.432  1.00  0.00    -0.066 C  
HETATM    9  C   UNL     1      -8.064  11.643  68.757  1.00  0.00    -0.072 C  
HETATM   10  C   UNL     1      -8.729  11.845  66.565  1.00  0.00    -0.158 A  
HETATM   11  N   UNL     1      -9.589  12.266  65.675  1.00  0.00    -0.189 NA 
HETATM   12  O   UNL     1      -8.399  12.498  67.671  1.00  0.00    -0.149 OA 
ENDROOT
BRANCH   8  13
HETATM   13  O   UNL     1      -7.200   9.413  69.300  1.00  0.00    -0.062 OA 
BRANCH  13  14
HETATM   14  C   UNL     1      -7.147   9.714  70.694  1.00  0.00    -0.109 C  
BRANCH  14  15
HETATM   15  C   UNL     1      -8.245   8.942  71.375  1.00  0.00    -0.175 A  
HETATM   16  C   UNL     1      -7.952   8.043  72.402  1.00  0.00    -0.168 A  
HETATM   17  C   UNL     1      -8.977   7.317  73.009  1.00  0.00    -0.174 A  
HETATM   18  C   UNL     1     -10.310   7.480  72.615  1.00  0.00    -0.259 A  
HETATM   19  C   UNL     1      -9.583   9.111  70.986  1.00  0.00    -0.350 A  
HETATM   20  C   UNL     1     -10.607   8.371  71.586  1.00  0.00    -0.327 A  
BRANCH  18  21
HETATM   21  O   UNL     1     -11.184   6.692  73.296  1.00  0.00    -0.179 OA 
HETATM   22  C   UNL     1     -11.234   5.297  73.048  1.00  0.00    -0.324 C  
HETATM   23  F   UNL     1     -10.719   4.936  71.854  1.00  0.00    -0.267 F  
HETATM   24  F   UNL     1     -12.532   4.916  73.065  1.00  0.00    -0.295 F  
HETATM   25  F   UNL     1     -10.588   4.633  74.030  1.00  0.00    -0.223 F  
ENDBRANCH  18  21
ENDBRANCH  14  15
ENDBRANCH  13  14
ENDBRANCH   8  13
TORSDOF 4
ENDMDL
MODEL      168
REMARK 921   NORMALIZED FREE ENERGY PREDICTED BY IDOCK:   -4.30 KCAL/MOL
REMARK 922        TOTAL FREE ENERGY PREDICTED BY IDOCK:   -5.75 KCAL/MOL
REMARK 923 INTER-LIGAND FREE ENERGY PREDICTED BY IDOCK:   -5.04 KCAL/MOL
REMARK 924 INTRA-LIGAND FREE ENERGY PREDICTED BY IDOCK:   -0.71 KCAL/MOL
REMARK 927      BINDING AFFINITY PREDICTED BY RF-SCORE:    0.00 PKD
ROOT
HETATM    1  O   UNL     1     -13.982  10.675  71.851  1.00  0.00     0.105 OA 
HETATM    2  N   UNL     1     -13.671   9.547  72.268  1.00  0.00    -0.422 N  
HETATM    3  C   UNL     1     -12.354   9.070  71.909  1.00  0.00    -0.384 A  
HETATM    4  O   UNL     1     -14.393   8.806  72.945  1.00  0.00    -0.520 OA 
HETATM    5  C   UNL     1     -11.429   9.691  71.084  1.00  0.00    -0.384 A  
HETATM    6  N   UNL     1     -10.373   8.830  71.068  1.00  0.00    -0.216 NA 
HETATM    7  C   UNL     1      -9.097   8.991  70.411  1.00  0.00    -0.210 C  
HETATM    8  C   UNL     1      -8.253   7.702  70.395  1.00  0.00    -0.122 C  
HETATM    9  C   UNL     1      -8.940   6.501  71.077  1.00  0.00    -0.146 C  
HETATM   10  C   UNL     1     -10.661   7.788  71.896  1.00  0.00    -0.223 A  
HETATM   11  N   UNL     1     -11.854   7.885  72.420  1.00  0.00    -0.349 NA 
HETATM   12  O   UNL     1      -9.785   6.831  72.173  1.00  0.00    -0.151 OA 
ENDROOT
BRANCH   8  13
HETATM   13  O   UNL     1      -7.955   7.407  69.022  1.00  0.00    -0.118 OA 
BRANCH  13  14
HETATM   14  C   UNL     1      -7.244   6.187  68.811  1.00  0.00    -0.084 C  
BRANCH  14  15
HETATM   15  C   UNL     1      -7.814   5.526  67.586  1.00  0.00    -0.097 A  
HETATM   16  C   UNL     1      -8.037   4.148  67.559  1.00  0.00    -0.095 A  
HETATM   17  C   UNL     1      -8.544   3.544  66.409  1.00  0.00    -0.117 A  
HETATM   18  C   UNL     1      -8.849   4.299  65.270  1.00  0.00    -0.131 A  
HETATM   19  C   UNL     1      -8.127   6.283  66.447  1.00  0.00    -0.112 A  
HETATM   20  C   UNL     1      -8.622   5.673  65.289  1.00  0.00    -0.141 A  
BRANCH  18  21
HETATM   21  O   UNL     1      -9.322   3.559  64.232  1.00  0.00    -0.123 OA 
HETATM   22  C   UNL     1     -10.667   3.699  63.808  1.00  0.00    -0.261 C  
HETATM   23  F   UNL     1     -11.482   4.235  64.740  1.00  0.00    -0.331 F  
HETATM   24  F   UNL     1     -11.142   2.469  63.509  1.00  0.00    -0.239 F  
HETATM   25  F   UNL     1     -10.718   4.452  62.688  1.00  0.00    -0.167 F  
ENDBRANCH  18  21
ENDBRANCH  14  15
ENDBRANCH  13  14
ENDBRANCH   8  13
TORSDOF 4
ENDMDL
MODEL      169
REMARK 921   NORMALIZED FREE ENERGY PREDICTED BY IDOCK:   -4.29 KCAL/MOL
REMARK 922        TOTAL FREE ENERGY PREDICTED BY IDOCK:   -5.74 KCAL/MOL
REMARK 923 INTER-LIGAND FREE ENERGY PREDICTED BY IDOCK:   -4.75 KCAL/MOL
REMARK 924 INTRA-LIGAND FREE ENERGY PREDICTED BY IDOCK:   -0.99 KCAL/MOL
REMARK 927      BINDING AFFINITY PREDICTED BY RF-SCORE:    0.00 PKD
ROOT
HETATM    1  O   UNL     1     -11.962  11.621  68.224  1.00  0.00    -0.516 OA 
HETATM    2  N   UNL     1     -10.761  11.865  68.027  1.00  0.00    -0.200 N  
HETATM    3  C   UNL     1      -9.976  10.802  67.438  1.00  0.00    -0.184 A  
HETATM    4  O   UNL     1     -10.187  12.925  68.303  1.00  0.00    -0.234 OA 
HETATM    5  C   UNL     1     -10.393   9.513  67.143  1.00  0.00    -0.253 A  
HETATM    6  N   UNL     1      -9.282   8.920  66.621  1.00  0.00    -0.159 NA 
HETATM    7  C   UNL     1      -9.147   7.586  66.086  1.00  0.00    -0.137 C  
HETATM    8  C   UNL     1      -7.684   7.178  65.829  1.00  0.00    -0.099 C  
HETATM    9  C   UNL     1      -6.661   8.271  66.197  1.00  0.00    -0.050 C  
HETATM   10  C   UNL     1      -8.290   9.851  66.567  1.00  0.00    -0.125 A  
HETATM   11  N   UNL     1      -8.661  11.003  67.060  1.00  0.00    -0.136 NA 
HETATM   12  O   UNL     1      -7.110   9.607  66.011  1.00  0.00    -0.092 OA 
ENDROOT
BRANCH   8  13
HETATM   13  O   UNL     1      -7.440   5.977  66.577  1.00  0.00    -0.086 OA 
BRANCH  13  14
HETATM   14  C   UNL     1      -6.974   6.186  67.910  1.00  0.00    -0.076 C  
BRANCH  14  15
HETATM   15  C   UNL     1      -8.158   6.094  68.834  1.00  0.00    -0.108 A  
HETATM   16  C   UNL     1      -8.506   7.168  69.655  1.00  0.00    -0.134 A  
HETATM   17  C   UNL     1      -9.592   7.062  70.523  1.00  0.00    -0.169 A  
HETATM   18  C   UNL     1     -10.358   5.892  70.583  1.00  0.00    -0.235 A  
HETATM   19  C   UNL     1      -8.932   4.924  68.888  1.00  0.00    -0.136 A  
HETATM   20  C   UNL     1     -10.012   4.814  69.770  1.00  0.00    -0.308 A  
BRANCH  18  21
HETATM   21  O   UNL     1     -11.372   5.946  71.487  1.00  0.00    -0.264 OA 
HETATM   22  C   UNL     1     -11.109   5.773  72.869  1.00  0.00    -0.281 C  
HETATM   23  F   UNL     1      -9.946   5.141  73.129  1.00  0.00    -0.161 F  
HETATM   24  F   UNL     1     -12.107   5.026  73.394  1.00  0.00    -0.289 F  
HETATM   25  F   UNL     1     -11.111   6.973  73.490  1.00  0.00    -0.316 F  
ENDBRANCH  18  21
ENDBRANCH  14  15
ENDBRANCH  13  14
ENDBRANCH   8  13
TORSDOF 4
ENDMDL
MODEL      170
REMARK 921   NORMALIZED FREE ENERGY PREDICTED BY IDOCK:   -4.27 KCAL/MOL
REMARK 922        TOTAL FREE ENERGY PREDICTED BY IDOCK:   -5.71 KCAL/MOL
REMARK 923 INTER-LIGAND FREE ENERGY PREDICTED BY IDOCK:   -5.08 KCAL/MOL
REMARK 924 INTRA-LIGAND FREE ENERGY PREDICTED BY IDOCK:   -0.63 KCAL/MOL
REMARK 927      BINDING AFFINITY PREDICTED BY RF-SCORE:    0.00 PKD
ROOT
HETATM    1  O   UNL     1     -14.393  14.696  71.538  1.00  0.00    -0.449 OA 
HETATM    2  N   UNL     1     -13.376  15.397  71.671  1.00  0.00    -0.457 N  
HETATM    3  C   UNL     1     -12.278  15.115  70.773  1.00  0.00    -0.340 A  
HETATM    4  O   UNL     1     -13.226  16.295  72.507  1.00  0.00    -0.281 OA 
HETATM    5  C   UNL     1     -12.199  14.097  69.834  1.00  0.00    -0.359 A  
HETATM    6  N   UNL     1     -10.970  14.266  69.271  1.00  0.00    -0.254 NA 
HETATM    7  C   UNL     1     -10.371  13.520  68.188  1.00  0.00    -0.247 C  
HETATM    8  C   UNL     1      -8.872  13.822  67.997  1.00  0.00    -0.182 C  
HETATM    9  C   UNL     1      -8.313  14.852  68.998  1.00  0.00    -0.175 C  
HETATM   10  C   UNL     1     -10.396  15.370  69.825  1.00  0.00    -0.286 A  
HETATM   11  N   UNL     1     -11.147  15.911  70.747  1.00  0.00    -0.345 NA 
HETATM   12  O   UNL     1      -9.233  15.856  69.410  1.00  0.00    -0.252 OA 
ENDROOT
BRANCH   8  13
HETATM   13  O   UNL     1      -8.171  12.574  68.104  1.00  0.00    -0.154 OA 
BRANCH  13  14
HETATM   14  C   UNL     1      -7.067  12.427  67.211  1.00  0.00    -0.128 C  
BRANCH  14  15
HETATM   15  C   UNL     1      -7.254  11.141  66.452  1.00  0.00    -0.094 A  
HETATM   16  C   UNL     1      -8.415  10.382  66.614  1.00  0.00    -0.126 A  
HETATM   17  C   UNL     1      -8.566   9.180  65.923  1.00  0.00    -0.168 A  
HETATM   18  C   UNL     1      -7.572   8.718  65.051  1.00  0.00    -0.100 A  
HETATM   19  C   UNL     1      -6.263  10.682  65.571  1.00  0.00    -0.093 A  
HETATM   20  C   UNL     1      -6.410   9.469  64.890  1.00  0.00    -0.081 A  
BRANCH  18  21
HETATM   21  O   UNL     1      -7.868   7.527  64.465  1.00  0.00    -0.120 OA 
HETATM   22  C   UNL     1      -7.868   6.334  65.229  1.00  0.00    -0.107 C  
HETATM   23  F   UNL     1      -7.154   6.416  66.371  1.00  0.00    -0.061 F  
HETATM   24  F   UNL     1      -7.319   5.354  64.475  1.00  0.00    -0.056 F  
HETATM   25  F   UNL     1      -9.137   5.976  65.522  1.00  0.00    -0.162 F  
ENDBRANCH  18  21
ENDBRANCH  14  15
ENDBRANCH  13  14
ENDBRANCH   8  13
TORSDOF 4
ENDMDL
MODEL      171
REMARK 921   NORMALIZED FREE ENERGY PREDICTED BY IDOCK:   -4.26 KCAL/MOL
REMARK 922        TOTAL FREE ENERGY PREDICTED BY IDOCK:   -5.70 KCAL/MOL
REMARK 923 INTER-LIGAND FREE ENERGY PREDICTED BY IDOCK:   -5.02 KCAL/MOL
REMARK 924 INTRA-LIGAND FREE ENERGY PREDICTED BY IDOCK:   -0.68 KCAL/MOL
REMARK 927      BINDING AFFINITY PREDICTED BY RF-SCORE:    0.00 PKD
ROOT
HETATM    1  O   UNL     1      -7.300   8.091  73.327  1.00  0.00    -0.113 OA 
HETATM    2  N   UNL     1      -8.022   7.330  72.663  1.00  0.00    -0.097 N  
HETATM    3  C   UNL     1      -7.724   7.230  71.252  1.00  0.00    -0.088 A  
HETATM    4  O   UNL     1      -8.970   6.671  73.104  1.00  0.00    -0.128 OA 
HETATM    5  C   UNL     1      -6.777   7.948  70.538  1.00  0.00    -0.038 A  
HETATM    6  N   UNL     1      -6.908   7.488  69.262  1.00  0.00    -0.054 NA 
HETATM    7  C   UNL     1      -6.132   7.844  68.097  1.00  0.00    -0.042 C  
HETATM    8  C   UNL     1      -6.736   7.320  66.780  1.00  0.00    -0.061 C  
HETATM    9  C   UNL     1      -8.045   6.527  66.968  1.00  0.00    -0.113 C  
HETATM   10  C   UNL     1      -7.851   6.505  69.260  1.00  0.00    -0.110 A  
HETATM   11  N   UNL     1      -8.380   6.321  70.440  1.00  0.00    -0.124 NA 
HETATM   12  O   UNL     1      -8.134   5.788  68.180  1.00  0.00    -0.103 OA 
ENDROOT
BRANCH   8  13
HETATM   13  O   UNL     1      -6.946   8.456  65.928  1.00  0.00    -0.066 OA 
BRANCH  13  14
HETATM   14  C   UNL     1      -6.979   9.714  66.602  1.00  0.00    -0.085 C  
BRANCH  14  15
HETATM   15  C   UNL     1      -8.232  10.432  66.178  1.00  0.00    -0.144 A  
HETATM   16  C   UNL     1      -8.593  11.644  66.771  1.00  0.00    -0.180 A  
HETATM   17  C   UNL     1      -9.769  12.288  66.385  1.00  0.00    -0.243 A  
HETATM   18  C   UNL     1     -10.599  11.745  65.397  1.00  0.00    -0.277 A  
HETATM   19  C   UNL     1      -9.060   9.894  65.182  1.00  0.00    -0.257 A  
HETATM   20  C   UNL     1     -10.247  10.534  64.806  1.00  0.00    -0.373 A  
BRANCH  18  21
HETATM   21  O   UNL     1     -11.710  12.489  65.146  1.00  0.00    -0.344 OA 
HETATM   22  C   UNL     1     -12.077  12.800  63.813  1.00  0.00    -0.517 C  
HETATM   23  F   UNL     1     -11.062  12.701  62.929  1.00  0.00    -0.379 F  
HETATM   24  F   UNL     1     -12.517  14.078  63.787  1.00  0.00    -0.478 F  
HETATM   25  F   UNL     1     -13.090  11.999  63.418  1.00  0.00    -0.608 F  
ENDBRANCH  18  21
ENDBRANCH  14  15
ENDBRANCH  13  14
ENDBRANCH   8  13
TORSDOF 4
ENDMDL
MODEL      172
REMARK 921   NORMALIZED FREE ENERGY PREDICTED BY IDOCK:   -4.14 KCAL/MOL
REMARK 922        TOTAL FREE ENERGY PREDICTED BY IDOCK:   -5.56 KCAL/MOL
REMARK 923 INTER-LIGAND FREE ENERGY PREDICTED BY IDOCK:   -4.80 KCAL/MOL
REMARK 924 INTRA-LIGAND FREE ENERGY PREDICTED BY IDOCK:   -0.75 KCAL/MOL
REMARK 927      BINDING AFFINITY PREDICTED BY RF-SCORE:    0.00 PKD
ROOT
HETATM    1  O   UNL     1     -10.156   7.816  73.354  1.00  0.00    -0.317 OA 
HETATM    2  N   UNL     1      -9.104   8.240  72.851  1.00  0.00    -0.263 N  
HETATM    3  C   UNL     1      -9.225   8.908  71.574  1.00  0.00    -0.252 A  
HETATM    4  O   UNL     1      -7.975   8.129  73.343  1.00  0.00    -0.167 OA 
HETATM    5  C   UNL     1     -10.370   9.055  70.806  1.00  0.00    -0.243 A  
HETATM    6  N   UNL     1      -9.944   9.740  69.708  1.00  0.00    -0.222 NA 
HETATM    7  C   UNL     1     -10.726  10.222  68.594  1.00  0.00    -0.224 C  
HETATM    8  C   UNL     1      -9.867  10.720  67.417  1.00  0.00    -0.177 C  
HETATM    9  C   UNL     1      -8.349  10.601  67.661  1.00  0.00    -0.114 C  
HETATM   10  C   UNL     1      -8.622  10.022  69.870  1.00  0.00    -0.146 A  
HETATM   11  N   UNL     1      -8.141   9.529  70.980  1.00  0.00    -0.293 NA 
HETATM   12  O   UNL     1      -7.940  10.771  69.013  1.00  0.00    -0.126 OA 
ENDROOT
BRANCH   8  13
HETATM   13  O   UNL     1     -10.257   9.968  66.258  1.00  0.00    -0.241 OA 
BRANCH  13  14
HETATM   14  C   UNL     1      -9.202   9.238  65.633  1.00  0.00    -0.231 C  
BRANCH  14  15
HETATM   15  C   UNL     1      -9.331   7.796  66.046  1.00  0.00    -0.102 A  
HETATM   16  C   UNL     1      -8.268   6.908  65.869  1.00  0.00    -0.129 A  
HETATM   17  C   UNL     1      -8.408   5.569  66.234  1.00  0.00    -0.112 A  
HETATM   18  C   UNL     1      -9.601   5.093  66.791  1.00  0.00    -0.151 A  
HETATM   19  C   UNL     1     -10.523   7.320  66.611  1.00  0.00    -0.204 A  
HETATM   20  C   UNL     1     -10.667   5.974  66.963  1.00  0.00    -0.412 A  
BRANCH  18  21
HETATM   21  O   UNL     1      -9.579   3.764  67.080  1.00  0.00    -0.207 OA 
HETATM   22  C   UNL     1      -8.954   3.300  68.264  1.00  0.00    -0.140 C  
HETATM   23  F   UNL     1      -8.060   4.165  68.786  1.00  0.00    -0.070 F  
HETATM   24  F   UNL     1      -8.293   2.158  67.968  1.00  0.00    -0.063 F  
HETATM   25  F   UNL     1      -9.890   3.014  69.195  1.00  0.00    -0.196 F  
ENDBRANCH  18  21
ENDBRANCH  14  15
ENDBRANCH  13  14
ENDBRANCH   8  13
TORSDOF 4
ENDMDL
MODEL      173
REMARK 921   NORMALIZED FREE ENERGY PREDICTED BY IDOCK:   -4.11 KCAL/MOL
REMARK 922        TOTAL FREE ENERGY PREDICTED BY IDOCK:   -5.52 KCAL/MOL
REMARK 923 INTER-LIGAND FREE ENERGY PREDICTED BY IDOCK:   -4.46 KCAL/MOL
REMARK 924 INTRA-LIGAND FREE ENERGY PREDICTED BY IDOCK:   -1.06 KCAL/MOL
REMARK 927      BINDING AFFINITY PREDICTED BY RF-SCORE:    0.00 PKD
ROOT
HETATM    1  O   UNL     1     -12.123  10.945  71.122  1.00  0.00    -0.334 OA 
HETATM    2  N   UNL     1     -12.572   9.878  71.571  1.00  0.00    -0.383 N  
HETATM    3  C   UNL     1     -11.608   8.829  71.821  1.00  0.00    -0.346 A  
HETATM    4  O   UNL     1     -13.762   9.640  71.807  1.00  0.00    -0.342 OA 
HETATM    5  C   UNL     1     -10.250   8.849  71.539  1.00  0.00    -0.328 A  
HETATM    6  N   UNL     1      -9.811   7.627  71.953  1.00  0.00    -0.163 NA 
HETATM    7  C   UNL     1      -8.461   7.115  71.954  1.00  0.00    -0.108 C  
HETATM    8  C   UNL     1      -8.383   5.605  72.249  1.00  0.00    -0.119 C  
HETATM    9  C   UNL     1      -9.758   4.945  72.478  1.00  0.00    -0.150 C  
HETATM   10  C   UNL     1     -10.864   6.961  72.502  1.00  0.00    -0.244 A  
HETATM   11  N   UNL     1     -11.975   7.645  72.435  1.00  0.00    -0.283 NA 
HETATM   12  O   UNL     1     -10.734   5.779  73.091  1.00  0.00    -0.230 OA 
ENDROOT
BRANCH   8  13
HETATM   13  O   UNL     1      -7.701   4.991  71.145  1.00  0.00    -0.086 OA 
BRANCH  13  14
HETATM   14  C   UNL     1      -8.546   4.293  70.230  1.00  0.00    -0.069 C  
BRANCH  14  15
HETATM   15  C   UNL     1      -8.379   4.924  68.874  1.00  0.00    -0.082 A  
HETATM   16  C   UNL     1      -7.285   5.748  68.602  1.00  0.00    -0.082 A  
HETATM   17  C   UNL     1      -7.153   6.345  67.348  1.00  0.00    -0.077 A  
HETATM   18  C   UNL     1      -8.100   6.125  66.341  1.00  0.00    -0.111 A  
HETATM   19  C   UNL     1      -9.322   4.697  67.860  1.00  0.00    -0.169 A  
HETATM   20  C   UNL     1      -9.196   5.309  66.608  1.00  0.00    -0.130 A  
BRANCH  18  21
HETATM   21  O   UNL     1      -7.832   6.788  65.184  1.00  0.00    -0.105 OA 
HETATM   22  C   UNL     1      -8.260   8.128  65.011  1.00  0.00    -0.154 C  
HETATM   23  F   UNL     1      -9.269   8.490  65.831  1.00  0.00    -0.213 F  
HETATM   24  F   UNL     1      -8.699   8.267  63.739  1.00  0.00    -0.066 F  
HETATM   25  F   UNL     1      -7.218   8.968  65.190  1.00  0.00    -0.083 F  
ENDBRANCH  18  21
ENDBRANCH  14  15
ENDBRANCH  13  14
ENDBRANCH   8  13
TORSDOF 4
ENDMDL
MODEL      174
REMARK 921   NORMALIZED FREE ENERGY PREDICTED BY IDOCK:   -4.03 KCAL/MOL
REMARK 922        TOTAL FREE ENERGY PREDICTED BY IDOCK:   -5.42 KCAL/MOL
REMARK 923 INTER-LIGAND FREE ENERGY PREDICTED BY IDOCK:   -4.97 KCAL/MOL
REMARK 924 INTRA-LIGAND FREE ENERGY PREDICTED BY IDOCK:   -0.45 KCAL/MOL
REMARK 927      BINDING AFFINITY PREDICTED BY RF-SCORE:    0.00 PKD
ROOT
HETATM    1  O   UNL     1     -11.562  16.448  69.903  1.00  0.00    -0.200 OA 
HETATM    2  N   UNL     1     -10.518  16.051  69.362  1.00  0.00    -0.250 N  
HETATM    3  C   UNL     1     -10.529  14.694  68.860  1.00  0.00    -0.248 A  
HETATM    4  O   UNL     1      -9.480  16.709  69.231  1.00  0.00    -0.231 OA 
HETATM    5  C   UNL     1     -11.544  13.758  68.986  1.00  0.00    -0.313 A  
HETATM    6  N   UNL     1     -11.053  12.654  68.356  1.00  0.00    -0.249 NA 
HETATM    7  C   UNL     1     -11.707  11.387  68.130  1.00  0.00    -0.284 C  
HETATM    8  C   UNL     1     -10.753  10.291  67.618  1.00  0.00    -0.288 C  
HETATM    9  C   UNL     1      -9.294  10.764  67.455  1.00  0.00    -0.147 C  
HETATM   10  C   UNL     1      -9.832  12.967  67.841  1.00  0.00    -0.227 A  
HETATM   11  N   UNL     1      -9.468  14.188  68.130  1.00  0.00    -0.207 NA 
HETATM   12  O   UNL     1      -9.140  12.128  67.081  1.00  0.00    -0.177 OA 
ENDROOT
BRANCH   8  13
HETATM   13  O   UNL     1     -10.833   9.194  68.541  1.00  0.00    -0.157 OA 
BRANCH  13  14
HETATM   14  C   UNL     1     -11.056   9.567  69.900  1.00  0.00    -0.216 C  
BRANCH  14  15
HETATM   15  C   UNL     1     -10.302   8.602  70.774  1.00  0.00    -0.249 A  
HETATM   16  C   UNL     1     -10.468   8.618  72.161  1.00  0.00    -0.411 A  
HETATM   17  C   UNL     1      -9.746   7.733  72.961  1.00  0.00    -0.329 A  
HETATM   18  C   UNL     1      -8.856   6.810  72.398  1.00  0.00    -0.131 A  
HETATM   19  C   UNL     1      -9.417   7.671  70.210  1.00  0.00    -0.161 A  
HETATM   20  C   UNL     1      -8.682   6.794  71.016  1.00  0.00    -0.137 A  
BRANCH  18  21
HETATM   21  O   UNL     1      -8.224   6.029  73.315  1.00  0.00    -0.115 OA 
HETATM   22  C   UNL     1      -6.809   6.014  73.388  1.00  0.00    -0.080 C  
HETATM   23  F   UNL     1      -6.198   6.440  72.263  1.00  0.00    -0.044 F  
HETATM   24  F   UNL     1      -6.415   4.739  73.608  1.00  0.00    -0.050 F  
HETATM   25  F   UNL     1      -6.396   6.766  74.431  1.00  0.00    -0.072 F  
ENDBRANCH  18  21
ENDBRANCH  14  15
ENDBRANCH  13  14
ENDBRANCH   8  13
TORSDOF 4
ENDMDL
MODEL      175
REMARK 921   NORMALIZED FREE ENERGY PREDICTED BY IDOCK:   -4.03 KCAL/MOL
REMARK 922        TOTAL FREE ENERGY PREDICTED BY IDOCK:   -5.42 KCAL/MOL
REMARK 923 INTER-LIGAND FREE ENERGY PREDICTED BY IDOCK:   -4.79 KCAL/MOL
REMARK 924 INTRA-LIGAND FREE ENERGY PREDICTED BY IDOCK:   -0.63 KCAL/MOL
REMARK 927      BINDING AFFINITY PREDICTED BY RF-SCORE:    0.00 PKD
ROOT
HETATM    1  O   UNL     1     -13.917  14.721  71.607  1.00  0.00    -0.395 OA 
HETATM    2  N   UNL     1     -12.731  14.370  71.714  1.00  0.00    -0.336 N  
HETATM    3  C   UNL     1     -11.774  15.075  70.891  1.00  0.00    -0.328 A  
HETATM    4  O   UNL     1     -12.311  13.468  72.448  1.00  0.00     0.140 OA 
HETATM    5  C   UNL     1     -12.039  16.044  69.935  1.00  0.00    -0.113 A  
HETATM    6  N   UNL     1     -10.809  16.372  69.449  1.00  0.00    -0.314 NA 
HETATM    7  C   UNL     1     -10.472  17.374  68.465  1.00  0.00    -0.370 C  
HETATM    8  C   UNL     1      -9.015  17.281  67.975  1.00  0.00    -0.242 C  
HETATM    9  C   UNL     1      -8.212  16.137  68.627  1.00  0.00    -0.202 C  
HETATM   10  C   UNL     1      -9.876  15.661  70.141  1.00  0.00     0.052 A  
HETATM   11  N   UNL     1     -10.414  14.855  71.017  1.00  0.00     0.365 NA 
HETATM   12  O   UNL     1      -8.572  15.835  69.969  1.00  0.00     0.138 OA 
ENDROOT
BRANCH   8  13
HETATM   13  O   UNL     1      -9.056  17.127  66.548  1.00  0.00    -0.246 OA 
BRANCH  13  14
HETATM   14  C   UNL     1     -10.368  17.087  65.987  1.00  0.00    -0.315 C  
BRANCH  14  15
HETATM   15  C   UNL     1     -10.627  15.680  65.518  1.00  0.00    -0.422 A  
HETATM   16  C   UNL     1     -10.021  14.595  66.155  1.00  0.00    -0.323 A  
HETATM   17  C   UNL     1     -10.251  13.298  65.696  1.00  0.00    -0.295 A  
HETATM   18  C   UNL     1     -11.096  13.056  64.606  1.00  0.00    -0.332 A  
HETATM   19  C   UNL     1     -11.480  15.436  64.431  1.00  0.00    -0.260 A  
HETATM   20  C   UNL     1     -11.698  14.135  63.964  1.00  0.00    -0.234 A  
BRANCH  18  21
HETATM   21  O   UNL     1     -11.205  11.741  64.279  1.00  0.00    -0.334 OA 
HETATM   22  C   UNL     1     -10.199  11.109  63.506  1.00  0.00    -0.390 C  
HETATM   23  F   UNL     1      -9.437  11.967  62.795  1.00  0.00    -0.373 F  
HETATM   24  F   UNL     1     -10.806  10.279  62.627  1.00  0.00     0.548 F  
HETATM   25  F   UNL     1      -9.404  10.366  64.306  1.00  0.00    -0.210 F  
ENDBRANCH  18  21
ENDBRANCH  14  15
ENDBRANCH  13  14
ENDBRANCH   8  13
TORSDOF 4
ENDMDL
MODEL      176
REMARK 921   NORMALIZED FREE ENERGY PREDICTED BY IDOCK:   -4.00 KCAL/MOL
REMARK 922        TOTAL FREE ENERGY PREDICTED BY IDOCK:   -5.37 KCAL/MOL
REMARK 923 INTER-LIGAND FREE ENERGY PREDICTED BY IDOCK:   -4.72 KCAL/MOL
REMARK 924 INTRA-LIGAND FREE ENERGY PREDICTED BY IDOCK:   -0.66 KCAL/MOL
REMARK 927      BINDING AFFINITY PREDICTED BY RF-SCORE:    0.00 PKD
ROOT
HETATM    1  O   UNL     1      -7.500  19.242  68.960  1.00  0.00    -0.352 OA 
HETATM    2  N   UNL     1      -8.509  18.629  68.576  1.00  0.00    -0.335 N  
HETATM    3  C   UNL     1      -8.392  17.190  68.488  1.00  0.00    -0.262 A  
HETATM    4  O   UNL     1      -9.586  19.144  68.255  1.00  0.00    -0.316 OA 
HETATM    5  C   UNL     1      -7.258  16.422  68.704  1.00  0.00    -0.178 A  
HETATM    6  N   UNL     1      -7.678  15.145  68.485  1.00  0.00    -0.117 NA 
HETATM    7  C   UNL     1      -6.927  13.919  68.623  1.00  0.00    -0.108 C  
HETATM    8  C   UNL     1      -7.653  12.692  68.039  1.00  0.00    -0.132 C  
HETATM    9  C   UNL     1      -9.027  13.018  67.422  1.00  0.00    -0.204 C  
HETATM   10  C   UNL     1      -9.012  15.178  68.212  1.00  0.00    -0.175 A  
HETATM   11  N   UNL     1      -9.485  16.396  68.192  1.00  0.00    -0.210 NA 
HETATM   12  O   UNL     1      -9.736  14.078  68.052  1.00  0.00    -0.208 OA 
ENDROOT
BRANCH   8  13
HETATM   13  O   UNL     1      -6.779  12.109  67.059  1.00  0.00    -0.140 OA 
BRANCH  13  14
HETATM   14  C   UNL     1      -6.007  11.003  67.526  1.00  0.00    -0.046 C  
BRANCH  14  15
HETATM   15  C   UNL     1      -6.922   9.814  67.634  1.00  0.00    -0.086 A  
HETATM   16  C   UNL     1      -7.337   9.345  68.882  1.00  0.00    -0.073 A  
HETATM   17  C   UNL     1      -8.167   8.227  68.969  1.00  0.00    -0.119 A  
HETATM   18  C   UNL     1      -8.607   7.563  67.818  1.00  0.00    -0.120 A  
HETATM   19  C   UNL     1      -7.371   9.153  66.480  1.00  0.00    -0.089 A  
HETATM   20  C   UNL     1      -8.192   8.023  66.570  1.00  0.00    -0.115 A  
BRANCH  18  21
HETATM   21  O   UNL     1      -9.399   6.488  68.075  1.00  0.00    -0.113 OA 
HETATM   22  C   UNL     1     -10.735   6.453  67.603  1.00  0.00    -0.311 C  
HETATM   23  F   UNL     1     -11.244   7.668  67.313  1.00  0.00    -0.285 F  
HETATM   24  F   UNL     1     -11.506   5.907  68.571  1.00  0.00    -0.314 F  
HETATM   25  F   UNL     1     -10.814   5.665  66.509  1.00  0.00    -0.311 F  
ENDBRANCH  18  21
ENDBRANCH  14  15
ENDBRANCH  13  14
ENDBRANCH   8  13
TORSDOF 4
ENDMDL
MODEL      177
REMARK 921   NORMALIZED FREE ENERGY PREDICTED BY IDOCK:   -3.93 KCAL/MOL
REMARK 922        TOTAL FREE ENERGY PREDICTED BY IDOCK:   -5.30 KCAL/MOL
REMARK 923 INTER-LIGAND FREE ENERGY PREDICTED BY IDOCK:   -4.89 KCAL/MOL
REMARK 924 INTRA-LIGAND FREE ENERGY PREDICTED BY IDOCK:   -0.40 KCAL/MOL
REMARK 927      BINDING AFFINITY PREDICTED BY RF-SCORE:    0.00 PKD
ROOT
HETATM    1  O   UNL     1     -11.500  15.929  67.920  1.00  0.00    -0.299 OA 
HETATM    2  N   UNL     1     -10.650  15.231  67.344  1.00  0.00    -0.276 N  
HETATM    3  C   UNL     1     -10.619  13.830  67.702  1.00  0.00    -0.242 A  
HETATM    4  O   UNL     1      -9.832  15.635  66.511  1.00  0.00    -0.238 OA 
HETATM    5  C   UNL     1     -11.374  13.192  68.674  1.00  0.00    -0.289 A  
HETATM    6  N   UNL     1     -10.959  11.896  68.615  1.00  0.00    -0.215 NA 
HETATM    7  C   UNL     1     -11.446  10.764  69.368  1.00  0.00    -0.295 C  
HETATM    8  C   UNL     1     -10.562   9.511  69.225  1.00  0.00    -0.220 C  
HETATM    9  C   UNL     1      -9.335   9.717  68.314  1.00  0.00    -0.133 C  
HETATM   10  C   UNL     1     -10.046  11.787  67.610  1.00  0.00    -0.193 A  
HETATM   11  N   UNL     1      -9.801  12.935  67.036  1.00  0.00    -0.228 NA 
HETATM   12  O   UNL     1      -9.529  10.625  67.236  1.00  0.00    -0.157 OA 
ENDROOT
BRANCH   8  13
HETATM   13  O   UNL     1     -10.156   9.124  70.547  1.00  0.00    -0.201 OA 
BRANCH  13  14
HETATM   14  C   UNL     1      -8.855   8.544  70.629  1.00  0.00    -0.155 C  
BRANCH  14  15
HETATM   15  C   UNL     1      -8.985   7.073  70.340  1.00  0.00    -0.155 A  
HETATM   16  C   UNL     1      -7.958   6.380  69.697  1.00  0.00    -0.116 A  
HETATM   17  C   UNL     1      -8.101   5.022  69.414  1.00  0.00    -0.079 A  
HETATM   18  C   UNL     1      -9.261   4.327  69.775  1.00  0.00    -0.137 A  
HETATM   19  C   UNL     1     -10.144   6.374  70.709  1.00  0.00    -0.220 A  
HETATM   20  C   UNL     1     -10.292   5.015  70.411  1.00  0.00    -0.297 A  
BRANCH  18  21
HETATM   21  O   UNL     1      -9.248   3.015  69.418  1.00  0.00    -0.121 OA 
HETATM   22  C   UNL     1      -9.186   2.646  68.051  1.00  0.00    -0.205 C  
HETATM   23  F   UNL     1      -9.582   3.618  67.203  1.00  0.00    -0.207 F  
HETATM   24  F   UNL     1     -10.005   1.585  67.866  1.00  0.00    -0.157 F  
HETATM   25  F   UNL     1      -7.929   2.265  67.735  1.00  0.00    -0.059 F  
ENDBRANCH  18  21
ENDBRANCH  14  15
ENDBRANCH  13  14
ENDBRANCH   8  13
TORSDOF 4
ENDMDL
MODEL      178
REMARK 921   NORMALIZED FREE ENERGY PREDICTED BY IDOCK:   -3.90 KCAL/MOL
REMARK 922        TOTAL FREE ENERGY PREDICTED BY IDOCK:   -5.26 KCAL/MOL
REMARK 923 INTER-LIGAND FREE ENERGY PREDICTED BY IDOCK:   -4.52 KCAL/MOL
REMARK 924 INTRA-LIGAND FREE ENERGY PREDICTED BY IDOCK:   -0.74 KCAL/MOL
REMARK 927      BINDING AFFINITY PREDICTED BY RF-SCORE:    0.00 PKD
ROOT
HETATM    1  O   UNL     1     -14.090  14.813  72.926  1.00  0.00    -0.434 OA 
HETATM    2  N   UNL     1     -13.374  15.492  72.173  1.00  0.00    -0.433 N  
HETATM    3  C   UNL     1     -12.744  14.789  71.078  1.00  0.00    -0.345 A  
HETATM    4  O   UNL     1     -13.151  16.702  72.291  1.00  0.00     0.618 OA 
HETATM    5  C   UNL     1     -12.781  13.427  70.819  1.00  0.00    -0.228 A  
HETATM    6  N   UNL     1     -12.028  13.285  69.693  1.00  0.00    -0.320 NA 
HETATM    7  C   UNL     1     -11.765  12.084  68.936  1.00  0.00    -0.326 C  
HETATM    8  C   UNL     1     -10.661  12.260  67.877  1.00  0.00    -0.212 C  
HETATM    9  C   UNL     1     -10.056  13.678  67.840  1.00  0.00    -0.244 C  
HETATM   10  C   UNL     1     -11.626  14.523  69.292  1.00  0.00    -0.302 A  
HETATM   11  N   UNL     1     -12.027  15.464  70.106  1.00  0.00    -0.324 NA 
HETATM   12  O   UNL     1     -10.959  14.729  68.164  1.00  0.00    -0.254 OA 
ENDROOT
BRANCH   8  13
HETATM   13  O   UNL     1      -9.648  11.281  68.152  1.00  0.00    -0.173 OA 
BRANCH  13  14
HETATM   14  C   UNL     1     -10.040   9.929  67.913  1.00  0.00    -0.173 C  
BRANCH  14  15
HETATM   15  C   UNL     1      -9.436   9.075  68.996  1.00  0.00    -0.155 A  
HETATM   16  C   UNL     1      -9.126   7.735  68.756  1.00  0.00    -0.140 A  
HETATM   17  C   UNL     1      -8.589   6.948  69.774  1.00  0.00    -0.141 A  
HETATM   18  C   UNL     1      -8.341   7.482  71.045  1.00  0.00    -0.113 A  
HETATM   19  C   UNL     1      -9.179   9.611  70.267  1.00  0.00    -0.285 A  
HETATM   20  C   UNL     1      -8.654   8.816  71.292  1.00  0.00    -0.258 A  
BRANCH  18  21
HETATM   21  O   UNL     1      -7.827   6.582  71.926  1.00  0.00    -0.101 OA 
HETATM   22  C   UNL     1      -6.434   6.542  72.178  1.00  0.00    -0.054 C  
HETATM   23  F   UNL     1      -5.686   7.103  71.205  1.00  0.00    -0.033 F  
HETATM   24  F   UNL     1      -6.064   5.245  72.280  1.00  0.00    -0.025 F  
HETATM   25  F   UNL     1      -6.163   7.149  73.354  1.00  0.00    -0.059 F  
ENDBRANCH  18  21
ENDBRANCH  14  15
ENDBRANCH  13  14
ENDBRANCH   8  13
TORSDOF 4
ENDMDL
MODEL      179
REMARK 921   NORMALIZED FREE ENERGY PREDICTED BY IDOCK:   -3.88 KCAL/MOL
REMARK 922        TOTAL FREE ENERGY PREDICTED BY IDOCK:   -5.24 KCAL/MOL
REMARK 923 INTER-LIGAND FREE ENERGY PREDICTED BY IDOCK:   -4.16 KCAL/MOL
REMARK 924 INTRA-LIGAND FREE ENERGY PREDICTED BY IDOCK:   -1.08 KCAL/MOL
REMARK 927      BINDING AFFINITY PREDICTED BY RF-SCORE:    0.00 PKD
ROOT
HETATM    1  O   UNL     1     -10.607   7.937  66.843  1.00  0.00    -0.341 OA 
HETATM    2  N   UNL     1     -10.876   6.870  67.418  1.00  0.00    -0.315 N  
HETATM    3  C   UNL     1     -10.867   6.900  68.864  1.00  0.00    -0.207 A  
HETATM    4  O   UNL     1     -11.135   5.797  66.862  1.00  0.00    -0.222 OA 
HETATM    5  C   UNL     1     -10.512   7.961  69.682  1.00  0.00    -0.226 A  
HETATM    6  N   UNL     1     -10.665   7.470  70.944  1.00  0.00    -0.232 NA 
HETATM    7  C   UNL     1     -10.489   8.158  72.201  1.00  0.00    -0.284 C  
HETATM    8  C   UNL     1     -10.493   7.214  73.418  1.00  0.00    -0.368 C  
HETATM    9  C   UNL     1     -10.678   5.728  73.052  1.00  0.00    -0.257 C  
HETATM   10  C   UNL     1     -11.143   6.198  70.849  1.00  0.00    -0.307 A  
HETATM   11  N   UNL     1     -11.272   5.807  69.609  1.00  0.00    -0.259 NA 
HETATM   12  O   UNL     1     -11.493   5.484  71.911  1.00  0.00    -0.154 OA 
ENDROOT
BRANCH   8  13
HETATM   13  O   UNL     1      -9.254   7.416  74.116  1.00  0.00    -0.241 OA 
BRANCH  13  14
HETATM   14  C   UNL     1      -8.234   6.465  73.815  1.00  0.00    -0.111 C  
BRANCH  14  15
HETATM   15  C   UNL     1      -7.415   7.010  72.676  1.00  0.00    -0.084 A  
HETATM   16  C   UNL     1      -7.327   6.317  71.467  1.00  0.00    -0.088 A  
HETATM   17  C   UNL     1      -6.546   6.821  70.427  1.00  0.00    -0.048 A  
HETATM   18  C   UNL     1      -5.849   8.027  70.567  1.00  0.00    -0.029 A  
HETATM   19  C   UNL     1      -6.723   8.223  72.812  1.00  0.00    -0.109 A  
HETATM   20  C   UNL     1      -5.929   8.720  71.773  1.00  0.00    -0.061 A  
BRANCH  18  21
HETATM   21  O   UNL     1      -5.128   8.373  69.467  1.00  0.00    -0.029 OA 
HETATM   22  C   UNL     1      -5.699   9.196  68.465  1.00  0.00    -0.041 C  
HETATM   23  F   UNL     1      -7.049   9.212  68.474  1.00  0.00    -0.067 F  
HETATM   24  F   UNL     1      -5.305   8.724  67.260  1.00  0.00    -0.034 F  
HETATM   25  F   UNL     1      -5.239  10.460  68.592  1.00  0.00    -0.039 F  
ENDBRANCH  18  21
ENDBRANCH  14  15
ENDBRANCH  13  14
ENDBRANCH   8  13
TORSDOF 4
ENDMDL
MODEL      180
REMARK 921   NORMALIZED FREE ENERGY PREDICTED BY IDOCK:   -3.84 KCAL/MOL
REMARK 922        TOTAL FREE ENERGY PREDICTED BY IDOCK:   -5.18 KCAL/MOL
REMARK 923 INTER-LIGAND FREE ENERGY PREDICTED BY IDOCK:   -4.29 KCAL/MOL
REMARK 924 INTRA-LIGAND FREE ENERGY PREDICTED BY IDOCK:   -0.89 KCAL/MOL
REMARK 927      BINDING AFFINITY PREDICTED BY RF-SCORE:    0.00 PKD
ROOT
HETATM    1  O   UNL     1      -6.751   7.037  66.812  1.00  0.00    -0.056 OA 
HETATM    2  N   UNL     1      -7.809   7.514  66.373  1.00  0.00    -0.096 N  
HETATM    3  C   UNL     1      -8.619   8.257  67.313  1.00  0.00    -0.124 A  
HETATM    4  O   UNL     1      -8.226   7.395  65.215  1.00  0.00    -0.130 OA 
HETATM    5  C   UNL     1      -8.390   8.428  68.670  1.00  0.00    -0.120 A  
HETATM    6  N   UNL     1      -9.441   9.189  69.087  1.00  0.00    -0.154 NA 
HETATM    7  C   UNL     1      -9.692   9.723  70.405  1.00  0.00    -0.184 C  
HETATM    8  C   UNL     1     -11.107  10.311  70.564  1.00  0.00    -0.306 C  
HETATM    9  C   UNL     1     -11.970  10.208  69.290  1.00  0.00     0.167 C  
HETATM   10  C   UNL     1     -10.207   9.487  68.001  1.00  0.00    -0.201 A  
HETATM   11  N   UNL     1      -9.754   8.936  66.907  1.00  0.00    -0.183 NA 
HETATM   12  O   UNL     1     -11.252  10.302  68.066  1.00  0.00    -0.293 OA 
ENDROOT
BRANCH   8  13
HETATM   13  O   UNL     1     -11.732   9.625  71.660  1.00  0.00    -0.386 OA 
BRANCH  13  14
HETATM   14  C   UNL     1     -12.368   8.395  71.313  1.00  0.00    -0.266 C  
BRANCH  14  15
HETATM   15  C   UNL     1     -11.461   7.271  71.735  1.00  0.00    -0.300 A  
HETATM   16  C   UNL     1     -11.304   6.141  70.928  1.00  0.00    -0.355 A  
HETATM   17  C   UNL     1     -10.479   5.096  71.342  1.00  0.00    -0.249 A  
HETATM   18  C   UNL     1      -9.786   5.159  72.557  1.00  0.00    -0.151 A  
HETATM   19  C   UNL     1     -10.760   7.337  72.948  1.00  0.00    -0.365 A  
HETATM   20  C   UNL     1      -9.943   6.281  73.368  1.00  0.00    -0.194 A  
BRANCH  18  21
HETATM   21  O   UNL     1      -9.035   4.056  72.817  1.00  0.00    -0.104 OA 
HETATM   22  C   UNL     1      -7.637   4.174  73.023  1.00  0.00    -0.080 C  
HETATM   23  F   UNL     1      -7.103   5.305  72.516  1.00  0.00    -0.075 F  
HETATM   24  F   UNL     1      -7.035   3.129  72.411  1.00  0.00    -0.027 F  
HETATM   25  F   UNL     1      -7.361   4.104  74.343  1.00  0.00    -0.065 F  
ENDBRANCH  18  21
ENDBRANCH  14  15
ENDBRANCH  13  14
ENDBRANCH   8  13
TORSDOF 4
ENDMDL
MODEL      181
REMARK 921   NORMALIZED FREE ENERGY PREDICTED BY IDOCK:   -3.82 KCAL/MOL
REMARK 922        TOTAL FREE ENERGY PREDICTED BY IDOCK:   -5.16 KCAL/MOL
REMARK 923 INTER-LIGAND FREE ENERGY PREDICTED BY IDOCK:   -4.19 KCAL/MOL
REMARK 924 INTRA-LIGAND FREE ENERGY PREDICTED BY IDOCK:   -0.97 KCAL/MOL
REMARK 927      BINDING AFFINITY PREDICTED BY RF-SCORE:    0.00 PKD
ROOT
HETATM    1  O   UNL     1     -10.002  12.671  67.416  1.00  0.00    -0.202 OA 
HETATM    2  N   UNL     1     -10.998  12.143  67.935  1.00  0.00    -0.217 N  
HETATM    3  C   UNL     1     -10.742  11.077  68.878  1.00  0.00    -0.211 A  
HETATM    4  O   UNL     1     -12.174  12.443  67.703  1.00  0.00    -0.425 OA 
HETATM    5  C   UNL     1      -9.516  10.520  69.207  1.00  0.00    -0.173 A  
HETATM    6  N   UNL     1      -9.826   9.559  70.122  1.00  0.00    -0.228 NA 
HETATM    7  C   UNL     1      -8.929   8.695  70.853  1.00  0.00    -0.187 C  
HETATM    8  C   UNL     1      -9.651   7.558  71.600  1.00  0.00    -0.150 C  
HETATM    9  C   UNL     1     -11.182   7.567  71.414  1.00  0.00    -0.242 C  
HETATM   10  C   UNL     1     -11.168   9.604  70.347  1.00  0.00    -0.283 A  
HETATM   11  N   UNL     1     -11.766  10.501  69.609  1.00  0.00    -0.264 NA 
HETATM   12  O   UNL     1     -11.765   8.856  71.266  1.00  0.00    -0.276 OA 
ENDROOT
BRANCH   8  13
HETATM   13  O   UNL     1      -9.089   6.321  71.136  1.00  0.00    -0.146 OA 
BRANCH  13  14
HETATM   14  C   UNL     1      -9.895   5.610  70.197  1.00  0.00    -0.190 C  
BRANCH  14  15
HETATM   15  C   UNL     1      -9.222   5.693  68.854  1.00  0.00    -0.136 A  
HETATM   16  C   UNL     1      -7.837   5.851  68.761  1.00  0.00    -0.095 A  
HETATM   17  C   UNL     1      -7.228   5.950  67.510  1.00  0.00    -0.076 A  
HETATM   18  C   UNL     1      -7.981   5.884  66.332  1.00  0.00    -0.102 A  
HETATM   19  C   UNL     1      -9.975   5.618  67.673  1.00  0.00    -0.177 A  
HETATM   20  C   UNL     1      -9.363   5.733  66.419  1.00  0.00    -0.168 A  
BRANCH  18  21
HETATM   21  O   UNL     1      -7.239   6.008  65.199  1.00  0.00    -0.066 OA 
HETATM   22  C   UNL     1      -6.890   4.862  64.442  1.00  0.00    -0.048 C  
HETATM   23  F   UNL     1      -6.954   3.707  65.137  1.00  0.00    -0.051 F  
HETATM   24  F   UNL     1      -5.615   5.013  64.017  1.00  0.00    -0.015 F  
HETATM   25  F   UNL     1      -7.686   4.772  63.355  1.00  0.00    -0.061 F  
ENDBRANCH  18  21
ENDBRANCH  14  15
ENDBRANCH  13  14
ENDBRANCH   8  13
TORSDOF 4
ENDMDL
MODEL      182
REMARK 921   NORMALIZED FREE ENERGY PREDICTED BY IDOCK:   -3.81 KCAL/MOL
REMARK 922        TOTAL FREE ENERGY PREDICTED BY IDOCK:   -5.14 KCAL/MOL
REMARK 923 INTER-LIGAND FREE ENERGY PREDICTED BY IDOCK:   -4.25 KCAL/MOL
REMARK 924 INTRA-LIGAND FREE ENERGY PREDICTED BY IDOCK:   -0.89 KCAL/MOL
REMARK 927      BINDING AFFINITY PREDICTED BY RF-SCORE:    0.00 PKD
ROOT
HETATM    1  O   UNL     1     -12.915   9.382  71.216  1.00  0.00    -0.328 OA 
HETATM    2  N   UNL     1     -13.153   8.225  71.598  1.00  0.00    -0.336 N  
HETATM    3  C   UNL     1     -12.008   7.361  71.784  1.00  0.00    -0.305 A  
HETATM    4  O   UNL     1     -14.276   7.756  71.815  1.00  0.00    -0.406 OA 
HETATM    5  C   UNL     1     -10.681   7.650  71.507  1.00  0.00    -0.221 A  
HETATM    6  N   UNL     1     -10.018   6.509  71.846  1.00  0.00    -0.178 NA 
HETATM    7  C   UNL     1      -8.596   6.257  71.818  1.00  0.00    -0.133 C  
HETATM    8  C   UNL     1      -8.237   4.773  72.020  1.00  0.00    -0.110 C  
HETATM    9  C   UNL     1      -9.462   3.856  72.205  1.00  0.00    -0.132 C  
HETATM   10  C   UNL     1     -10.923   5.626  72.351  1.00  0.00    -0.259 A  
HETATM   11  N   UNL     1     -12.143   6.094  72.323  1.00  0.00    -0.266 NA 
HETATM   12  O   UNL     1     -10.571   4.455  72.865  1.00  0.00    -0.182 OA 
ENDROOT
BRANCH   8  13
HETATM   13  O   UNL     1      -7.462   4.365  70.881  1.00  0.00    -0.050 OA 
BRANCH  13  14
HETATM   14  C   UNL     1      -8.031   3.301  70.119  1.00  0.00    -0.045 C  
BRANCH  14  15
HETATM   15  C   UNL     1      -8.235   3.798  68.713  1.00  0.00    -0.084 A  
HETATM   16  C   UNL     1      -7.141   4.114  67.904  1.00  0.00    -0.059 A  
HETATM   17  C   UNL     1      -7.344   4.595  66.611  1.00  0.00    -0.081 A  
HETATM   18  C   UNL     1      -8.635   4.761  66.095  1.00  0.00    -0.115 A  
HETATM   19  C   UNL     1      -9.528   3.956  68.193  1.00  0.00    -0.219 A  
HETATM   20  C   UNL     1      -9.730   4.453  66.900  1.00  0.00    -0.233 A  
BRANCH  18  21
HETATM   21  O   UNL     1      -8.661   5.249  64.826  1.00  0.00    -0.148 OA 
HETATM   22  C   UNL     1      -8.905   4.384  63.731  1.00  0.00    -0.139 C  
HETATM   23  F   UNL     1      -8.662   3.083  63.996  1.00  0.00    -0.089 F  
HETATM   24  F   UNL     1      -8.089   4.752  62.717  1.00  0.00    -0.063 F  
HETATM   25  F   UNL     1     -10.182   4.522  63.314  1.00  0.00    -0.073 F  
ENDBRANCH  18  21
ENDBRANCH  14  15
ENDBRANCH  13  14
ENDBRANCH   8  13
TORSDOF 4
ENDMDL
MODEL      183
REMARK 921   NORMALIZED FREE ENERGY PREDICTED BY IDOCK:   -3.79 KCAL/MOL
REMARK 922        TOTAL FREE ENERGY PREDICTED BY IDOCK:   -5.12 KCAL/MOL
REMARK 923 INTER-LIGAND FREE ENERGY PREDICTED BY IDOCK:   -4.32 KCAL/MOL
REMARK 924 INTRA-LIGAND FREE ENERGY PREDICTED BY IDOCK:   -0.80 KCAL/MOL
REMARK 927      BINDING AFFINITY PREDICTED BY RF-SCORE:    0.00 PKD
ROOT
HETATM    1  O   UNL     1     -10.421  20.088  68.859  1.00  0.00    -0.345 OA 
HETATM    2  N   UNL     1     -10.658  19.368  67.876  1.00  0.00    -0.416 N  
HETATM    3  C   UNL     1     -10.154  18.014  67.932  1.00  0.00    -0.355 A  
HETATM    4  O   UNL     1     -11.271  19.717  66.861  1.00  0.00    -0.299 OA 
HETATM    5  C   UNL     1      -9.364  17.450  68.923  1.00  0.00    -0.183 A  
HETATM    6  N   UNL     1      -9.162  16.173  68.496  1.00  0.00    -0.203 NA 
HETATM    7  C   UNL     1      -8.454  15.106  69.163  1.00  0.00    -0.220 C  
HETATM    8  C   UNL     1      -8.207  13.881  68.262  1.00  0.00    -0.158 C  
HETATM    9  C   UNL     1      -8.759  14.041  66.832  1.00  0.00    -0.164 C  
HETATM   10  C   UNL     1      -9.856  15.998  67.337  1.00  0.00    -0.236 A  
HETATM   11  N   UNL     1     -10.464  17.089  66.952  1.00  0.00    -0.299 NA 
HETATM   12  O   UNL     1      -9.942  14.824  66.725  1.00  0.00    -0.241 OA 
ENDROOT
BRANCH   8  13
HETATM   13  O   UNL     1      -6.790  13.650  68.239  1.00  0.00    -0.085 OA 
BRANCH  13  14
HETATM   14  C   UNL     1      -6.362  12.477  68.930  1.00  0.00    -0.086 C  
BRANCH  14  15
HETATM   15  C   UNL     1      -6.485  11.313  67.985  1.00  0.00    -0.057 A  
HETATM   16  C   UNL     1      -7.299  10.223  68.300  1.00  0.00    -0.085 A  
HETATM   17  C   UNL     1      -7.387   9.140  67.426  1.00  0.00    -0.084 A  
HETATM   18  C   UNL     1      -6.676   9.125  66.220  1.00  0.00    -0.071 A  
HETATM   19  C   UNL     1      -5.780  11.301  66.772  1.00  0.00    -0.120 A  
HETATM   20  C   UNL     1      -5.858  10.207  65.903  1.00  0.00    -0.078 A  
BRANCH  18  21
HETATM   21  O   UNL     1      -6.861   7.994  65.488  1.00  0.00    -0.057 OA 
HETATM   22  C   UNL     1      -7.703   8.008  64.348  1.00  0.00    -0.130 C  
HETATM   23  F   UNL     1      -8.588   9.026  64.334  1.00  0.00    -0.164 F  
HETATM   24  F   UNL     1      -8.408   6.853  64.335  1.00  0.00    -0.110 F  
HETATM   25  F   UNL     1      -6.953   8.055  63.226  1.00  0.00    -0.078 F  
ENDBRANCH  18  21
ENDBRANCH  14  15
ENDBRANCH  13  14
ENDBRANCH   8  13
TORSDOF 4
ENDMDL
MODEL      184
REMARK 921   NORMALIZED FREE ENERGY PREDICTED BY IDOCK:   -3.78 KCAL/MOL
REMARK 922        TOTAL FREE ENERGY PREDICTED BY IDOCK:   -5.11 KCAL/MOL
REMARK 923 INTER-LIGAND FREE ENERGY PREDICTED BY IDOCK:   -4.45 KCAL/MOL
REMARK 924 INTRA-LIGAND FREE ENERGY PREDICTED BY IDOCK:   -0.66 KCAL/MOL
REMARK 927      BINDING AFFINITY PREDICTED BY RF-SCORE:    0.00 PKD
ROOT
HETATM    1  O   UNL     1      -7.186  13.758  67.535  1.00  0.00    -0.168 OA 
HETATM    2  N   UNL     1      -6.551  12.694  67.464  1.00  0.00    -0.145 N  
HETATM    3  C   UNL     1      -7.305  11.519  67.087  1.00  0.00    -0.139 A  
HETATM    4  O   UNL     1      -5.345  12.558  67.701  1.00  0.00    -0.091 OA 
HETATM    5  C   UNL     1      -8.673  11.429  66.874  1.00  0.00    -0.165 A  
HETATM    6  N   UNL     1      -8.870  10.119  66.556  1.00  0.00    -0.139 NA 
HETATM    7  C   UNL     1     -10.101   9.465  66.178  1.00  0.00    -0.254 C  
HETATM    8  C   UNL     1      -9.989   7.929  66.146  1.00  0.00     0.135 C  
HETATM    9  C   UNL     1      -8.592   7.399  66.526  1.00  0.00    -0.132 C  
HETATM   10  C   UNL     1      -7.657   9.500  66.531  1.00  0.00    -0.094 A  
HETATM   11  N   UNL     1      -6.681  10.306  66.856  1.00  0.00    -0.078 NA 
HETATM   12  O   UNL     1      -7.506   8.238  66.152  1.00  0.00    -0.079 OA 
ENDROOT
BRANCH   8  13
HETATM   13  O   UNL     1     -10.990   7.411  67.037  1.00  0.00    -0.332 OA 
BRANCH  13  14
HETATM   14  C   UNL     1     -10.980   5.992  67.191  1.00  0.00    -0.268 C  
BRANCH  14  15
HETATM   15  C   UNL     1     -10.685   5.687  68.635  1.00  0.00    -0.249 A  
HETATM   16  C   UNL     1     -11.362   6.358  69.657  1.00  0.00    -0.479 A  
HETATM   17  C   UNL     1     -11.063   6.082  70.991  1.00  0.00    -0.348 A  
HETATM   18  C   UNL     1     -10.096   5.130  71.333  1.00  0.00    -0.200 A  
HETATM   19  C   UNL     1      -9.722   4.727  68.979  1.00  0.00    -0.248 A  
HETATM   20  C   UNL     1      -9.414   4.463  70.319  1.00  0.00    -0.242 A  
BRANCH  18  21
HETATM   21  O   UNL     1      -9.916   4.989  72.674  1.00  0.00    -0.158 OA 
HETATM   22  C   UNL     1     -10.347   3.811  73.334  1.00  0.00    -0.163 C  
HETATM   23  F   UNL     1     -11.285   3.117  72.657  1.00  0.00    -0.063 F  
HETATM   24  F   UNL     1     -10.884   4.171  74.523  1.00  0.00    -0.268 F  
HETATM   25  F   UNL     1      -9.289   3.009  73.577  1.00  0.00    -0.084 F  
ENDBRANCH  18  21
ENDBRANCH  14  15
ENDBRANCH  13  14
ENDBRANCH   8  13
TORSDOF 4
ENDMDL
MODEL      185
REMARK 921   NORMALIZED FREE ENERGY PREDICTED BY IDOCK:   -3.72 KCAL/MOL
REMARK 922        TOTAL FREE ENERGY PREDICTED BY IDOCK:   -5.03 KCAL/MOL
REMARK 923 INTER-LIGAND FREE ENERGY PREDICTED BY IDOCK:   -4.07 KCAL/MOL
REMARK 924 INTRA-LIGAND FREE ENERGY PREDICTED BY IDOCK:   -0.96 KCAL/MOL
REMARK 927      BINDING AFFINITY PREDICTED BY RF-SCORE:    0.00 PKD
ROOT
HETATM    1  O   UNL     1     -12.710   7.506  71.835  1.00  0.00    -0.316 OA 
HETATM    2  N   UNL     1     -11.535   7.705  72.183  1.00  0.00    -0.282 N  
HETATM    3  C   UNL     1     -10.714   8.470  71.271  1.00  0.00    -0.240 A  
HETATM    4  O   UNL     1     -11.015   7.295  73.227  1.00  0.00    -0.352 OA 
HETATM    5  C   UNL     1     -11.065   8.938  70.013  1.00  0.00    -0.170 A  
HETATM    6  N   UNL     1      -9.944   9.578  69.576  1.00  0.00    -0.182 NA 
HETATM    7  C   UNL     1      -9.752  10.308  68.345  1.00  0.00    -0.156 C  
HETATM    8  C   UNL     1      -8.280  10.671  68.076  1.00  0.00    -0.113 C  
HETATM    9  C   UNL     1      -7.309  10.179  69.168  1.00  0.00    -0.089 C  
HETATM   10  C   UNL     1      -9.012   9.527  70.568  1.00  0.00    -0.211 A  
HETATM   11  N   UNL     1      -9.430   8.857  71.609  1.00  0.00    -0.289 NA 
HETATM   12  O   UNL     1      -7.845  10.151  70.485  1.00  0.00    -0.195 OA 
ENDROOT
BRANCH   8  13
HETATM   13  O   UNL     1      -7.933  10.116  66.798  1.00  0.00    -0.113 OA 
BRANCH  13  14
HETATM   14  C   UNL     1      -6.709   9.381  66.775  1.00  0.00    -0.072 C  
BRANCH  14  15
HETATM   15  C   UNL     1      -7.035   7.951  66.439  1.00  0.00    -0.067 A  
HETATM   16  C   UNL     1      -7.912   7.647  65.396  1.00  0.00    -0.123 A  
HETATM   17  C   UNL     1      -8.225   6.318  65.109  1.00  0.00    -0.138 A  
HETATM   18  C   UNL     1      -7.663   5.269  65.847  1.00  0.00    -0.091 A  
HETATM   19  C   UNL     1      -6.466   6.898  67.172  1.00  0.00    -0.049 A  
HETATM   20  C   UNL     1      -6.792   5.566  66.892  1.00  0.00    -0.063 A  
BRANCH  18  21
HETATM   21  O   UNL     1      -8.078   4.036  65.449  1.00  0.00    -0.099 OA 
HETATM   22  C   UNL     1      -9.310   3.512  65.913  1.00  0.00    -0.157 C  
HETATM   23  F   UNL     1      -9.760   4.092  67.046  1.00  0.00    -0.200 F  
HETATM   24  F   UNL     1      -9.134   2.195  66.171  1.00  0.00    -0.125 F  
HETATM   25  F   UNL     1     -10.250   3.628  64.951  1.00  0.00    -0.177 F  
ENDBRANCH  18  21
ENDBRANCH  14  15
ENDBRANCH  13  14
ENDBRANCH   8  13
TORSDOF 4
ENDMDL
MODEL      186
REMARK 921   NORMALIZED FREE ENERGY PREDICTED BY IDOCK:   -3.69 KCAL/MOL
REMARK 922        TOTAL FREE ENERGY PREDICTED BY IDOCK:   -4.99 KCAL/MOL
REMARK 923 INTER-LIGAND FREE ENERGY PREDICTED BY IDOCK:   -3.82 KCAL/MOL
REMARK 924 INTRA-LIGAND FREE ENERGY PREDICTED BY IDOCK:   -1.17 KCAL/MOL
REMARK 927      BINDING AFFINITY PREDICTED BY RF-SCORE:    0.00 PKD
ROOT
HETATM    1  O   UNL     1      -5.136   6.044  67.805  1.00  0.00    -0.004 OA 
HETATM    2  N   UNL     1      -5.449   6.726  66.815  1.00  0.00    -0.017 N  
HETATM    3  C   UNL     1      -6.101   7.988  67.084  1.00  0.00    -0.054 A  
HETATM    4  O   UNL     1      -5.262   6.409  65.635  1.00  0.00    -0.013 OA 
HETATM    5  C   UNL     1      -6.491   8.489  68.317  1.00  0.00    -0.060 A  
HETATM    6  N   UNL     1      -7.060   9.690  68.019  1.00  0.00    -0.079 NA 
HETATM    7  C   UNL     1      -7.594  10.678  68.927  1.00  0.00    -0.113 C  
HETATM    8  C   UNL     1      -8.390  11.790  68.218  1.00  0.00    -0.159 C  
HETATM    9  C   UNL     1      -8.461  11.623  66.686  1.00  0.00    -0.165 C  
HETATM   10  C   UNL     1      -6.947   9.893  66.677  1.00  0.00    -0.086 A  
HETATM   11  N   UNL     1      -6.382   8.884  66.068  1.00  0.00    -0.056 NA 
HETATM   12  O   UNL     1      -7.317  11.024  66.091  1.00  0.00    -0.129 OA 
ENDROOT
BRANCH   8  13
HETATM   13  O   UNL     1      -9.707  11.801  68.791  1.00  0.00    -0.168 OA 
BRANCH  13  14
HETATM   14  C   UNL     1     -10.693  11.091  68.042  1.00  0.00    -0.217 C  
BRANCH  14  15
HETATM   15  C   UNL     1     -10.774   9.693  68.594  1.00  0.00    -0.233 A  
HETATM   16  C   UNL     1     -11.100   9.474  69.933  1.00  0.00    -0.244 A  
HETATM   17  C   UNL     1     -11.149   8.175  70.438  1.00  0.00    -0.239 A  
HETATM   18  C   UNL     1     -10.885   7.071  69.618  1.00  0.00    -0.247 A  
HETATM   19  C   UNL     1     -10.518   8.586  67.770  1.00  0.00    -0.287 A  
HETATM   20  C   UNL     1     -10.553   7.284  68.282  1.00  0.00    -0.217 A  
BRANCH  18  21
HETATM   21  O   UNL     1     -10.963   5.877  70.265  1.00  0.00    -0.312 OA 
HETATM   22  C   UNL     1      -9.856   5.390  71.003  1.00  0.00    -0.187 C  
HETATM   23  F   UNL     1      -8.677   5.940  70.648  1.00  0.00    -0.128 F  
HETATM   24  F   UNL     1      -9.766   4.057  70.790  1.00  0.00    -0.220 F  
HETATM   25  F   UNL     1     -10.061   5.591  72.323  1.00  0.00    -0.190 F  
ENDBRANCH  18  21
ENDBRANCH  14  15
ENDBRANCH  13  14
ENDBRANCH   8  13
TORSDOF 4
ENDMDL
MODEL      187
REMARK 921   NORMALIZED FREE ENERGY PREDICTED BY IDOCK:   -3.68 KCAL/MOL
REMARK 922        TOTAL FREE ENERGY PREDICTED BY IDOCK:   -4.98 KCAL/MOL
REMARK 923 INTER-LIGAND FREE ENERGY PREDICTED BY IDOCK:   -5.70 KCAL/MOL
REMARK 924 INTRA-LIGAND FREE ENERGY PREDICTED BY IDOCK:    0.72 KCAL/MOL
REMARK 927      BINDING AFFINITY PREDICTED BY RF-SCORE:    0.00 PKD
ROOT
HETATM    1  O   UNL     1      -9.663  10.784  64.147  1.00  0.00    -0.254 OA 
HETATM    2  N   UNL     1      -9.469   9.852  64.943  1.00  0.00    -0.278 N  
HETATM    3  C   UNL     1     -10.176   9.924  66.203  1.00  0.00    -0.207 A  
HETATM    4  O   UNL     1      -8.721   8.886  64.753  1.00  0.00    -0.179 OA 
HETATM    5  C   UNL     1     -10.982  10.957  66.657  1.00  0.00    -0.148 A  
HETATM    6  N   UNL     1     -11.390  10.538  67.888  1.00  0.00    -0.395 NA 
HETATM    7  C   UNL     1     -12.297  11.192  68.802  1.00  0.00     0.202 C  
HETATM    8  C   UNL     1     -12.316  10.553  70.203  1.00  0.00    -0.265 C  
HETATM    9  C   UNL     1     -11.363   9.349  70.350  1.00  0.00    -0.248 C  
HETATM   10  C   UNL     1     -10.884   9.292  68.102  1.00  0.00    -0.090 A  
HETATM   11  N   UNL     1     -10.134   8.883  67.113  1.00  0.00    -0.226 NA 
HETATM   12  O   UNL     1     -11.188   8.570  69.173  1.00  0.00     0.107 OA 
ENDROOT
BRANCH   8  13
HETATM   13  O   UNL     1     -11.984  11.584  71.145  1.00  0.00    -0.169 OA 
BRANCH  13  14
HETATM   14  C   UNL     1     -12.974  12.602  71.295  1.00  0.00    -0.214 C  
BRANCH  14  15
HETATM   15  C   UNL     1     -12.350  13.914  70.902  1.00  0.00    -0.451 A  
HETATM   16  C   UNL     1     -12.195  14.254  69.557  1.00  0.00    -0.341 A  
HETATM   17  C   UNL     1     -11.594  15.463  69.206  1.00  0.00    -0.354 A  
HETATM   18  C   UNL     1     -11.148  16.359  70.185  1.00  0.00    -0.277 A  
HETATM   19  C   UNL     1     -11.910  14.816  71.882  1.00  0.00    -0.357 A  
HETATM   20  C   UNL     1     -11.294  16.022  71.528  1.00  0.00    -0.342 A  
BRANCH  18  21
HETATM   21  O   UNL     1     -10.576  17.484  69.678  1.00  0.00    -0.080 OA 
HETATM   22  C   UNL     1     -10.363  17.613  68.283  1.00  0.00    -0.384 C  
HETATM   23  F   UNL     1     -10.347  16.437  67.622  1.00  0.00    -0.255 F  
HETATM   24  F   UNL     1      -9.160  18.203  68.096  1.00  0.00    -0.260 F  
HETATM   25  F   UNL     1     -11.311  18.411  67.746  1.00  0.00    -0.234 F  
ENDBRANCH  18  21
ENDBRANCH  14  15
ENDBRANCH  13  14
ENDBRANCH   8  13
TORSDOF 4
ENDMDL
MODEL      188
REMARK 921   NORMALIZED FREE ENERGY PREDICTED BY IDOCK:   -3.67 KCAL/MOL
REMARK 922        TOTAL FREE ENERGY PREDICTED BY IDOCK:   -4.98 KCAL/MOL
REMARK 923 INTER-LIGAND FREE ENERGY PREDICTED BY IDOCK:   -4.33 KCAL/MOL
REMARK 924 INTRA-LIGAND FREE ENERGY PREDICTED BY IDOCK:   -0.65 KCAL/MOL
REMARK 927      BINDING AFFINITY PREDICTED BY RF-SCORE:    0.00 PKD
ROOT
HETATM    1  O   UNL     1      -6.479  17.216  68.104  1.00  0.00    -0.142 OA 
HETATM    2  N   UNL     1      -6.419  16.198  67.396  1.00  0.00    -0.169 N  
HETATM    3  C   UNL     1      -7.535  15.283  67.488  1.00  0.00    -0.190 A  
HETATM    4  O   UNL     1      -5.487  15.903  66.639  1.00  0.00    -0.005 OA 
HETATM    5  C   UNL     1      -8.627  15.371  68.337  1.00  0.00    -0.162 A  
HETATM    6  N   UNL     1      -9.369  14.268  68.034  1.00  0.00    -0.194 NA 
HETATM    7  C   UNL     1     -10.650  13.875  68.572  1.00  0.00    -0.252 C  
HETATM    8  C   UNL     1     -11.057  12.440  68.187  1.00  0.00    -0.247 C  
HETATM    9  C   UNL     1     -10.017  11.713  67.311  1.00  0.00    -0.191 C  
HETATM   10  C   UNL     1      -8.753  13.610  67.013  1.00  0.00    -0.192 A  
HETATM   11  N   UNL     1      -7.634  14.182  66.656  1.00  0.00     0.589 NA 
HETATM   12  O   UNL     1      -9.285  12.548  66.422  1.00  0.00    -0.230 OA 
ENDROOT
BRANCH   8  13
HETATM   13  O   UNL     1     -11.287  11.721  69.409  1.00  0.00    -0.257 OA 
BRANCH  13  14
HETATM   14  C   UNL     1     -11.994  10.491  69.257  1.00  0.00    -0.122 C  
BRANCH  14  15
HETATM   15  C   UNL     1     -11.694   9.634  70.458  1.00  0.00    -0.312 A  
HETATM   16  C   UNL     1     -12.671   8.793  70.994  1.00  0.00    -0.068 A  
HETATM   17  C   UNL     1     -12.387   8.022  72.121  1.00  0.00    -0.358 A  
HETATM   18  C   UNL     1     -11.126   8.065  72.727  1.00  0.00    -0.381 A  
HETATM   19  C   UNL     1     -10.427   9.670  71.060  1.00  0.00    -0.327 A  
HETATM   20  C   UNL     1     -10.149   8.906  72.200  1.00  0.00    -0.287 A  
BRANCH  18  21
HETATM   21  O   UNL     1     -11.016   7.263  73.821  1.00  0.00    -0.255 OA 
HETATM   22  C   UNL     1     -10.462   5.964  73.703  1.00  0.00    -0.265 C  
HETATM   23  F   UNL     1     -10.491   5.469  72.449  1.00  0.00    -0.216 F  
HETATM   24  F   UNL     1     -11.183   5.130  74.488  1.00  0.00     0.028 F  
HETATM   25  F   UNL     1      -9.189   5.966  74.152  1.00  0.00    -0.124 F  
ENDBRANCH  18  21
ENDBRANCH  14  15
ENDBRANCH  13  14
ENDBRANCH   8  13
TORSDOF 4
ENDMDL
MODEL      189
REMARK 921   NORMALIZED FREE ENERGY PREDICTED BY IDOCK:   -3.67 KCAL/MOL
REMARK 922        TOTAL FREE ENERGY PREDICTED BY IDOCK:   -4.97 KCAL/MOL
REMARK 923 INTER-LIGAND FREE ENERGY PREDICTED BY IDOCK:   -4.46 KCAL/MOL
REMARK 924 INTRA-LIGAND FREE ENERGY PREDICTED BY IDOCK:   -0.51 KCAL/MOL
REMARK 927      BINDING AFFINITY PREDICTED BY RF-SCORE:    0.00 PKD
ROOT
HETATM    1  O   UNL     1     -13.197  15.710  70.451  1.00  0.00    -0.361 OA 
HETATM    2  N   UNL     1     -12.092  15.534  69.914  1.00  0.00    -0.359 N  
HETATM    3  C   UNL     1     -11.729  14.165  69.620  1.00  0.00    -0.316 A  
HETATM    4  O   UNL     1     -11.283  16.423  69.625  1.00  0.00    -0.323 OA 
HETATM    5  C   UNL     1     -12.439  13.019  69.944  1.00  0.00     0.004 A  
HETATM    6  N   UNL     1     -11.667  12.006  69.458  1.00  0.00    -0.323 NA 
HETATM    7  C   UNL     1     -11.943  10.589  69.462  1.00  0.00    -0.186 C  
HETATM    8  C   UNL     1     -10.727   9.731  69.063  1.00  0.00    -0.217 C  
HETATM    9  C   UNL     1      -9.463  10.554  68.745  1.00  0.00    -0.180 C  
HETATM   10  C   UNL     1     -10.591  12.556  68.830  1.00  0.00    -0.118 A  
HETATM   11  N   UNL     1     -10.581  13.861  68.912  1.00  0.00    -0.236 NA 
HETATM   12  O   UNL     1      -9.703  11.830  68.164  1.00  0.00    -0.180 OA 
ENDROOT
BRANCH   8  13
HETATM   13  O   UNL     1     -10.482   8.815  70.141  1.00  0.00    -0.202 OA 
BRANCH  13  14
HETATM   14  C   UNL     1     -10.863   7.465  69.879  1.00  0.00    -0.246 C  
BRANCH  14  15
HETATM   15  C   UNL     1     -10.043   6.970  68.718  1.00  0.00    -0.170 A  
HETATM   16  C   UNL     1     -10.636   6.742  67.475  1.00  0.00    -0.348 A  
HETATM   17  C   UNL     1      -9.870   6.262  66.413  1.00  0.00    -0.128 A  
HETATM   18  C   UNL     1      -8.501   6.010  66.564  1.00  0.00    -0.115 A  
HETATM   19  C   UNL     1      -8.669   6.726  68.867  1.00  0.00    -0.129 A  
HETATM   20  C   UNL     1      -7.906   6.230  67.805  1.00  0.00    -0.106 A  
BRANCH  18  21
HETATM   21  O   UNL     1      -7.903   5.535  65.439  1.00  0.00    -0.093 OA 
HETATM   22  C   UNL     1      -6.726   6.147  64.941  1.00  0.00    -0.043 C  
HETATM   23  F   UNL     1      -6.541   7.411  65.375  1.00  0.00    -0.042 F  
HETATM   24  F   UNL     1      -6.814   6.187  63.592  1.00  0.00    -0.037 F  
HETATM   25  F   UNL     1      -5.648   5.402  65.269  1.00  0.00    -0.012 F  
ENDBRANCH  18  21
ENDBRANCH  14  15
ENDBRANCH  13  14
ENDBRANCH   8  13
TORSDOF 4
ENDMDL
MODEL      190
REMARK 921   NORMALIZED FREE ENERGY PREDICTED BY IDOCK:   -3.50 KCAL/MOL
REMARK 922        TOTAL FREE ENERGY PREDICTED BY IDOCK:   -4.76 KCAL/MOL
REMARK 923 INTER-LIGAND FREE ENERGY PREDICTED BY IDOCK:   -4.01 KCAL/MOL
REMARK 924 INTRA-LIGAND FREE ENERGY PREDICTED BY IDOCK:   -0.75 KCAL/MOL
REMARK 927      BINDING AFFINITY PREDICTED BY RF-SCORE:    0.00 PKD
ROOT
HETATM    1  O   UNL     1     -11.274   6.216  67.142  1.00  0.00    -0.291 OA 
HETATM    2  N   UNL     1     -10.225   5.703  67.564  1.00  0.00    -0.182 N  
HETATM    3  C   UNL     1      -9.481   6.469  68.539  1.00  0.00    -0.121 A  
HETATM    4  O   UNL     1      -9.766   4.611  67.211  1.00  0.00    -0.163 OA 
HETATM    5  C   UNL     1      -9.762   7.748  68.997  1.00  0.00    -0.157 A  
HETATM    6  N   UNL     1      -8.762   8.006  69.885  1.00  0.00    -0.138 NA 
HETATM    7  C   UNL     1      -8.578   9.175  70.712  1.00  0.00    -0.219 C  
HETATM    8  C   UNL     1      -7.198   9.228  71.395  1.00  0.00     0.080 C  
HETATM    9  C   UNL     1      -6.291   8.028  71.055  1.00  0.00    -0.037 C  
HETATM   10  C   UNL     1      -7.976   6.897  69.974  1.00  0.00    -0.116 A  
HETATM   11  N   UNL     1      -8.367   5.945  69.169  1.00  0.00    -0.106 NA 
HETATM   12  O   UNL     1      -6.972   6.799  70.835  1.00  0.00    -0.064 OA 
ENDROOT
BRANCH   8  13
HETATM   13  O   UNL     1      -6.578  10.463  71.004  1.00  0.00    -0.337 OA 
BRANCH  13  14
HETATM   14  C   UNL     1      -5.892  10.420  69.753  1.00  0.00    -0.049 C  
BRANCH  14  15
HETATM   15  C   UNL     1      -6.867  10.820  68.678  1.00  0.00    -0.060 A  
HETATM   16  C   UNL     1      -7.100   9.987  67.582  1.00  0.00    -0.087 A  
HETATM   17  C   UNL     1      -7.989  10.380  66.581  1.00  0.00    -0.120 A  
HETATM   18  C   UNL     1      -8.669  11.601  66.658  1.00  0.00    -0.187 A  
HETATM   19  C   UNL     1      -7.557  12.040  68.759  1.00  0.00    -0.070 A  
HETATM   20  C   UNL     1      -8.437  12.439  67.747  1.00  0.00    -0.169 A  
BRANCH  18  21
HETATM   21  O   UNL     1      -9.488  11.839  65.599  1.00  0.00    -0.231 OA 
HETATM   22  C   UNL     1     -10.789  11.278  65.559  1.00  0.00    -0.179 C  
HETATM   23  F   UNL     1     -10.948  10.207  66.365  1.00  0.00    -0.191 F  
HETATM   24  F   UNL     1     -11.033  10.875  64.291  1.00  0.00    -0.425 F  
HETATM   25  F   UNL     1     -11.703  12.218  65.884  1.00  0.00    -0.390 F  
ENDBRANCH  18  21
ENDBRANCH  14  15
ENDBRANCH  13  14
ENDBRANCH   8  13
TORSDOF 4
ENDMDL
MODEL      191
REMARK 921   NORMALIZED FREE ENERGY PREDICTED BY IDOCK:   -3.41 KCAL/MOL
REMARK 922        TOTAL FREE ENERGY PREDICTED BY IDOCK:   -4.65 KCAL/MOL
REMARK 923 INTER-LIGAND FREE ENERGY PREDICTED BY IDOCK:   -4.02 KCAL/MOL
REMARK 924 INTRA-LIGAND FREE ENERGY PREDICTED BY IDOCK:   -0.63 KCAL/MOL
REMARK 927      BINDING AFFINITY PREDICTED BY RF-SCORE:    0.00 PKD
ROOT
HETATM    1  O   UNL     1      -9.899  12.455  65.079  1.00  0.00    -0.219 OA 
HETATM    2  N   UNL     1     -10.779  11.864  65.726  1.00  0.00    -0.274 N  
HETATM    3  C   UNL     1     -10.329  11.081  66.855  1.00  0.00    -0.235 A  
HETATM    4  O   UNL     1     -11.989  11.881  65.477  1.00  0.00    -0.399 OA 
HETATM    5  C   UNL     1      -9.021  10.847  67.250  1.00  0.00    -0.137 A  
HETATM    6  N   UNL     1      -9.146  10.051  68.349  1.00  0.00    -0.119 NA 
HETATM    7  C   UNL     1      -8.105   9.541  69.209  1.00  0.00    -0.103 C  
HETATM    8  C   UNL     1      -8.600   8.464  70.193  1.00  0.00    -0.131 C  
HETATM    9  C   UNL     1     -10.102   8.144  70.060  1.00  0.00    -0.196 C  
HETATM   10  C   UNL     1     -10.474   9.885  68.604  1.00  0.00    -0.206 A  
HETATM   11  N   UNL     1     -11.228  10.483  67.720  1.00  0.00    -0.343 NA 
HETATM   12  O   UNL     1     -10.922   9.241  69.674  1.00  0.00    -0.234 OA 
ENDROOT
BRANCH   8  13
HETATM   13  O   UNL     1      -7.806   7.288  69.971  1.00  0.00    -0.107 OA 
BRANCH  13  14
HETATM   14  C   UNL     1      -6.827   7.412  68.939  1.00  0.00    -0.072 C  
BRANCH  14  15
HETATM   15  C   UNL     1      -7.194   6.454  67.838  1.00  0.00    -0.087 A  
HETATM   16  C   UNL     1      -7.917   5.292  68.117  1.00  0.00    -0.091 A  
HETATM   17  C   UNL     1      -8.230   4.400  67.090  1.00  0.00    -0.101 A  
HETATM   18  C   UNL     1      -7.841   4.653  65.770  1.00  0.00    -0.095 A  
HETATM   19  C   UNL     1      -6.812   6.711  66.512  1.00  0.00    -0.061 A  
HETATM   20  C   UNL     1      -7.115   5.808  65.487  1.00  0.00    -0.069 A  
BRANCH  18  21
HETATM   21  O   UNL     1      -8.214   3.683  64.893  1.00  0.00    -0.092 OA 
HETATM   22  C   UNL     1      -9.578   3.516  64.547  1.00  0.00    -0.167 C  
HETATM   23  F   UNL     1     -10.438   4.047  65.441  1.00  0.00    -0.198 F  
HETATM   24  F   UNL     1      -9.832   2.190  64.474  1.00  0.00    -0.140 F  
HETATM   25  F   UNL     1      -9.811   4.055  63.331  1.00  0.00    -0.141 F  
ENDBRANCH  18  21
ENDBRANCH  14  15
ENDBRANCH  13  14
ENDBRANCH   8  13
TORSDOF 4
ENDMDL
MODEL      192
REMARK 921   NORMALIZED FREE ENERGY PREDICTED BY IDOCK:   -3.39 KCAL/MOL
REMARK 922        TOTAL FREE ENERGY PREDICTED BY IDOCK:   -4.63 KCAL/MOL
REMARK 923 INTER-LIGAND FREE ENERGY PREDICTED BY IDOCK:   -3.82 KCAL/MOL
REMARK 924 INTRA-LIGAND FREE ENERGY PREDICTED BY IDOCK:   -0.81 KCAL/MOL
REMARK 927      BINDING AFFINITY PREDICTED BY RF-SCORE:    0.00 PKD
ROOT
HETATM    1  O   UNL     1      -7.212  13.622  67.587  1.00  0.00    -0.146 OA 
HETATM    2  N   UNL     1      -6.419  12.668  67.568  1.00  0.00    -0.148 N  
HETATM    3  C   UNL     1      -6.919  11.425  67.023  1.00  0.00    -0.135 A  
HETATM    4  O   UNL     1      -5.255  12.692  67.984  1.00  0.00    -0.067 OA 
HETATM    5  C   UNL     1      -8.209  11.153  66.594  1.00  0.00    -0.158 A  
HETATM    6  N   UNL     1      -8.154   9.854  66.188  1.00  0.00    -0.117 NA 
HETATM    7  C   UNL     1      -9.200   9.056  65.593  1.00  0.00    -0.225 C  
HETATM    8  C   UNL     1      -8.850   7.558  65.508  1.00  0.00     0.024 C  
HETATM    9  C   UNL     1      -7.460   7.212  66.077  1.00  0.00    -0.080 C  
HETATM   10  C   UNL     1      -6.870   9.420  66.326  1.00  0.00    -0.086 A  
HETATM   11  N   UNL     1      -6.089  10.335  66.837  1.00  0.00    -0.058 NA 
HETATM   12  O   UNL     1      -6.472   8.222  65.918  1.00  0.00    -0.051 OA 
ENDROOT
BRANCH   8  13
HETATM   13  O   UNL     1      -9.880   6.841  66.205  1.00  0.00    -0.013 OA 
BRANCH  13  14
HETATM   14  C   UNL     1      -9.443   5.654  66.866  1.00  0.00    -0.135 C  
BRANCH  14  15
HETATM   15  C   UNL     1      -9.921   5.716  68.291  1.00  0.00    -0.197 A  
HETATM   16  C   UNL     1      -9.205   5.085  69.310  1.00  0.00    -0.155 A  
HETATM   17  C   UNL     1      -9.671   5.131  70.624  1.00  0.00    -0.257 A  
HETATM   18  C   UNL     1     -10.850   5.812  70.949  1.00  0.00    -0.256 A  
HETATM   19  C   UNL     1     -11.098   6.406  68.619  1.00  0.00    -0.393 A  
HETATM   20  C   UNL     1     -11.572   6.438  69.935  1.00  0.00    -0.422 A  
BRANCH  18  21
HETATM   21  O   UNL     1     -11.172   5.752  72.269  1.00  0.00    -0.263 OA 
HETATM   22  C   UNL     1     -11.101   6.913  73.077  1.00  0.00    -0.232 C  
HETATM   23  F   UNL     1     -10.309   7.882  72.574  1.00  0.00    -0.250 F  
HETATM   24  F   UNL     1     -10.595   6.556  74.280  1.00  0.00    -0.336 F  
HETATM   25  F   UNL     1     -12.341   7.411  73.275  1.00  0.00     0.342 F  
ENDBRANCH  18  21
ENDBRANCH  14  15
ENDBRANCH  13  14
ENDBRANCH   8  13
TORSDOF 4
ENDMDL
MODEL      193
REMARK 921   NORMALIZED FREE ENERGY PREDICTED BY IDOCK:   -3.31 KCAL/MOL
REMARK 922        TOTAL FREE ENERGY PREDICTED BY IDOCK:   -4.52 KCAL/MOL
REMARK 923 INTER-LIGAND FREE ENERGY PREDICTED BY IDOCK:   -3.65 KCAL/MOL
REMARK 924 INTRA-LIGAND FREE ENERGY PREDICTED BY IDOCK:   -0.87 KCAL/MOL
REMARK 927      BINDING AFFINITY PREDICTED BY RF-SCORE:    0.00 PKD
ROOT
HETATM    1  O   UNL     1     -11.393   7.651  70.195  1.00  0.00    -0.237 OA 
HETATM    2  N   UNL     1     -11.556   6.802  71.086  1.00  0.00    -0.310 N  
HETATM    3  C   UNL     1     -10.395   6.024  71.454  1.00  0.00    -0.220 A  
HETATM    4  O   UNL     1     -12.622   6.564  71.666  1.00  0.00    -0.318 OA 
HETATM    5  C   UNL     1      -9.138   6.059  70.870  1.00  0.00    -0.153 A  
HETATM    6  N   UNL     1      -8.422   5.138  71.573  1.00  0.00    -0.122 NA 
HETATM    7  C   UNL     1      -7.026   4.792  71.435  1.00  0.00    -0.047 C  
HETATM    8  C   UNL     1      -6.633   3.526  72.219  1.00  0.00    -0.015 C  
HETATM    9  C   UNL     1      -7.804   2.880  72.986  1.00  0.00    -0.055 C  
HETATM   10  C   UNL     1      -9.221   4.639  72.556  1.00  0.00    -0.128 A  
HETATM   11  N   UNL     1     -10.428   5.139  72.517  1.00  0.00    -0.207 NA 
HETATM   12  O   UNL     1      -8.780   3.791  73.476  1.00  0.00    -0.086 OA 
ENDROOT
BRANCH   8  13
HETATM   13  O   UNL     1      -6.070   2.601  71.275  1.00  0.00    -0.014 OA 
BRANCH  13  14
HETATM   14  C   UNL     1      -6.953   1.561  70.855  1.00  0.00    -0.032 C  
BRANCH  14  15
HETATM   15  C   UNL     1      -7.613   2.005  69.577  1.00  0.00    -0.043 A  
HETATM   16  C   UNL     1      -6.847   2.363  68.467  1.00  0.00    -0.040 A  
HETATM   17  C   UNL     1      -7.471   2.795  67.296  1.00  0.00    -0.065 A  
HETATM   18  C   UNL     1      -8.866   2.867  67.206  1.00  0.00    -0.141 A  
HETATM   19  C   UNL     1      -9.012   2.069  69.483  1.00  0.00    -0.150 A  
HETATM   20  C   UNL     1      -9.636   2.516  68.313  1.00  0.00    -0.108 A  
BRANCH  18  21
HETATM   21  O   UNL     1      -9.314   3.317  66.003  1.00  0.00    -0.157 OA 
HETATM   22  C   UNL     1     -10.054   4.523  65.921  1.00  0.00    -0.258 C  
HETATM   23  F   UNL     1     -10.623   4.896  67.086  1.00  0.00    -0.232 F  
HETATM   24  F   UNL     1     -11.048   4.343  65.021  1.00  0.00    -0.352 F  
HETATM   25  F   UNL     1      -9.259   5.519  65.474  1.00  0.00    -0.160 F  
ENDBRANCH  18  21
ENDBRANCH  14  15
ENDBRANCH  13  14
ENDBRANCH   8  13
TORSDOF 4
ENDMDL
MODEL      194
REMARK 921   NORMALIZED FREE ENERGY PREDICTED BY IDOCK:   -3.22 KCAL/MOL
REMARK 922        TOTAL FREE ENERGY PREDICTED BY IDOCK:   -4.42 KCAL/MOL
REMARK 923 INTER-LIGAND FREE ENERGY PREDICTED BY IDOCK:   -3.90 KCAL/MOL
REMARK 924 INTRA-LIGAND FREE ENERGY PREDICTED BY IDOCK:   -0.52 KCAL/MOL
REMARK 927      BINDING AFFINITY PREDICTED BY RF-SCORE:    0.00 PKD
ROOT
HETATM    1  O   UNL     1      -6.596  16.004  68.924  1.00  0.00    -0.118 OA 
HETATM    2  N   UNL     1      -6.289  15.079  68.155  1.00  0.00    -0.121 N  
HETATM    3  C   UNL     1      -7.274  14.035  67.979  1.00  0.00    -0.144 A  
HETATM    4  O   UNL     1      -5.219  14.975  67.545  1.00  0.00    -0.327 OA 
HETATM    5  C   UNL     1      -8.489  13.904  68.635  1.00  0.00    -0.082 A  
HETATM    6  N   UNL     1      -9.020  12.760  68.120  1.00  0.00    -0.197 NA 
HETATM    7  C   UNL     1     -10.305  12.165  68.398  1.00  0.00    -0.229 C  
HETATM    8  C   UNL     1     -10.452  10.740  67.831  1.00  0.00    -0.199 C  
HETATM    9  C   UNL     1      -9.200  10.235  67.087  1.00  0.00    -0.145 C  
HETATM   10  C   UNL     1      -8.169  12.289  67.167  1.00  0.00    -0.179 A  
HETATM   11  N   UNL     1      -7.093  13.023  67.054  1.00  0.00     0.068 NA 
HETATM   12  O   UNL     1      -8.455  11.239  66.408  1.00  0.00    -0.167 OA 
ENDROOT
BRANCH   8  13
HETATM   13  O   UNL     1     -10.774   9.876  68.932  1.00  0.00    -0.210 OA 
BRANCH  13  14
HETATM   14  C   UNL     1     -10.745   8.482  68.629  1.00  0.00    -0.041 C  
BRANCH  14  15
HETATM   15  C   UNL     1     -10.335   7.746  69.876  1.00  0.00    -0.223 A  
HETATM   16  C   UNL     1     -10.529   6.368  69.986  1.00  0.00    -0.267 A  
HETATM   17  C   UNL     1     -10.166   5.702  71.157  1.00  0.00    -0.280 A  
HETATM   18  C   UNL     1      -9.595   6.391  72.233  1.00  0.00    -0.150 A  
HETATM   19  C   UNL     1      -9.755   8.435  70.952  1.00  0.00    -0.212 A  
HETATM   20  C   UNL     1      -9.405   7.768  72.131  1.00  0.00    -0.204 A  
BRANCH  18  21
HETATM   21  O   UNL     1      -9.310   5.600  73.302  1.00  0.00    -0.136 OA 
HETATM   22  C   UNL     1      -8.163   4.768  73.291  1.00  0.00    -0.100 C  
HETATM   23  F   UNL     1      -7.689   4.506  72.055  1.00  0.00    -0.078 F  
HETATM   24  F   UNL     1      -8.497   3.586  73.858  1.00  0.00    -0.079 F  
HETATM   25  F   UNL     1      -7.183   5.328  74.033  1.00  0.00    -0.078 F  
ENDBRANCH  18  21
ENDBRANCH  14  15
ENDBRANCH  13  14
ENDBRANCH   8  13
TORSDOF 4
ENDMDL
MODEL      195
REMARK 921   NORMALIZED FREE ENERGY PREDICTED BY IDOCK:   -3.21 KCAL/MOL
REMARK 922        TOTAL FREE ENERGY PREDICTED BY IDOCK:   -4.40 KCAL/MOL
REMARK 923 INTER-LIGAND FREE ENERGY PREDICTED BY IDOCK:   -3.45 KCAL/MOL
REMARK 924 INTRA-LIGAND FREE ENERGY PREDICTED BY IDOCK:   -0.95 KCAL/MOL
REMARK 927      BINDING AFFINITY PREDICTED BY RF-SCORE:    0.00 PKD
ROOT
HETATM    1  O   UNL     1      -9.478   9.220  63.877  1.00  0.00     0.172 OA 
HETATM    2  N   UNL     1      -9.460  10.309  64.471  1.00  0.00    -0.274 N  
HETATM    3  C   UNL     1      -8.440  10.474  65.483  1.00  0.00    -0.173 A  
HETATM    4  O   UNL     1     -10.243  11.247  64.279  1.00  0.00    -0.273 OA 
HETATM    5  C   UNL     1      -7.530   9.525  65.924  1.00  0.00    -0.100 A  
HETATM    6  N   UNL     1      -6.812  10.177  66.880  1.00  0.00    -0.082 NA 
HETATM    7  C   UNL     1      -5.686   9.690  67.642  1.00  0.00    -0.040 C  
HETATM    8  C   UNL     1      -5.298  10.613  68.813  1.00  0.00    -0.041 C  
HETATM    9  C   UNL     1      -6.189  11.865  68.938  1.00  0.00    -0.064 C  
HETATM   10  C   UNL     1      -7.255  11.463  66.941  1.00  0.00    -0.144 A  
HETATM   11  N   UNL     1      -8.247  11.686  66.120  1.00  0.00     0.003 NA 
HETATM   12  O   UNL     1      -6.682  12.382  67.708  1.00  0.00    -0.088 OA 
ENDROOT
BRANCH   8  13
HETATM   13  O   UNL     1      -5.354   9.825  70.012  1.00  0.00    -0.035 OA 
BRANCH  13  14
HETATM   14  C   UNL     1      -6.261  10.305  71.003  1.00  0.00     0.069 C  
BRANCH  14  15
HETATM   15  C   UNL     1      -7.401   9.327  71.098  1.00  0.00    -0.050 A  
HETATM   16  C   UNL     1      -8.415   9.320  70.137  1.00  0.00    -0.206 A  
HETATM   17  C   UNL     1      -9.478   8.424  70.249  1.00  0.00    -0.168 A  
HETATM   18  C   UNL     1      -9.547   7.513  71.310  1.00  0.00    -0.156 A  
HETATM   19  C   UNL     1      -7.467   8.408  72.156  1.00  0.00    -0.146 A  
HETATM   20  C   UNL     1      -8.542   7.520  72.274  1.00  0.00    -0.141 A  
BRANCH  18  21
HETATM   21  O   UNL     1     -10.651   6.719  71.279  1.00  0.00    -0.216 OA 
HETATM   22  C   UNL     1     -11.872   7.169  71.840  1.00  0.00    -0.300 C  
HETATM   23  F   UNL     1     -11.727   8.165  72.738  1.00  0.00    -0.426 F  
HETATM   24  F   UNL     1     -12.449   6.125  72.478  1.00  0.00    -0.260 F  
HETATM   25  F   UNL     1     -12.706   7.574  70.858  1.00  0.00    -0.308 F  
ENDBRANCH  18  21
ENDBRANCH  14  15
ENDBRANCH  13  14
ENDBRANCH   8  13
TORSDOF 4
ENDMDL
MODEL      196
REMARK 921   NORMALIZED FREE ENERGY PREDICTED BY IDOCK:   -3.18 KCAL/MOL
REMARK 922        TOTAL FREE ENERGY PREDICTED BY IDOCK:   -4.37 KCAL/MOL
REMARK 923 INTER-LIGAND FREE ENERGY PREDICTED BY IDOCK:   -3.68 KCAL/MOL
REMARK 924 INTRA-LIGAND FREE ENERGY PREDICTED BY IDOCK:   -0.69 KCAL/MOL
REMARK 927      BINDING AFFINITY PREDICTED BY RF-SCORE:    0.00 PKD
ROOT
HETATM    1  O   UNL     1     -10.950  17.422  68.396  1.00  0.00    -0.285 OA 
HETATM    2  N   UNL     1      -9.724  17.570  68.269  1.00  0.00    -0.296 N  
HETATM    3  C   UNL     1      -8.942  16.362  68.120  1.00  0.00    -0.197 A  
HETATM    4  O   UNL     1      -9.126  18.652  68.272  1.00  0.00    -0.303 OA 
HETATM    5  C   UNL     1      -9.394  15.053  68.186  1.00  0.00    -0.187 A  
HETATM    6  N   UNL     1      -8.270  14.307  67.994  1.00  0.00    -0.141 NA 
HETATM    7  C   UNL     1      -8.153  12.870  67.907  1.00  0.00    -0.161 C  
HETATM    8  C   UNL     1      -6.695  12.375  67.949  1.00  0.00    -0.100 C  
HETATM    9  C   UNL     1      -5.657  13.508  68.080  1.00  0.00    -0.121 C  
HETATM   10  C   UNL     1      -7.230  15.157  67.770  1.00  0.00    -0.167 A  
HETATM   11  N   UNL     1      -7.587  16.411  67.847  1.00  0.00    -0.144 NA 
HETATM   12  O   UNL     1      -6.015  14.731  67.448  1.00  0.00    -0.339 OA 
ENDROOT
BRANCH   8  13
HETATM   13  O   UNL     1      -6.590  11.458  69.049  1.00  0.00    -0.070 OA 
BRANCH  13  14
HETATM   14  C   UNL     1      -5.706  10.358  68.830  1.00  0.00    -0.041 C  
BRANCH  14  15
HETATM   15  C   UNL     1      -6.450   9.094  69.167  1.00  0.00    -0.042 A  
HETATM   16  C   UNL     1      -7.764   9.145  69.639  1.00  0.00    -0.082 A  
HETATM   17  C   UNL     1      -8.434   7.967  69.969  1.00  0.00    -0.129 A  
HETATM   18  C   UNL     1      -7.816   6.719  69.825  1.00  0.00    -0.115 A  
HETATM   19  C   UNL     1      -5.835   7.842  69.014  1.00  0.00    -0.031 A  
HETATM   20  C   UNL     1      -6.505   6.663  69.360  1.00  0.00    -0.043 A  
BRANCH  18  21
HETATM   21  O   UNL     1      -8.600   5.673  70.200  1.00  0.00    -0.122 OA 
HETATM   22  C   UNL     1      -9.198   4.840  69.223  1.00  0.00    -0.118 C  
HETATM   23  F   UNL     1      -9.294   5.409  68.003  1.00  0.00    -0.109 F  
HETATM   24  F   UNL     1     -10.453   4.545  69.634  1.00  0.00    -0.267 F  
HETATM   25  F   UNL     1      -8.507   3.684  69.121  1.00  0.00    -0.074 F  
ENDBRANCH  18  21
ENDBRANCH  14  15
ENDBRANCH  13  14
ENDBRANCH   8  13
TORSDOF 4
ENDMDL
MODEL      197
REMARK 921   NORMALIZED FREE ENERGY PREDICTED BY IDOCK:   -2.68 KCAL/MOL
REMARK 922        TOTAL FREE ENERGY PREDICTED BY IDOCK:   -3.76 KCAL/MOL
REMARK 923 INTER-LIGAND FREE ENERGY PREDICTED BY IDOCK:   -5.02 KCAL/MOL
REMARK 924 INTRA-LIGAND FREE ENERGY PREDICTED BY IDOCK:    1.27 KCAL/MOL
REMARK 927      BINDING AFFINITY PREDICTED BY RF-SCORE:    0.00 PKD
ROOT
HETATM    1  O   UNL     1     -11.304  12.051  63.600  1.00  0.00    -0.393 OA 
HETATM    2  N   UNL     1     -11.928  13.122  63.534  1.00  0.00    -0.529 N  
HETATM    3  C   UNL     1     -11.291  14.275  64.130  1.00  0.00    -0.054 A  
HETATM    4  O   UNL     1     -13.041  13.276  63.018  1.00  0.00     0.066 OA 
HETATM    5  C   UNL     1     -10.100  14.307  64.839  1.00  0.00    -0.232 A  
HETATM    6  N   UNL     1      -9.958  15.617  65.187  1.00  0.00    -0.370 NA 
HETATM    7  C   UNL     1      -8.865  16.243  65.892  1.00  0.00    -0.152 C  
HETATM    8  C   UNL     1      -9.172  17.686  66.334  1.00  0.00    -0.244 C  
HETATM    9  C   UNL     1     -10.583  18.169  65.942  1.00  0.00    -0.234 C  
HETATM   10  C   UNL     1     -10.996  16.314  64.648  1.00  0.00    -0.194 A  
HETATM   11  N   UNL     1     -11.834  15.542  64.008  1.00  0.00    -0.429 NA 
HETATM   12  O   UNL     1     -11.087  17.635  64.723  1.00  0.00    -0.915 OA 
ENDROOT
BRANCH   8  13
HETATM   13  O   UNL     1      -8.992  17.741  67.758  1.00  0.00    -0.243 OA 
BRANCH  13  14
HETATM   14  C   UNL     1      -7.718  17.292  68.219  1.00  0.00    -0.234 C  
BRANCH  14  15
HETATM   15  C   UNL     1      -7.777  15.793  68.349  1.00  0.00    -0.128 A  
HETATM   16  C   UNL     1      -8.573  15.194  69.327  1.00  0.00    -0.211 A  
HETATM   17  C   UNL     1      -8.600  13.805  69.452  1.00  0.00     0.753 A  
HETATM   18  C   UNL     1      -7.846  12.988  68.601  1.00  0.00    -0.050 A  
HETATM   19  C   UNL     1      -7.028  14.973  67.491  1.00  0.00    -0.214 A  
HETATM   20  C   UNL     1      -7.045  13.581  67.628  1.00  0.00    -0.176 A  
BRANCH  18  21
HETATM   21  O   UNL     1      -7.974  11.659  68.862  1.00  0.00    -0.117 OA 
HETATM   22  C   UNL     1      -9.242  11.032  68.773  1.00  0.00    -0.162 C  
HETATM   23  F   UNL     1     -10.282  11.886  68.861  1.00  0.00    -0.210 F  
HETATM   24  F   UNL     1      -9.346  10.154  69.797  1.00  0.00    -0.210 F  
HETATM   25  F   UNL     1      -9.331  10.340  67.617  1.00  0.00    -0.141 F  
ENDBRANCH  18  21
ENDBRANCH  14  15
ENDBRANCH  13  14
ENDBRANCH   8  13
TORSDOF 4
ENDMDL
MODEL      198
REMARK 921   NORMALIZED FREE ENERGY PREDICTED BY IDOCK:   -2.65 KCAL/MOL
REMARK 922        TOTAL FREE ENERGY PREDICTED BY IDOCK:   -3.71 KCAL/MOL
REMARK 923 INTER-LIGAND FREE ENERGY PREDICTED BY IDOCK:   -3.47 KCAL/MOL
REMARK 924 INTRA-LIGAND FREE ENERGY PREDICTED BY IDOCK:   -0.25 KCAL/MOL
REMARK 927      BINDING AFFINITY PREDICTED BY RF-SCORE:    0.00 PKD
ROOT
HETATM    1  O   UNL     1     -12.289  14.928  69.006  1.00  0.00    -0.170 OA 
HETATM    2  N   UNL     1     -11.506  14.957  68.043  1.00  0.00    -0.326 N  
HETATM    3  C   UNL     1     -10.837  13.716  67.720  1.00  0.00    -0.253 A  
HETATM    4  O   UNL     1     -11.247  15.951  67.356  1.00  0.00    -0.259 OA 
HETATM    5  C   UNL     1     -10.906  12.517  68.413  1.00  0.00    -0.243 A  
HETATM    6  N   UNL     1     -10.093  11.682  67.708  1.00  0.00    -0.184 NA 
HETATM    7  C   UNL     1      -9.828  10.281  67.941  1.00  0.00    -0.157 C  
HETATM    8  C   UNL     1      -8.658   9.735  67.102  1.00  0.00    -0.128 C  
HETATM    9  C   UNL     1      -8.002  10.790  66.189  1.00  0.00    -0.157 C  
HETATM   10  C   UNL     1      -9.625  12.360  66.624  1.00  0.00    -0.229 A  
HETATM   11  N   UNL     1     -10.040  13.599  66.595  1.00  0.00    -0.271 NA 
HETATM   12  O   UNL     1      -8.885  11.785  65.685  1.00  0.00    -0.050 OA 
ENDROOT
BRANCH   8  13
HETATM   13  O   UNL     1      -7.698   9.187  68.019  1.00  0.00    -0.091 OA 
BRANCH  13  14
HETATM   14  C   UNL     1      -8.109   7.985  68.670  1.00  0.00    -0.125 C  
BRANCH  14  15
HETATM   15  C   UNL     1      -8.096   6.879  67.650  1.00  0.00    -0.113 A  
HETATM   16  C   UNL     1      -8.728   5.662  67.911  1.00  0.00    -0.107 A  
HETATM   17  C   UNL     1      -8.689   4.636  66.966  1.00  0.00    -0.104 A  
HETATM   18  C   UNL     1      -8.032   4.807  65.742  1.00  0.00    -0.102 A  
HETATM   19  C   UNL     1      -7.445   7.052  66.419  1.00  0.00    -0.084 A  
HETATM   20  C   UNL     1      -7.394   6.017  65.478  1.00  0.00    -0.076 A  
BRANCH  18  21
HETATM   21  O   UNL     1      -8.076   3.710  64.939  1.00  0.00    -0.089 OA 
HETATM   22  C   UNL     1      -7.038   2.747  64.985  1.00  0.00    -0.054 C  
HETATM   23  F   UNL     1      -5.882   3.212  65.503  1.00  0.00    -0.016 F  
HETATM   24  F   UNL     1      -6.784   2.345  63.718  1.00  0.00    -0.027 F  
HETATM   25  F   UNL     1      -7.442   1.670  65.694  1.00  0.00    -0.055 F  
ENDBRANCH  18  21
ENDBRANCH  14  15
ENDBRANCH  13  14
ENDBRANCH   8  13
TORSDOF 4
ENDMDL
MODEL      199
REMARK 921   NORMALIZED FREE ENERGY PREDICTED BY IDOCK:   -2.47 KCAL/MOL
REMARK 922        TOTAL FREE ENERGY PREDICTED BY IDOCK:   -3.49 KCAL/MOL
REMARK 923 INTER-LIGAND FREE ENERGY PREDICTED BY IDOCK:   -3.36 KCAL/MOL
REMARK 924 INTRA-LIGAND FREE ENERGY PREDICTED BY IDOCK:   -0.13 KCAL/MOL
REMARK 927      BINDING AFFINITY PREDICTED BY RF-SCORE:    0.00 PKD
ROOT
HETATM    1  O   UNL     1      -9.721  13.808  68.663  1.00  0.00    -0.213 OA 
HETATM    2  N   UNL     1      -8.976  13.347  67.783  1.00  0.00    -0.194 N  
HETATM    3  C   UNL     1      -9.210  11.973  67.397  1.00  0.00    -0.180 A  
HETATM    4  O   UNL     1      -8.054  13.956  67.228  1.00  0.00    -0.178 OA 
HETATM    5  C   UNL     1     -10.117  11.085  67.955  1.00  0.00    -0.178 A  
HETATM    6  N   UNL     1      -9.933   9.937  67.245  1.00  0.00    -0.186 NA 
HETATM    7  C   UNL     1     -10.651   8.689  67.356  1.00  0.00    -0.228 C  
HETATM    8  C   UNL     1      -9.993   7.536  66.576  1.00  0.00    -0.138 C  
HETATM    9  C   UNL     1      -8.701   7.941  65.839  1.00  0.00    -0.154 C  
HETATM   10  C   UNL     1      -8.998  10.178  66.283  1.00  0.00    -0.148 A  
HETATM   11  N   UNL     1      -8.525  11.394  66.344  1.00  0.00    -0.174 NA 
HETATM   12  O   UNL     1      -8.673   9.281  65.362  1.00  0.00    -0.156 OA 
ENDROOT
BRANCH   8  13
HETATM   13  O   UNL     1      -9.735   6.481  67.515  1.00  0.00    -0.119 OA 
BRANCH  13  14
HETATM   14  C   UNL     1     -10.187   6.738  68.845  1.00  0.00    -0.175 C  
BRANCH  14  15
HETATM   15  C   UNL     1      -9.201   6.115  69.796  1.00  0.00    -0.151 A  
HETATM   16  C   UNL     1      -9.292   4.763  70.132  1.00  0.00    -0.222 A  
HETATM   17  C   UNL     1      -8.386   4.204  71.033  1.00  0.00    -0.092 A  
HETATM   18  C   UNL     1      -7.368   4.975  71.606  1.00  0.00    -0.075 A  
HETATM   19  C   UNL     1      -8.175   6.885  70.365  1.00  0.00    -0.124 A  
HETATM   20  C   UNL     1      -7.276   6.326  71.279  1.00  0.00    -0.079 A  
BRANCH  18  21
HETATM   21  O   UNL     1      -6.578   4.283  72.471  1.00  0.00    -0.033 OA 
HETATM   22  C   UNL     1      -7.125   3.248  73.269  1.00  0.00    -0.041 C  
HETATM   23  F   UNL     1      -8.463   3.324  73.421  1.00  0.00    -0.072 F  
HETATM   24  F   UNL     1      -6.568   3.330  74.499  1.00  0.00    -0.028 F  
HETATM   25  F   UNL     1      -6.804   2.046  72.743  1.00  0.00    -0.019 F  
ENDBRANCH  18  21
ENDBRANCH  14  15
ENDBRANCH  13  14
ENDBRANCH   8  13
TORSDOF 4
ENDMDL
MODEL      200
REMARK 921   NORMALIZED FREE ENERGY PREDICTED BY IDOCK:   -2.46 KCAL/MOL
REMARK 922        TOTAL FREE ENERGY PREDICTED BY IDOCK:   -3.48 KCAL/MOL
REMARK 923 INTER-LIGAND FREE ENERGY PREDICTED BY IDOCK:   -2.91 KCAL/MOL
REMARK 924 INTRA-LIGAND FREE ENERGY PREDICTED BY IDOCK:   -0.57 KCAL/MOL
REMARK 927      BINDING AFFINITY PREDICTED BY RF-SCORE:    0.00 PKD
ROOT
HETATM    1  O   UNL     1      -7.409  14.775  69.814  1.00  0.00    -0.155 OA 
HETATM    2  N   UNL     1      -7.052  14.274  68.735  1.00  0.00    -0.100 N  
HETATM    3  C   UNL     1      -7.878  13.205  68.218  1.00  0.00    -0.143 A  
HETATM    4  O   UNL     1      -6.054  14.603  68.085  1.00  0.00    -0.117 OA 
HETATM    5  C   UNL     1      -8.977  12.620  68.827  1.00  0.00     0.178 A  
HETATM    6  N   UNL     1      -9.380  11.670  67.937  1.00  0.00    -0.169 NA 
HETATM    7  C   UNL     1     -10.519  10.787  68.024  1.00  0.00    -0.194 C  
HETATM    8  C   UNL     1     -10.508   9.672  66.961  1.00  0.00    -0.232 C  
HETATM    9  C   UNL     1      -9.284   9.719  66.024  1.00  0.00    -0.179 C  
HETATM   10  C   UNL     1      -8.579  11.751  66.839  1.00  0.00    -0.177 A  
HETATM   11  N   UNL     1      -7.648  12.659  66.968  1.00  0.00    -0.055 NA 
HETATM   12  O   UNL     1      -8.783  11.022  65.749  1.00  0.00    -0.186 OA 
ENDROOT
BRANCH   8  13
HETATM   13  O   UNL     1     -10.568   8.419  67.659  1.00  0.00    -0.243 OA 
BRANCH  13  14
HETATM   14  C   UNL     1     -10.651   7.268  66.820  1.00  0.00    -0.217 C  
BRANCH  14  15
HETATM   15  C   UNL     1      -9.608   6.285  67.279  1.00  0.00    -0.138 A  
HETATM   16  C   UNL     1      -8.334   6.720  67.649  1.00  0.00    -0.123 A  
HETATM   17  C   UNL     1      -7.369   5.797  68.051  1.00  0.00    -0.073 A  
HETATM   18  C   UNL     1      -7.656   4.428  68.103  1.00  0.00    -0.068 A  
HETATM   19  C   UNL     1      -9.898   4.914  67.340  1.00  0.00    -0.213 A  
HETATM   20  C   UNL     1      -8.924   3.987  67.730  1.00  0.00    -0.149 A  
BRANCH  18  21
HETATM   21  O   UNL     1      -6.606   3.662  68.504  1.00  0.00    -0.039 OA 
HETATM   22  C   UNL     1      -6.731   2.805  69.625  1.00  0.00    -0.033 C  
HETATM   23  F   UNL     1      -7.737   3.140  70.460  1.00  0.00    -0.043 F  
HETATM   24  F   UNL     1      -5.578   2.866  70.329  1.00  0.00    -0.013 F  
HETATM   25  F   UNL     1      -6.903   1.531  69.211  1.00  0.00    -0.028 F  
ENDBRANCH  18  21
ENDBRANCH  14  15
ENDBRANCH  13  14
ENDBRANCH   8  13
TORSDOF 4
ENDMDL
MODEL      201
REMARK 921   NORMALIZED FREE ENERGY PREDICTED BY IDOCK:   -2.41 KCAL/MOL
REMARK 922        TOTAL FREE ENERGY PREDICTED BY IDOCK:   -3.42 KCAL/MOL
REMARK 923 INTER-LIGAND FREE ENERGY PREDICTED BY IDOCK:   -2.43 KCAL/MOL
REMARK 924 INTRA-LIGAND FREE ENERGY PREDICTED BY IDOCK:   -0.99 KCAL/MOL
REMARK 927      BINDING AFFINITY PREDICTED BY RF-SCORE:    0.00 PKD
ROOT
HETATM    1  O   UNL     1      -7.399   8.626  73.571  1.00  0.00    -0.343 OA 
HETATM    2  N   UNL     1      -8.447   8.266  73.010  1.00  0.00    -0.204 N  
HETATM    3  C   UNL     1      -8.499   6.890  72.567  1.00  0.00    -0.117 A  
HETATM    4  O   UNL     1      -9.429   8.984  72.793  1.00  0.00    -0.063 OA 
HETATM    5  C   UNL     1      -7.483   5.948  72.622  1.00  0.00    -0.096 A  
HETATM    6  N   UNL     1      -8.039   4.832  72.074  1.00  0.00    -0.104 NA 
HETATM    7  C   UNL     1      -7.454   3.521  71.924  1.00  0.00    -0.056 C  
HETATM    8  C   UNL     1      -8.281   2.583  71.025  1.00  0.00    -0.053 C  
HETATM    9  C   UNL     1      -9.562   3.232  70.463  1.00  0.00    -0.148 C  
HETATM   10  C   UNL     1      -9.338   5.109  71.772  1.00  0.00    -0.146 A  
HETATM   11  N   UNL     1      -9.658   6.347  72.043  1.00  0.00    -0.152 NA 
HETATM   12  O   UNL     1     -10.178   4.189  71.315  1.00  0.00    -0.129 OA 
ENDROOT
BRANCH   8  13
HETATM   13  O   UNL     1      -7.421   2.147  69.961  1.00  0.00    -0.042 OA 
BRANCH  13  14
HETATM   14  C   UNL     1      -6.187   2.856  69.858  1.00  0.00    -0.024 C  
BRANCH  14  15
HETATM   15  C   UNL     1      -6.338   3.891  68.776  1.00  0.00    -0.033 A  
HETATM   16  C   UNL     1      -6.669   3.515  67.473  1.00  0.00    -0.042 A  
HETATM   17  C   UNL     1      -6.783   4.482  66.474  1.00  0.00    -0.051 A  
HETATM   18  C   UNL     1      -6.580   5.839  66.755  1.00  0.00    -0.056 A  
HETATM   19  C   UNL     1      -6.143   5.252  69.059  1.00  0.00    -0.025 A  
HETATM   20  C   UNL     1      -6.243   6.219  68.052  1.00  0.00    -0.032 A  
BRANCH  18  21
HETATM   21  O   UNL     1      -6.717   6.649  65.671  1.00  0.00    -0.048 OA 
HETATM   22  C   UNL     1      -7.818   7.536  65.575  1.00  0.00    -0.114 C  
HETATM   23  F   UNL     1      -8.865   7.194  66.355  1.00  0.00    -0.122 F  
HETATM   24  F   UNL     1      -8.247   7.532  64.292  1.00  0.00    -0.143 F  
HETATM   25  F   UNL     1      -7.425   8.790  65.883  1.00  0.00    -0.084 F  
ENDBRANCH  18  21
ENDBRANCH  14  15
ENDBRANCH  13  14
ENDBRANCH   8  13
TORSDOF 4
ENDMDL
MODEL      202
REMARK 921   NORMALIZED FREE ENERGY PREDICTED BY IDOCK:   -2.26 KCAL/MOL
REMARK 922        TOTAL FREE ENERGY PREDICTED BY IDOCK:   -3.23 KCAL/MOL
REMARK 923 INTER-LIGAND FREE ENERGY PREDICTED BY IDOCK:   -3.31 KCAL/MOL
REMARK 924 INTRA-LIGAND FREE ENERGY PREDICTED BY IDOCK:    0.08 KCAL/MOL
REMARK 927      BINDING AFFINITY PREDICTED BY RF-SCORE:    0.00 PKD
ROOT
HETATM    1  O   UNL     1      -7.285  18.056  69.043  1.00  0.00    -0.264 OA 
HETATM    2  N   UNL     1      -7.653  17.459  68.019  1.00  0.00    -0.200 N  
HETATM    3  C   UNL     1      -7.514  16.020  68.027  1.00  0.00    -0.126 A  
HETATM    4  O   UNL     1      -8.112  17.991  67.001  1.00  0.00    -0.215 OA 
HETATM    5  C   UNL     1      -6.939  15.236  69.016  1.00  0.00    -0.136 A  
HETATM    6  N   UNL     1      -7.050  13.966  68.535  1.00  0.00    -0.096 NA 
HETATM    7  C   UNL     1      -6.668  12.729  69.174  1.00  0.00    -0.080 C  
HETATM    8  C   UNL     1      -6.701  11.517  68.224  1.00  0.00    -0.064 C  
HETATM    9  C   UNL     1      -7.130  11.866  66.785  1.00  0.00    -0.003 C  
HETATM   10  C   UNL     1      -7.713  14.019  67.346  1.00  0.00    -0.158 A  
HETATM   11  N   UNL     1      -8.005  15.243  66.994  1.00  0.00    -0.217 NA 
HETATM   12  O   UNL     1      -8.067  12.930  66.676  1.00  0.00     0.065 OA 
ENDROOT
BRANCH   8  13
HETATM   13  O   UNL     1      -5.390  10.931  68.237  1.00  0.00    -0.040 OA 
BRANCH  13  14
HETATM   14  C   UNL     1      -5.239   9.816  69.117  1.00  0.00    -0.036 C  
BRANCH  14  15
HETATM   15  C   UNL     1      -6.565   9.107  69.194  1.00  0.00    -0.050 A  
HETATM   16  C   UNL     1      -7.533   9.507  70.118  1.00  0.00    -0.137 A  
HETATM   17  C   UNL     1      -8.748   8.826  70.195  1.00  0.00    -0.153 A  
HETATM   18  C   UNL     1      -9.026   7.746  69.349  1.00  0.00    -0.142 A  
HETATM   19  C   UNL     1      -6.848   8.030  68.341  1.00  0.00    -0.068 A  
HETATM   20  C   UNL     1      -8.062   7.340  68.430  1.00  0.00    -0.125 A  
BRANCH  18  21
HETATM   21  O   UNL     1     -10.248   7.186  69.559  1.00  0.00    -0.185 OA 
HETATM   22  C   UNL     1     -10.389   6.087  70.443  1.00  0.00    -0.223 C  
HETATM   23  F   UNL     1      -9.241   5.414  70.666  1.00  0.00    -0.145 F  
HETATM   24  F   UNL     1     -11.270   5.219  69.894  1.00  0.00    -0.265 F  
HETATM   25  F   UNL     1     -10.894   6.508  71.622  1.00  0.00    -0.244 F  
ENDBRANCH  18  21
ENDBRANCH  14  15
ENDBRANCH  13  14
ENDBRANCH   8  13
TORSDOF 4
ENDMDL
MODEL      203
REMARK 921   NORMALIZED FREE ENERGY PREDICTED BY IDOCK:   -2.17 KCAL/MOL
REMARK 922        TOTAL FREE ENERGY PREDICTED BY IDOCK:   -3.13 KCAL/MOL
REMARK 923 INTER-LIGAND FREE ENERGY PREDICTED BY IDOCK:   -3.06 KCAL/MOL
REMARK 924 INTRA-LIGAND FREE ENERGY PREDICTED BY IDOCK:   -0.07 KCAL/MOL
REMARK 927      BINDING AFFINITY PREDICTED BY RF-SCORE:    0.00 PKD
ROOT
HETATM    1  O   UNL     1      -6.121  12.979  68.213  1.00  0.00    -0.070 OA 
HETATM    2  N   UNL     1      -6.499  12.104  67.418  1.00  0.00    -0.135 N  
HETATM    3  C   UNL     1      -7.615  11.288  67.843  1.00  0.00    -0.100 A  
HETATM    4  O   UNL     1      -5.996  11.869  66.314  1.00  0.00    -0.112 OA 
HETATM    5  C   UNL     1      -8.260  11.316  69.070  1.00  0.00    -0.021 A  
HETATM    6  N   UNL     1      -9.220  10.356  68.959  1.00  0.00    -0.179 NA 
HETATM    7  C   UNL     1     -10.232   9.985  69.921  1.00  0.00    -0.260 C  
HETATM    8  C   UNL     1     -10.971   8.684  69.555  1.00  0.00    -0.055 C  
HETATM    9  C   UNL     1     -10.483   8.038  68.243  1.00  0.00    -0.161 C  
HETATM   10  C   UNL     1      -9.163   9.841  67.699  1.00  0.00    -0.130 A  
HETATM   11  N   UNL     1      -8.199  10.368  66.991  1.00  0.00    -0.122 NA 
HETATM   12  O   UNL     1     -10.039   8.953  67.248  1.00  0.00    -0.199 OA 
ENDROOT
BRANCH   8  13
HETATM   13  O   UNL     1     -10.811   7.780  70.659  1.00  0.00    -0.229 OA 
BRANCH  13  14
HETATM   14  C   UNL     1     -11.261   6.447  70.414  1.00  0.00    -0.372 C  
BRANCH  14  15
HETATM   15  C   UNL     1     -10.188   5.504  70.886  1.00  0.00    -0.293 A  
HETATM   16  C   UNL     1     -10.499   4.438  71.732  1.00  0.00    -0.066 A  
HETATM   17  C   UNL     1      -9.491   3.584  72.181  1.00  0.00    -0.191 A  
HETATM   18  C   UNL     1      -8.160   3.767  71.788  1.00  0.00    -0.067 A  
HETATM   19  C   UNL     1      -8.855   5.682  70.486  1.00  0.00    -0.145 A  
HETATM   20  C   UNL     1      -7.843   4.833  70.949  1.00  0.00    -0.081 A  
BRANCH  18  21
HETATM   21  O   UNL     1      -7.301   2.858  72.321  1.00  0.00    -0.047 OA 
HETATM   22  C   UNL     1      -5.925   2.889  71.983  1.00  0.00    -0.013 C  
HETATM   23  F   UNL     1      -5.660   3.540  70.832  1.00  0.00    -0.010 F  
HETATM   24  F   UNL     1      -5.502   1.612  71.836  1.00  0.00    -0.003 F  
HETATM   25  F   UNL     1      -5.219   3.453  72.986  1.00  0.00     0.000 F  
ENDBRANCH  18  21
ENDBRANCH  14  15
ENDBRANCH  13  14
ENDBRANCH   8  13
TORSDOF 4
ENDMDL
MODEL      204
REMARK 921   NORMALIZED FREE ENERGY PREDICTED BY IDOCK:   -1.91 KCAL/MOL
REMARK 922        TOTAL FREE ENERGY PREDICTED BY IDOCK:   -2.80 KCAL/MOL
REMARK 923 INTER-LIGAND FREE ENERGY PREDICTED BY IDOCK:   -1.82 KCAL/MOL
REMARK 924 INTRA-LIGAND FREE ENERGY PREDICTED BY IDOCK:   -0.98 KCAL/MOL
REMARK 927      BINDING AFFINITY PREDICTED BY RF-SCORE:    0.00 PKD
ROOT
HETATM    1  O   UNL     1      -9.525   8.487  64.566  1.00  0.00     0.705 OA 
HETATM    2  N   UNL     1      -9.583   9.683  64.892  1.00  0.00    -0.244 N  
HETATM    3  C   UNL     1      -8.528  10.166  65.755  1.00  0.00    -0.147 A  
HETATM    4  O   UNL     1     -10.465  10.480  64.552  1.00  0.00    -0.310 OA 
HETATM    5  C   UNL     1      -7.504   9.427  66.328  1.00  0.00    -0.096 A  
HETATM    6  N   UNL     1      -6.800  10.344  67.049  1.00  0.00    -0.082 NA 
HETATM    7  C   UNL     1      -5.590  10.146  67.811  1.00  0.00    -0.041 C  
HETATM    8  C   UNL     1      -5.230  11.348  68.705  1.00  0.00    -0.043 C  
HETATM    9  C   UNL     1      -6.233  12.515  68.611  1.00  0.00    -0.069 C  
HETATM   10  C   UNL     1      -7.366  11.567  66.849  1.00  0.00    -0.140 A  
HETATM   11  N   UNL     1      -8.421  11.506  66.080  1.00  0.00    -0.116 NA 
HETATM   12  O   UNL     1      -6.845  12.684  67.338  1.00  0.00    -0.145 OA 
ENDROOT
BRANCH   8  13
HETATM   13  O   UNL     1      -5.138  10.862  70.053  1.00  0.00    -0.041 OA 
BRANCH  13  14
HETATM   14  C   UNL     1      -6.348  10.945  70.805  1.00  0.00     0.209 C  
BRANCH  14  15
HETATM   15  C   UNL     1      -7.073   9.634  70.659  1.00  0.00    -0.117 A  
HETATM   16  C   UNL     1      -6.433   8.430  70.961  1.00  0.00    -0.042 A  
HETATM   17  C   UNL     1      -7.107   7.220  70.800  1.00  0.00    -0.065 A  
HETATM   18  C   UNL     1      -8.432   7.186  70.347  1.00  0.00    -0.140 A  
HETATM   19  C   UNL     1      -8.403   9.599  70.214  1.00  0.00    -0.216 A  
HETATM   20  C   UNL     1      -9.073   8.383  70.039  1.00  0.00    -0.150 A  
BRANCH  18  21
HETATM   21  O   UNL     1      -8.940   5.929  70.234  1.00  0.00    -0.143 OA 
HETATM   22  C   UNL     1      -8.406   5.024  69.283  1.00  0.00    -0.082 C  
HETATM   23  F   UNL     1      -7.733   5.621  68.278  1.00  0.00    -0.083 F  
HETATM   24  F   UNL     1      -9.435   4.339  68.734  1.00  0.00    -0.171 F  
HETATM   25  F   UNL     1      -7.593   4.139  69.899  1.00  0.00    -0.050 F  
ENDBRANCH  18  21
ENDBRANCH  14  15
ENDBRANCH  13  14
ENDBRANCH   8  13
TORSDOF 4
ENDMDL
MODEL      205
REMARK 921   NORMALIZED FREE ENERGY PREDICTED BY IDOCK:   -1.66 KCAL/MOL
REMARK 922        TOTAL FREE ENERGY PREDICTED BY IDOCK:   -2.49 KCAL/MOL
REMARK 923 INTER-LIGAND FREE ENERGY PREDICTED BY IDOCK:   -4.07 KCAL/MOL
REMARK 924 INTRA-LIGAND FREE ENERGY PREDICTED BY IDOCK:    1.58 KCAL/MOL
REMARK 927      BINDING AFFINITY PREDICTED BY RF-SCORE:    0.00 PKD
ROOT
HETATM    1  O   UNL     1      -5.285  12.984  68.327  1.00  0.00    -0.069 OA 
HETATM    2  N   UNL     1      -5.734  12.304  67.390  1.00  0.00    -0.129 N  
HETATM    3  C   UNL     1      -6.948  11.565  67.657  1.00  0.00    -0.091 A  
HETATM    4  O   UNL     1      -5.226  12.201  66.268  1.00  0.00    -0.234 OA 
HETATM    5  C   UNL     1      -7.624  11.462  68.863  1.00  0.00    -0.114 A  
HETATM    6  N   UNL     1      -8.682  10.652  68.579  1.00  0.00    -0.134 NA 
HETATM    7  C   UNL     1      -9.758  10.245  69.452  1.00  0.00    -0.222 C  
HETATM    8  C   UNL     1     -10.628   9.119  68.863  1.00  0.00    -0.191 C  
HETATM    9  C   UNL     1     -10.175   8.650  67.465  1.00  0.00    -0.245 C  
HETATM   10  C   UNL     1      -8.644  10.353  67.251  1.00  0.00    -0.126 A  
HETATM   11  N   UNL     1      -7.606  10.875  66.654  1.00  0.00    -0.133 NA 
HETATM   12  O   UNL     1      -9.600   9.661  66.646  1.00  0.00    -0.166 OA 
ENDROOT
BRANCH   8  13
HETATM   13  O   UNL     1     -10.605   8.030  69.798  1.00  0.00    -0.234 OA 
BRANCH  13  14
HETATM   14  C   UNL     1     -11.484   6.950  69.484  1.00  0.00    -0.110 C  
BRANCH  14  15
HETATM   15  C   UNL     1     -10.771   6.039  68.522  1.00  0.00    -0.354 A  
HETATM   16  C   UNL     1      -9.971   4.995  68.991  1.00  0.00    -0.251 A  
HETATM   17  C   UNL     1      -9.297   4.171  68.089  1.00  0.00    -0.212 A  
HETATM   18  C   UNL     1      -9.414   4.364  66.708  1.00  0.00    -0.180 A  
HETATM   19  C   UNL     1     -10.894   6.226  67.137  1.00  0.00    -0.460 A  
HETATM   20  C   UNL     1     -10.205   5.409  66.235  1.00  0.00    -0.234 A  
BRANCH  18  21
HETATM   21  O   UNL     1      -8.685   3.486  65.968  1.00  0.00    -0.113 OA 
HETATM   22  C   UNL     1      -9.278   2.807  64.874  1.00  0.00    -0.147 C  
HETATM   23  F   UNL     1     -10.625   2.761  64.924  1.00  0.00     0.265 F  
HETATM   24  F   UNL     1      -8.826   1.532  64.878  1.00  0.00    -0.092 F  
HETATM   25  F   UNL     1      -8.895   3.385  63.715  1.00  0.00    -0.092 F  
ENDBRANCH  18  21
ENDBRANCH  14  15
ENDBRANCH  13  14
ENDBRANCH   8  13
TORSDOF 4
ENDMDL
MODEL      206
REMARK 921   NORMALIZED FREE ENERGY PREDICTED BY IDOCK:   -1.30 KCAL/MOL
REMARK 922        TOTAL FREE ENERGY PREDICTED BY IDOCK:   -2.05 KCAL/MOL
REMARK 923 INTER-LIGAND FREE ENERGY PREDICTED BY IDOCK:   -5.78 KCAL/MOL
REMARK 924 INTRA-LIGAND FREE ENERGY PREDICTED BY IDOCK:    3.72 KCAL/MOL
REMARK 927      BINDING AFFINITY PREDICTED BY RF-SCORE:    0.00 PKD
ROOT
HETATM    1  O   UNL     1      -8.757   9.543  68.683  1.00  0.00    -0.124 OA 
HETATM    2  N   UNL     1      -9.732  10.090  68.144  1.00  0.00    -0.139 N  
HETATM    3  C   UNL     1      -9.522  11.429  67.640  1.00  0.00    -0.162 A  
HETATM    4  O   UNL     1     -10.857   9.592  68.017  1.00  0.00    -0.233 OA 
HETATM    5  C   UNL     1      -8.380  12.205  67.763  1.00  0.00    -0.159 A  
HETATM    6  N   UNL     1      -8.704  13.369  67.133  1.00  0.00    -0.218 NA 
HETATM    7  C   UNL     1      -7.870  14.525  66.904  1.00  0.00     0.170 C  
HETATM    8  C   UNL     1      -8.653  15.749  66.393  1.00  0.00    -0.311 C  
HETATM    9  C   UNL     1     -10.166  15.497  66.235  1.00  0.00    -0.294 C  
HETATM   10  C   UNL     1      -9.959  13.240  66.622  1.00  0.00    -0.272 A  
HETATM   11  N   UNL     1     -10.498  12.086  66.913  1.00  0.00    -0.219 NA 
HETATM   12  O   UNL     1     -10.521  14.171  65.863  1.00  0.00    -0.288 OA 
ENDROOT
BRANCH   8  13
HETATM   13  O   UNL     1      -8.409  16.824  67.314  1.00  0.00    -0.170 OA 
BRANCH  13  14
HETATM   14  C   UNL     1      -9.575  17.533  67.732  1.00  0.00    -0.269 C  
BRANCH  14  15
HETATM   15  C   UNL     1     -10.351  16.639  68.661  1.00  0.00    -0.304 A  
HETATM   16  C   UNL     1     -10.151  16.702  70.041  1.00  0.00     0.337 A  
HETATM   17  C   UNL     1     -10.859  15.851  70.890  1.00  0.00    -0.102 A  
HETATM   18  C   UNL     1     -11.786  14.933  70.383  1.00  0.00    -0.300 A  
HETATM   19  C   UNL     1     -11.286  15.724  68.154  1.00  0.00    -0.337 A  
HETATM   20  C   UNL     1     -11.985  14.861  69.006  1.00  0.00    -0.307 A  
BRANCH  18  21
HETATM   21  O   UNL     1     -12.382  14.171  71.340  1.00  0.00    -0.342 OA 
HETATM   22  C   UNL     1     -13.021  14.784  72.447  1.00  0.00    -0.359 C  
HETATM   23  F   UNL     1     -12.611  16.047  72.685  1.00  0.00    -0.435 F  
HETATM   24  F   UNL     1     -12.742  14.050  73.549  1.00  0.00    -0.452 F  
HETATM   25  F   UNL     1     -14.359  14.777  72.265  1.00  0.00    -0.488 F  
ENDBRANCH  18  21
ENDBRANCH  14  15
ENDBRANCH  13  14
ENDBRANCH   8  13
TORSDOF 4
ENDMDL
MODEL      207
REMARK 921   NORMALIZED FREE ENERGY PREDICTED BY IDOCK:   -0.52 KCAL/MOL
REMARK 922        TOTAL FREE ENERGY PREDICTED BY IDOCK:   -1.09 KCAL/MOL
REMARK 923 INTER-LIGAND FREE ENERGY PREDICTED BY IDOCK:   -1.19 KCAL/MOL
REMARK 924 INTRA-LIGAND FREE ENERGY PREDICTED BY IDOCK:    0.10 KCAL/MOL
REMARK 927      BINDING AFFINITY PREDICTED BY RF-SCORE:    0.00 PKD
ROOT
HETATM    1  O   UNL     1     -12.909  17.903  74.538  1.00  0.00     1.136 OA 
HETATM    2  N   UNL     1     -12.028  17.640  73.704  1.00  0.00     0.619 N  
HETATM    3  C   UNL     1     -12.263  16.488  72.862  1.00  0.00    -0.323 A  
HETATM    4  O   UNL     1     -10.976  18.269  73.546  1.00  0.00     1.112 OA 
HETATM    5  C   UNL     1     -13.320  15.593  72.935  1.00  0.00    -0.555 A  
HETATM    6  N   UNL     1     -13.063  14.700  71.939  1.00  0.00    -0.314 NA 
HETATM    7  C   UNL     1     -13.866  13.576  71.515  1.00  0.00     0.007 C  
HETATM    8  C   UNL     1     -13.134  12.640  70.535  1.00  0.00     0.465 C  
HETATM    9  C   UNL     1     -11.694  13.086  70.208  1.00  0.00    -0.114 C  
HETATM   10  C   UNL     1     -11.937  15.102  71.287  1.00  0.00    -0.344 A  
HETATM   11  N   UNL     1     -11.412  16.174  71.818  1.00  0.00    -0.375 NA 
HETATM   12  O   UNL     1     -11.484  14.492  70.199  1.00  0.00    -0.264 OA 
ENDROOT
BRANCH   8  13
HETATM   13  O   UNL     1     -13.142  11.327  71.116  1.00  0.00    -0.310 OA 
BRANCH  13  14
HETATM   14  C   UNL     1     -11.951  10.976  71.821  1.00  0.00     0.727 C  
BRANCH  14  15
HETATM   15  C   UNL     1     -11.279   9.861  71.065  1.00  0.00    -0.435 A  
HETATM   16  C   UNL     1     -11.074   9.958  69.687  1.00  0.00    -0.279 A  
HETATM   17  C   UNL     1     -10.471   8.909  68.994  1.00  0.00    -0.231 A  
HETATM   18  C   UNL     1     -10.051   7.751  69.660  1.00  0.00    -0.196 A  
HETATM   19  C   UNL     1     -10.850   8.704  71.732  1.00  0.00    -0.395 A  
HETATM   20  C   UNL     1     -10.258   7.646  71.033  1.00  0.00    -0.200 A  
BRANCH  18  21
HETATM   21  O   UNL     1      -9.493   6.820  68.840  1.00  0.00    -0.130 OA 
HETATM   22  C   UNL     1     -10.139   6.448  67.635  1.00  0.00    -0.151 C  
HETATM   23  F   UNL     1     -11.459   6.727  67.614  1.00  0.00    -0.308 F  
HETATM   24  F   UNL     1     -10.003   5.111  67.482  1.00  0.00    -0.154 F  
HETATM   25  F   UNL     1      -9.540   7.053  66.588  1.00  0.00    -0.180 F  
ENDBRANCH  18  21
ENDBRANCH  14  15
ENDBRANCH  13  14
ENDBRANCH   8  13
TORSDOF 4
ENDMDL
MODEL      208
REMARK 921   NORMALIZED FREE ENERGY PREDICTED BY IDOCK:    0.19 KCAL/MOL
REMARK 922        TOTAL FREE ENERGY PREDICTED BY IDOCK:   -0.20 KCAL/MOL
REMARK 923 INTER-LIGAND FREE ENERGY PREDICTED BY IDOCK:   -0.51 KCAL/MOL
REMARK 924 INTRA-LIGAND FREE ENERGY PREDICTED BY IDOCK:    0.30 KCAL/MOL
REMARK 927      BINDING AFFINITY PREDICTED BY RF-SCORE:    0.00 PKD
ROOT
HETATM    1  O   UNL     1     -12.660  14.700  63.953  1.00  0.00    -0.834 OA 
HETATM    2  N   UNL     1     -12.962  14.453  65.132  1.00  0.00    -0.198 N  
HETATM    3  C   UNL     1     -11.906  14.596  66.110  1.00  0.00    -0.277 A  
HETATM    4  O   UNL     1     -14.074  14.087  65.528  1.00  0.00     0.693 OA 
HETATM    5  C   UNL     1     -10.573  14.898  65.872  1.00  0.00    -0.325 A  
HETATM    6  N   UNL     1     -10.011  14.903  67.113  1.00  0.00    -0.230 NA 
HETATM    7  C   UNL     1      -8.649  15.214  67.478  1.00  0.00    -0.180 C  
HETATM    8  C   UNL     1      -8.314  14.860  68.939  1.00  0.00    -0.178 C  
HETATM    9  C   UNL     1      -9.495  14.242  69.716  1.00  0.00     0.838 C  
HETATM   10  C   UNL     1     -10.995  14.670  68.026  1.00  0.00    -0.267 A  
HETATM   11  N   UNL     1     -12.157  14.469  67.464  1.00  0.00    -0.326 NA 
HETATM   12  O   UNL     1     -10.781  14.715  69.335  1.00  0.00    -0.245 OA 
ENDROOT
BRANCH   8  13
HETATM   13  O   UNL     1      -7.195  13.960  68.913  1.00  0.00    -0.108 OA 
BRANCH  13  14
HETATM   14  C   UNL     1      -6.589  13.718  70.182  1.00  0.00     0.090 C  
BRANCH  14  15
HETATM   15  C   UNL     1      -6.370  12.235  70.315  1.00  0.00     0.139 A  
HETATM   16  C   UNL     1      -6.526  11.392  69.213  1.00  0.00    -0.096 A  
HETATM   17  C   UNL     1      -6.343  10.016  69.355  1.00  0.00    -0.046 A  
HETATM   18  C   UNL     1      -5.992   9.457  70.589  1.00  0.00    -0.061 A  
HETATM   19  C   UNL     1      -6.010  11.675  71.550  1.00  0.00     1.039 A  
HETATM   20  C   UNL     1      -5.841  10.293  71.693  1.00  0.00     0.259 A  
BRANCH  18  21
HETATM   21  O   UNL     1      -5.864   8.103  70.561  1.00  0.00    -0.029 OA 
HETATM   22  C   UNL     1      -6.280   7.368  69.423  1.00  0.00    -0.031 C  
HETATM   23  F   UNL     1      -7.164   8.024  68.642  1.00  0.00    -0.072 F  
HETATM   24  F   UNL     1      -6.878   6.234  69.854  1.00  0.00    -0.049 F  
HETATM   25  F   UNL     1      -5.205   7.021  68.683  1.00  0.00    -0.013 F  
ENDBRANCH  18  21
ENDBRANCH  14  15
ENDBRANCH  13  14
ENDBRANCH   8  13
TORSDOF 4
ENDMDL
MODEL      209
REMARK 921   NORMALIZED FREE ENERGY PREDICTED BY IDOCK:    3.41 KCAL/MOL
REMARK 922        TOTAL FREE ENERGY PREDICTED BY IDOCK:    3.76 KCAL/MOL
REMARK 923 INTER-LIGAND FREE ENERGY PREDICTED BY IDOCK:    2.88 KCAL/MOL
REMARK 924 INTRA-LIGAND FREE ENERGY PREDICTED BY IDOCK:    0.89 KCAL/MOL
REMARK 927      BINDING AFFINITY PREDICTED BY RF-SCORE:    0.00 PKD
ROOT
HETATM    1  O   UNL     1     -11.002  19.596  65.649  1.00  0.00    -0.401 OA 
HETATM    2  N   UNL     1     -10.289  18.681  65.207  1.00  0.00     0.464 N  
HETATM    3  C   UNL     1     -10.650  17.337  65.598  1.00  0.00    -0.166 A  
HETATM    4  O   UNL     1      -9.300  18.828  64.480  1.00  0.00     3.951 OA 
HETATM    5  C   UNL     1     -11.653  16.957  66.477  1.00  0.00     1.344 A  
HETATM    6  N   UNL     1     -11.569  15.597  66.504  1.00  0.00     0.155 NA 
HETATM    7  C   UNL     1     -12.411  14.661  67.212  1.00  0.00     0.120 C  
HETATM    8  C   UNL     1     -11.855  13.225  67.217  1.00  0.00    -0.372 C  
HETATM    9  C   UNL     1     -10.513  13.075  66.472  1.00  0.00    -0.277 C  
HETATM   10  C   UNL     1     -10.596  15.214  65.632  1.00  0.00    -0.356 A  
HETATM   11  N   UNL     1     -10.005  16.234  65.068  1.00  0.00    -0.303 NA 
HETATM   12  O   UNL     1     -10.342  13.942  65.357  1.00  0.00    -0.315 OA 
ENDROOT
BRANCH   8  13
HETATM   13  O   UNL     1     -11.722  12.825  68.590  1.00  0.00    -0.288 OA 
BRANCH  13  14
HETATM   14  C   UNL     1     -10.497  13.211  69.212  1.00  0.00     0.221 C  
BRANCH  14  15
HETATM   15  C   UNL     1      -9.430  12.248  68.767  1.00  0.00     0.075 A  
HETATM   16  C   UNL     1      -8.244  12.714  68.195  1.00  0.00    -0.170 A  
HETATM   17  C   UNL     1      -7.273  11.810  67.765  1.00  0.00    -0.097 A  
HETATM   18  C   UNL     1      -7.458  10.429  67.906  1.00  0.00    -0.087 A  
HETATM   19  C   UNL     1      -9.610  10.865  68.916  1.00  0.00    -0.192 A  
HETATM   20  C   UNL     1      -8.641   9.959  68.471  1.00  0.00    -0.117 A  
BRANCH  18  21
HETATM   21  O   UNL     1      -6.424   9.686  67.428  1.00  0.00    -0.067 OA 
HETATM   22  C   UNL     1      -6.221   9.557  66.031  1.00  0.00    -0.064 C  
HETATM   23  F   UNL     1      -7.319   9.822  65.293  1.00  0.00    -0.100 F  
HETATM   24  F   UNL     1      -5.858   8.279  65.778  1.00  0.00    -0.038 F  
HETATM   25  F   UNL     1      -5.214  10.366  65.637  1.00  0.00    -0.043 F  
ENDBRANCH  18  21
ENDBRANCH  14  15
ENDBRANCH  13  14
ENDBRANCH   8  13
TORSDOF 4
ENDMDL
MODEL      210
REMARK 921   NORMALIZED FREE ENERGY PREDICTED BY IDOCK:    4.94 KCAL/MOL
REMARK 922        TOTAL FREE ENERGY PREDICTED BY IDOCK:    5.65 KCAL/MOL
REMARK 923 INTER-LIGAND FREE ENERGY PREDICTED BY IDOCK:   -2.19 KCAL/MOL
REMARK 924 INTRA-LIGAND FREE ENERGY PREDICTED BY IDOCK:    7.84 KCAL/MOL
REMARK 927      BINDING AFFINITY PREDICTED BY RF-SCORE:    0.00 PKD
ROOT
HETATM    1  O   UNL     1      -8.328   9.250  68.496  1.00  0.00    -0.116 OA 
HETATM    2  N   UNL     1      -8.456   9.633  67.322  1.00  0.00    -0.131 N  
HETATM    3  C   UNL     1      -8.816  11.021  67.135  1.00  0.00    -0.140 A  
HETATM    4  O   UNL     1      -8.316   8.929  66.316  1.00  0.00    -0.111 OA 
HETATM    5  C   UNL     1      -9.115  11.954  68.117  1.00  0.00    -0.190 A  
HETATM    6  N   UNL     1      -9.393  13.090  67.418  1.00  0.00    -0.201 NA 
HETATM    7  C   UNL     1      -9.716  14.401  67.930  1.00  0.00    -0.223 C  
HETATM    8  C   UNL     1     -10.226  15.370  66.847  1.00  0.00    -0.273 C  
HETATM    9  C   UNL     1     -10.294  14.747  65.438  1.00  0.00    -0.386 C  
HETATM   10  C   UNL     1      -9.204  12.831  66.094  1.00  0.00    -0.030 A  
HETATM   11  N   UNL     1      -8.864  11.589  65.874  1.00  0.00    -0.155 NA 
HETATM   12  O   UNL     1      -9.298  13.770  65.161  1.00  0.00     0.299 OA 
ENDROOT
BRANCH   8  13
HETATM   13  O   UNL     1     -11.520  15.830  67.265  1.00  0.00    -0.149 OA 
BRANCH  13  14
HETATM   14  C   UNL     1     -12.593  14.928  66.996  1.00  0.00     0.841 C  
BRANCH  14  15
HETATM   15  C   UNL     1     -12.257  13.607  67.635  1.00  0.00    -0.224 A  
HETATM   16  C   UNL     1     -11.910  13.538  68.985  1.00  0.00    -0.385 A  
HETATM   17  C   UNL     1     -11.578  12.311  69.560  1.00  0.00    -0.366 A  
HETATM   18  C   UNL     1     -11.596  11.132  68.806  1.00  0.00    -0.322 A  
HETATM   19  C   UNL     1     -12.283  12.424  66.882  1.00  0.00     0.140 A  
HETATM   20  C   UNL     1     -11.936  11.196  67.456  1.00  0.00     0.297 A  
BRANCH  18  21
HETATM   21  O   UNL     1     -11.237  10.025  69.510  1.00  0.00    -0.234 OA 
HETATM   22  C   UNL     1     -12.114   9.478  70.480  1.00  0.00    -0.085 C  
HETATM   23  F   UNL     1     -13.042  10.348  70.930  1.00  0.00    -0.406 F  
HETATM   24  F   UNL     1     -11.372   9.088  71.542  1.00  0.00    -0.315 F  
HETATM   25  F   UNL     1     -12.732   8.388  69.977  1.00  0.00     0.678 F  
ENDBRANCH  18  21
ENDBRANCH  14  15
ENDBRANCH  13  14
ENDBRANCH   8  13
TORSDOF 4
ENDMDL
MODEL      211
REMARK 921   NORMALIZED FREE ENERGY PREDICTED BY IDOCK:   19.22 KCAL/MOL
REMARK 922        TOTAL FREE ENERGY PREDICTED BY IDOCK:   23.26 KCAL/MOL
REMARK 923 INTER-LIGAND FREE ENERGY PREDICTED BY IDOCK:   19.52 KCAL/MOL
REMARK 924 INTRA-LIGAND FREE ENERGY PREDICTED BY IDOCK:    3.75 KCAL/MOL
REMARK 927      BINDING AFFINITY PREDICTED BY RF-SCORE:    0.00 PKD
ROOT
HETATM    1  O   UNL     1     -11.098  19.657  65.590  1.00  0.00    -0.304 OA 
HETATM    2  N   UNL     1     -10.553  18.559  65.393  1.00  0.00    -0.029 N  
HETATM    3  C   UNL     1     -11.130  17.422  66.077  1.00  0.00     0.451 A  
HETATM    4  O   UNL     1      -9.563  18.364  64.679  1.00  0.00     2.936 OA 
HETATM    5  C   UNL     1     -12.172  17.431  66.992  1.00  0.00     3.610 A  
HETATM    6  N   UNL     1     -12.317  16.121  67.338  1.00  0.00     1.422 NA 
HETATM    7  C   UNL     1     -13.294  15.530  68.221  1.00  0.00     3.898 C  
HETATM    8  C   UNL     1     -12.987  14.063  68.576  1.00  0.00     1.829 C  
HETATM    9  C   UNL     1     -11.699  13.522  67.923  1.00  0.00    -0.357 C  
HETATM   10  C   UNL     1     -11.432  15.388  66.606  1.00  0.00    -0.019 A  
HETATM   11  N   UNL     1     -10.686  16.135  65.836  1.00  0.00    -0.292 NA 
HETATM   12  O   UNL     1     -11.399  14.063  66.642  1.00  0.00    -0.315 OA 
ENDROOT
BRANCH   8  13
HETATM   13  O   UNL     1     -12.907  13.980  70.007  1.00  0.00    -0.200 OA 
BRANCH  13  14
HETATM   14  C   UNL     1     -11.722  14.538  70.575  1.00  0.00    -0.276 C  
BRANCH  14  15
HETATM   15  C   UNL     1     -10.549  13.745  70.066  1.00  0.00     0.738 A  
HETATM   16  C   UNL     1      -9.690  14.281  69.104  1.00  0.00     0.043 A  
HETATM   17  C   UNL     1      -8.619  13.527  68.624  1.00  0.00    -0.009 A  
HETATM   18  C   UNL     1      -8.377  12.232  69.098  1.00  0.00     0.536 A  
HETATM   19  C   UNL     1     -10.300  12.450  70.547  1.00  0.00     3.727 A  
HETATM   20  C   UNL     1      -9.234  11.690  70.053  1.00  0.00     2.462 A  
BRANCH  18  21
HETATM   21  O   UNL     1      -7.304  11.629  68.521  1.00  0.00    -0.088 OA 
HETATM   22  C   UNL     1      -6.018  12.216  68.613  1.00  0.00    -0.055 C  
HETATM   23  F   UNL     1      -6.038  13.537  68.891  1.00  0.00    -0.076 F  
HETATM   24  F   UNL     1      -5.400  12.060  67.420  1.00  0.00    -0.065 F  
HETATM   25  F   UNL     1      -5.287  11.576  69.551  1.00  0.00    -0.050 F  
ENDBRANCH  18  21
ENDBRANCH  14  15
ENDBRANCH  13  14
ENDBRANCH   8  13
TORSDOF 4
ENDMDL
