MODEL        1
REMARK 921   NORMALIZED FREE ENERGY PREDICTED BY IDOCK:   -5.65 KCAL/MOL
REMARK 922        TOTAL FREE ENERGY PREDICTED BY IDOCK:   -7.64 KCAL/MOL
REMARK 923 INTER-LIGAND FREE ENERGY PREDICTED BY IDOCK:   -7.30 KCAL/MOL
REMARK 924 INTRA-LIGAND FREE ENERGY PREDICTED BY IDOCK:   -0.34 KCAL/MOL
REMARK 927      BINDING AFFINITY PREDICTED BY RF-SCORE:    0.00 PKD
ROOT
HETATM    1  C   UNL     1     -12.304  11.919  63.369  1.00  0.00    -0.577 C  
HETATM    2  C   UNL     1     -10.862  11.617  63.750  1.00  0.00    -0.493 C  
ENDROOT
BRANCH   2   3
HETATM    3  C   UNL     1     -10.407  12.476  64.929  1.00  0.00    -0.300 C  
BRANCH   3   4
HETATM    4  N   UNL     1     -10.341  13.885  64.520  1.00  0.00    -0.652 NA 
HETATM    5  H   UNL     1     -10.431  13.985  63.509  1.00  0.00     0.000 HD 
BRANCH   4   6
HETATM    6  C   UNL     1     -11.347  14.707  65.239  1.00  0.00    -0.354 C  
HETATM    7  C   UNL     1     -11.583  14.239  66.674  1.00  0.00    -0.397 C  
BRANCH   6   8
HETATM    8  C   UNL     1     -10.907  16.189  65.260  1.00  0.00    -0.336 C  
HETATM    9  O   UNL     1     -11.207  16.917  64.316  1.00  0.00    -1.204 OA 
HETATM   10  N   UNL     1     -10.257  16.580  66.425  1.00  0.00    -0.304 N  
HETATM   11  H   UNL     1     -10.168  15.878  67.159  1.00  0.00     0.000 HD 
BRANCH  10  12
HETATM   12  C   UNL     1      -9.705  17.858  66.695  1.00  0.00    -0.319 A  
HETATM   13  C   UNL     1     -10.530  18.980  66.879  1.00  0.00    -0.505 A  
HETATM   14  C   UNL     1     -10.003  20.245  67.149  1.00  0.00    -0.593 A  
HETATM   15  C   UNL     1      -8.630  20.418  67.229  1.00  0.00    -0.414 A  
HETATM   16  C   UNL     1      -7.788  19.326  67.031  1.00  0.00    -0.267 A  
HETATM   17  C   UNL     1      -8.310  18.039  66.765  1.00  0.00    -0.271 A  
HETATM   18  C   UNL     1      -7.312  16.929  66.555  1.00  0.00    -0.317 C  
ENDBRANCH  10  12
ENDBRANCH   6   8
ENDBRANCH   4   6
ENDBRANCH   3   4
ENDBRANCH   2   3
TORSDOF 5
ENDMDL
MODEL        2
REMARK 921   NORMALIZED FREE ENERGY PREDICTED BY IDOCK:   -5.62 KCAL/MOL
REMARK 922        TOTAL FREE ENERGY PREDICTED BY IDOCK:   -7.60 KCAL/MOL
REMARK 923 INTER-LIGAND FREE ENERGY PREDICTED BY IDOCK:   -7.11 KCAL/MOL
REMARK 924 INTRA-LIGAND FREE ENERGY PREDICTED BY IDOCK:   -0.49 KCAL/MOL
REMARK 927      BINDING AFFINITY PREDICTED BY RF-SCORE:    0.00 PKD
ROOT
HETATM    1  C   UNL     1     -12.390  15.573  74.046  1.00  0.00    -0.791 C  
HETATM    2  C   UNL     1     -12.302  15.969  72.580  1.00  0.00    -0.594 C  
ENDROOT
BRANCH   2   3
HETATM    3  C   UNL     1     -13.532  15.502  71.803  1.00  0.00    -0.483 C  
BRANCH   3   4
HETATM    4  N   UNL     1     -13.289  15.641  70.361  1.00  0.00    -0.763 NA 
HETATM    5  H   UNL     1     -13.389  16.610  70.057  1.00  0.00     0.000 HD 
BRANCH   4   6
HETATM    6  C   UNL     1     -11.967  15.085  69.976  1.00  0.00    -0.332 C  
HETATM    7  C   UNL     1     -12.030  13.606  69.600  1.00  0.00    -0.402 C  
BRANCH   6   8
HETATM    8  C   UNL     1     -11.380  15.881  68.788  1.00  0.00    -0.378 C  
HETATM    9  O   UNL     1     -11.496  15.433  67.650  1.00  0.00    -0.326 OA 
HETATM   10  N   UNL     1     -10.826  17.108  69.135  1.00  0.00    -0.324 N  
HETATM   11  H   UNL     1     -10.893  17.381  70.116  1.00  0.00     0.000 HD 
BRANCH  10  12
HETATM   12  C   UNL     1     -10.177  18.018  68.262  1.00  0.00    -0.395 A  
HETATM   13  C   UNL     1     -10.909  18.970  67.534  1.00  0.00    -0.478 A  
HETATM   14  C   UNL     1     -10.285  19.876  66.673  1.00  0.00    -0.609 A  
HETATM   15  C   UNL     1      -8.909  19.841  66.511  1.00  0.00    -0.420 A  
HETATM   16  C   UNL     1      -8.161  18.893  67.208  1.00  0.00    -0.287 A  
HETATM   17  C   UNL     1      -8.780  17.977  68.088  1.00  0.00    -0.277 A  
HETATM   18  C   UNL     1      -7.881  16.986  68.783  1.00  0.00    -0.253 C  
ENDBRANCH  10  12
ENDBRANCH   6   8
ENDBRANCH   4   6
ENDBRANCH   3   4
ENDBRANCH   2   3
TORSDOF 5
ENDMDL
MODEL        3
REMARK 921   NORMALIZED FREE ENERGY PREDICTED BY IDOCK:   -5.59 KCAL/MOL
REMARK 922        TOTAL FREE ENERGY PREDICTED BY IDOCK:   -7.56 KCAL/MOL
REMARK 923 INTER-LIGAND FREE ENERGY PREDICTED BY IDOCK:   -7.08 KCAL/MOL
REMARK 924 INTRA-LIGAND FREE ENERGY PREDICTED BY IDOCK:   -0.48 KCAL/MOL
REMARK 927      BINDING AFFINITY PREDICTED BY RF-SCORE:    0.00 PKD
ROOT
HETATM    1  C   UNL     1     -12.514  15.584  73.850  1.00  0.00    -0.769 C  
HETATM    2  C   UNL     1     -12.324  15.958  72.387  1.00  0.00    -0.570 C  
ENDROOT
BRANCH   2   3
HETATM    3  C   UNL     1     -13.450  15.398  71.519  1.00  0.00    -0.513 C  
BRANCH   3   4
HETATM    4  N   UNL     1     -12.987  15.263  70.132  1.00  0.00    -0.662 NA 
HETATM    5  H   UNL     1     -12.697  16.162  69.746  1.00  0.00     0.000 HD 
BRANCH   4   6
HETATM    6  C   UNL     1     -11.908  14.249  70.015  1.00  0.00    -0.314 C  
HETATM    7  C   UNL     1     -12.344  12.860  70.478  1.00  0.00    -0.362 C  
BRANCH   6   8
HETATM    8  C   UNL     1     -11.418  14.160  68.552  1.00  0.00    -0.300 C  
HETATM    9  O   UNL     1     -10.511  14.901  68.177  1.00  0.00    -0.237 OA 
HETATM   10  N   UNL     1     -12.024  13.159  67.802  1.00  0.00    -0.339 N  
HETATM   11  H   UNL     1     -12.693  12.563  68.288  1.00  0.00     0.000 HD 
BRANCH  10  12
HETATM   12  C   UNL     1     -11.804  12.884  66.428  1.00  0.00    -0.415 A  
HETATM   13  C   UNL     1     -12.343  13.709  65.428  1.00  0.00    -0.510 A  
HETATM   14  C   UNL     1     -12.133  13.454  64.071  1.00  0.00    -0.506 A  
HETATM   15  C   UNL     1     -11.386  12.353  63.682  1.00  0.00    -0.556 A  
HETATM   16  C   UNL     1     -10.856  11.507  64.654  1.00  0.00    -0.372 A  
HETATM   17  C   UNL     1     -11.054  11.759  66.031  1.00  0.00    -0.363 A  
HETATM   18  C   UNL     1     -10.448  10.775  66.998  1.00  0.00    -0.297 C  
ENDBRANCH  10  12
ENDBRANCH   6   8
ENDBRANCH   4   6
ENDBRANCH   3   4
ENDBRANCH   2   3
TORSDOF 5
ENDMDL
MODEL        4
REMARK 921   NORMALIZED FREE ENERGY PREDICTED BY IDOCK:   -5.52 KCAL/MOL
REMARK 922        TOTAL FREE ENERGY PREDICTED BY IDOCK:   -7.47 KCAL/MOL
REMARK 923 INTER-LIGAND FREE ENERGY PREDICTED BY IDOCK:   -7.01 KCAL/MOL
REMARK 924 INTRA-LIGAND FREE ENERGY PREDICTED BY IDOCK:   -0.46 KCAL/MOL
REMARK 927      BINDING AFFINITY PREDICTED BY RF-SCORE:    0.00 PKD
ROOT
HETATM    1  C   UNL     1     -12.685  15.596  73.515  1.00  0.00    -0.684 C  
HETATM    2  C   UNL     1     -13.217  14.537  72.561  1.00  0.00    -0.538 C  
ENDROOT
BRANCH   2   3
HETATM    3  C   UNL     1     -13.628  15.150  71.223  1.00  0.00    -0.484 C  
BRANCH   3   4
HETATM    4  N   UNL     1     -12.803  14.586  70.146  1.00  0.00    -0.538 NA 
HETATM    5  H   UNL     1     -13.367  14.056  69.482  1.00  0.00     0.000 HD 
BRANCH   4   6
HETATM    6  C   UNL     1     -12.006  15.637  69.465  1.00  0.00    -0.345 C  
HETATM    7  C   UNL     1     -10.859  16.167  70.325  1.00  0.00    -0.300 C  
BRANCH   6   8
HETATM    8  C   UNL     1     -11.429  15.092  68.138  1.00  0.00    -0.342 C  
HETATM    9  O   UNL     1     -10.279  15.385  67.820  1.00  0.00    -0.236 OA 
HETATM   10  N   UNL     1     -12.277  14.231  67.453  1.00  0.00    -0.604 N  
HETATM   11  H   UNL     1     -13.168  14.012  67.899  1.00  0.00     0.000 HD 
BRANCH  10  12
HETATM   12  C   UNL     1     -12.029  13.626  66.194  1.00  0.00    -0.416 A  
HETATM   13  C   UNL     1     -12.315  14.301  64.997  1.00  0.00    -0.434 A  
HETATM   14  C   UNL     1     -12.073  13.722  63.749  1.00  0.00    -0.385 A  
HETATM   15  C   UNL     1     -11.548  12.441  63.672  1.00  0.00    -0.580 A  
HETATM   16  C   UNL     1     -11.274  11.741  64.846  1.00  0.00    -0.328 A  
HETATM   17  C   UNL     1     -11.506  12.321  66.114  1.00  0.00    -0.429 A  
HETATM   18  C   UNL     1     -11.185  11.474  67.319  1.00  0.00    -0.365 C  
ENDBRANCH  10  12
ENDBRANCH   6   8
ENDBRANCH   4   6
ENDBRANCH   3   4
ENDBRANCH   2   3
TORSDOF 5
ENDMDL
MODEL        5
REMARK 921   NORMALIZED FREE ENERGY PREDICTED BY IDOCK:   -5.47 KCAL/MOL
REMARK 922        TOTAL FREE ENERGY PREDICTED BY IDOCK:   -7.41 KCAL/MOL
REMARK 923 INTER-LIGAND FREE ENERGY PREDICTED BY IDOCK:   -6.75 KCAL/MOL
REMARK 924 INTRA-LIGAND FREE ENERGY PREDICTED BY IDOCK:   -0.66 KCAL/MOL
REMARK 927      BINDING AFFINITY PREDICTED BY RF-SCORE:    0.00 PKD
ROOT
HETATM    1  C   UNL     1     -13.438  14.776  71.304  1.00  0.00    -0.478 C  
HETATM    2  C   UNL     1     -12.279  15.709  70.984  1.00  0.00    -0.462 C  
ENDROOT
BRANCH   2   3
HETATM    3  C   UNL     1     -11.798  15.526  69.545  1.00  0.00    -0.372 C  
BRANCH   3   4
HETATM    4  N   UNL     1     -12.511  14.402  68.923  1.00  0.00    -0.553 NA 
HETATM    5  H   UNL     1     -13.222  14.728  68.268  1.00  0.00     0.000 HD 
BRANCH   4   6
HETATM    6  C   UNL     1     -11.570  13.452  68.277  1.00  0.00    -0.344 C  
HETATM    7  C   UNL     1     -10.104  13.794  68.539  1.00  0.00    -0.225 C  
BRANCH   6   8
HETATM    8  C   UNL     1     -11.846  12.013  68.770  1.00  0.00    -0.302 C  
HETATM    9  O   UNL     1     -12.188  11.156  67.957  1.00  0.00    -0.584 OA 
HETATM   10  N   UNL     1     -11.596  11.810  70.121  1.00  0.00    -0.508 N  
HETATM   11  H   UNL     1     -11.223  12.602  70.644  1.00  0.00     0.000 HD 
BRANCH  10  12
HETATM   12  C   UNL     1     -11.807  10.610  70.848  1.00  0.00    -0.331 A  
HETATM   13  C   UNL     1     -12.977  10.413  71.599  1.00  0.00    -0.581 A  
HETATM   14  C   UNL     1     -13.201   9.236  72.317  1.00  0.00    -0.535 A  
HETATM   15  C   UNL     1     -12.249   8.229  72.308  1.00  0.00    -0.428 A  
HETATM   16  C   UNL     1     -11.071   8.406  71.587  1.00  0.00    -0.344 A  
HETATM   17  C   UNL     1     -10.835   9.589  70.850  1.00  0.00    -0.407 A  
HETATM   18  C   UNL     1      -9.523   9.684  70.113  1.00  0.00    -0.298 C  
ENDBRANCH  10  12
ENDBRANCH   6   8
ENDBRANCH   4   6
ENDBRANCH   3   4
ENDBRANCH   2   3
TORSDOF 5
ENDMDL
MODEL        6
REMARK 921   NORMALIZED FREE ENERGY PREDICTED BY IDOCK:   -5.44 KCAL/MOL
REMARK 922        TOTAL FREE ENERGY PREDICTED BY IDOCK:   -7.37 KCAL/MOL
REMARK 923 INTER-LIGAND FREE ENERGY PREDICTED BY IDOCK:   -6.93 KCAL/MOL
REMARK 924 INTRA-LIGAND FREE ENERGY PREDICTED BY IDOCK:   -0.44 KCAL/MOL
REMARK 927      BINDING AFFINITY PREDICTED BY RF-SCORE:    0.00 PKD
ROOT
HETATM    1  C   UNL     1     -12.508  15.766  74.364  1.00  0.00    -0.790 C  
HETATM    2  C   UNL     1     -12.560  15.927  72.852  1.00  0.00    -0.581 C  
ENDROOT
BRANCH   2   3
HETATM    3  C   UNL     1     -13.964  15.659  72.311  1.00  0.00    -0.490 C  
BRANCH   3   4
HETATM    4  N   UNL     1     -13.883  14.783  71.135  1.00  0.00    -0.546 NA 
HETATM    5  H   UNL     1     -13.837  15.321  70.270  1.00  0.00     0.000 HD 
BRANCH   4   6
HETATM    6  C   UNL     1     -12.749  13.830  71.244  1.00  0.00    -0.371 C  
HETATM    7  C   UNL     1     -13.149  12.497  71.875  1.00  0.00    -0.473 C  
BRANCH   6   8
HETATM    8  C   UNL     1     -12.143  13.563  69.847  1.00  0.00    -0.341 C  
HETATM    9  O   UNL     1     -11.650  12.463  69.608  1.00  0.00    -0.285 OA 
HETATM   10  N   UNL     1     -12.290  14.611  68.946  1.00  0.00    -0.585 N  
HETATM   11  H   UNL     1     -12.810  15.427  69.271  1.00  0.00     0.000 HD 
BRANCH  10  12
HETATM   12  C   UNL     1     -11.791  14.660  67.620  1.00  0.00    -0.337 A  
HETATM   13  C   UNL     1     -12.322  13.836  66.614  1.00  0.00    -0.403 A  
HETATM   14  C   UNL     1     -11.844  13.874  65.303  1.00  0.00    -0.365 A  
HETATM   15  C   UNL     1     -10.810  14.734  64.969  1.00  0.00    -0.440 A  
HETATM   16  C   UNL     1     -10.251  15.549  65.952  1.00  0.00    -0.367 A  
HETATM   17  C   UNL     1     -10.732  15.525  67.281  1.00  0.00    -0.308 A  
HETATM   18  C   UNL     1     -10.050  16.437  68.268  1.00  0.00    -0.248 C  
ENDBRANCH  10  12
ENDBRANCH   6   8
ENDBRANCH   4   6
ENDBRANCH   3   4
ENDBRANCH   2   3
TORSDOF 5
ENDMDL
MODEL        7
REMARK 921   NORMALIZED FREE ENERGY PREDICTED BY IDOCK:   -5.34 KCAL/MOL
REMARK 922        TOTAL FREE ENERGY PREDICTED BY IDOCK:   -7.24 KCAL/MOL
REMARK 923 INTER-LIGAND FREE ENERGY PREDICTED BY IDOCK:   -6.68 KCAL/MOL
REMARK 924 INTRA-LIGAND FREE ENERGY PREDICTED BY IDOCK:   -0.55 KCAL/MOL
REMARK 927      BINDING AFFINITY PREDICTED BY RF-SCORE:    0.00 PKD
ROOT
HETATM    1  C   UNL     1     -12.131  12.239  63.760  1.00  0.00    -0.624 C  
HETATM    2  C   UNL     1     -10.669  12.609  63.968  1.00  0.00    -0.457 C  
ENDROOT
BRANCH   2   3
HETATM    3  C   UNL     1     -10.505  13.603  65.116  1.00  0.00    -0.374 C  
BRANCH   3   4
HETATM    4  N   UNL     1     -10.050  12.898  66.321  1.00  0.00    -0.271 NA 
HETATM    5  H   UNL     1      -9.056  13.054  66.492  1.00  0.00     0.000 HD 
BRANCH   4   6
HETATM    6  C   UNL     1     -10.869  13.261  67.505  1.00  0.00    -0.263 C  
HETATM    7  C   UNL     1     -12.026  14.199  67.165  1.00  0.00    -0.460 C  
BRANCH   6   8
HETATM    8  C   UNL     1     -11.434  11.986  68.173  1.00  0.00    -0.322 C  
HETATM    9  O   UNL     1     -12.021  11.157  67.480  1.00  0.00    -0.580 OA 
HETATM   10  N   UNL     1     -11.144  11.869  69.526  1.00  0.00    -0.447 N  
HETATM   11  H   UNL     1     -10.562  12.599  69.937  1.00  0.00     0.000 HD 
BRANCH  10  12
HETATM   12  C   UNL     1     -11.575  10.834  70.395  1.00  0.00    -0.339 A  
HETATM   13  C   UNL     1     -12.837  10.881  71.008  1.00  0.00    -0.472 A  
HETATM   14  C   UNL     1     -13.278   9.869  71.864  1.00  0.00    -0.558 A  
HETATM   15  C   UNL     1     -12.456   8.786  72.135  1.00  0.00    -0.460 A  
HETATM   16  C   UNL     1     -11.191   8.724  71.555  1.00  0.00    -0.377 A  
HETATM   17  C   UNL     1     -10.737   9.738  70.681  1.00  0.00    -0.394 A  
HETATM   18  C   UNL     1      -9.348   9.580  70.117  1.00  0.00    -0.286 C  
ENDBRANCH  10  12
ENDBRANCH   6   8
ENDBRANCH   4   6
ENDBRANCH   3   4
ENDBRANCH   2   3
TORSDOF 5
ENDMDL
MODEL        8
REMARK 921   NORMALIZED FREE ENERGY PREDICTED BY IDOCK:   -5.33 KCAL/MOL
REMARK 922        TOTAL FREE ENERGY PREDICTED BY IDOCK:   -7.23 KCAL/MOL
REMARK 923 INTER-LIGAND FREE ENERGY PREDICTED BY IDOCK:   -6.61 KCAL/MOL
REMARK 924 INTRA-LIGAND FREE ENERGY PREDICTED BY IDOCK:   -0.62 KCAL/MOL
REMARK 927      BINDING AFFINITY PREDICTED BY RF-SCORE:    0.00 PKD
ROOT
HETATM    1  C   UNL     1      -9.993   9.802  65.639  1.00  0.00    -0.352 C  
HETATM    2  C   UNL     1      -9.176  10.270  64.444  1.00  0.00    -0.296 C  
ENDROOT
BRANCH   2   3
HETATM    3  C   UNL     1      -9.993  11.189  63.537  1.00  0.00    -0.379 C  
BRANCH   3   4
HETATM    4  N   UNL     1     -10.144  12.504  64.172  1.00  0.00    -0.549 NA 
HETATM    5  H   UNL     1      -9.430  13.158  63.852  1.00  0.00     0.000 HD 
BRANCH   4   6
HETATM    6  C   UNL     1     -11.510  13.051  63.971  1.00  0.00    -0.421 C  
HETATM    7  C   UNL     1     -12.480  12.029  63.379  1.00  0.00    -0.625 C  
BRANCH   6   8
HETATM    8  C   UNL     1     -12.080  13.566  65.313  1.00  0.00    -0.411 C  
HETATM    9  O   UNL     1     -13.162  14.149  65.320  1.00  0.00    -0.760 OA 
HETATM   10  N   UNL     1     -11.316  13.238  66.426  1.00  0.00    -0.303 N  
HETATM   11  H   UNL     1     -10.488  12.665  66.263  1.00  0.00     0.000 HD 
BRANCH  10  12
HETATM   12  C   UNL     1     -11.572  13.620  67.768  1.00  0.00    -0.338 A  
HETATM   13  C   UNL     1     -11.545  14.970  68.155  1.00  0.00    -0.360 A  
HETATM   14  C   UNL     1     -11.798  15.363  69.471  1.00  0.00    -0.370 A  
HETATM   15  C   UNL     1     -12.074  14.408  70.437  1.00  0.00    -0.399 A  
HETATM   16  C   UNL     1     -12.089  13.060  70.083  1.00  0.00    -0.377 A  
HETATM   17  C   UNL     1     -11.842  12.650  68.753  1.00  0.00    -0.341 A  
HETATM   18  C   UNL     1     -11.870  11.168  68.480  1.00  0.00    -0.330 C  
ENDBRANCH  10  12
ENDBRANCH   6   8
ENDBRANCH   4   6
ENDBRANCH   3   4
ENDBRANCH   2   3
TORSDOF 5
ENDMDL
MODEL        9
REMARK 921   NORMALIZED FREE ENERGY PREDICTED BY IDOCK:   -5.33 KCAL/MOL
REMARK 922        TOTAL FREE ENERGY PREDICTED BY IDOCK:   -7.23 KCAL/MOL
REMARK 923 INTER-LIGAND FREE ENERGY PREDICTED BY IDOCK:   -6.76 KCAL/MOL
REMARK 924 INTRA-LIGAND FREE ENERGY PREDICTED BY IDOCK:   -0.47 KCAL/MOL
REMARK 927      BINDING AFFINITY PREDICTED BY RF-SCORE:    0.00 PKD
ROOT
HETATM    1  C   UNL     1     -10.118  20.086  66.162  1.00  0.00    -0.588 C  
HETATM    2  C   UNL     1      -9.795  20.136  67.648  1.00  0.00    -0.567 C  
ENDROOT
BRANCH   2   3
HETATM    3  C   UNL     1      -9.341  18.772  68.166  1.00  0.00    -0.316 C  
BRANCH   3   4
HETATM    4  N   UNL     1     -10.407  18.170  68.977  1.00  0.00    -0.443 NA 
HETATM    5  H   UNL     1     -11.161  18.834  69.153  1.00  0.00     0.000 HD 
BRANCH   4   6
HETATM    6  C   UNL     1     -10.917  16.919  68.361  1.00  0.00    -0.296 C  
HETATM    7  C   UNL     1     -10.055  16.433  67.197  1.00  0.00    -0.271 C  
BRANCH   6   8
HETATM    8  C   UNL     1     -11.002  15.799  69.424  1.00  0.00    -0.296 C  
HETATM    9  O   UNL     1     -10.046  15.609  70.173  1.00  0.00    -0.294 OA 
HETATM   10  N   UNL     1     -12.229  15.148  69.476  1.00  0.00    -0.520 N  
HETATM   11  H   UNL     1     -12.957  15.489  68.849  1.00  0.00     0.000 HD 
BRANCH  10  12
HETATM   12  C   UNL     1     -12.570  14.057  70.316  1.00  0.00    -0.291 A  
HETATM   13  C   UNL     1     -12.095  12.762  70.050  1.00  0.00    -0.355 A  
HETATM   14  C   UNL     1     -12.419  11.677  70.868  1.00  0.00    -0.440 A  
HETATM   15  C   UNL     1     -13.240  11.863  71.970  1.00  0.00    -0.461 A  
HETATM   16  C   UNL     1     -13.740  13.134  72.245  1.00  0.00    -0.647 A  
HETATM   17  C   UNL     1     -13.413  14.241  71.429  1.00  0.00    -0.402 A  
HETATM   18  C   UNL     1     -14.018  15.569  71.808  1.00  0.00    -0.569 C  
ENDBRANCH  10  12
ENDBRANCH   6   8
ENDBRANCH   4   6
ENDBRANCH   3   4
ENDBRANCH   2   3
TORSDOF 5
ENDMDL
MODEL       10
REMARK 921   NORMALIZED FREE ENERGY PREDICTED BY IDOCK:   -5.32 KCAL/MOL
REMARK 922        TOTAL FREE ENERGY PREDICTED BY IDOCK:   -7.21 KCAL/MOL
REMARK 923 INTER-LIGAND FREE ENERGY PREDICTED BY IDOCK:   -6.80 KCAL/MOL
REMARK 924 INTRA-LIGAND FREE ENERGY PREDICTED BY IDOCK:   -0.41 KCAL/MOL
REMARK 927      BINDING AFFINITY PREDICTED BY RF-SCORE:    0.00 PKD
ROOT
HETATM    1  C   UNL     1     -13.271  15.951  73.346  1.00  0.00    -0.668 C  
HETATM    2  C   UNL     1     -13.697  15.413  71.987  1.00  0.00    -0.613 C  
ENDROOT
BRANCH   2   3
HETATM    3  C   UNL     1     -12.580  15.561  70.955  1.00  0.00    -0.456 C  
BRANCH   3   4
HETATM    4  N   UNL     1     -12.761  14.571  69.885  1.00  0.00    -0.547 NA 
HETATM    5  H   UNL     1     -12.824  15.018  68.970  1.00  0.00     0.000 HD 
BRANCH   4   6
HETATM    6  C   UNL     1     -11.694  13.539  69.913  1.00  0.00    -0.271 C  
HETATM    7  C   UNL     1     -12.194  12.179  70.398  1.00  0.00    -0.378 C  
BRANCH   6   8
HETATM    8  C   UNL     1     -11.076  13.374  68.505  1.00  0.00    -0.270 C  
HETATM    9  O   UNL     1     -10.039  13.974  68.232  1.00  0.00    -0.232 OA 
HETATM   10  N   UNL     1     -11.742  12.470  67.687  1.00  0.00    -0.360 N  
HETATM   11  H   UNL     1     -12.537  11.979  68.096  1.00  0.00     0.000 HD 
BRANCH  10  12
HETATM   12  C   UNL     1     -11.427  12.161  66.339  1.00  0.00    -0.370 A  
HETATM   13  C   UNL     1     -10.546  11.113  66.022  1.00  0.00    -0.298 A  
HETATM   14  C   UNL     1     -10.228  10.794  64.701  1.00  0.00    -0.419 A  
HETATM   15  C   UNL     1     -10.777  11.528  63.660  1.00  0.00    -0.491 A  
HETATM   16  C   UNL     1     -11.638  12.584  63.948  1.00  0.00    -0.516 A  
HETATM   17  C   UNL     1     -11.975  12.912  65.281  1.00  0.00    -0.459 A  
HETATM   18  C   UNL     1     -12.906  14.080  65.482  1.00  0.00    -0.453 C  
ENDBRANCH  10  12
ENDBRANCH   6   8
ENDBRANCH   4   6
ENDBRANCH   3   4
ENDBRANCH   2   3
TORSDOF 5
ENDMDL
MODEL       11
REMARK 921   NORMALIZED FREE ENERGY PREDICTED BY IDOCK:   -5.31 KCAL/MOL
REMARK 922        TOTAL FREE ENERGY PREDICTED BY IDOCK:   -7.20 KCAL/MOL
REMARK 923 INTER-LIGAND FREE ENERGY PREDICTED BY IDOCK:   -6.71 KCAL/MOL
REMARK 924 INTRA-LIGAND FREE ENERGY PREDICTED BY IDOCK:   -0.49 KCAL/MOL
REMARK 927      BINDING AFFINITY PREDICTED BY RF-SCORE:    0.00 PKD
ROOT
HETATM    1  C   UNL     1     -12.352  12.168  63.390  1.00  0.00    -0.648 C  
HETATM    2  C   UNL     1     -11.814  13.390  64.121  1.00  0.00    -0.492 C  
ENDROOT
BRANCH   2   3
HETATM    3  C   UNL     1     -12.552  13.621  65.439  1.00  0.00    -0.491 C  
BRANCH   3   4
HETATM    4  N   UNL     1     -11.608  13.524  66.560  1.00  0.00    -0.343 NA 
HETATM    5  H   UNL     1     -11.582  14.388  67.101  1.00  0.00     0.000 HD 
BRANCH   4   6
HETATM    6  C   UNL     1     -11.905  12.351  67.420  1.00  0.00    -0.289 C  
HETATM    7  C   UNL     1     -10.975  11.168  67.158  1.00  0.00    -0.350 C  
BRANCH   6   8
HETATM    8  C   UNL     1     -11.806  12.747  68.912  1.00  0.00    -0.308 C  
HETATM    9  O   UNL     1     -11.155  12.040  69.678  1.00  0.00    -0.146 OA 
HETATM   10  N   UNL     1     -12.425  13.950  69.230  1.00  0.00    -0.396 N  
HETATM   11  H   UNL     1     -12.844  14.469  68.458  1.00  0.00     0.000 HD 
BRANCH  10  12
HETATM   12  C   UNL     1     -12.532  14.529  70.520  1.00  0.00    -0.344 A  
HETATM   13  C   UNL     1     -13.442  14.028  71.466  1.00  0.00    -0.404 A  
HETATM   14  C   UNL     1     -13.558  14.584  72.742  1.00  0.00    -0.533 A  
HETATM   15  C   UNL     1     -12.769  15.667  73.098  1.00  0.00    -0.599 A  
HETATM   16  C   UNL     1     -11.872  16.195  72.172  1.00  0.00    -0.626 A  
HETATM   17  C   UNL     1     -11.740  15.637  70.880  1.00  0.00    -0.423 A  
HETATM   18  C   UNL     1     -10.749  16.291  69.952  1.00  0.00    -0.322 C  
ENDBRANCH  10  12
ENDBRANCH   6   8
ENDBRANCH   4   6
ENDBRANCH   3   4
ENDBRANCH   2   3
TORSDOF 5
ENDMDL
MODEL       12
REMARK 921   NORMALIZED FREE ENERGY PREDICTED BY IDOCK:   -5.29 KCAL/MOL
REMARK 922        TOTAL FREE ENERGY PREDICTED BY IDOCK:   -7.18 KCAL/MOL
REMARK 923 INTER-LIGAND FREE ENERGY PREDICTED BY IDOCK:   -6.83 KCAL/MOL
REMARK 924 INTRA-LIGAND FREE ENERGY PREDICTED BY IDOCK:   -0.35 KCAL/MOL
REMARK 927      BINDING AFFINITY PREDICTED BY RF-SCORE:    0.00 PKD
ROOT
HETATM    1  C   UNL     1     -12.450  12.015  63.528  1.00  0.00    -0.654 C  
HETATM    2  C   UNL     1     -10.959  12.311  63.467  1.00  0.00    -0.521 C  
ENDROOT
BRANCH   2   3
HETATM    3  C   UNL     1     -10.509  13.149  64.663  1.00  0.00    -0.392 C  
BRANCH   3   4
HETATM    4  N   UNL     1     -10.822  12.439  65.910  1.00  0.00    -0.262 NA 
HETATM    5  H   UNL     1     -10.510  11.468  65.876  1.00  0.00     0.000 HD 
BRANCH   4   6
HETATM    6  C   UNL     1     -10.268  13.147  67.092  1.00  0.00    -0.244 C  
HETATM    7  C   UNL     1      -9.369  14.323  66.715  1.00  0.00    -0.290 C  
BRANCH   6   8
HETATM    8  C   UNL     1     -11.415  13.660  67.992  1.00  0.00    -0.310 C  
HETATM    9  O   UNL     1     -12.402  14.174  67.471  1.00  0.00    -0.296 OA 
HETATM   10  N   UNL     1     -11.240  13.408  69.347  1.00  0.00    -0.419 N  
HETATM   11  H   UNL     1     -10.406  12.883  69.613  1.00  0.00     0.000 HD 
BRANCH  10  12
HETATM   12  C   UNL     1     -12.104  13.807  70.399  1.00  0.00    -0.350 A  
HETATM   13  C   UNL     1     -12.307  15.165  70.694  1.00  0.00    -0.420 A  
HETATM   14  C   UNL     1     -13.157  15.575  71.724  1.00  0.00    -0.548 A  
HETATM   15  C   UNL     1     -13.817  14.629  72.493  1.00  0.00    -0.561 A  
HETATM   16  C   UNL     1     -13.618  13.275  72.233  1.00  0.00    -0.703 A  
HETATM   17  C   UNL     1     -12.767  12.847  71.189  1.00  0.00    -0.366 A  
HETATM   18  C   UNL     1     -12.613  11.360  71.000  1.00  0.00    -0.487 C  
ENDBRANCH  10  12
ENDBRANCH   6   8
ENDBRANCH   4   6
ENDBRANCH   3   4
ENDBRANCH   2   3
TORSDOF 5
ENDMDL
MODEL       13
REMARK 921   NORMALIZED FREE ENERGY PREDICTED BY IDOCK:   -5.29 KCAL/MOL
REMARK 922        TOTAL FREE ENERGY PREDICTED BY IDOCK:   -7.18 KCAL/MOL
REMARK 923 INTER-LIGAND FREE ENERGY PREDICTED BY IDOCK:   -6.66 KCAL/MOL
REMARK 924 INTRA-LIGAND FREE ENERGY PREDICTED BY IDOCK:   -0.52 KCAL/MOL
REMARK 927      BINDING AFFINITY PREDICTED BY RF-SCORE:    0.00 PKD
ROOT
HETATM    1  C   UNL     1     -13.228  10.736  71.803  1.00  0.00    -0.523 C  
HETATM    2  C   UNL     1     -12.883  12.187  71.504  1.00  0.00    -0.394 C  
ENDROOT
BRANCH   2   3
HETATM    3  C   UNL     1     -13.646  13.142  72.422  1.00  0.00    -0.567 C  
BRANCH   3   4
HETATM    4  N   UNL     1     -14.192  14.255  71.634  1.00  0.00    -0.410 NA 
HETATM    5  H   UNL     1     -15.189  14.382  71.809  1.00  0.00     0.000 HD 
BRANCH   4   6
HETATM    6  C   UNL     1     -13.435  15.510  71.870  1.00  0.00    -0.481 C  
HETATM    7  C   UNL     1     -13.028  15.695  73.331  1.00  0.00    -0.676 C  
BRANCH   6   8
HETATM    8  C   UNL     1     -12.165  15.540  70.988  1.00  0.00    -0.396 C  
HETATM    9  O   UNL     1     -11.061  15.562  71.527  1.00  0.00    -0.359 OA 
HETATM   10  N   UNL     1     -12.412  15.460  69.623  1.00  0.00    -0.605 N  
HETATM   11  H   UNL     1     -13.385  15.350  69.337  1.00  0.00     0.000 HD 
BRANCH  10  12
HETATM   12  C   UNL     1     -11.446  15.514  68.586  1.00  0.00    -0.359 A  
HETATM   13  C   UNL     1     -10.749  16.701  68.306  1.00  0.00    -0.351 A  
HETATM   14  C   UNL     1      -9.793  16.771  67.291  1.00  0.00    -0.260 A  
HETATM   15  C   UNL     1      -9.518  15.651  66.521  1.00  0.00    -0.300 A  
HETATM   16  C   UNL     1     -10.209  14.466  66.765  1.00  0.00    -0.270 A  
HETATM   17  C   UNL     1     -11.174  14.381  67.795  1.00  0.00    -0.316 A  
HETATM   18  C   UNL     1     -11.872  13.055  67.967  1.00  0.00    -0.391 C  
ENDBRANCH  10  12
ENDBRANCH   6   8
ENDBRANCH   4   6
ENDBRANCH   3   4
ENDBRANCH   2   3
TORSDOF 5
ENDMDL
MODEL       14
REMARK 921   NORMALIZED FREE ENERGY PREDICTED BY IDOCK:   -5.27 KCAL/MOL
REMARK 922        TOTAL FREE ENERGY PREDICTED BY IDOCK:   -7.15 KCAL/MOL
REMARK 923 INTER-LIGAND FREE ENERGY PREDICTED BY IDOCK:   -6.61 KCAL/MOL
REMARK 924 INTRA-LIGAND FREE ENERGY PREDICTED BY IDOCK:   -0.54 KCAL/MOL
REMARK 927      BINDING AFFINITY PREDICTED BY RF-SCORE:    0.00 PKD
ROOT
HETATM    1  C   UNL     1     -14.198  15.194  71.628  1.00  0.00    -0.664 C  
HETATM    2  C   UNL     1     -12.736  15.606  71.701  1.00  0.00    -0.522 C  
ENDROOT
BRANCH   2   3
HETATM    3  C   UNL     1     -12.061  15.511  70.333  1.00  0.00    -0.392 C  
BRANCH   3   4
HETATM    4  N   UNL     1     -12.719  14.474  69.528  1.00  0.00    -0.527 NA 
HETATM    5  H   UNL     1     -13.518  14.850  69.017  1.00  0.00     0.000 HD 
BRANCH   4   6
HETATM    6  C   UNL     1     -11.759  13.802  68.616  1.00  0.00    -0.356 C  
HETATM    7  C   UNL     1     -10.323  14.292  68.798  1.00  0.00    -0.239 C  
BRANCH   6   8
HETATM    8  C   UNL     1     -11.799  12.272  68.835  1.00  0.00    -0.303 C  
HETATM    9  O   UNL     1     -12.157  11.544  67.912  1.00  0.00    -0.630 OA 
HETATM   10  N   UNL     1     -11.335  11.856  70.077  1.00  0.00    -0.510 N  
HETATM   11  H   UNL     1     -10.981  12.581  70.702  1.00  0.00     0.000 HD 
BRANCH  10  12
HETATM   12  C   UNL     1     -11.305  10.524  70.564  1.00  0.00    -0.314 A  
HETATM   13  C   UNL     1     -10.337   9.611  70.115  1.00  0.00    -0.315 A  
HETATM   14  C   UNL     1     -10.291   8.297  70.586  1.00  0.00    -0.220 A  
HETATM   15  C   UNL     1     -11.225   7.862  71.514  1.00  0.00    -0.286 A  
HETATM   16  C   UNL     1     -12.208   8.743  71.961  1.00  0.00    -0.447 A  
HETATM   17  C   UNL     1     -12.260  10.077  71.498  1.00  0.00    -0.496 A  
HETATM   18  C   UNL     1     -13.370  10.943  72.036  1.00  0.00    -0.394 C  
ENDBRANCH  10  12
ENDBRANCH   6   8
ENDBRANCH   4   6
ENDBRANCH   3   4
ENDBRANCH   2   3
TORSDOF 5
ENDMDL
MODEL       15
REMARK 921   NORMALIZED FREE ENERGY PREDICTED BY IDOCK:   -5.25 KCAL/MOL
REMARK 922        TOTAL FREE ENERGY PREDICTED BY IDOCK:   -7.12 KCAL/MOL
REMARK 923 INTER-LIGAND FREE ENERGY PREDICTED BY IDOCK:   -6.98 KCAL/MOL
REMARK 924 INTRA-LIGAND FREE ENERGY PREDICTED BY IDOCK:   -0.14 KCAL/MOL
REMARK 927      BINDING AFFINITY PREDICTED BY RF-SCORE:    0.00 PKD
ROOT
HETATM    1  C   UNL     1     -11.894  11.587  68.686  1.00  0.00    -0.382 C  
HETATM    2  C   UNL     1     -11.637  12.954  68.069  1.00  0.00    -0.385 C  
ENDROOT
BRANCH   2   3
HETATM    3  C   UNL     1     -11.557  12.871  66.545  1.00  0.00    -0.371 C  
BRANCH   3   4
HETATM    4  N   UNL     1     -10.435  13.688  66.063  1.00  0.00    -0.294 NA 
HETATM    5  H   UNL     1      -9.597  13.124  65.923  1.00  0.00     0.000 HD 
BRANCH   4   6
HETATM    6  C   UNL     1     -10.798  14.438  64.834  1.00  0.00    -0.416 C  
HETATM    7  C   UNL     1     -12.143  14.009  64.249  1.00  0.00    -0.476 C  
BRANCH   6   8
HETATM    8  C   UNL     1     -10.840  15.955  65.129  1.00  0.00    -0.421 C  
HETATM    9  O   UNL     1     -11.304  16.718  64.285  1.00  0.00    -1.170 OA 
HETATM   10  N   UNL     1     -10.402  16.306  66.401  1.00  0.00    -0.306 N  
HETATM   11  H   UNL     1     -10.136  15.542  67.022  1.00  0.00     0.000 HD 
BRANCH  10  12
HETATM   12  C   UNL     1     -10.287  17.620  66.921  1.00  0.00    -0.329 A  
HETATM   13  C   UNL     1     -10.033  18.714  66.077  1.00  0.00    -0.266 A  
HETATM   14  C   UNL     1      -9.920  20.015  66.572  1.00  0.00    -0.603 A  
HETATM   15  C   UNL     1     -10.048  20.250  67.933  1.00  0.00    -0.476 A  
HETATM   16  C   UNL     1     -10.282  19.180  68.794  1.00  0.00    -0.360 A  
HETATM   17  C   UNL     1     -10.406  17.860  68.304  1.00  0.00    -0.389 A  
HETATM   18  C   UNL     1     -10.647  16.775  69.322  1.00  0.00    -0.336 C  
ENDBRANCH  10  12
ENDBRANCH   6   8
ENDBRANCH   4   6
ENDBRANCH   3   4
ENDBRANCH   2   3
TORSDOF 5
ENDMDL
MODEL       16
REMARK 921   NORMALIZED FREE ENERGY PREDICTED BY IDOCK:   -5.24 KCAL/MOL
REMARK 922        TOTAL FREE ENERGY PREDICTED BY IDOCK:   -7.11 KCAL/MOL
REMARK 923 INTER-LIGAND FREE ENERGY PREDICTED BY IDOCK:   -6.45 KCAL/MOL
REMARK 924 INTRA-LIGAND FREE ENERGY PREDICTED BY IDOCK:   -0.65 KCAL/MOL
REMARK 927      BINDING AFFINITY PREDICTED BY RF-SCORE:    0.00 PKD
ROOT
HETATM    1  C   UNL     1     -10.180  10.412  66.267  1.00  0.00    -0.286 C  
HETATM    2  C   UNL     1      -9.386  10.344  64.971  1.00  0.00    -0.279 C  
ENDROOT
BRANCH   2   3
HETATM    3  C   UNL     1     -10.100  11.083  63.841  1.00  0.00    -0.356 C  
BRANCH   3   4
HETATM    4  N   UNL     1     -10.153  12.519  64.143  1.00  0.00    -0.549 NA 
HETATM    5  H   UNL     1      -9.436  13.034  63.632  1.00  0.00     0.000 HD 
BRANCH   4   6
HETATM    6  C   UNL     1     -11.506  13.078  63.894  1.00  0.00    -0.435 C  
HETATM    7  C   UNL     1     -12.507  12.026  63.418  1.00  0.00    -0.625 C  
BRANCH   6   8
HETATM    8  C   UNL     1     -12.051  13.744  65.179  1.00  0.00    -0.399 C  
HETATM    9  O   UNL     1     -13.244  14.031  65.245  1.00  0.00    -0.782 OA 
HETATM   10  N   UNL     1     -11.113  13.886  66.195  1.00  0.00    -0.297 N  
HETATM   11  H   UNL     1     -10.182  13.509  66.018  1.00  0.00     0.000 HD 
BRANCH  10  12
HETATM   12  C   UNL     1     -11.322  14.503  67.455  1.00  0.00    -0.356 A  
HETATM   13  C   UNL     1     -11.946  13.812  68.506  1.00  0.00    -0.402 A  
HETATM   14  C   UNL     1     -12.156  14.404  69.754  1.00  0.00    -0.386 A  
HETATM   15  C   UNL     1     -11.754  15.713  69.974  1.00  0.00    -0.369 A  
HETATM   16  C   UNL     1     -11.150  16.427  68.942  1.00  0.00    -0.328 A  
HETATM   17  C   UNL     1     -10.925  15.837  67.678  1.00  0.00    -0.302 A  
HETATM   18  C   UNL     1     -10.275  16.701  66.628  1.00  0.00    -0.304 C  
ENDBRANCH  10  12
ENDBRANCH   6   8
ENDBRANCH   4   6
ENDBRANCH   3   4
ENDBRANCH   2   3
TORSDOF 5
ENDMDL
MODEL       17
REMARK 921   NORMALIZED FREE ENERGY PREDICTED BY IDOCK:   -5.22 KCAL/MOL
REMARK 922        TOTAL FREE ENERGY PREDICTED BY IDOCK:   -7.09 KCAL/MOL
REMARK 923 INTER-LIGAND FREE ENERGY PREDICTED BY IDOCK:   -6.74 KCAL/MOL
REMARK 924 INTRA-LIGAND FREE ENERGY PREDICTED BY IDOCK:   -0.35 KCAL/MOL
REMARK 927      BINDING AFFINITY PREDICTED BY RF-SCORE:    0.00 PKD
ROOT
HETATM    1  C   UNL     1     -11.671  11.251  68.404  1.00  0.00    -0.365 C  
HETATM    2  C   UNL     1     -10.942  11.660  67.132  1.00  0.00    -0.330 C  
ENDROOT
BRANCH   2   3
HETATM    3  C   UNL     1     -11.717  12.732  66.366  1.00  0.00    -0.403 C  
BRANCH   3   4
HETATM    4  N   UNL     1     -10.958  13.989  66.369  1.00  0.00    -0.305 NA 
HETATM    5  H   UNL     1     -10.016  13.855  66.736  1.00  0.00     0.000 HD 
BRANCH   4   6
HETATM    6  C   UNL     1     -10.933  14.612  65.022  1.00  0.00    -0.405 C  
HETATM    7  C   UNL     1     -12.210  14.355  64.223  1.00  0.00    -0.450 C  
BRANCH   6   8
HETATM    8  C   UNL     1     -10.716  16.138  65.145  1.00  0.00    -0.371 C  
HETATM    9  O   UNL     1     -11.213  16.884  64.304  1.00  0.00    -1.204 OA 
HETATM   10  N   UNL     1     -10.018  16.530  66.281  1.00  0.00    -0.310 N  
HETATM   11  H   UNL     1      -9.753  15.793  66.935  1.00  0.00     0.000 HD 
BRANCH  10  12
HETATM   12  C   UNL     1      -9.636  17.852  66.622  1.00  0.00    -0.309 A  
HETATM   13  C   UNL     1     -10.583  18.789  67.066  1.00  0.00    -0.483 A  
HETATM   14  C   UNL     1     -10.223  20.094  67.410  1.00  0.00    -0.534 A  
HETATM   15  C   UNL     1      -8.901  20.497  67.304  1.00  0.00    -0.404 A  
HETATM   16  C   UNL     1      -7.944  19.593  66.847  1.00  0.00    -0.310 A  
HETATM   17  C   UNL     1      -8.294  18.267  66.504  1.00  0.00    -0.287 A  
HETATM   18  C   UNL     1      -7.185  17.374  66.010  1.00  0.00    -0.269 C  
ENDBRANCH  10  12
ENDBRANCH   6   8
ENDBRANCH   4   6
ENDBRANCH   3   4
ENDBRANCH   2   3
TORSDOF 5
ENDMDL
MODEL       18
REMARK 921   NORMALIZED FREE ENERGY PREDICTED BY IDOCK:   -5.21 KCAL/MOL
REMARK 922        TOTAL FREE ENERGY PREDICTED BY IDOCK:   -7.08 KCAL/MOL
REMARK 923 INTER-LIGAND FREE ENERGY PREDICTED BY IDOCK:   -6.73 KCAL/MOL
REMARK 924 INTRA-LIGAND FREE ENERGY PREDICTED BY IDOCK:   -0.35 KCAL/MOL
REMARK 927      BINDING AFFINITY PREDICTED BY RF-SCORE:    0.00 PKD
ROOT
HETATM    1  C   UNL     1     -13.721  13.376  72.254  1.00  0.00    -0.705 C  
HETATM    2  C   UNL     1     -14.330  14.679  71.757  1.00  0.00    -0.638 C  
ENDROOT
BRANCH   2   3
HETATM    3  C   UNL     1     -13.307  15.514  70.988  1.00  0.00    -0.428 C  
BRANCH   3   4
HETATM    4  N   UNL     1     -12.828  14.760  69.822  1.00  0.00    -0.572 NA 
HETATM    5  H   UNL     1     -13.604  14.393  69.270  1.00  0.00     0.000 HD 
BRANCH   4   6
HETATM    6  C   UNL     1     -11.906  15.574  68.990  1.00  0.00    -0.354 C  
HETATM    7  C   UNL     1     -10.893  16.361  69.819  1.00  0.00    -0.343 C  
BRANCH   6   8
HETATM    8  C   UNL     1     -11.145  14.667  67.996  1.00  0.00    -0.281 C  
HETATM    9  O   UNL     1      -9.918  14.617  68.048  1.00  0.00    -0.215 OA 
HETATM   10  N   UNL     1     -11.964  13.913  67.163  1.00  0.00    -0.414 N  
HETATM   11  H   UNL     1     -12.970  13.996  67.309  1.00  0.00     0.000 HD 
BRANCH  10  12
HETATM   12  C   UNL     1     -11.540  13.039  66.130  1.00  0.00    -0.366 A  
HETATM   13  C   UNL     1     -10.949  11.800  66.426  1.00  0.00    -0.341 A  
HETATM   14  C   UNL     1     -10.529  10.925  65.421  1.00  0.00    -0.291 A  
HETATM   15  C   UNL     1     -10.681  11.279  64.089  1.00  0.00    -0.436 A  
HETATM   16  C   UNL     1     -11.246  12.512  63.768  1.00  0.00    -0.524 A  
HETATM   17  C   UNL     1     -11.682  13.401  64.776  1.00  0.00    -0.393 A  
HETATM   18  C   UNL     1     -12.269  14.713  64.321  1.00  0.00    -0.432 C  
ENDBRANCH  10  12
ENDBRANCH   6   8
ENDBRANCH   4   6
ENDBRANCH   3   4
ENDBRANCH   2   3
TORSDOF 5
ENDMDL
MODEL       19
REMARK 921   NORMALIZED FREE ENERGY PREDICTED BY IDOCK:   -5.21 KCAL/MOL
REMARK 922        TOTAL FREE ENERGY PREDICTED BY IDOCK:   -7.08 KCAL/MOL
REMARK 923 INTER-LIGAND FREE ENERGY PREDICTED BY IDOCK:   -6.63 KCAL/MOL
REMARK 924 INTRA-LIGAND FREE ENERGY PREDICTED BY IDOCK:   -0.44 KCAL/MOL
REMARK 927      BINDING AFFINITY PREDICTED BY RF-SCORE:    0.00 PKD
ROOT
HETATM    1  C   UNL     1     -10.900  11.495  63.590  1.00  0.00    -0.488 C  
HETATM    2  C   UNL     1     -12.281  12.127  63.498  1.00  0.00    -0.670 C  
ENDROOT
BRANCH   2   3
HETATM    3  C   UNL     1     -12.549  13.055  64.683  1.00  0.00    -0.362 C  
BRANCH   3   4
HETATM    4  N   UNL     1     -11.909  14.356  64.448  1.00  0.00    -0.570 NA 
HETATM    5  H   UNL     1     -12.568  15.031  64.059  1.00  0.00     0.000 HD 
BRANCH   4   6
HETATM    6  C   UNL     1     -11.263  14.874  65.680  1.00  0.00    -0.347 C  
HETATM    7  C   UNL     1     -10.195  13.932  66.234  1.00  0.00    -0.299 C  
BRANCH   6   8
HETATM    8  C   UNL     1     -10.621  16.254  65.404  1.00  0.00    -0.352 C  
HETATM    9  O   UNL     1     -10.996  16.906  64.432  1.00  0.00    -1.016 OA 
HETATM   10  N   UNL     1      -9.704  16.664  66.364  1.00  0.00    -0.270 N  
HETATM   11  H   UNL     1      -9.572  16.047  67.166  1.00  0.00     0.000 HD 
BRANCH  10  12
HETATM   12  C   UNL     1      -8.934  17.854  66.341  1.00  0.00    -0.227 A  
HETATM   13  C   UNL     1      -7.607  17.850  65.880  1.00  0.00    -0.177 A  
HETATM   14  C   UNL     1      -6.836  19.014  65.848  1.00  0.00    -0.296 A  
HETATM   15  C   UNL     1      -7.374  20.213  66.290  1.00  0.00    -0.310 A  
HETATM   16  C   UNL     1      -8.682  20.240  66.771  1.00  0.00    -0.353 A  
HETATM   17  C   UNL     1      -9.475  19.071  66.801  1.00  0.00    -0.365 A  
HETATM   18  C   UNL     1     -10.872  19.209  67.351  1.00  0.00    -0.533 C  
ENDBRANCH  10  12
ENDBRANCH   6   8
ENDBRANCH   4   6
ENDBRANCH   3   4
ENDBRANCH   2   3
TORSDOF 5
ENDMDL
MODEL       20
REMARK 921   NORMALIZED FREE ENERGY PREDICTED BY IDOCK:   -5.20 KCAL/MOL
REMARK 922        TOTAL FREE ENERGY PREDICTED BY IDOCK:   -7.06 KCAL/MOL
REMARK 923 INTER-LIGAND FREE ENERGY PREDICTED BY IDOCK:   -6.77 KCAL/MOL
REMARK 924 INTRA-LIGAND FREE ENERGY PREDICTED BY IDOCK:   -0.30 KCAL/MOL
REMARK 927      BINDING AFFINITY PREDICTED BY RF-SCORE:    0.00 PKD
ROOT
HETATM    1  C   UNL     1      -9.694  20.593  67.442  1.00  0.00    -0.552 C  
HETATM    2  C   UNL     1      -9.574  19.685  66.227  1.00  0.00    -0.488 C  
ENDROOT
BRANCH   2   3
HETATM    3  C   UNL     1     -10.520  18.489  66.330  1.00  0.00    -0.406 C  
BRANCH   3   4
HETATM    4  N   UNL     1     -10.347  17.831  67.631  1.00  0.00    -0.358 NA 
HETATM    5  H   UNL     1     -10.983  18.213  68.330  1.00  0.00     0.000 HD 
BRANCH   4   6
HETATM    6  C   UNL     1     -10.487  16.357  67.517  1.00  0.00    -0.304 C  
HETATM    7  C   UNL     1      -9.254  15.685  66.914  1.00  0.00    -0.257 C  
BRANCH   6   8
HETATM    8  C   UNL     1     -10.766  15.740  68.907  1.00  0.00    -0.248 C  
HETATM    9  O   UNL     1      -9.860  15.693  69.735  1.00  0.00    -0.281 OA 
HETATM   10  N   UNL     1     -12.086  15.356  69.111  1.00  0.00    -0.561 N  
HETATM   11  H   UNL     1     -12.743  15.549  68.356  1.00  0.00     0.000 HD 
BRANCH  10  12
HETATM   12  C   UNL     1     -12.611  14.722  70.266  1.00  0.00    -0.315 A  
HETATM   13  C   UNL     1     -13.339  15.447  71.224  1.00  0.00    -0.598 A  
HETATM   14  C   UNL     1     -13.866  14.837  72.364  1.00  0.00    -0.578 A  
HETATM   15  C   UNL     1     -13.664  13.482  72.580  1.00  0.00    -0.664 A  
HETATM   16  C   UNL     1     -12.929  12.743  71.655  1.00  0.00    -0.402 A  
HETATM   17  C   UNL     1     -12.398  13.348  70.492  1.00  0.00    -0.401 A  
HETATM   18  C   UNL     1     -11.609  12.461  69.563  1.00  0.00    -0.353 C  
ENDBRANCH  10  12
ENDBRANCH   6   8
ENDBRANCH   4   6
ENDBRANCH   3   4
ENDBRANCH   2   3
TORSDOF 5
ENDMDL
MODEL       21
REMARK 921   NORMALIZED FREE ENERGY PREDICTED BY IDOCK:   -5.17 KCAL/MOL
REMARK 922        TOTAL FREE ENERGY PREDICTED BY IDOCK:   -7.02 KCAL/MOL
REMARK 923 INTER-LIGAND FREE ENERGY PREDICTED BY IDOCK:   -6.62 KCAL/MOL
REMARK 924 INTRA-LIGAND FREE ENERGY PREDICTED BY IDOCK:   -0.41 KCAL/MOL
REMARK 927      BINDING AFFINITY PREDICTED BY RF-SCORE:    0.00 PKD
ROOT
HETATM    1  C   UNL     1     -13.653  15.428  71.844  1.00  0.00    -0.590 C  
HETATM    2  C   UNL     1     -12.210  15.816  71.559  1.00  0.00    -0.513 C  
ENDROOT
BRANCH   2   3
HETATM    3  C   UNL     1     -11.810  15.458  70.128  1.00  0.00    -0.335 C  
BRANCH   3   4
HETATM    4  N   UNL     1     -12.621  14.330  69.654  1.00  0.00    -0.503 NA 
HETATM    5  H   UNL     1     -12.942  14.477  68.697  1.00  0.00     0.000 HD 
BRANCH   4   6
HETATM    6  C   UNL     1     -11.896  13.042  69.792  1.00  0.00    -0.311 C  
HETATM    7  C   UNL     1     -12.515  12.119  70.840  1.00  0.00    -0.374 C  
BRANCH   6   8
HETATM    8  C   UNL     1     -11.856  12.305  68.434  1.00  0.00    -0.304 C  
HETATM    9  O   UNL     1     -12.133  11.109  68.392  1.00  0.00    -0.605 OA 
HETATM   10  N   UNL     1     -11.573  13.121  67.345  1.00  0.00    -0.334 N  
HETATM   11  H   UNL     1     -11.460  14.117  67.534  1.00  0.00     0.000 HD 
BRANCH  10  12
HETATM   12  C   UNL     1     -11.426  12.708  65.996  1.00  0.00    -0.368 A  
HETATM   13  C   UNL     1     -12.493  12.805  65.088  1.00  0.00    -0.565 A  
HETATM   14  C   UNL     1     -12.364  12.405  63.756  1.00  0.00    -0.625 A  
HETATM   15  C   UNL     1     -11.161  11.885  63.303  1.00  0.00    -0.390 A  
HETATM   16  C   UNL     1     -10.092  11.760  64.189  1.00  0.00    -0.344 A  
HETATM   17  C   UNL     1     -10.208  12.169  65.537  1.00  0.00    -0.294 A  
HETATM   18  C   UNL     1      -8.996  11.979  66.413  1.00  0.00    -0.161 C  
ENDBRANCH  10  12
ENDBRANCH   6   8
ENDBRANCH   4   6
ENDBRANCH   3   4
ENDBRANCH   2   3
TORSDOF 5
ENDMDL
MODEL       22
REMARK 921   NORMALIZED FREE ENERGY PREDICTED BY IDOCK:   -5.17 KCAL/MOL
REMARK 922        TOTAL FREE ENERGY PREDICTED BY IDOCK:   -7.02 KCAL/MOL
REMARK 923 INTER-LIGAND FREE ENERGY PREDICTED BY IDOCK:   -6.56 KCAL/MOL
REMARK 924 INTRA-LIGAND FREE ENERGY PREDICTED BY IDOCK:   -0.46 KCAL/MOL
REMARK 927      BINDING AFFINITY PREDICTED BY RF-SCORE:    0.00 PKD
ROOT
HETATM    1  C   UNL     1     -12.082  12.959  64.274  1.00  0.00    -0.487 C  
HETATM    2  C   UNL     1     -12.193  14.387  64.789  1.00  0.00    -0.458 C  
ENDROOT
BRANCH   2   3
HETATM    3  C   UNL     1     -11.467  14.555  66.124  1.00  0.00    -0.357 C  
BRANCH   3   4
HETATM    4  N   UNL     1     -12.371  14.203  67.227  1.00  0.00    -0.576 NA 
HETATM    5  H   UNL     1     -13.026  13.471  66.953  1.00  0.00     0.000 HD 
BRANCH   4   6
HETATM    6  C   UNL     1     -11.616  13.827  68.448  1.00  0.00    -0.334 C  
HETATM    7  C   UNL     1     -12.082  14.581  69.693  1.00  0.00    -0.369 C  
BRANCH   6   8
HETATM    8  C   UNL     1     -11.741  12.307  68.705  1.00  0.00    -0.340 C  
HETATM    9  O   UNL     1     -12.144  11.578  67.802  1.00  0.00    -0.626 OA 
HETATM   10  N   UNL     1     -11.296  11.897  69.956  1.00  0.00    -0.510 N  
HETATM   11  H   UNL     1     -10.899  12.616  70.561  1.00  0.00     0.000 HD 
BRANCH  10  12
HETATM   12  C   UNL     1     -11.339  10.578  70.476  1.00  0.00    -0.314 A  
HETATM   13  C   UNL     1     -10.420   9.603  70.055  1.00  0.00    -0.301 A  
HETATM   14  C   UNL     1     -10.446   8.301  70.559  1.00  0.00    -0.225 A  
HETATM   15  C   UNL     1     -11.406   7.940  71.492  1.00  0.00    -0.293 A  
HETATM   16  C   UNL     1     -12.341   8.883  71.912  1.00  0.00    -0.445 A  
HETATM   17  C   UNL     1     -12.320  10.206  71.416  1.00  0.00    -0.515 A  
HETATM   18  C   UNL     1     -13.385  11.143  71.927  1.00  0.00    -0.409 C  
ENDBRANCH  10  12
ENDBRANCH   6   8
ENDBRANCH   4   6
ENDBRANCH   3   4
ENDBRANCH   2   3
TORSDOF 5
ENDMDL
MODEL       23
REMARK 921   NORMALIZED FREE ENERGY PREDICTED BY IDOCK:   -5.15 KCAL/MOL
REMARK 922        TOTAL FREE ENERGY PREDICTED BY IDOCK:   -7.00 KCAL/MOL
REMARK 923 INTER-LIGAND FREE ENERGY PREDICTED BY IDOCK:   -6.34 KCAL/MOL
REMARK 924 INTRA-LIGAND FREE ENERGY PREDICTED BY IDOCK:   -0.65 KCAL/MOL
REMARK 927      BINDING AFFINITY PREDICTED BY RF-SCORE:    0.00 PKD
ROOT
HETATM    1  C   UNL     1     -10.047  10.456  66.010  1.00  0.00    -0.307 C  
HETATM    2  C   UNL     1      -9.317  10.326  64.682  1.00  0.00    -0.320 C  
ENDROOT
BRANCH   2   3
HETATM    3  C   UNL     1     -10.152  10.888  63.531  1.00  0.00    -0.347 C  
BRANCH   3   4
HETATM    4  N   UNL     1     -10.124  12.355  63.569  1.00  0.00    -0.541 NA 
HETATM    5  H   UNL     1      -9.454  12.734  62.899  1.00  0.00     0.000 HD 
BRANCH   4   6
HETATM    6  C   UNL     1     -11.478  12.930  63.367  1.00  0.00    -0.338 C  
HETATM    7  C   UNL     1     -12.596  11.907  63.569  1.00  0.00    -0.579 C  
BRANCH   6   8
HETATM    8  C   UNL     1     -11.703  14.117  64.331  1.00  0.00    -0.392 C  
HETATM    9  O   UNL     1     -12.580  14.939  64.077  1.00  0.00    -0.832 OA 
HETATM   10  N   UNL     1     -10.909  14.090  65.471  1.00  0.00    -0.299 N  
HETATM   11  H   UNL     1     -10.293  13.284  65.583  1.00  0.00     0.000 HD 
BRANCH  10  12
HETATM   12  C   UNL     1     -10.869  15.070  66.496  1.00  0.00    -0.320 A  
HETATM   13  C   UNL     1     -10.306  16.335  66.267  1.00  0.00    -0.335 A  
HETATM   14  C   UNL     1     -10.262  17.313  67.263  1.00  0.00    -0.320 A  
HETATM   15  C   UNL     1     -10.773  17.039  68.523  1.00  0.00    -0.352 A  
HETATM   16  C   UNL     1     -11.320  15.785  68.782  1.00  0.00    -0.362 A  
HETATM   17  C   UNL     1     -11.378  14.790  67.780  1.00  0.00    -0.344 A  
HETATM   18  C   UNL     1     -11.979  13.464  68.169  1.00  0.00    -0.356 C  
ENDBRANCH  10  12
ENDBRANCH   6   8
ENDBRANCH   4   6
ENDBRANCH   3   4
ENDBRANCH   2   3
TORSDOF 5
ENDMDL
MODEL       24
REMARK 921   NORMALIZED FREE ENERGY PREDICTED BY IDOCK:   -5.09 KCAL/MOL
REMARK 922        TOTAL FREE ENERGY PREDICTED BY IDOCK:   -6.92 KCAL/MOL
REMARK 923 INTER-LIGAND FREE ENERGY PREDICTED BY IDOCK:   -6.46 KCAL/MOL
REMARK 924 INTRA-LIGAND FREE ENERGY PREDICTED BY IDOCK:   -0.46 KCAL/MOL
REMARK 927      BINDING AFFINITY PREDICTED BY RF-SCORE:    0.00 PKD
ROOT
HETATM    1  C   UNL     1     -10.158  10.812  63.545  1.00  0.00    -0.364 C  
HETATM    2  C   UNL     1     -11.067  12.033  63.536  1.00  0.00    -0.519 C  
ENDROOT
BRANCH   2   3
HETATM    3  C   UNL     1     -10.444  13.196  64.306  1.00  0.00    -0.389 C  
BRANCH   3   4
HETATM    4  N   UNL     1      -9.774  12.690  65.511  1.00  0.00    -0.434 NA 
HETATM    5  H   UNL     1      -8.761  12.664  65.392  1.00  0.00     0.000 HD 
BRANCH   4   6
HETATM    6  C   UNL     1     -10.160  13.469  66.715  1.00  0.00    -0.268 C  
HETATM    7  C   UNL     1     -10.778  14.824  66.375  1.00  0.00    -0.313 C  
BRANCH   6   8
HETATM    8  C   UNL     1     -11.161  12.661  67.573  1.00  0.00    -0.288 C  
HETATM    9  O   UNL     1     -12.119  12.119  67.026  1.00  0.00    -0.591 OA 
HETATM   10  N   UNL     1     -10.819  12.564  68.916  1.00  0.00    -0.331 N  
HETATM   11  H   UNL     1      -9.938  12.992  69.198  1.00  0.00     0.000 HD 
BRANCH  10  12
HETATM   12  C   UNL     1     -11.575  11.928  69.935  1.00  0.00    -0.256 A  
HETATM   13  C   UNL     1     -11.541  10.534  70.100  1.00  0.00    -0.408 A  
HETATM   14  C   UNL     1     -12.276   9.893  71.100  1.00  0.00    -0.468 A  
HETATM   15  C   UNL     1     -13.075  10.637  71.955  1.00  0.00    -0.563 A  
HETATM   16  C   UNL     1     -13.141  12.020  71.801  1.00  0.00    -0.460 A  
HETATM   17  C   UNL     1     -12.396  12.681  70.798  1.00  0.00    -0.372 A  
HETATM   18  C   UNL     1     -12.549  14.178  70.710  1.00  0.00    -0.432 C  
ENDBRANCH  10  12
ENDBRANCH   6   8
ENDBRANCH   4   6
ENDBRANCH   3   4
ENDBRANCH   2   3
TORSDOF 5
ENDMDL
MODEL       25
REMARK 921   NORMALIZED FREE ENERGY PREDICTED BY IDOCK:   -5.08 KCAL/MOL
REMARK 922        TOTAL FREE ENERGY PREDICTED BY IDOCK:   -6.91 KCAL/MOL
REMARK 923 INTER-LIGAND FREE ENERGY PREDICTED BY IDOCK:   -6.31 KCAL/MOL
REMARK 924 INTRA-LIGAND FREE ENERGY PREDICTED BY IDOCK:   -0.59 KCAL/MOL
REMARK 927      BINDING AFFINITY PREDICTED BY RF-SCORE:    0.00 PKD
ROOT
HETATM    1  C   UNL     1     -13.151  11.223  71.843  1.00  0.00    -0.510 C  
HETATM    2  C   UNL     1     -12.534  12.291  70.952  1.00  0.00    -0.371 C  
ENDROOT
BRANCH   2   3
HETATM    3  C   UNL     1     -12.780  13.692  71.510  1.00  0.00    -0.332 C  
BRANCH   3   4
HETATM    4  N   UNL     1     -13.324  14.557  70.455  1.00  0.00    -0.488 NA 
HETATM    5  H   UNL     1     -14.206  14.983  70.739  1.00  0.00     0.000 HD 
BRANCH   4   6
HETATM    6  C   UNL     1     -12.337  15.583  70.031  1.00  0.00    -0.317 C  
HETATM    7  C   UNL     1     -11.222  15.795  71.053  1.00  0.00    -0.396 C  
BRANCH   6   8
HETATM    8  C   UNL     1     -11.708  15.188  68.675  1.00  0.00    -0.341 C  
HETATM    9  O   UNL     1     -10.597  15.622  68.381  1.00  0.00    -0.238 OA 
HETATM   10  N   UNL     1     -12.462  14.287  67.933  1.00  0.00    -0.496 N  
HETATM   11  H   UNL     1     -13.322  13.945  68.360  1.00  0.00     0.000 HD 
BRANCH  10  12
HETATM   12  C   UNL     1     -12.153  13.793  66.639  1.00  0.00    -0.429 A  
HETATM   13  C   UNL     1     -12.396  14.565  65.492  1.00  0.00    -0.272 A  
HETATM   14  C   UNL     1     -12.095  14.096  64.211  1.00  0.00    -0.471 A  
HETATM   15  C   UNL     1     -11.551  12.831  64.049  1.00  0.00    -0.488 A  
HETATM   16  C   UNL     1     -11.318  12.036  65.170  1.00  0.00    -0.359 A  
HETATM   17  C   UNL     1     -11.611  12.504  66.471  1.00  0.00    -0.447 A  
HETATM   18  C   UNL     1     -11.331  11.560  67.613  1.00  0.00    -0.358 C  
ENDBRANCH  10  12
ENDBRANCH   6   8
ENDBRANCH   4   6
ENDBRANCH   3   4
ENDBRANCH   2   3
TORSDOF 5
ENDMDL
MODEL       26
REMARK 921   NORMALIZED FREE ENERGY PREDICTED BY IDOCK:   -5.08 KCAL/MOL
REMARK 922        TOTAL FREE ENERGY PREDICTED BY IDOCK:   -6.90 KCAL/MOL
REMARK 923 INTER-LIGAND FREE ENERGY PREDICTED BY IDOCK:   -6.57 KCAL/MOL
REMARK 924 INTRA-LIGAND FREE ENERGY PREDICTED BY IDOCK:   -0.33 KCAL/MOL
REMARK 927      BINDING AFFINITY PREDICTED BY RF-SCORE:    0.00 PKD
ROOT
HETATM    1  C   UNL     1     -11.074   6.319  68.464  1.00  0.00    -0.397 C  
HETATM    2  C   UNL     1     -10.801   6.707  67.018  1.00  0.00    -0.467 C  
ENDROOT
BRANCH   2   3
HETATM    3  C   UNL     1     -10.242   8.126  66.919  1.00  0.00    -0.316 C  
BRANCH   3   4
HETATM    4  N   UNL     1     -10.933   8.998  67.877  1.00  0.00    -0.497 NA 
HETATM    5  H   UNL     1     -10.939   8.593  68.814  1.00  0.00     0.000 HD 
BRANCH   4   6
HETATM    6  C   UNL     1     -10.356  10.367  67.881  1.00  0.00    -0.190 C  
HETATM    7  C   UNL     1      -9.887  10.819  66.499  1.00  0.00    -0.246 C  
BRANCH   6   8
HETATM    8  C   UNL     1     -11.393  11.380  68.416  1.00  0.00    -0.281 C  
HETATM    9  O   UNL     1     -12.260  11.809  67.657  1.00  0.00    -0.534 OA 
HETATM   10  N   UNL     1     -11.281  11.656  69.774  1.00  0.00    -0.470 N  
HETATM   11  H   UNL     1     -10.564  11.144  70.289  1.00  0.00     0.000 HD 
BRANCH  10  12
HETATM   12  C   UNL     1     -12.063  12.578  70.515  1.00  0.00    -0.274 A  
HETATM   13  C   UNL     1     -11.963  13.960  70.288  1.00  0.00    -0.401 A  
HETATM   14  C   UNL     1     -12.728  14.881  71.007  1.00  0.00    -0.412 A  
HETATM   15  C   UNL     1     -13.606  14.437  71.984  1.00  0.00    -0.514 A  
HETATM   16  C   UNL     1     -13.710  13.072  72.243  1.00  0.00    -0.608 A  
HETATM   17  C   UNL     1     -12.947  12.130  71.516  1.00  0.00    -0.398 A  
HETATM   18  C   UNL     1     -13.126  10.679  71.884  1.00  0.00    -0.563 C  
ENDBRANCH  10  12
ENDBRANCH   6   8
ENDBRANCH   4   6
ENDBRANCH   3   4
ENDBRANCH   2   3
TORSDOF 5
ENDMDL
MODEL       27
REMARK 921   NORMALIZED FREE ENERGY PREDICTED BY IDOCK:   -5.07 KCAL/MOL
REMARK 922        TOTAL FREE ENERGY PREDICTED BY IDOCK:   -6.89 KCAL/MOL
REMARK 923 INTER-LIGAND FREE ENERGY PREDICTED BY IDOCK:   -6.26 KCAL/MOL
REMARK 924 INTRA-LIGAND FREE ENERGY PREDICTED BY IDOCK:   -0.63 KCAL/MOL
REMARK 927      BINDING AFFINITY PREDICTED BY RF-SCORE:    0.00 PKD
ROOT
HETATM    1  C   UNL     1      -9.948  10.132  65.325  1.00  0.00    -0.381 C  
HETATM    2  C   UNL     1      -9.497  10.535  63.929  1.00  0.00    -0.338 C  
ENDROOT
BRANCH   2   3
HETATM    3  C   UNL     1     -10.407  11.612  63.339  1.00  0.00    -0.435 C  
BRANCH   3   4
HETATM    4  N   UNL     1     -10.025  12.928  63.867  1.00  0.00    -0.724 NA 
HETATM    5  H   UNL     1      -9.667  13.536  63.131  1.00  0.00     0.000 HD 
BRANCH   4   6
HETATM    6  C   UNL     1     -11.147  13.565  64.601  1.00  0.00    -0.374 C  
HETATM    7  C   UNL     1     -12.438  12.750  64.542  1.00  0.00    -0.501 C  
BRANCH   6   8
HETATM    8  C   UNL     1     -10.759  13.784  66.081  1.00  0.00    -0.283 C  
HETATM    9  O   UNL     1      -9.625  13.491  66.454  1.00  0.00    -0.270 OA 
HETATM   10  N   UNL     1     -11.747  14.386  66.852  1.00  0.00    -0.389 N  
HETATM   11  H   UNL     1     -12.604  14.657  66.370  1.00  0.00     0.000 HD 
BRANCH  10  12
HETATM   12  C   UNL     1     -11.683  14.660  68.242  1.00  0.00    -0.328 A  
HETATM   13  C   UNL     1     -12.149  13.730  69.186  1.00  0.00    -0.374 A  
HETATM   14  C   UNL     1     -12.090  13.983  70.559  1.00  0.00    -0.424 A  
HETATM   15  C   UNL     1     -11.571  15.184  71.019  1.00  0.00    -0.390 A  
HETATM   16  C   UNL     1     -11.119  16.131  70.102  1.00  0.00    -0.373 A  
HETATM   17  C   UNL     1     -11.166  15.883  68.712  1.00  0.00    -0.359 A  
HETATM   18  C   UNL     1     -10.663  16.979  67.807  1.00  0.00    -0.318 C  
ENDBRANCH  10  12
ENDBRANCH   6   8
ENDBRANCH   4   6
ENDBRANCH   3   4
ENDBRANCH   2   3
TORSDOF 5
ENDMDL
MODEL       28
REMARK 921   NORMALIZED FREE ENERGY PREDICTED BY IDOCK:   -5.05 KCAL/MOL
REMARK 922        TOTAL FREE ENERGY PREDICTED BY IDOCK:   -6.87 KCAL/MOL
REMARK 923 INTER-LIGAND FREE ENERGY PREDICTED BY IDOCK:   -6.29 KCAL/MOL
REMARK 924 INTRA-LIGAND FREE ENERGY PREDICTED BY IDOCK:   -0.59 KCAL/MOL
REMARK 927      BINDING AFFINITY PREDICTED BY RF-SCORE:    0.00 PKD
ROOT
HETATM    1  C   UNL     1     -10.289   9.030  71.340  1.00  0.00    -0.396 C  
HETATM    2  C   UNL     1     -10.921   8.330  70.146  1.00  0.00    -0.222 C  
ENDROOT
BRANCH   2   3
HETATM    3  C   UNL     1     -10.194   8.679  68.847  1.00  0.00    -0.207 C  
BRANCH   3   4
HETATM    4  N   UNL     1     -11.061   9.508  68.001  1.00  0.00    -0.514 NA 
HETATM    5  H   UNL     1     -12.009   9.558  68.373  1.00  0.00     0.000 HD 
BRANCH   4   6
HETATM    6  C   UNL     1     -10.486  10.861  67.795  1.00  0.00    -0.203 C  
HETATM    7  C   UNL     1     -10.187  11.165  66.327  1.00  0.00    -0.286 C  
BRANCH   6   8
HETATM    8  C   UNL     1     -11.450  11.938  68.344  1.00  0.00    -0.299 C  
HETATM    9  O   UNL     1     -12.234  12.489  67.575  1.00  0.00    -0.418 OA 
HETATM   10  N   UNL     1     -11.380  12.125  69.719  1.00  0.00    -0.493 N  
HETATM   11  H   UNL     1     -10.741  11.519  70.233  1.00  0.00     0.000 HD 
BRANCH  10  12
HETATM   12  C   UNL     1     -12.109  13.075  70.480  1.00  0.00    -0.292 A  
HETATM   13  C   UNL     1     -11.935  14.453  70.277  1.00  0.00    -0.388 A  
HETATM   14  C   UNL     1     -12.647  15.401  71.015  1.00  0.00    -0.491 A  
HETATM   15  C   UNL     1     -13.546  14.989  71.987  1.00  0.00    -0.522 A  
HETATM   16  C   UNL     1     -13.723  13.627  72.221  1.00  0.00    -0.687 A  
HETATM   17  C   UNL     1     -13.014  12.658  71.475  1.00  0.00    -0.380 A  
HETATM   18  C   UNL     1     -13.272  11.212  71.817  1.00  0.00    -0.486 C  
ENDBRANCH  10  12
ENDBRANCH   6   8
ENDBRANCH   4   6
ENDBRANCH   3   4
ENDBRANCH   2   3
TORSDOF 5
ENDMDL
MODEL       29
REMARK 921   NORMALIZED FREE ENERGY PREDICTED BY IDOCK:   -5.05 KCAL/MOL
REMARK 922        TOTAL FREE ENERGY PREDICTED BY IDOCK:   -6.87 KCAL/MOL
REMARK 923 INTER-LIGAND FREE ENERGY PREDICTED BY IDOCK:   -6.19 KCAL/MOL
REMARK 924 INTRA-LIGAND FREE ENERGY PREDICTED BY IDOCK:   -0.67 KCAL/MOL
REMARK 927      BINDING AFFINITY PREDICTED BY RF-SCORE:    0.00 PKD
ROOT
HETATM    1  C   UNL     1     -11.657   9.067  71.315  1.00  0.00    -0.387 C  
HETATM    2  C   UNL     1     -10.140   9.094  71.428  1.00  0.00    -0.392 C  
ENDROOT
BRANCH   2   3
HETATM    3  C   UNL     1      -9.478   9.105  70.051  1.00  0.00    -0.198 C  
BRANCH   3   4
HETATM    4  N   UNL     1      -9.290  10.491  69.603  1.00  0.00    -0.414 NA 
HETATM    5  H   UNL     1      -8.310  10.689  69.403  1.00  0.00     0.000 HD 
BRANCH   4   6
HETATM    6  C   UNL     1     -10.157  10.808  68.440  1.00  0.00    -0.169 C  
HETATM    7  C   UNL     1     -10.557   9.570  67.639  1.00  0.00    -0.329 C  
BRANCH   6   8
HETATM    8  C   UNL     1     -11.437  11.536  68.913  1.00  0.00    -0.289 C  
HETATM    9  O   UNL     1     -12.515  11.246  68.399  1.00  0.00    -0.403 OA 
HETATM   10  N   UNL     1     -11.239  12.423  69.964  1.00  0.00    -0.461 N  
HETATM   11  H   UNL     1     -10.295  12.481  70.345  1.00  0.00     0.000 HD 
BRANCH  10  12
HETATM   12  C   UNL     1     -12.220  13.256  70.561  1.00  0.00    -0.340 A  
HETATM   13  C   UNL     1     -13.029  12.787  71.608  1.00  0.00    -0.402 A  
HETATM   14  C   UNL     1     -13.996  13.595  72.209  1.00  0.00    -0.661 A  
HETATM   15  C   UNL     1     -14.186  14.894  71.764  1.00  0.00    -0.635 A  
HETATM   16  C   UNL     1     -13.410  15.378  70.713  1.00  0.00    -0.385 A  
HETATM   17  C   UNL     1     -12.421  14.572  70.102  1.00  0.00    -0.375 A  
HETATM   18  C   UNL     1     -11.646  15.189  68.966  1.00  0.00    -0.350 C  
ENDBRANCH  10  12
ENDBRANCH   6   8
ENDBRANCH   4   6
ENDBRANCH   3   4
ENDBRANCH   2   3
TORSDOF 5
ENDMDL
MODEL       30
REMARK 921   NORMALIZED FREE ENERGY PREDICTED BY IDOCK:   -5.04 KCAL/MOL
REMARK 922        TOTAL FREE ENERGY PREDICTED BY IDOCK:   -6.85 KCAL/MOL
REMARK 923 INTER-LIGAND FREE ENERGY PREDICTED BY IDOCK:   -6.48 KCAL/MOL
REMARK 924 INTRA-LIGAND FREE ENERGY PREDICTED BY IDOCK:   -0.37 KCAL/MOL
REMARK 927      BINDING AFFINITY PREDICTED BY RF-SCORE:    0.00 PKD
ROOT
HETATM    1  C   UNL     1     -13.421  13.906  72.378  1.00  0.00    -0.661 C  
HETATM    2  C   UNL     1     -13.007  14.990  71.394  1.00  0.00    -0.445 C  
ENDROOT
BRANCH   2   3
HETATM    3  C   UNL     1     -12.182  14.413  70.244  1.00  0.00    -0.334 C  
BRANCH   3   4
HETATM    4  N   UNL     1     -12.371  15.232  69.040  1.00  0.00    -0.602 NA 
HETATM    5  H   UNL     1     -12.278  16.227  69.246  1.00  0.00     0.000 HD 
BRANCH   4   6
HETATM    6  C   UNL     1     -11.452  14.816  67.950  1.00  0.00    -0.342 C  
HETATM    7  C   UNL     1     -12.155  14.033  66.843  1.00  0.00    -0.465 C  
BRANCH   6   8
HETATM    8  C   UNL     1     -10.765  16.055  67.331  1.00  0.00    -0.306 C  
HETATM    9  O   UNL     1     -10.616  16.111  66.112  1.00  0.00    -0.313 OA 
HETATM   10  N   UNL     1     -10.442  17.050  68.245  1.00  0.00    -0.344 N  
HETATM   11  H   UNL     1     -10.719  16.892  69.214  1.00  0.00     0.000 HD 
BRANCH  10  12
HETATM   12  C   UNL     1      -9.767  18.266  67.965  1.00  0.00    -0.312 A  
HETATM   13  C   UNL     1     -10.442  19.354  67.390  1.00  0.00    -0.581 A  
HETATM   14  C   UNL     1      -9.792  20.559  67.111  1.00  0.00    -0.567 A  
HETATM   15  C   UNL     1      -8.442  20.698  67.393  1.00  0.00    -0.299 A  
HETATM   16  C   UNL     1      -7.744  19.626  67.946  1.00  0.00    -0.331 A  
HETATM   17  C   UNL     1      -8.392  18.405  68.240  1.00  0.00    -0.321 A  
HETATM   18  C   UNL     1      -7.542  17.306  68.826  1.00  0.00    -0.256 C  
ENDBRANCH  10  12
ENDBRANCH   6   8
ENDBRANCH   4   6
ENDBRANCH   3   4
ENDBRANCH   2   3
TORSDOF 5
ENDMDL
MODEL       31
REMARK 921   NORMALIZED FREE ENERGY PREDICTED BY IDOCK:   -5.02 KCAL/MOL
REMARK 922        TOTAL FREE ENERGY PREDICTED BY IDOCK:   -6.83 KCAL/MOL
REMARK 923 INTER-LIGAND FREE ENERGY PREDICTED BY IDOCK:   -6.24 KCAL/MOL
REMARK 924 INTRA-LIGAND FREE ENERGY PREDICTED BY IDOCK:   -0.59 KCAL/MOL
REMARK 927      BINDING AFFINITY PREDICTED BY RF-SCORE:    0.00 PKD
ROOT
HETATM    1  C   UNL     1     -10.041   7.395  67.865  1.00  0.00    -0.220 C  
HETATM    2  C   UNL     1      -9.632   6.657  69.131  1.00  0.00    -0.136 C  
ENDROOT
BRANCH   2   3
HETATM    3  C   UNL     1     -10.786   5.826  69.689  1.00  0.00    -0.348 C  
BRANCH   3   4
HETATM    4  N   UNL     1     -11.965   6.680  69.880  1.00  0.00    -0.639 NA 
HETATM    5  H   UNL     1     -12.797   6.269  69.456  1.00  0.00     0.000 HD 
BRANCH   4   6
HETATM    6  C   UNL     1     -12.184   6.992  71.315  1.00  0.00    -0.377 C  
HETATM    7  C   UNL     1     -11.327   6.138  72.248  1.00  0.00    -0.346 C  
BRANCH   6   8
HETATM    8  C   UNL     1     -11.887   8.485  71.586  1.00  0.00    -0.311 C  
HETATM    9  O   UNL     1     -10.938   8.786  72.308  1.00  0.00    -0.359 OA 
HETATM   10  N   UNL     1     -12.709   9.369  70.899  1.00  0.00    -0.510 N  
HETATM   11  H   UNL     1     -13.392   8.960  70.261  1.00  0.00     0.000 HD 
BRANCH  10  12
HETATM   12  C   UNL     1     -12.694  10.784  70.994  1.00  0.00    -0.415 A  
HETATM   13  C   UNL     1     -13.352  11.447  72.044  1.00  0.00    -0.388 A  
HETATM   14  C   UNL     1     -13.343  12.839  72.155  1.00  0.00    -0.593 A  
HETATM   15  C   UNL     1     -12.683  13.604  71.206  1.00  0.00    -0.443 A  
HETATM   16  C   UNL     1     -12.039  12.973  70.144  1.00  0.00    -0.377 A  
HETATM   17  C   UNL     1     -12.033  11.564  70.025  1.00  0.00    -0.435 A  
HETATM   18  C   UNL     1     -11.317  10.983  68.833  1.00  0.00    -0.346 C  
ENDBRANCH  10  12
ENDBRANCH   6   8
ENDBRANCH   4   6
ENDBRANCH   3   4
ENDBRANCH   2   3
TORSDOF 5
ENDMDL
MODEL       32
REMARK 921   NORMALIZED FREE ENERGY PREDICTED BY IDOCK:   -5.00 KCAL/MOL
REMARK 922        TOTAL FREE ENERGY PREDICTED BY IDOCK:   -6.80 KCAL/MOL
REMARK 923 INTER-LIGAND FREE ENERGY PREDICTED BY IDOCK:   -6.20 KCAL/MOL
REMARK 924 INTRA-LIGAND FREE ENERGY PREDICTED BY IDOCK:   -0.60 KCAL/MOL
REMARK 927      BINDING AFFINITY PREDICTED BY RF-SCORE:    0.00 PKD
ROOT
HETATM    1  C   UNL     1     -10.616  12.147  63.416  1.00  0.00    -0.454 C  
HETATM    2  C   UNL     1     -12.092  12.518  63.406  1.00  0.00    -0.621 C  
ENDROOT
BRANCH   2   3
HETATM    3  C   UNL     1     -12.687  12.470  64.813  1.00  0.00    -0.330 C  
BRANCH   3   4
HETATM    4  N   UNL     1     -12.928  13.836  65.295  1.00  0.00    -0.754 NA 
HETATM    5  H   UNL     1     -13.924  14.052  65.322  1.00  0.00     0.000 HD 
BRANCH   4   6
HETATM    6  C   UNL     1     -12.286  14.068  66.614  1.00  0.00    -0.428 C  
HETATM    7  C   UNL     1     -11.621  12.814  67.182  1.00  0.00    -0.426 C  
BRANCH   6   8
HETATM    8  C   UNL     1     -11.228  15.190  66.501  1.00  0.00    -0.283 C  
HETATM    9  O   UNL     1     -10.524  15.251  65.496  1.00  0.00    -0.317 OA 
HETATM   10  N   UNL     1     -11.234  16.094  67.556  1.00  0.00    -0.170 N  
HETATM   11  H   UNL     1     -11.948  15.960  68.272  1.00  0.00     0.000 HD 
BRANCH  10  12
HETATM   12  C   UNL     1     -10.347  17.186  67.736  1.00  0.00    -0.347 A  
HETATM   13  C   UNL     1     -10.659  18.462  67.240  1.00  0.00    -0.435 A  
HETATM   14  C   UNL     1      -9.798  19.549  67.412  1.00  0.00    -0.470 A  
HETATM   15  C   UNL     1      -8.594  19.379  68.078  1.00  0.00    -0.362 A  
HETATM   16  C   UNL     1      -8.252  18.118  68.564  1.00  0.00    -0.320 A  
HETATM   17  C   UNL     1      -9.118  17.013  68.403  1.00  0.00    -0.256 A  
HETATM   18  C   UNL     1      -8.647  15.692  68.955  1.00  0.00    -0.232 C  
ENDBRANCH  10  12
ENDBRANCH   6   8
ENDBRANCH   4   6
ENDBRANCH   3   4
ENDBRANCH   2   3
TORSDOF 5
ENDMDL
MODEL       33
REMARK 921   NORMALIZED FREE ENERGY PREDICTED BY IDOCK:   -4.97 KCAL/MOL
REMARK 922        TOTAL FREE ENERGY PREDICTED BY IDOCK:   -6.76 KCAL/MOL
REMARK 923 INTER-LIGAND FREE ENERGY PREDICTED BY IDOCK:   -6.34 KCAL/MOL
REMARK 924 INTRA-LIGAND FREE ENERGY PREDICTED BY IDOCK:   -0.42 KCAL/MOL
REMARK 927      BINDING AFFINITY PREDICTED BY RF-SCORE:    0.00 PKD
ROOT
HETATM    1  C   UNL     1     -13.664  13.098  72.285  1.00  0.00    -0.647 C  
HETATM    2  C   UNL     1     -13.151  11.762  71.767  1.00  0.00    -0.480 C  
ENDROOT
BRANCH   2   3
HETATM    3  C   UNL     1     -12.325  11.940  70.493  1.00  0.00    -0.284 C  
BRANCH   3   4
HETATM    4  N   UNL     1     -11.752  13.291  70.459  1.00  0.00    -0.534 NA 
HETATM    5  H   UNL     1     -10.747  13.275  70.635  1.00  0.00     0.000 HD 
BRANCH   4   6
HETATM    6  C   UNL     1     -12.069  13.984  69.185  1.00  0.00    -0.337 C  
HETATM    7  C   UNL     1     -11.898  15.500  69.271  1.00  0.00    -0.372 C  
BRANCH   6   8
HETATM    8  C   UNL     1     -11.174  13.442  68.047  1.00  0.00    -0.268 C  
HETATM    9  O   UNL     1      -9.953  13.554  68.139  1.00  0.00    -0.227 OA 
HETATM   10  N   UNL     1     -11.864  12.789  67.033  1.00  0.00    -0.381 N  
HETATM   11  H   UNL     1     -12.873  12.696  67.150  1.00  0.00     0.000 HD 
BRANCH  10  12
HETATM   12  C   UNL     1     -11.307  12.240  65.850  1.00  0.00    -0.360 A  
HETATM   13  C   UNL     1     -10.639  11.005  65.869  1.00  0.00    -0.270 A  
HETATM   14  C   UNL     1     -10.087  10.448  64.713  1.00  0.00    -0.387 A  
HETATM   15  C   UNL     1     -10.181  11.126  63.507  1.00  0.00    -0.446 A  
HETATM   16  C   UNL     1     -10.822  12.362  63.464  1.00  0.00    -0.487 A  
HETATM   17  C   UNL     1     -11.391  12.932  64.626  1.00  0.00    -0.361 A  
HETATM   18  C   UNL     1     -12.051  14.279  64.472  1.00  0.00    -0.499 C  
ENDBRANCH  10  12
ENDBRANCH   6   8
ENDBRANCH   4   6
ENDBRANCH   3   4
ENDBRANCH   2   3
TORSDOF 5
ENDMDL
MODEL       34
REMARK 921   NORMALIZED FREE ENERGY PREDICTED BY IDOCK:   -4.97 KCAL/MOL
REMARK 922        TOTAL FREE ENERGY PREDICTED BY IDOCK:   -6.76 KCAL/MOL
REMARK 923 INTER-LIGAND FREE ENERGY PREDICTED BY IDOCK:   -6.31 KCAL/MOL
REMARK 924 INTRA-LIGAND FREE ENERGY PREDICTED BY IDOCK:   -0.45 KCAL/MOL
REMARK 927      BINDING AFFINITY PREDICTED BY RF-SCORE:    0.00 PKD
ROOT
HETATM    1  C   UNL     1      -9.727  20.128  66.268  1.00  0.00    -0.515 C  
HETATM    2  C   UNL     1      -9.838  20.331  67.772  1.00  0.00    -0.534 C  
ENDROOT
BRANCH   2   3
HETATM    3  C   UNL     1     -10.101  19.010  68.493  1.00  0.00    -0.400 C  
BRANCH   3   4
HETATM    4  N   UNL     1     -10.779  18.075  67.585  1.00  0.00    -0.398 NA 
HETATM    5  H   UNL     1     -10.583  18.296  66.609  1.00  0.00     0.000 HD 
BRANCH   4   6
HETATM    6  C   UNL     1     -10.438  16.666  67.902  1.00  0.00    -0.322 C  
HETATM    7  C   UNL     1     -11.436  16.012  68.857  1.00  0.00    -0.362 C  
BRANCH   6   8
HETATM    8  C   UNL     1     -10.365  15.830  66.603  1.00  0.00    -0.291 C  
HETATM    9  O   UNL     1      -9.755  16.279  65.635  1.00  0.00    -0.464 OA 
HETATM   10  N   UNL     1     -10.955  14.575  66.692  1.00  0.00    -0.315 N  
HETATM   11  H   UNL     1     -11.339  14.311  67.600  1.00  0.00     0.000 HD 
BRANCH  10  12
HETATM   12  C   UNL     1     -11.078  13.624  65.647  1.00  0.00    -0.294 A  
HETATM   13  C   UNL     1     -12.023  13.791  64.623  1.00  0.00    -0.445 A  
HETATM   14  C   UNL     1     -12.155  12.866  63.585  1.00  0.00    -0.611 A  
HETATM   15  C   UNL     1     -11.346  11.740  63.556  1.00  0.00    -0.496 A  
HETATM   16  C   UNL     1     -10.413  11.541  64.571  1.00  0.00    -0.369 A  
HETATM   17  C   UNL     1     -10.265  12.474  65.622  1.00  0.00    -0.287 A  
HETATM   18  C   UNL     1      -9.234  12.157  66.676  1.00  0.00    -0.206 C  
ENDBRANCH  10  12
ENDBRANCH   6   8
ENDBRANCH   4   6
ENDBRANCH   3   4
ENDBRANCH   2   3
TORSDOF 5
ENDMDL
MODEL       35
REMARK 921   NORMALIZED FREE ENERGY PREDICTED BY IDOCK:   -4.95 KCAL/MOL
REMARK 922        TOTAL FREE ENERGY PREDICTED BY IDOCK:   -6.74 KCAL/MOL
REMARK 923 INTER-LIGAND FREE ENERGY PREDICTED BY IDOCK:   -6.26 KCAL/MOL
REMARK 924 INTRA-LIGAND FREE ENERGY PREDICTED BY IDOCK:   -0.48 KCAL/MOL
REMARK 927      BINDING AFFINITY PREDICTED BY RF-SCORE:    0.00 PKD
ROOT
HETATM    1  C   UNL     1     -10.713  11.178  66.279  1.00  0.00    -0.298 C  
HETATM    2  C   UNL     1     -10.295  11.240  64.817  1.00  0.00    -0.366 C  
ENDROOT
BRANCH   2   3
HETATM    3  C   UNL     1     -11.246  12.117  64.003  1.00  0.00    -0.390 C  
BRANCH   3   4
HETATM    4  N   UNL     1     -10.715  13.484  63.926  1.00  0.00    -0.497 NA 
HETATM    5  H   UNL     1     -10.351  13.691  62.995  1.00  0.00     0.000 HD 
BRANCH   4   6
HETATM    6  C   UNL     1     -11.728  14.485  64.347  1.00  0.00    -0.367 C  
HETATM    7  C   UNL     1     -12.690  13.949  65.407  1.00  0.00    -0.525 C  
BRANCH   6   8
HETATM    8  C   UNL     1     -11.029  15.750  64.897  1.00  0.00    -0.427 C  
HETATM    9  O   UNL     1     -11.294  16.844  64.404  1.00  0.00    -1.133 OA 
HETATM   10  N   UNL     1     -10.197  15.519  65.986  1.00  0.00    -0.307 N  
HETATM   11  H   UNL     1     -10.156  14.564  66.339  1.00  0.00     0.000 HD 
BRANCH  10  12
HETATM   12  C   UNL     1      -9.398  16.481  66.656  1.00  0.00    -0.256 A  
HETATM   13  C   UNL     1      -8.203  16.953  66.088  1.00  0.00    -0.295 A  
HETATM   14  C   UNL     1      -7.407  17.902  66.732  1.00  0.00    -0.234 A  
HETATM   15  C   UNL     1      -7.784  18.395  67.972  1.00  0.00    -0.273 A  
HETATM   16  C   UNL     1      -8.955  17.929  68.566  1.00  0.00    -0.291 A  
HETATM   17  C   UNL     1      -9.774  16.975  67.920  1.00  0.00    -0.263 A  
HETATM   18  C   UNL     1     -11.013  16.530  68.655  1.00  0.00    -0.344 C  
ENDBRANCH  10  12
ENDBRANCH   6   8
ENDBRANCH   4   6
ENDBRANCH   3   4
ENDBRANCH   2   3
TORSDOF 5
ENDMDL
MODEL       36
REMARK 921   NORMALIZED FREE ENERGY PREDICTED BY IDOCK:   -4.89 KCAL/MOL
REMARK 922        TOTAL FREE ENERGY PREDICTED BY IDOCK:   -6.66 KCAL/MOL
REMARK 923 INTER-LIGAND FREE ENERGY PREDICTED BY IDOCK:   -6.17 KCAL/MOL
REMARK 924 INTRA-LIGAND FREE ENERGY PREDICTED BY IDOCK:   -0.50 KCAL/MOL
REMARK 927      BINDING AFFINITY PREDICTED BY RF-SCORE:    0.00 PKD
ROOT
HETATM    1  C   UNL     1     -13.038  12.228  71.858  1.00  0.00    -0.469 C  
HETATM    2  C   UNL     1     -12.211  11.769  70.666  1.00  0.00    -0.443 C  
ENDROOT
BRANCH   2   3
HETATM    3  C   UNL     1     -12.149  12.847  69.583  1.00  0.00    -0.226 C  
BRANCH   3   4
HETATM    4  N   UNL     1     -11.169  13.873  69.962  1.00  0.00    -0.480 NA 
HETATM    5  H   UNL     1     -10.343  13.839  69.364  1.00  0.00     0.000 HD 
BRANCH   4   6
HETATM    6  C   UNL     1     -11.777  15.228  69.972  1.00  0.00    -0.315 C  
HETATM    7  C   UNL     1     -11.653  15.927  71.325  1.00  0.00    -0.509 C  
BRANCH   6   8
HETATM    8  C   UNL     1     -11.122  16.113  68.887  1.00  0.00    -0.347 C  
HETATM    9  O   UNL     1     -11.167  15.754  67.712  1.00  0.00    -0.336 OA 
HETATM   10  N   UNL     1     -10.596  17.309  69.361  1.00  0.00    -0.359 N  
HETATM   11  H   UNL     1     -10.723  17.505  70.354  1.00  0.00     0.000 HD 
BRANCH  10  12
HETATM   12  C   UNL     1      -9.898  18.284  68.603  1.00  0.00    -0.380 A  
HETATM   13  C   UNL     1     -10.564  19.400  68.070  1.00  0.00    -0.453 A  
HETATM   14  C   UNL     1      -9.892  20.370  67.324  1.00  0.00    -0.597 A  
HETATM   15  C   UNL     1      -8.533  20.238  67.082  1.00  0.00    -0.407 A  
HETATM   16  C   UNL     1      -7.853  19.130  67.582  1.00  0.00    -0.284 A  
HETATM   17  C   UNL     1      -8.520  18.146  68.346  1.00  0.00    -0.311 A  
HETATM   18  C   UNL     1      -7.693  16.982  68.830  1.00  0.00    -0.249 C  
ENDBRANCH  10  12
ENDBRANCH   6   8
ENDBRANCH   4   6
ENDBRANCH   3   4
ENDBRANCH   2   3
TORSDOF 5
ENDMDL
MODEL       37
REMARK 921   NORMALIZED FREE ENERGY PREDICTED BY IDOCK:   -4.87 KCAL/MOL
REMARK 922        TOTAL FREE ENERGY PREDICTED BY IDOCK:   -6.64 KCAL/MOL
REMARK 923 INTER-LIGAND FREE ENERGY PREDICTED BY IDOCK:   -6.27 KCAL/MOL
REMARK 924 INTRA-LIGAND FREE ENERGY PREDICTED BY IDOCK:   -0.36 KCAL/MOL
REMARK 927      BINDING AFFINITY PREDICTED BY RF-SCORE:    0.00 PKD
ROOT
HETATM    1  C   UNL     1      -5.916  20.211  68.263  1.00  0.00    -0.289 C  
HETATM    2  C   UNL     1      -6.477  20.995  67.086  1.00  0.00    -0.411 C  
ENDROOT
BRANCH   2   3
HETATM    3  C   UNL     1      -7.105  20.066  66.047  1.00  0.00    -0.283 C  
BRANCH   3   4
HETATM    4  N   UNL     1      -8.569  20.145  66.131  1.00  0.00    -0.556 NA 
HETATM    5  H   UNL     1      -9.003  20.017  65.217  1.00  0.00     0.000 HD 
BRANCH   4   6
HETATM    6  C   UNL     1      -9.108  19.186  67.128  1.00  0.00    -0.287 C  
HETATM    7  C   UNL     1      -9.931  19.864  68.222  1.00  0.00    -0.552 C  
BRANCH   6   8
HETATM    8  C   UNL     1      -9.985  18.124  66.425  1.00  0.00    -0.376 C  
HETATM    9  O   UNL     1     -10.670  18.456  65.459  1.00  0.00    -0.588 OA 
HETATM   10  N   UNL     1      -9.845  16.837  66.929  1.00  0.00    -0.257 N  
HETATM   11  H   UNL     1      -9.161  16.707  67.674  1.00  0.00     0.000 HD 
BRANCH  10  12
HETATM   12  C   UNL     1     -10.558  15.685  66.510  1.00  0.00    -0.307 A  
HETATM   13  C   UNL     1     -10.391  15.158  65.219  1.00  0.00    -0.425 A  
HETATM   14  C   UNL     1     -11.083  14.023  64.792  1.00  0.00    -0.391 A  
HETATM   15  C   UNL     1     -11.972  13.392  65.649  1.00  0.00    -0.439 A  
HETATM   16  C   UNL     1     -12.171  13.905  66.929  1.00  0.00    -0.415 A  
HETATM   17  C   UNL     1     -11.470  15.049  67.376  1.00  0.00    -0.326 A  
HETATM   18  C   UNL     1     -11.768  15.528  68.774  1.00  0.00    -0.372 C  
ENDBRANCH  10  12
ENDBRANCH   6   8
ENDBRANCH   4   6
ENDBRANCH   3   4
ENDBRANCH   2   3
TORSDOF 5
ENDMDL
MODEL       38
REMARK 921   NORMALIZED FREE ENERGY PREDICTED BY IDOCK:   -4.86 KCAL/MOL
REMARK 922        TOTAL FREE ENERGY PREDICTED BY IDOCK:   -6.62 KCAL/MOL
REMARK 923 INTER-LIGAND FREE ENERGY PREDICTED BY IDOCK:   -6.14 KCAL/MOL
REMARK 924 INTRA-LIGAND FREE ENERGY PREDICTED BY IDOCK:   -0.48 KCAL/MOL
REMARK 927      BINDING AFFINITY PREDICTED BY RF-SCORE:    0.00 PKD
ROOT
HETATM    1  C   UNL     1     -10.354   5.084  72.155  1.00  0.00    -0.276 C  
HETATM    2  C   UNL     1     -11.137   6.096  71.332  1.00  0.00    -0.346 C  
ENDROOT
BRANCH   2   3
HETATM    3  C   UNL     1     -10.945   5.862  69.834  1.00  0.00    -0.374 C  
BRANCH   3   4
HETATM    4  N   UNL     1     -11.503   6.993  69.080  1.00  0.00    -0.522 NA 
HETATM    5  H   UNL     1     -12.281   7.425  69.578  1.00  0.00     0.000 HD 
BRANCH   4   6
HETATM    6  C   UNL     1     -10.456   7.988  68.739  1.00  0.00    -0.173 C  
HETATM    7  C   UNL     1     -10.503   8.426  67.276  1.00  0.00    -0.373 C  
BRANCH   6   8
HETATM    8  C   UNL     1     -10.594   9.237  69.641  1.00  0.00    -0.229 C  
HETATM    9  O   UNL     1      -9.650   9.569  70.354  1.00  0.00    -0.244 OA 
HETATM   10  N   UNL     1     -11.791   9.925  69.490  1.00  0.00    -0.458 N  
HETATM   11  H   UNL     1     -12.438   9.574  68.784  1.00  0.00     0.000 HD 
BRANCH  10  12
HETATM   12  C   UNL     1     -12.204  11.069  70.220  1.00  0.00    -0.363 A  
HETATM   13  C   UNL     1     -11.843  12.362  69.807  1.00  0.00    -0.387 A  
HETATM   14  C   UNL     1     -12.244  13.499  70.512  1.00  0.00    -0.433 A  
HETATM   15  C   UNL     1     -13.010  13.366  71.660  1.00  0.00    -0.445 A  
HETATM   16  C   UNL     1     -13.367  12.094  72.102  1.00  0.00    -0.438 A  
HETATM   17  C   UNL     1     -12.974  10.936  71.393  1.00  0.00    -0.527 A  
HETATM   18  C   UNL     1     -13.402   9.608  71.964  1.00  0.00    -0.547 C  
ENDBRANCH  10  12
ENDBRANCH   6   8
ENDBRANCH   4   6
ENDBRANCH   3   4
ENDBRANCH   2   3
TORSDOF 5
ENDMDL
MODEL       39
REMARK 921   NORMALIZED FREE ENERGY PREDICTED BY IDOCK:   -4.86 KCAL/MOL
REMARK 922        TOTAL FREE ENERGY PREDICTED BY IDOCK:   -6.62 KCAL/MOL
REMARK 923 INTER-LIGAND FREE ENERGY PREDICTED BY IDOCK:   -5.93 KCAL/MOL
REMARK 924 INTRA-LIGAND FREE ENERGY PREDICTED BY IDOCK:   -0.69 KCAL/MOL
REMARK 927      BINDING AFFINITY PREDICTED BY RF-SCORE:    0.00 PKD
ROOT
HETATM    1  C   UNL     1     -12.835   8.581  72.065  1.00  0.00    -0.414 C  
HETATM    2  C   UNL     1     -12.850   7.120  71.638  1.00  0.00    -0.420 C  
ENDROOT
BRANCH   2   3
HETATM    3  C   UNL     1     -11.564   6.743  70.903  1.00  0.00    -0.353 C  
BRANCH   3   4
HETATM    4  N   UNL     1     -11.729   6.978  69.463  1.00  0.00    -0.531 NA 
HETATM    5  H   UNL     1     -12.560   7.537  69.269  1.00  0.00     0.000 HD 
BRANCH   4   6
HETATM    6  C   UNL     1     -10.513   7.589  68.869  1.00  0.00    -0.203 C  
HETATM    7  C   UNL     1     -10.465   7.463  67.347  1.00  0.00    -0.366 C  
BRANCH   6   8
HETATM    8  C   UNL     1     -10.427   9.085  69.253  1.00  0.00    -0.228 C  
HETATM    9  O   UNL     1      -9.423   9.500  69.826  1.00  0.00    -0.181 OA 
HETATM   10  N   UNL     1     -11.505   9.851  68.825  1.00  0.00    -0.491 N  
HETATM   11  H   UNL     1     -12.219   9.373  68.274  1.00  0.00     0.000 HD 
BRANCH  10  12
HETATM   12  C   UNL     1     -11.712  11.231  69.077  1.00  0.00    -0.342 A  
HETATM   13  C   UNL     1     -12.141  11.681  70.336  1.00  0.00    -0.462 A  
HETATM   14  C   UNL     1     -12.347  13.037  70.602  1.00  0.00    -0.391 A  
HETATM   15  C   UNL     1     -12.137  13.976  69.604  1.00  0.00    -0.408 A  
HETATM   16  C   UNL     1     -11.730  13.555  68.341  1.00  0.00    -0.393 A  
HETATM   17  C   UNL     1     -11.511  12.186  68.062  1.00  0.00    -0.380 A  
HETATM   18  C   UNL     1     -11.083  11.836  66.659  1.00  0.00    -0.364 C  
ENDBRANCH  10  12
ENDBRANCH   6   8
ENDBRANCH   4   6
ENDBRANCH   3   4
ENDBRANCH   2   3
TORSDOF 5
ENDMDL
MODEL       40
REMARK 921   NORMALIZED FREE ENERGY PREDICTED BY IDOCK:   -4.83 KCAL/MOL
REMARK 922        TOTAL FREE ENERGY PREDICTED BY IDOCK:   -6.58 KCAL/MOL
REMARK 923 INTER-LIGAND FREE ENERGY PREDICTED BY IDOCK:   -6.19 KCAL/MOL
REMARK 924 INTRA-LIGAND FREE ENERGY PREDICTED BY IDOCK:   -0.39 KCAL/MOL
REMARK 927      BINDING AFFINITY PREDICTED BY RF-SCORE:    0.00 PKD
ROOT
HETATM    1  C   UNL     1      -9.707  19.855  66.505  1.00  0.00    -0.547 C  
HETATM    2  C   UNL     1     -10.300  18.460  66.362  1.00  0.00    -0.430 C  
ENDROOT
BRANCH   2   3
HETATM    3  C   UNL     1      -9.324  17.388  66.847  1.00  0.00    -0.263 C  
BRANCH   3   4
HETATM    4  N   UNL     1     -10.059  16.339  67.565  1.00  0.00    -0.253 NA 
HETATM    5  H   UNL     1     -10.643  16.731  68.304  1.00  0.00     0.000 HD 
BRANCH   4   6
HETATM    6  C   UNL     1     -10.851  15.496  66.635  1.00  0.00    -0.285 C  
HETATM    7  C   UNL     1      -9.991  14.795  65.585  1.00  0.00    -0.390 C  
BRANCH   6   8
HETATM    8  C   UNL     1     -11.645  14.431  67.426  1.00  0.00    -0.375 C  
HETATM    9  O   UNL     1     -12.522  13.789  66.854  1.00  0.00    -0.338 OA 
HETATM   10  N   UNL     1     -11.215  14.249  68.736  1.00  0.00    -0.249 N  
HETATM   11  H   UNL     1     -10.407  14.795  69.034  1.00  0.00     0.000 HD 
BRANCH  10  12
HETATM   12  C   UNL     1     -11.788  13.380  69.698  1.00  0.00    -0.331 A  
HETATM   13  C   UNL     1     -11.609  11.989  69.616  1.00  0.00    -0.371 A  
HETATM   14  C   UNL     1     -12.164  11.119  70.558  1.00  0.00    -0.475 A  
HETATM   15  C   UNL     1     -12.924  11.623  71.602  1.00  0.00    -0.483 A  
HETATM   16  C   UNL     1     -13.133  12.998  71.695  1.00  0.00    -0.440 A  
HETATM   17  C   UNL     1     -12.571  13.889  70.753  1.00  0.00    -0.424 A  
HETATM   18  C   UNL     1     -12.868  15.355  70.940  1.00  0.00    -0.536 C  
ENDBRANCH  10  12
ENDBRANCH   6   8
ENDBRANCH   4   6
ENDBRANCH   3   4
ENDBRANCH   2   3
TORSDOF 5
ENDMDL
MODEL       41
REMARK 921   NORMALIZED FREE ENERGY PREDICTED BY IDOCK:   -4.82 KCAL/MOL
REMARK 922        TOTAL FREE ENERGY PREDICTED BY IDOCK:   -6.57 KCAL/MOL
REMARK 923 INTER-LIGAND FREE ENERGY PREDICTED BY IDOCK:   -6.10 KCAL/MOL
REMARK 924 INTRA-LIGAND FREE ENERGY PREDICTED BY IDOCK:   -0.46 KCAL/MOL
REMARK 927      BINDING AFFINITY PREDICTED BY RF-SCORE:    0.00 PKD
ROOT
HETATM    1  C   UNL     1      -7.545  19.829  65.794  1.00  0.00    -0.301 C  
HETATM    2  C   UNL     1      -8.590  19.934  66.895  1.00  0.00    -0.391 C  
ENDROOT
BRANCH   2   3
HETATM    3  C   UNL     1     -10.007  19.894  66.323  1.00  0.00    -0.486 C  
BRANCH   3   4
HETATM    4  N   UNL     1     -10.835  18.976  67.116  1.00  0.00    -0.448 NA 
HETATM    5  H   UNL     1     -11.664  18.680  66.599  1.00  0.00     0.000 HD 
BRANCH   4   6
HETATM    6  C   UNL     1     -10.049  17.812  67.596  1.00  0.00    -0.342 C  
HETATM    7  C   UNL     1     -10.509  17.305  68.962  1.00  0.00    -0.309 C  
BRANCH   6   8
HETATM    8  C   UNL     1     -10.137  16.653  66.576  1.00  0.00    -0.305 C  
HETATM    9  O   UNL     1      -9.345  16.621  65.636  1.00  0.00    -0.502 OA 
HETATM   10  N   UNL     1     -11.090  15.689  66.881  1.00  0.00    -0.242 N  
HETATM   11  H   UNL     1     -11.605  15.811  67.752  1.00  0.00     0.000 HD 
BRANCH  10  12
HETATM   12  C   UNL     1     -11.417  14.550  66.101  1.00  0.00    -0.357 A  
HETATM   13  C   UNL     1     -11.837  14.682  64.767  1.00  0.00    -0.444 A  
HETATM   14  C   UNL     1     -12.160  13.571  63.984  1.00  0.00    -0.494 A  
HETATM   15  C   UNL     1     -12.082  12.297  64.526  1.00  0.00    -0.462 A  
HETATM   16  C   UNL     1     -11.687  12.140  65.853  1.00  0.00    -0.393 A  
HETATM   17  C   UNL     1     -11.350  13.256  66.653  1.00  0.00    -0.353 A  
HETATM   18  C   UNL     1     -10.947  12.976  68.078  1.00  0.00    -0.274 C  
ENDBRANCH  10  12
ENDBRANCH   6   8
ENDBRANCH   4   6
ENDBRANCH   3   4
ENDBRANCH   2   3
TORSDOF 5
ENDMDL
MODEL       42
REMARK 921   NORMALIZED FREE ENERGY PREDICTED BY IDOCK:   -4.81 KCAL/MOL
REMARK 922        TOTAL FREE ENERGY PREDICTED BY IDOCK:   -6.56 KCAL/MOL
REMARK 923 INTER-LIGAND FREE ENERGY PREDICTED BY IDOCK:   -6.16 KCAL/MOL
REMARK 924 INTRA-LIGAND FREE ENERGY PREDICTED BY IDOCK:   -0.40 KCAL/MOL
REMARK 927      BINDING AFFINITY PREDICTED BY RF-SCORE:    0.00 PKD
ROOT
HETATM    1  C   UNL     1     -13.059  10.326  71.437  1.00  0.00    -0.512 C  
HETATM    2  C   UNL     1     -12.110   9.208  71.844  1.00  0.00    -0.448 C  
ENDROOT
BRANCH   2   3
HETATM    3  C   UNL     1     -10.727   9.398  71.223  1.00  0.00    -0.350 C  
BRANCH   3   4
HETATM    4  N   UNL     1     -10.701  10.643  70.443  1.00  0.00    -0.416 NA 
HETATM    5  H   UNL     1     -10.222  11.389  70.947  1.00  0.00     0.000 HD 
BRANCH   4   6
HETATM    6  C   UNL     1     -10.111  10.429  69.098  1.00  0.00    -0.222 C  
HETATM    7  C   UNL     1      -9.864   8.954  68.782  1.00  0.00    -0.182 C  
BRANCH   6   8
HETATM    8  C   UNL     1     -11.033  11.028  68.011  1.00  0.00    -0.258 C  
HETATM    9  O   UNL     1     -12.246  11.061  68.205  1.00  0.00    -0.578 OA 
HETATM   10  N   UNL     1     -10.362  11.557  66.915  1.00  0.00    -0.216 N  
HETATM   11  H   UNL     1      -9.343  11.538  66.947  1.00  0.00     0.000 HD 
BRANCH  10  12
HETATM   12  C   UNL     1     -10.953  12.122  65.756  1.00  0.00    -0.297 A  
HETATM   13  C   UNL     1     -11.801  13.238  65.845  1.00  0.00    -0.436 A  
HETATM   14  C   UNL     1     -12.388  13.809  64.713  1.00  0.00    -0.420 A  
HETATM   15  C   UNL     1     -12.147  13.264  63.461  1.00  0.00    -0.550 A  
HETATM   16  C   UNL     1     -11.325  12.145  63.347  1.00  0.00    -0.495 A  
HETATM   17  C   UNL     1     -10.719  11.564  64.484  1.00  0.00    -0.390 A  
HETATM   18  C   UNL     1      -9.857  10.349  64.251  1.00  0.00    -0.388 C  
ENDBRANCH  10  12
ENDBRANCH   6   8
ENDBRANCH   4   6
ENDBRANCH   3   4
ENDBRANCH   2   3
TORSDOF 5
ENDMDL
MODEL       43
REMARK 921   NORMALIZED FREE ENERGY PREDICTED BY IDOCK:   -4.79 KCAL/MOL
REMARK 922        TOTAL FREE ENERGY PREDICTED BY IDOCK:   -6.53 KCAL/MOL
REMARK 923 INTER-LIGAND FREE ENERGY PREDICTED BY IDOCK:   -6.16 KCAL/MOL
REMARK 924 INTRA-LIGAND FREE ENERGY PREDICTED BY IDOCK:   -0.37 KCAL/MOL
REMARK 927      BINDING AFFINITY PREDICTED BY RF-SCORE:    0.00 PKD
ROOT
HETATM    1  C   UNL     1     -10.358  11.873  63.547  1.00  0.00    -0.495 C  
HETATM    2  C   UNL     1     -10.472  11.727  65.057  1.00  0.00    -0.332 C  
ENDROOT
BRANCH   2   3
HETATM    3  C   UNL     1     -10.272  13.068  65.762  1.00  0.00    -0.290 C  
BRANCH   3   4
HETATM    4  N   UNL     1      -9.707  12.845  67.099  1.00  0.00    -0.216 NA 
HETATM    5  H   UNL     1      -8.814  13.326  67.213  1.00  0.00     0.000 HD 
BRANCH   4   6
HETATM    6  C   UNL     1     -10.668  13.224  68.166  1.00  0.00    -0.249 C  
HETATM    7  C   UNL     1     -11.675  14.279  67.713  1.00  0.00    -0.408 C  
BRANCH   6   8
HETATM    8  C   UNL     1     -11.435  11.975  68.659  1.00  0.00    -0.297 C  
HETATM    9  O   UNL     1     -12.248  11.437  67.910  1.00  0.00    -0.592 OA 
HETATM   10  N   UNL     1     -11.057  11.528  69.919  1.00  0.00    -0.478 N  
HETATM   11  H   UNL     1     -10.295  12.030  70.375  1.00  0.00     0.000 HD 
BRANCH  10  12
HETATM   12  C   UNL     1     -11.623  10.442  70.634  1.00  0.00    -0.349 A  
HETATM   13  C   UNL     1     -11.181   9.126  70.422  1.00  0.00    -0.279 A  
HETATM   14  C   UNL     1     -11.726   8.045  71.120  1.00  0.00    -0.307 A  
HETATM   15  C   UNL     1     -12.739   8.258  72.042  1.00  0.00    -0.376 A  
HETATM   16  C   UNL     1     -13.210   9.552  72.257  1.00  0.00    -0.507 A  
HETATM   17  C   UNL     1     -12.661  10.654  71.562  1.00  0.00    -0.517 A  
HETATM   18  C   UNL     1     -13.250  12.010  71.860  1.00  0.00    -0.469 C  
ENDBRANCH  10  12
ENDBRANCH   6   8
ENDBRANCH   4   6
ENDBRANCH   3   4
ENDBRANCH   2   3
TORSDOF 5
ENDMDL
MODEL       44
REMARK 921   NORMALIZED FREE ENERGY PREDICTED BY IDOCK:   -4.78 KCAL/MOL
REMARK 922        TOTAL FREE ENERGY PREDICTED BY IDOCK:   -6.52 KCAL/MOL
REMARK 923 INTER-LIGAND FREE ENERGY PREDICTED BY IDOCK:   -6.17 KCAL/MOL
REMARK 924 INTRA-LIGAND FREE ENERGY PREDICTED BY IDOCK:   -0.35 KCAL/MOL
REMARK 927      BINDING AFFINITY PREDICTED BY RF-SCORE:    0.00 PKD
ROOT
HETATM    1  C   UNL     1     -14.067  14.952  72.079  1.00  0.00    -0.613 C  
HETATM    2  C   UNL     1     -12.917  15.588  71.312  1.00  0.00    -0.565 C  
ENDROOT
BRANCH   2   3
HETATM    3  C   UNL     1     -12.536  14.756  70.088  1.00  0.00    -0.271 C  
BRANCH   3   4
HETATM    4  N   UNL     1     -12.224  15.645  68.962  1.00  0.00    -0.594 NA 
HETATM    5  H   UNL     1     -11.864  16.543  69.285  1.00  0.00     0.000 HD 
BRANCH   4   6
HETATM    6  C   UNL     1     -11.293  15.000  68.002  1.00  0.00    -0.327 C  
HETATM    7  C   UNL     1     -12.015  14.275  66.867  1.00  0.00    -0.467 C  
BRANCH   6   8
HETATM    8  C   UNL     1     -10.337  16.054  67.397  1.00  0.00    -0.294 C  
HETATM    9  O   UNL     1     -10.059  15.995  66.201  1.00  0.00    -0.285 OA 
HETATM   10  N   UNL     1      -9.935  17.043  68.287  1.00  0.00    -0.271 N  
HETATM   11  H   UNL     1     -10.331  17.005  69.226  1.00  0.00     0.000 HD 
BRANCH  10  12
HETATM   12  C   UNL     1      -9.028  18.100  68.019  1.00  0.00    -0.283 A  
HETATM   13  C   UNL     1      -7.668  17.990  68.352  1.00  0.00    -0.291 A  
HETATM   14  C   UNL     1      -6.761  19.020  68.093  1.00  0.00    -0.256 A  
HETATM   15  C   UNL     1      -7.200  20.195  67.502  1.00  0.00    -0.320 A  
HETATM   16  C   UNL     1      -8.548  20.337  67.179  1.00  0.00    -0.417 A  
HETATM   17  C   UNL     1      -9.474  19.299  67.429  1.00  0.00    -0.376 A  
HETATM   18  C   UNL     1     -10.910  19.560  67.053  1.00  0.00    -0.542 C  
ENDBRANCH  10  12
ENDBRANCH   6   8
ENDBRANCH   4   6
ENDBRANCH   3   4
ENDBRANCH   2   3
TORSDOF 5
ENDMDL
MODEL       45
REMARK 921   NORMALIZED FREE ENERGY PREDICTED BY IDOCK:   -4.77 KCAL/MOL
REMARK 922        TOTAL FREE ENERGY PREDICTED BY IDOCK:   -6.50 KCAL/MOL
REMARK 923 INTER-LIGAND FREE ENERGY PREDICTED BY IDOCK:   -5.88 KCAL/MOL
REMARK 924 INTRA-LIGAND FREE ENERGY PREDICTED BY IDOCK:   -0.62 KCAL/MOL
REMARK 927      BINDING AFFINITY PREDICTED BY RF-SCORE:    0.00 PKD
ROOT
HETATM    1  C   UNL     1     -12.229  13.533  64.160  1.00  0.00    -0.449 C  
HETATM    2  C   UNL     1     -11.992  12.105  63.690  1.00  0.00    -0.628 C  
ENDROOT
BRANCH   2   3
HETATM    3  C   UNL     1     -10.519  11.865  63.359  1.00  0.00    -0.441 C  
BRANCH   3   4
HETATM    4  N   UNL     1      -9.736  11.809  64.600  1.00  0.00    -0.389 NA 
HETATM    5  H   UNL     1      -9.772  12.694  65.105  1.00  0.00     0.000 HD 
BRANCH   4   6
HETATM    6  C   UNL     1     -10.159  10.675  65.459  1.00  0.00    -0.280 C  
HETATM    7  C   UNL     1      -9.229   9.467  65.354  1.00  0.00    -0.306 C  
BRANCH   6   8
HETATM    8  C   UNL     1     -10.233  11.125  66.937  1.00  0.00    -0.222 C  
HETATM    9  O   UNL     1      -9.232  11.029  67.643  1.00  0.00    -0.147 OA 
HETATM   10  N   UNL     1     -11.450  11.684  67.307  1.00  0.00    -0.298 N  
HETATM   11  H   UNL     1     -12.154  11.781  66.575  1.00  0.00     0.000 HD 
BRANCH  10  12
HETATM   12  C   UNL     1     -11.812  12.135  68.602  1.00  0.00    -0.306 A  
HETATM   13  C   UNL     1     -12.026  11.228  69.652  1.00  0.00    -0.423 A  
HETATM   14  C   UNL     1     -12.379  11.655  70.934  1.00  0.00    -0.436 A  
HETATM   15  C   UNL     1     -12.540  13.008  71.192  1.00  0.00    -0.388 A  
HETATM   16  C   UNL     1     -12.353  13.928  70.163  1.00  0.00    -0.400 A  
HETATM   17  C   UNL     1     -11.987  13.509  68.864  1.00  0.00    -0.378 A  
HETATM   18  C   UNL     1     -11.821  14.585  67.821  1.00  0.00    -0.390 C  
ENDBRANCH  10  12
ENDBRANCH   6   8
ENDBRANCH   4   6
ENDBRANCH   3   4
ENDBRANCH   2   3
TORSDOF 5
ENDMDL
MODEL       46
REMARK 921   NORMALIZED FREE ENERGY PREDICTED BY IDOCK:   -4.72 KCAL/MOL
REMARK 922        TOTAL FREE ENERGY PREDICTED BY IDOCK:   -6.44 KCAL/MOL
REMARK 923 INTER-LIGAND FREE ENERGY PREDICTED BY IDOCK:   -6.10 KCAL/MOL
REMARK 924 INTRA-LIGAND FREE ENERGY PREDICTED BY IDOCK:   -0.35 KCAL/MOL
REMARK 927      BINDING AFFINITY PREDICTED BY RF-SCORE:    0.00 PKD
ROOT
HETATM    1  C   UNL     1      -8.647  17.058  68.584  1.00  0.00    -0.265 C  
HETATM    2  C   UNL     1      -9.961  16.334  68.329  1.00  0.00    -0.236 C  
ENDROOT
BRANCH   2   3
HETATM    3  C   UNL     1      -9.733  14.849  68.049  1.00  0.00    -0.212 C  
BRANCH   3   4
HETATM    4  N   UNL     1     -10.555  14.041  68.959  1.00  0.00    -0.344 NA 
HETATM    5  H   UNL     1     -10.898  14.596  69.744  1.00  0.00     0.000 HD 
BRANCH   4   6
HETATM    6  C   UNL     1     -11.668  13.374  68.238  1.00  0.00    -0.356 C  
HETATM    7  C   UNL     1     -11.452  13.322  66.726  1.00  0.00    -0.387 C  
BRANCH   6   8
HETATM    8  C   UNL     1     -11.858  11.934  68.768  1.00  0.00    -0.313 C  
HETATM    9  O   UNL     1     -12.110  11.031  67.974  1.00  0.00    -0.615 OA 
HETATM   10  N   UNL     1     -11.641  11.790  70.133  1.00  0.00    -0.508 N  
HETATM   11  H   UNL     1     -11.343  12.623  70.641  1.00  0.00     0.000 HD 
BRANCH  10  12
HETATM   12  C   UNL     1     -11.791  10.601  70.891  1.00  0.00    -0.331 A  
HETATM   13  C   UNL     1     -12.953  10.363  71.643  1.00  0.00    -0.581 A  
HETATM   14  C   UNL     1     -13.119   9.196  72.392  1.00  0.00    -0.493 A  
HETATM   15  C   UNL     1     -12.114   8.241  72.415  1.00  0.00    -0.430 A  
HETATM   16  C   UNL     1     -10.943   8.461  71.693  1.00  0.00    -0.345 A  
HETATM   17  C   UNL     1     -10.767   9.635  70.925  1.00  0.00    -0.402 A  
HETATM   18  C   UNL     1      -9.458   9.779  70.192  1.00  0.00    -0.277 C  
ENDBRANCH  10  12
ENDBRANCH   6   8
ENDBRANCH   4   6
ENDBRANCH   3   4
ENDBRANCH   2   3
TORSDOF 5
ENDMDL
MODEL       47
REMARK 921   NORMALIZED FREE ENERGY PREDICTED BY IDOCK:   -4.71 KCAL/MOL
REMARK 922        TOTAL FREE ENERGY PREDICTED BY IDOCK:   -6.43 KCAL/MOL
REMARK 923 INTER-LIGAND FREE ENERGY PREDICTED BY IDOCK:   -6.44 KCAL/MOL
REMARK 924 INTRA-LIGAND FREE ENERGY PREDICTED BY IDOCK:    0.01 KCAL/MOL
REMARK 927      BINDING AFFINITY PREDICTED BY RF-SCORE:    0.00 PKD
ROOT
HETATM    1  C   UNL     1     -12.457   6.648  71.609  1.00  0.00    -0.353 C  
HETATM    2  C   UNL     1     -13.814   7.336  71.608  1.00  0.00    -0.461 C  
ENDROOT
BRANCH   2   3
HETATM    3  C   UNL     1     -13.698   8.798  72.037  1.00  0.00    -0.443 C  
BRANCH   3   4
HETATM    4  N   UNL     1     -13.444   9.641  70.861  1.00  0.00    -0.582 NA 
HETATM    5  H   UNL     1     -14.242  10.241  70.653  1.00  0.00     0.000 HD 
BRANCH   4   6
HETATM    6  C   UNL     1     -12.196  10.430  71.017  1.00  0.00    -0.393 C  
HETATM    7  C   UNL     1     -10.949   9.556  71.135  1.00  0.00    -0.438 C  
BRANCH   6   8
HETATM    8  C   UNL     1     -12.023  11.394  69.821  1.00  0.00    -0.353 C  
HETATM    9  O   UNL     1     -12.310  11.005  68.691  1.00  0.00    -0.539 OA 
HETATM   10  N   UNL     1     -11.617  12.676  70.169  1.00  0.00    -0.543 N  
HETATM   11  H   UNL     1     -11.512  12.870  71.165  1.00  0.00     0.000 HD 
BRANCH  10  12
HETATM   12  C   UNL     1     -11.335  13.743  69.279  1.00  0.00    -0.273 A  
HETATM   13  C   UNL     1     -10.556  13.540  68.128  1.00  0.00    -0.253 A  
HETATM   14  C   UNL     1     -10.271  14.579  67.239  1.00  0.00    -0.255 A  
HETATM   15  C   UNL     1     -10.752  15.855  67.490  1.00  0.00    -0.318 A  
HETATM   16  C   UNL     1     -11.511  16.088  68.635  1.00  0.00    -0.377 A  
HETATM   17  C   UNL     1     -11.813  15.043  69.538  1.00  0.00    -0.360 A  
HETATM   18  C   UNL     1     -12.631  15.405  70.751  1.00  0.00    -0.497 C  
ENDBRANCH  10  12
ENDBRANCH   6   8
ENDBRANCH   4   6
ENDBRANCH   3   4
ENDBRANCH   2   3
TORSDOF 5
ENDMDL
MODEL       48
REMARK 921   NORMALIZED FREE ENERGY PREDICTED BY IDOCK:   -4.71 KCAL/MOL
REMARK 922        TOTAL FREE ENERGY PREDICTED BY IDOCK:   -6.42 KCAL/MOL
REMARK 923 INTER-LIGAND FREE ENERGY PREDICTED BY IDOCK:   -5.81 KCAL/MOL
REMARK 924 INTRA-LIGAND FREE ENERGY PREDICTED BY IDOCK:   -0.61 KCAL/MOL
REMARK 927      BINDING AFFINITY PREDICTED BY RF-SCORE:    0.00 PKD
ROOT
HETATM    1  C   UNL     1     -11.148   6.319  68.267  1.00  0.00    -0.364 C  
HETATM    2  C   UNL     1     -10.369   5.806  69.469  1.00  0.00    -0.333 C  
ENDROOT
BRANCH   2   3
HETATM    3  C   UNL     1     -11.132   6.046  70.771  1.00  0.00    -0.286 C  
BRANCH   3   4
HETATM    4  N   UNL     1     -12.211   7.016  70.541  1.00  0.00    -0.607 NA 
HETATM    5  H   UNL     1     -13.129   6.591  70.672  1.00  0.00     0.000 HD 
BRANCH   4   6
HETATM    6  C   UNL     1     -12.046   8.224  71.389  1.00  0.00    -0.300 C  
HETATM    7  C   UNL     1     -11.241   7.955  72.660  1.00  0.00    -0.459 C  
BRANCH   6   8
HETATM    8  C   UNL     1     -11.353   9.348  70.585  1.00  0.00    -0.292 C  
HETATM    9  O   UNL     1     -10.129   9.446  70.624  1.00  0.00    -0.250 OA 
HETATM   10  N   UNL     1     -12.215  10.115  69.810  1.00  0.00    -0.499 N  
HETATM   11  H   UNL     1     -13.198   9.845  69.812  1.00  0.00     0.000 HD 
BRANCH  10  12
HETATM   12  C   UNL     1     -11.863  11.236  69.015  1.00  0.00    -0.352 A  
HETATM   13  C   UNL     1     -11.387  11.074  67.703  1.00  0.00    -0.355 A  
HETATM   14  C   UNL     1     -11.039  12.166  66.906  1.00  0.00    -0.348 A  
HETATM   15  C   UNL     1     -11.149  13.453  67.411  1.00  0.00    -0.297 A  
HETATM   16  C   UNL     1     -11.600  13.641  68.716  1.00  0.00    -0.359 A  
HETATM   17  C   UNL     1     -11.963  12.543  69.529  1.00  0.00    -0.329 A  
HETATM   18  C   UNL     1     -12.427  12.856  70.929  1.00  0.00    -0.383 C  
ENDBRANCH  10  12
ENDBRANCH   6   8
ENDBRANCH   4   6
ENDBRANCH   3   4
ENDBRANCH   2   3
TORSDOF 5
ENDMDL
MODEL       49
REMARK 921   NORMALIZED FREE ENERGY PREDICTED BY IDOCK:   -4.71 KCAL/MOL
REMARK 922        TOTAL FREE ENERGY PREDICTED BY IDOCK:   -6.42 KCAL/MOL
REMARK 923 INTER-LIGAND FREE ENERGY PREDICTED BY IDOCK:   -6.27 KCAL/MOL
REMARK 924 INTRA-LIGAND FREE ENERGY PREDICTED BY IDOCK:   -0.15 KCAL/MOL
REMARK 927      BINDING AFFINITY PREDICTED BY RF-SCORE:    0.00 PKD
ROOT
HETATM    1  C   UNL     1      -9.796  11.220  64.536  1.00  0.00    -0.317 C  
HETATM    2  C   UNL     1     -10.508  12.046  63.475  1.00  0.00    -0.505 C  
ENDROOT
BRANCH   2   3
HETATM    3  C   UNL     1     -11.572  12.951  64.095  1.00  0.00    -0.398 C  
BRANCH   3   4
HETATM    4  N   UNL     1     -11.038  14.310  64.250  1.00  0.00    -0.605 NA 
HETATM    5  H   UNL     1     -11.740  15.015  64.022  1.00  0.00     0.000 HD 
BRANCH   4   6
HETATM    6  C   UNL     1     -10.475  14.521  65.607  1.00  0.00    -0.336 C  
HETATM    7  C   UNL     1     -10.177  15.990  65.907  1.00  0.00    -0.386 C  
BRANCH   6   8
HETATM    8  C   UNL     1     -11.450  13.978  66.678  1.00  0.00    -0.364 C  
HETATM    9  O   UNL     1     -12.658  14.145  66.529  1.00  0.00    -0.394 OA 
HETATM   10  N   UNL     1     -10.839  13.262  67.700  1.00  0.00    -0.254 N  
HETATM   11  H   UNL     1      -9.830  13.130  67.630  1.00  0.00     0.000 HD 
BRANCH  10  12
HETATM   12  C   UNL     1     -11.479  12.696  68.833  1.00  0.00    -0.306 A  
HETATM   13  C   UNL     1     -12.002  13.508  69.851  1.00  0.00    -0.416 A  
HETATM   14  C   UNL     1     -12.637  12.967  70.971  1.00  0.00    -0.386 A  
HETATM   15  C   UNL     1     -12.754  11.592  71.103  1.00  0.00    -0.458 A  
HETATM   16  C   UNL     1     -12.226  10.762  70.115  1.00  0.00    -0.425 A  
HETATM   17  C   UNL     1     -11.588  11.298  68.974  1.00  0.00    -0.386 A  
HETATM   18  C   UNL     1     -11.042  10.313  67.972  1.00  0.00    -0.336 C  
ENDBRANCH  10  12
ENDBRANCH   6   8
ENDBRANCH   4   6
ENDBRANCH   3   4
ENDBRANCH   2   3
TORSDOF 5
ENDMDL
MODEL       50
REMARK 921   NORMALIZED FREE ENERGY PREDICTED BY IDOCK:   -4.69 KCAL/MOL
REMARK 922        TOTAL FREE ENERGY PREDICTED BY IDOCK:   -6.41 KCAL/MOL
REMARK 923 INTER-LIGAND FREE ENERGY PREDICTED BY IDOCK:   -5.88 KCAL/MOL
REMARK 924 INTRA-LIGAND FREE ENERGY PREDICTED BY IDOCK:   -0.53 KCAL/MOL
REMARK 927      BINDING AFFINITY PREDICTED BY RF-SCORE:    0.00 PKD
ROOT
HETATM    1  C   UNL     1      -8.925  15.349  66.284  1.00  0.00    -0.341 C  
HETATM    2  C   UNL     1     -10.385  15.775  66.212  1.00  0.00    -0.320 C  
ENDROOT
BRANCH   2   3
HETATM    3  C   UNL     1     -11.010  15.392  64.871  1.00  0.00    -0.437 C  
BRANCH   3   4
HETATM    4  N   UNL     1     -10.342  14.199  64.335  1.00  0.00    -0.636 NA 
HETATM    5  H   UNL     1      -9.577  13.897  64.938  1.00  0.00     0.000 HD 
BRANCH   4   6
HETATM    6  C   UNL     1     -11.309  13.099  64.091  1.00  0.00    -0.398 C  
HETATM    7  C   UNL     1     -10.656  11.856  63.488  1.00  0.00    -0.507 C  
BRANCH   6   8
HETATM    8  C   UNL     1     -12.013  12.707  65.410  1.00  0.00    -0.446 C  
HETATM    9  O   UNL     1     -13.238  12.606  65.428  1.00  0.00    -0.350 OA 
HETATM   10  N   UNL     1     -11.150  12.424  66.461  1.00  0.00    -0.286 N  
HETATM   11  H   UNL     1     -10.151  12.462  66.258  1.00  0.00     0.000 HD 
BRANCH  10  12
HETATM   12  C   UNL     1     -11.518  12.088  67.789  1.00  0.00    -0.325 A  
HETATM   13  C   UNL     1     -12.004  13.064  68.675  1.00  0.00    -0.298 A  
HETATM   14  C   UNL     1     -12.375  12.749  69.985  1.00  0.00    -0.182 A  
HETATM   15  C   UNL     1     -12.255  11.446  70.443  1.00  0.00    -0.450 A  
HETATM   16  C   UNL     1     -11.758  10.463  69.590  1.00  0.00    -0.283 A  
HETATM   17  C   UNL     1     -11.387  10.767  68.260  1.00  0.00    -0.376 A  
HETATM   18  C   UNL     1     -10.850   9.633  67.426  1.00  0.00    -0.242 C  
ENDBRANCH  10  12
ENDBRANCH   6   8
ENDBRANCH   4   6
ENDBRANCH   3   4
ENDBRANCH   2   3
TORSDOF 5
ENDMDL
MODEL       51
REMARK 921   NORMALIZED FREE ENERGY PREDICTED BY IDOCK:   -4.68 KCAL/MOL
REMARK 922        TOTAL FREE ENERGY PREDICTED BY IDOCK:   -6.39 KCAL/MOL
REMARK 923 INTER-LIGAND FREE ENERGY PREDICTED BY IDOCK:   -5.93 KCAL/MOL
REMARK 924 INTRA-LIGAND FREE ENERGY PREDICTED BY IDOCK:   -0.46 KCAL/MOL
REMARK 927      BINDING AFFINITY PREDICTED BY RF-SCORE:    0.00 PKD
ROOT
HETATM    1  C   UNL     1     -13.534  13.760  72.398  1.00  0.00    -0.672 C  
HETATM    2  C   UNL     1     -12.900  12.735  71.469  1.00  0.00    -0.369 C  
ENDROOT
BRANCH   2   3
HETATM    3  C   UNL     1     -13.254  11.309  71.889  1.00  0.00    -0.386 C  
BRANCH   3   4
HETATM    4  N   UNL     1     -12.920  10.376  70.806  1.00  0.00    -0.435 NA 
HETATM    5  H   UNL     1     -13.040  10.810  69.890  1.00  0.00     0.000 HD 
BRANCH   4   6
HETATM    6  C   UNL     1     -11.554   9.819  70.969  1.00  0.00    -0.376 C  
HETATM    7  C   UNL     1     -11.552   8.318  71.253  1.00  0.00    -0.318 C  
BRANCH   6   8
HETATM    8  C   UNL     1     -10.713  10.092  69.700  1.00  0.00    -0.264 C  
HETATM    9  O   UNL     1      -9.487  10.050  69.773  1.00  0.00    -0.220 OA 
HETATM   10  N   UNL     1     -11.461  10.289  68.546  1.00  0.00    -0.509 N  
HETATM   11  H   UNL     1     -12.473  10.198  68.633  1.00  0.00     0.000 HD 
BRANCH  10  12
HETATM   12  C   UNL     1     -10.957  10.605  67.258  1.00  0.00    -0.284 A  
HETATM   13  C   UNL     1     -10.263   9.650  66.498  1.00  0.00    -0.294 A  
HETATM   14  C   UNL     1      -9.763   9.943  65.227  1.00  0.00    -0.383 A  
HETATM   15  C   UNL     1      -9.939  11.209  64.690  1.00  0.00    -0.345 A  
HETATM   16  C   UNL     1     -10.608  12.181  65.432  1.00  0.00    -0.309 A  
HETATM   17  C   UNL     1     -11.125  11.894  66.716  1.00  0.00    -0.359 A  
HETATM   18  C   UNL     1     -11.821  13.019  67.437  1.00  0.00    -0.411 C  
ENDBRANCH  10  12
ENDBRANCH   6   8
ENDBRANCH   4   6
ENDBRANCH   3   4
ENDBRANCH   2   3
TORSDOF 5
ENDMDL
MODEL       52
REMARK 921   NORMALIZED FREE ENERGY PREDICTED BY IDOCK:   -4.68 KCAL/MOL
REMARK 922        TOTAL FREE ENERGY PREDICTED BY IDOCK:   -6.39 KCAL/MOL
REMARK 923 INTER-LIGAND FREE ENERGY PREDICTED BY IDOCK:   -5.87 KCAL/MOL
REMARK 924 INTRA-LIGAND FREE ENERGY PREDICTED BY IDOCK:   -0.51 KCAL/MOL
REMARK 927      BINDING AFFINITY PREDICTED BY RF-SCORE:    0.00 PKD
ROOT
HETATM    1  C   UNL     1      -6.117  20.730  68.299  1.00  0.00    -0.380 C  
HETATM    2  C   UNL     1      -7.282  20.696  67.320  1.00  0.00    -0.388 C  
ENDROOT
BRANCH   2   3
HETATM    3  C   UNL     1      -7.090  19.609  66.263  1.00  0.00    -0.247 C  
BRANCH   3   4
HETATM    4  N   UNL     1      -8.350  18.879  66.069  1.00  0.00    -0.480 NA 
HETATM    5  H   UNL     1      -8.183  17.893  65.871  1.00  0.00     0.000 HD 
BRANCH   4   6
HETATM    6  C   UNL     1      -9.263  19.054  67.227  1.00  0.00    -0.286 C  
HETATM    7  C   UNL     1     -10.635  19.596  66.827  1.00  0.00    -0.602 C  
BRANCH   6   8
HETATM    8  C   UNL     1      -9.450  17.709  67.965  1.00  0.00    -0.282 C  
HETATM    9  O   UNL     1      -8.474  17.165  68.478  1.00  0.00    -0.246 OA 
HETATM   10  N   UNL     1     -10.768  17.273  68.041  1.00  0.00    -0.389 N  
HETATM   11  H   UNL     1     -11.479  17.888  67.646  1.00  0.00     0.000 HD 
BRANCH  10  12
HETATM   12  C   UNL     1     -11.223  16.058  68.614  1.00  0.00    -0.366 A  
HETATM   13  C   UNL     1     -11.454  15.949  69.995  1.00  0.00    -0.354 A  
HETATM   14  C   UNL     1     -11.905  14.761  70.575  1.00  0.00    -0.362 A  
HETATM   15  C   UNL     1     -12.125  13.645  69.782  1.00  0.00    -0.396 A  
HETATM   16  C   UNL     1     -11.885  13.720  68.411  1.00  0.00    -0.411 A  
HETATM   17  C   UNL     1     -11.436  14.919  67.812  1.00  0.00    -0.353 A  
HETATM   18  C   UNL     1     -11.196  14.890  66.324  1.00  0.00    -0.331 C  
ENDBRANCH  10  12
ENDBRANCH   6   8
ENDBRANCH   4   6
ENDBRANCH   3   4
ENDBRANCH   2   3
TORSDOF 5
ENDMDL
MODEL       53
REMARK 921   NORMALIZED FREE ENERGY PREDICTED BY IDOCK:   -4.67 KCAL/MOL
REMARK 922        TOTAL FREE ENERGY PREDICTED BY IDOCK:   -6.38 KCAL/MOL
REMARK 923 INTER-LIGAND FREE ENERGY PREDICTED BY IDOCK:   -6.21 KCAL/MOL
REMARK 924 INTRA-LIGAND FREE ENERGY PREDICTED BY IDOCK:   -0.16 KCAL/MOL
REMARK 927      BINDING AFFINITY PREDICTED BY RF-SCORE:    0.00 PKD
ROOT
HETATM    1  C   UNL     1      -8.663  17.124  66.294  1.00  0.00    -0.268 C  
HETATM    2  C   UNL     1      -8.941  15.650  66.039  1.00  0.00    -0.297 C  
ENDROOT
BRANCH   2   3
HETATM    3  C   UNL     1     -10.193  15.460  65.183  1.00  0.00    -0.325 C  
BRANCH   3   4
HETATM    4  N   UNL     1     -10.103  14.192  64.448  1.00  0.00    -0.663 NA 
HETATM    5  H   UNL     1      -9.426  13.560  64.875  1.00  0.00     0.000 HD 
BRANCH   4   6
HETATM    6  C   UNL     1     -11.434  13.549  64.308  1.00  0.00    -0.383 C  
HETATM    7  C   UNL     1     -11.359  12.148  63.704  1.00  0.00    -0.545 C  
BRANCH   6   8
HETATM    8  C   UNL     1     -12.132  13.466  65.685  1.00  0.00    -0.434 C  
HETATM    9  O   UNL     1     -13.317  13.780  65.777  1.00  0.00    -0.471 OA 
HETATM   10  N   UNL     1     -11.337  12.953  66.703  1.00  0.00    -0.301 N  
HETATM   11  H   UNL     1     -10.399  12.648  66.444  1.00  0.00     0.000 HD 
BRANCH  10  12
HETATM   12  C   UNL     1     -11.700  12.811  68.067  1.00  0.00    -0.356 A  
HETATM   13  C   UNL     1     -11.940  11.545  68.625  1.00  0.00    -0.312 A  
HETATM   14  C   UNL     1     -12.295  11.388  69.966  1.00  0.00    -0.311 A  
HETATM   15  C   UNL     1     -12.430  12.501  70.781  1.00  0.00    -0.357 A  
HETATM   16  C   UNL     1     -12.216  13.770  70.248  1.00  0.00    -0.429 A  
HETATM   17  C   UNL     1     -11.848  13.942  68.894  1.00  0.00    -0.393 A  
HETATM   18  C   UNL     1     -11.652  15.358  68.415  1.00  0.00    -0.368 C  
ENDBRANCH  10  12
ENDBRANCH   6   8
ENDBRANCH   4   6
ENDBRANCH   3   4
ENDBRANCH   2   3
TORSDOF 5
ENDMDL
MODEL       54
REMARK 921   NORMALIZED FREE ENERGY PREDICTED BY IDOCK:   -4.65 KCAL/MOL
REMARK 922        TOTAL FREE ENERGY PREDICTED BY IDOCK:   -6.35 KCAL/MOL
REMARK 923 INTER-LIGAND FREE ENERGY PREDICTED BY IDOCK:   -5.64 KCAL/MOL
REMARK 924 INTRA-LIGAND FREE ENERGY PREDICTED BY IDOCK:   -0.71 KCAL/MOL
REMARK 927      BINDING AFFINITY PREDICTED BY RF-SCORE:    0.00 PKD
ROOT
HETATM    1  C   UNL     1     -13.005  10.580  71.702  1.00  0.00    -0.581 C  
HETATM    2  C   UNL     1     -13.556   9.165  71.600  1.00  0.00    -0.451 C  
ENDROOT
BRANCH   2   3
HETATM    3  C   UNL     1     -12.470   8.124  71.868  1.00  0.00    -0.332 C  
BRANCH   3   4
HETATM    4  N   UNL     1     -12.290   7.279  70.681  1.00  0.00    -0.579 NA 
HETATM    5  H   UNL     1     -12.940   7.535  69.938  1.00  0.00     0.000 HD 
BRANCH   4   6
HETATM    6  C   UNL     1     -10.884   7.304  70.205  1.00  0.00    -0.256 C  
HETATM    7  C   UNL     1     -10.614   6.295  69.089  1.00  0.00    -0.325 C  
BRANCH   6   8
HETATM    8  C   UNL     1     -10.516   8.719  69.702  1.00  0.00    -0.220 C  
HETATM    9  O   UNL     1      -9.614   9.338  70.261  1.00  0.00    -0.200 OA 
HETATM   10  N   UNL     1     -11.222   9.131  68.578  1.00  0.00    -0.396 N  
HETATM   11  H   UNL     1     -11.874   8.459  68.173  1.00  0.00     0.000 HD 
BRANCH  10  12
HETATM   12  C   UNL     1     -11.125  10.392  67.937  1.00  0.00    -0.299 A  
HETATM   13  C   UNL     1     -11.774  11.523  68.459  1.00  0.00    -0.379 A  
HETATM   14  C   UNL     1     -11.686  12.772  67.842  1.00  0.00    -0.408 A  
HETATM   15  C   UNL     1     -10.953  12.917  66.674  1.00  0.00    -0.302 A  
HETATM   16  C   UNL     1     -10.314  11.807  66.124  1.00  0.00    -0.266 A  
HETATM   17  C   UNL     1     -10.389  10.539  66.744  1.00  0.00    -0.301 A  
HETATM   18  C   UNL     1      -9.672   9.403  66.060  1.00  0.00    -0.345 C  
ENDBRANCH  10  12
ENDBRANCH   6   8
ENDBRANCH   4   6
ENDBRANCH   3   4
ENDBRANCH   2   3
TORSDOF 5
ENDMDL
MODEL       55
REMARK 921   NORMALIZED FREE ENERGY PREDICTED BY IDOCK:   -4.65 KCAL/MOL
REMARK 922        TOTAL FREE ENERGY PREDICTED BY IDOCK:   -6.35 KCAL/MOL
REMARK 923 INTER-LIGAND FREE ENERGY PREDICTED BY IDOCK:   -5.83 KCAL/MOL
REMARK 924 INTRA-LIGAND FREE ENERGY PREDICTED BY IDOCK:   -0.52 KCAL/MOL
REMARK 927      BINDING AFFINITY PREDICTED BY RF-SCORE:    0.00 PKD
ROOT
HETATM    1  C   UNL     1     -10.117  18.555  66.429  1.00  0.00    -0.430 C  
HETATM    2  C   UNL     1     -10.094  17.189  67.099  1.00  0.00    -0.295 C  
ENDROOT
BRANCH   2   3
HETATM    3  C   UNL     1      -9.676  16.094  66.118  1.00  0.00    -0.323 C  
BRANCH   3   4
HETATM    4  N   UNL     1      -9.205  14.917  66.860  1.00  0.00    -0.232 NA 
HETATM    5  H   UNL     1      -9.121  15.114  67.857  1.00  0.00     0.000 HD 
BRANCH   4   6
HETATM    6  C   UNL     1     -10.069  13.736  66.611  1.00  0.00    -0.277 C  
HETATM    7  C   UNL     1      -9.327  12.410  66.769  1.00  0.00    -0.220 C  
BRANCH   6   8
HETATM    8  C   UNL     1     -11.281  13.750  67.571  1.00  0.00    -0.294 C  
HETATM    9  O   UNL     1     -12.407  13.553  67.119  1.00  0.00    -0.315 OA 
HETATM   10  N   UNL     1     -10.951  13.917  68.911  1.00  0.00    -0.258 N  
HETATM   11  H   UNL     1      -9.958  13.972  69.136  1.00  0.00     0.000 HD 
BRANCH  10  12
HETATM   12  C   UNL     1     -11.858  14.016  69.997  1.00  0.00    -0.320 A  
HETATM   13  C   UNL     1     -12.284  15.267  70.472  1.00  0.00    -0.415 A  
HETATM   14  C   UNL     1     -13.179  15.383  71.539  1.00  0.00    -0.572 A  
HETATM   15  C   UNL     1     -13.660  14.243  72.164  1.00  0.00    -0.546 A  
HETATM   16  C   UNL     1     -13.238  12.990  71.724  1.00  0.00    -0.486 A  
HETATM   17  C   UNL     1     -12.339  12.860  70.641  1.00  0.00    -0.385 A  
HETATM   18  C   UNL     1     -11.937  11.459  70.253  1.00  0.00    -0.460 C  
ENDBRANCH  10  12
ENDBRANCH   6   8
ENDBRANCH   4   6
ENDBRANCH   3   4
ENDBRANCH   2   3
TORSDOF 5
ENDMDL
MODEL       56
REMARK 921   NORMALIZED FREE ENERGY PREDICTED BY IDOCK:   -4.62 KCAL/MOL
REMARK 922        TOTAL FREE ENERGY PREDICTED BY IDOCK:   -6.31 KCAL/MOL
REMARK 923 INTER-LIGAND FREE ENERGY PREDICTED BY IDOCK:   -5.84 KCAL/MOL
REMARK 924 INTRA-LIGAND FREE ENERGY PREDICTED BY IDOCK:   -0.47 KCAL/MOL
REMARK 927      BINDING AFFINITY PREDICTED BY RF-SCORE:    0.00 PKD
ROOT
HETATM    1  C   UNL     1     -12.423  12.672  64.756  1.00  0.00    -0.555 C  
HETATM    2  C   UNL     1     -11.341  12.338  65.773  1.00  0.00    -0.400 C  
ENDROOT
BRANCH   2   3
HETATM    3  C   UNL     1     -11.695  12.878  67.158  1.00  0.00    -0.377 C  
BRANCH   3   4
HETATM    4  N   UNL     1     -12.252  14.231  67.036  1.00  0.00    -0.575 NA 
HETATM    5  H   UNL     1     -13.272  14.215  67.024  1.00  0.00     0.000 HD 
BRANCH   4   6
HETATM    6  C   UNL     1     -11.734  15.130  68.099  1.00  0.00    -0.302 C  
HETATM    7  C   UNL     1     -11.166  14.371  69.297  1.00  0.00    -0.308 C  
BRANCH   6   8
HETATM    8  C   UNL     1     -10.638  16.056  67.525  1.00  0.00    -0.313 C  
HETATM    9  O   UNL     1     -10.269  15.901  66.363  1.00  0.00    -0.275 OA 
HETATM   10  N   UNL     1     -10.220  17.058  68.392  1.00  0.00    -0.309 N  
HETATM   11  H   UNL     1     -10.694  17.113  69.294  1.00  0.00     0.000 HD 
BRANCH  10  12
HETATM   12  C   UNL     1      -9.199  18.013  68.149  1.00  0.00    -0.279 A  
HETATM   13  C   UNL     1      -7.877  17.781  68.561  1.00  0.00    -0.290 A  
HETATM   14  C   UNL     1      -6.860  18.709  68.327  1.00  0.00    -0.257 A  
HETATM   15  C   UNL     1      -7.148  19.903  67.682  1.00  0.00    -0.297 A  
HETATM   16  C   UNL     1      -8.456  20.166  67.281  1.00  0.00    -0.403 A  
HETATM   17  C   UNL     1      -9.492  19.231  67.505  1.00  0.00    -0.379 A  
HETATM   18  C   UNL     1     -10.873  19.620  67.042  1.00  0.00    -0.518 C  
ENDBRANCH  10  12
ENDBRANCH   6   8
ENDBRANCH   4   6
ENDBRANCH   3   4
ENDBRANCH   2   3
TORSDOF 5
ENDMDL
MODEL       57
REMARK 921   NORMALIZED FREE ENERGY PREDICTED BY IDOCK:   -4.60 KCAL/MOL
REMARK 922        TOTAL FREE ENERGY PREDICTED BY IDOCK:   -6.29 KCAL/MOL
REMARK 923 INTER-LIGAND FREE ENERGY PREDICTED BY IDOCK:   -5.69 KCAL/MOL
REMARK 924 INTRA-LIGAND FREE ENERGY PREDICTED BY IDOCK:   -0.60 KCAL/MOL
REMARK 927      BINDING AFFINITY PREDICTED BY RF-SCORE:    0.00 PKD
ROOT
HETATM    1  C   UNL     1     -10.400  16.455  67.925  1.00  0.00    -0.286 C  
HETATM    2  C   UNL     1     -10.764  15.632  66.698  1.00  0.00    -0.296 C  
ENDROOT
BRANCH   2   3
HETATM    3  C   UNL     1      -9.580  14.792  66.220  1.00  0.00    -0.312 C  
BRANCH   3   4
HETATM    4  N   UNL     1     -10.031  13.428  65.917  1.00  0.00    -0.336 NA 
HETATM    5  H   UNL     1      -9.768  13.149  64.972  1.00  0.00     0.000 HD 
BRANCH   4   6
HETATM    6  C   UNL     1      -9.539  12.456  66.927  1.00  0.00    -0.219 C  
HETATM    7  C   UNL     1      -8.499  13.055  67.872  1.00  0.00    -0.185 C  
BRANCH   6   8
HETATM    8  C   UNL     1     -10.721  11.911  67.761  1.00  0.00    -0.207 C  
HETATM    9  O   UNL     1     -11.796  11.692  67.206  1.00  0.00    -0.609 OA 
HETATM   10  N   UNL     1     -10.413  11.642  69.088  1.00  0.00    -0.405 N  
HETATM   11  H   UNL     1      -9.444  11.788  69.374  1.00  0.00     0.000 HD 
BRANCH  10  12
HETATM   12  C   UNL     1     -11.310  11.184  70.087  1.00  0.00    -0.209 A  
HETATM   13  C   UNL     1     -11.367   9.826  70.442  1.00  0.00    -0.362 A  
HETATM   14  C   UNL     1     -12.242   9.359  71.425  1.00  0.00    -0.438 A  
HETATM   15  C   UNL     1     -13.092  10.243  72.071  1.00  0.00    -0.529 A  
HETATM   16  C   UNL     1     -13.069  11.592  71.724  1.00  0.00    -0.487 A  
HETATM   17  C   UNL     1     -12.182  12.079  70.736  1.00  0.00    -0.382 A  
HETATM   18  C   UNL     1     -12.246  13.553  70.429  1.00  0.00    -0.426 C  
ENDBRANCH  10  12
ENDBRANCH   6   8
ENDBRANCH   4   6
ENDBRANCH   3   4
ENDBRANCH   2   3
TORSDOF 5
ENDMDL
MODEL       58
REMARK 921   NORMALIZED FREE ENERGY PREDICTED BY IDOCK:   -4.60 KCAL/MOL
REMARK 922        TOTAL FREE ENERGY PREDICTED BY IDOCK:   -6.29 KCAL/MOL
REMARK 923 INTER-LIGAND FREE ENERGY PREDICTED BY IDOCK:   -5.94 KCAL/MOL
REMARK 924 INTRA-LIGAND FREE ENERGY PREDICTED BY IDOCK:   -0.35 KCAL/MOL
REMARK 927      BINDING AFFINITY PREDICTED BY RF-SCORE:    0.00 PKD
ROOT
HETATM    1  C   UNL     1     -12.292   9.907  71.701  1.00  0.00    -0.496 C  
HETATM    2  C   UNL     1     -11.572  10.329  70.428  1.00  0.00    -0.411 C  
ENDROOT
BRANCH   2   3
HETATM    3  C   UNL     1     -12.275  11.508  69.756  1.00  0.00    -0.244 C  
BRANCH   3   4
HETATM    4  N   UNL     1     -11.479  12.729  69.938  1.00  0.00    -0.510 NA 
HETATM    5  H   UNL     1     -10.713  12.580  70.595  1.00  0.00     0.000 HD 
BRANCH   4   6
HETATM    6  C   UNL     1     -10.986  13.255  68.640  1.00  0.00    -0.264 C  
HETATM    7  C   UNL     1     -11.642  12.579  67.436  1.00  0.00    -0.434 C  
BRANCH   6   8
HETATM    8  C   UNL     1     -11.231  14.779  68.555  1.00  0.00    -0.276 C  
HETATM    9  O   UNL     1     -12.199  15.264  69.137  1.00  0.00    -0.255 OA 
HETATM   10  N   UNL     1     -10.250  15.482  67.867  1.00  0.00    -0.235 N  
HETATM   11  H   UNL     1      -9.455  14.943  67.523  1.00  0.00     0.000 HD 
BRANCH  10  12
HETATM   12  C   UNL     1     -10.242  16.874  67.595  1.00  0.00    -0.306 A  
HETATM   13  C   UNL     1     -10.062  17.812  68.624  1.00  0.00    -0.384 A  
HETATM   14  C   UNL     1     -10.049  19.186  68.373  1.00  0.00    -0.498 A  
HETATM   15  C   UNL     1     -10.230  19.655  67.081  1.00  0.00    -0.558 A  
HETATM   16  C   UNL     1     -10.430  18.745  66.044  1.00  0.00    -0.483 A  
HETATM   17  C   UNL     1     -10.437  17.352  66.285  1.00  0.00    -0.276 A  
HETATM   18  C   UNL     1     -10.673  16.457  65.095  1.00  0.00    -0.309 C  
ENDBRANCH  10  12
ENDBRANCH   6   8
ENDBRANCH   4   6
ENDBRANCH   3   4
ENDBRANCH   2   3
TORSDOF 5
ENDMDL
MODEL       59
REMARK 921   NORMALIZED FREE ENERGY PREDICTED BY IDOCK:   -4.58 KCAL/MOL
REMARK 922        TOTAL FREE ENERGY PREDICTED BY IDOCK:   -6.26 KCAL/MOL
REMARK 923 INTER-LIGAND FREE ENERGY PREDICTED BY IDOCK:   -5.70 KCAL/MOL
REMARK 924 INTRA-LIGAND FREE ENERGY PREDICTED BY IDOCK:   -0.57 KCAL/MOL
REMARK 927      BINDING AFFINITY PREDICTED BY RF-SCORE:    0.00 PKD
ROOT
HETATM    1  C   UNL     1      -7.664  11.331  68.126  1.00  0.00    -0.112 C  
HETATM    2  C   UNL     1      -8.351  12.522  67.476  1.00  0.00    -0.175 C  
ENDROOT
BRANCH   2   3
HETATM    3  C   UNL     1      -9.433  12.073  66.494  1.00  0.00    -0.228 C  
BRANCH   3   4
HETATM    4  N   UNL     1     -10.646  12.877  66.691  1.00  0.00    -0.260 NA 
HETATM    5  H   UNL     1     -11.450  12.462  66.220  1.00  0.00     0.000 HD 
BRANCH   4   6
HETATM    6  C   UNL     1     -10.919  13.105  68.133  1.00  0.00    -0.251 C  
HETATM    7  C   UNL     1     -11.818  14.314  68.386  1.00  0.00    -0.373 C  
BRANCH   6   8
HETATM    8  C   UNL     1     -11.577  11.851  68.754  1.00  0.00    -0.309 C  
HETATM    9  O   UNL     1     -12.282  11.132  68.049  1.00  0.00    -0.584 OA 
HETATM   10  N   UNL     1     -11.227  11.615  70.078  1.00  0.00    -0.489 N  
HETATM   11  H   UNL     1     -10.552  12.254  70.497  1.00  0.00     0.000 HD 
BRANCH  10  12
HETATM   12  C   UNL     1     -11.716  10.572  70.907  1.00  0.00    -0.335 A  
HETATM   13  C   UNL     1     -13.022  10.607  71.421  1.00  0.00    -0.545 A  
HETATM   14  C   UNL     1     -13.520   9.587  72.236  1.00  0.00    -0.521 A  
HETATM   15  C   UNL     1     -12.712   8.509  72.565  1.00  0.00    -0.329 A  
HETATM   16  C   UNL     1     -11.406   8.460  72.083  1.00  0.00    -0.437 A  
HETATM   17  C   UNL     1     -10.893   9.482  71.252  1.00  0.00    -0.413 A  
HETATM   18  C   UNL     1      -9.464   9.337  70.795  1.00  0.00    -0.336 C  
ENDBRANCH  10  12
ENDBRANCH   6   8
ENDBRANCH   4   6
ENDBRANCH   3   4
ENDBRANCH   2   3
TORSDOF 5
ENDMDL
MODEL       60
REMARK 921   NORMALIZED FREE ENERGY PREDICTED BY IDOCK:   -4.58 KCAL/MOL
REMARK 922        TOTAL FREE ENERGY PREDICTED BY IDOCK:   -6.26 KCAL/MOL
REMARK 923 INTER-LIGAND FREE ENERGY PREDICTED BY IDOCK:   -5.80 KCAL/MOL
REMARK 924 INTRA-LIGAND FREE ENERGY PREDICTED BY IDOCK:   -0.46 KCAL/MOL
REMARK 927      BINDING AFFINITY PREDICTED BY RF-SCORE:    0.00 PKD
ROOT
HETATM    1  C   UNL     1      -7.045  14.643  67.572  1.00  0.00    -0.203 C  
HETATM    2  C   UNL     1      -8.427  15.010  67.053  1.00  0.00    -0.258 C  
ENDROOT
BRANCH   2   3
HETATM    3  C   UNL     1      -9.267  13.763  66.778  1.00  0.00    -0.244 C  
BRANCH   3   4
HETATM    4  N   UNL     1      -8.949  12.723  67.765  1.00  0.00    -0.180 NA 
HETATM    5  H   UNL     1      -8.705  13.128  68.668  1.00  0.00     0.000 HD 
BRANCH   4   6
HETATM    6  C   UNL     1     -10.052  11.738  67.891  1.00  0.00    -0.186 C  
HETATM    7  C   UNL     1      -9.684  10.539  68.763  1.00  0.00    -0.187 C  
BRANCH   6   8
HETATM    8  C   UNL     1     -11.309  12.419  68.479  1.00  0.00    -0.293 C  
HETATM    9  O   UNL     1     -12.283  12.610  67.753  1.00  0.00    -0.338 OA 
HETATM   10  N   UNL     1     -11.235  12.687  69.841  1.00  0.00    -0.477 N  
HETATM   11  H   UNL     1     -10.391  12.379  70.324  1.00  0.00     0.000 HD 
BRANCH  10  12
HETATM   12  C   UNL     1     -12.215  13.345  70.626  1.00  0.00    -0.350 A  
HETATM   13  C   UNL     1     -12.362  14.741  70.582  1.00  0.00    -0.401 A  
HETATM   14  C   UNL     1     -13.324  15.405  71.346  1.00  0.00    -0.601 A  
HETATM   15  C   UNL     1     -14.158  14.683  72.186  1.00  0.00    -0.604 A  
HETATM   16  C   UNL     1     -14.020  13.298  72.263  1.00  0.00    -0.559 A  
HETATM   17  C   UNL     1     -13.056  12.615  71.489  1.00  0.00    -0.373 A  
HETATM   18  C   UNL     1     -12.983  11.118  71.656  1.00  0.00    -0.548 C  
ENDBRANCH  10  12
ENDBRANCH   6   8
ENDBRANCH   4   6
ENDBRANCH   3   4
ENDBRANCH   2   3
TORSDOF 5
ENDMDL
MODEL       61
REMARK 921   NORMALIZED FREE ENERGY PREDICTED BY IDOCK:   -4.58 KCAL/MOL
REMARK 922        TOTAL FREE ENERGY PREDICTED BY IDOCK:   -6.26 KCAL/MOL
REMARK 923 INTER-LIGAND FREE ENERGY PREDICTED BY IDOCK:   -5.92 KCAL/MOL
REMARK 924 INTRA-LIGAND FREE ENERGY PREDICTED BY IDOCK:   -0.33 KCAL/MOL
REMARK 927      BINDING AFFINITY PREDICTED BY RF-SCORE:    0.00 PKD
ROOT
HETATM    1  C   UNL     1     -11.981  11.918  69.870  1.00  0.00    -0.398 C  
HETATM    2  C   UNL     1     -11.694  13.236  69.167  1.00  0.00    -0.379 C  
ENDROOT
BRANCH   2   3
HETATM    3  C   UNL     1     -12.098  13.181  67.694  1.00  0.00    -0.232 C  
BRANCH   3   4
HETATM    4  N   UNL     1     -12.046  14.529  67.115  1.00  0.00    -0.536 NA 
HETATM    5  H   UNL     1     -11.560  15.181  67.731  1.00  0.00     0.000 HD 
BRANCH   4   6
HETATM    6  C   UNL     1     -11.445  14.515  65.757  1.00  0.00    -0.342 C  
HETATM    7  C   UNL     1     -12.482  14.341  64.649  1.00  0.00    -0.371 C  
BRANCH   6   8
HETATM    8  C   UNL     1     -10.659  15.823  65.509  1.00  0.00    -0.406 C  
HETATM    9  O   UNL     1     -10.883  16.472  64.490  1.00  0.00    -0.802 OA 
HETATM   10  N   UNL     1      -9.801  16.182  66.541  1.00  0.00    -0.252 N  
HETATM   11  H   UNL     1      -9.799  15.584  67.367  1.00  0.00     0.000 HD 
BRANCH  10  12
HETATM   12  C   UNL     1      -8.927  17.299  66.561  1.00  0.00    -0.268 A  
HETATM   13  C   UNL     1      -7.566  17.161  66.242  1.00  0.00    -0.352 A  
HETATM   14  C   UNL     1      -6.693  18.251  66.254  1.00  0.00    -0.269 A  
HETATM   15  C   UNL     1      -7.162  19.509  66.598  1.00  0.00    -0.232 A  
HETATM   16  C   UNL     1      -8.504  19.671  66.937  1.00  0.00    -0.343 A  
HETATM   17  C   UNL     1      -9.399  18.577  66.921  1.00  0.00    -0.294 A  
HETATM   18  C   UNL     1     -10.827  18.858  67.316  1.00  0.00    -0.448 C  
ENDBRANCH  10  12
ENDBRANCH   6   8
ENDBRANCH   4   6
ENDBRANCH   3   4
ENDBRANCH   2   3
TORSDOF 5
ENDMDL
MODEL       62
REMARK 921   NORMALIZED FREE ENERGY PREDICTED BY IDOCK:   -4.57 KCAL/MOL
REMARK 922        TOTAL FREE ENERGY PREDICTED BY IDOCK:   -6.25 KCAL/MOL
REMARK 923 INTER-LIGAND FREE ENERGY PREDICTED BY IDOCK:   -5.81 KCAL/MOL
REMARK 924 INTRA-LIGAND FREE ENERGY PREDICTED BY IDOCK:   -0.44 KCAL/MOL
REMARK 927      BINDING AFFINITY PREDICTED BY RF-SCORE:    0.00 PKD
ROOT
HETATM    1  C   UNL     1     -10.156  19.946  67.736  1.00  0.00    -0.565 C  
HETATM    2  C   UNL     1     -10.541  18.506  67.432  1.00  0.00    -0.463 C  
ENDROOT
BRANCH   2   3
HETATM    3  C   UNL     1     -10.324  17.604  68.647  1.00  0.00    -0.359 C  
BRANCH   3   4
HETATM    4  N   UNL     1      -9.944  16.257  68.202  1.00  0.00    -0.235 NA 
HETATM    5  H   UNL     1      -8.942  16.098  68.305  1.00  0.00     0.000 HD 
BRANCH   4   6
HETATM    6  C   UNL     1     -10.735  15.211  68.900  1.00  0.00    -0.240 C  
HETATM    7  C   UNL     1     -11.993  15.762  69.568  1.00  0.00    -0.326 C  
BRANCH   6   8
HETATM    8  C   UNL     1     -11.140  14.098  67.906  1.00  0.00    -0.268 C  
HETATM    9  O   UNL     1     -12.083  13.360  68.183  1.00  0.00    -0.335 OA 
HETATM   10  N   UNL     1     -10.416  14.095  66.719  1.00  0.00    -0.275 N  
HETATM   11  H   UNL     1      -9.726  14.837  66.600  1.00  0.00     0.000 HD 
BRANCH  10  12
HETATM   12  C   UNL     1     -10.541  13.164  65.657  1.00  0.00    -0.277 A  
HETATM   13  C   UNL     1      -9.821  11.958  65.662  1.00  0.00    -0.266 A  
HETATM   14  C   UNL     1      -9.935  11.029  64.626  1.00  0.00    -0.357 A  
HETATM   15  C   UNL     1     -10.768  11.293  63.549  1.00  0.00    -0.408 A  
HETATM   16  C   UNL     1     -11.478  12.490  63.510  1.00  0.00    -0.570 A  
HETATM   17  C   UNL     1     -11.378  13.435  64.556  1.00  0.00    -0.391 A  
HETATM   18  C   UNL     1     -12.180  14.703  64.410  1.00  0.00    -0.473 C  
ENDBRANCH  10  12
ENDBRANCH   6   8
ENDBRANCH   4   6
ENDBRANCH   3   4
ENDBRANCH   2   3
TORSDOF 5
ENDMDL
MODEL       63
REMARK 921   NORMALIZED FREE ENERGY PREDICTED BY IDOCK:   -4.57 KCAL/MOL
REMARK 922        TOTAL FREE ENERGY PREDICTED BY IDOCK:   -6.25 KCAL/MOL
REMARK 923 INTER-LIGAND FREE ENERGY PREDICTED BY IDOCK:   -5.82 KCAL/MOL
REMARK 924 INTRA-LIGAND FREE ENERGY PREDICTED BY IDOCK:   -0.43 KCAL/MOL
REMARK 927      BINDING AFFINITY PREDICTED BY RF-SCORE:    0.00 PKD
ROOT
HETATM    1  C   UNL     1     -10.055  10.440  64.652  1.00  0.00    -0.378 C  
HETATM    2  C   UNL     1      -9.908  11.496  63.567  1.00  0.00    -0.407 C  
ENDROOT
BRANCH   2   3
HETATM    3  C   UNL     1     -10.858  12.670  63.800  1.00  0.00    -0.426 C  
BRANCH   3   4
HETATM    4  N   UNL     1     -10.257  13.612  64.753  1.00  0.00    -0.584 NA 
HETATM    5  H   UNL     1      -9.480  14.124  64.333  1.00  0.00     0.000 HD 
BRANCH   4   6
HETATM    6  C   UNL     1     -11.272  14.536  65.318  1.00  0.00    -0.352 C  
HETATM    7  C   UNL     1     -12.703  14.035  65.131  1.00  0.00    -0.419 C  
BRANCH   6   8
HETATM    8  C   UNL     1     -11.010  14.757  66.826  1.00  0.00    -0.327 C  
HETATM    9  O   UNL     1      -9.936  15.235  67.184  1.00  0.00    -0.230 OA 
HETATM   10  N   UNL     1     -12.088  14.451  67.648  1.00  0.00    -0.590 N  
HETATM   11  H   UNL     1     -12.948  14.153  67.186  1.00  0.00     0.000 HD 
BRANCH  10  12
HETATM   12  C   UNL     1     -12.113  14.511  69.064  1.00  0.00    -0.251 A  
HETATM   13  C   UNL     1     -12.073  15.743  69.738  1.00  0.00    -0.298 A  
HETATM   14  C   UNL     1     -12.100  15.820  71.132  1.00  0.00    -0.475 A  
HETATM   15  C   UNL     1     -12.155  14.659  71.888  1.00  0.00    -0.375 A  
HETATM   16  C   UNL     1     -12.177  13.423  71.245  1.00  0.00    -0.163 A  
HETATM   17  C   UNL     1     -12.158  13.333  69.835  1.00  0.00    -0.377 A  
HETATM   18  C   UNL     1     -12.172  11.947  69.240  1.00  0.00    -0.169 C  
ENDBRANCH  10  12
ENDBRANCH   6   8
ENDBRANCH   4   6
ENDBRANCH   3   4
ENDBRANCH   2   3
TORSDOF 5
ENDMDL
MODEL       64
REMARK 921   NORMALIZED FREE ENERGY PREDICTED BY IDOCK:   -4.57 KCAL/MOL
REMARK 922        TOTAL FREE ENERGY PREDICTED BY IDOCK:   -6.25 KCAL/MOL
REMARK 923 INTER-LIGAND FREE ENERGY PREDICTED BY IDOCK:   -5.78 KCAL/MOL
REMARK 924 INTRA-LIGAND FREE ENERGY PREDICTED BY IDOCK:   -0.46 KCAL/MOL
REMARK 927      BINDING AFFINITY PREDICTED BY RF-SCORE:    0.00 PKD
ROOT
HETATM    1  C   UNL     1     -11.943  11.104  69.887  1.00  0.00    -0.439 C  
HETATM    2  C   UNL     1     -11.461  12.401  69.254  1.00  0.00    -0.349 C  
ENDROOT
BRANCH   2   3
HETATM    3  C   UNL     1     -12.280  13.596  69.740  1.00  0.00    -0.291 C  
BRANCH   3   4
HETATM    4  N   UNL     1     -12.255  14.659  68.726  1.00  0.00    -0.578 NA 
HETATM    5  H   UNL     1     -13.142  14.717  68.225  1.00  0.00     0.000 HD 
BRANCH   4   6
HETATM    6  C   UNL     1     -11.878  15.966  69.319  1.00  0.00    -0.318 C  
HETATM    7  C   UNL     1     -11.624  15.888  70.824  1.00  0.00    -0.441 C  
BRANCH   6   8
HETATM    8  C   UNL     1     -10.614  16.522  68.624  1.00  0.00    -0.316 C  
HETATM    9  O   UNL     1      -9.894  15.755  67.988  1.00  0.00    -0.215 OA 
HETATM   10  N   UNL     1     -10.456  17.898  68.732  1.00  0.00    -0.376 N  
HETATM   11  H   UNL     1     -11.195  18.409  69.215  1.00  0.00     0.000 HD 
BRANCH  10  12
HETATM   12  C   UNL     1      -9.370  18.664  68.236  1.00  0.00    -0.328 A  
HETATM   13  C   UNL     1      -8.162  18.754  68.947  1.00  0.00    -0.255 A  
HETATM   14  C   UNL     1      -7.082  19.501  68.472  1.00  0.00    -0.352 A  
HETATM   15  C   UNL     1      -7.192  20.189  67.273  1.00  0.00    -0.306 A  
HETATM   16  C   UNL     1      -8.386  20.132  66.557  1.00  0.00    -0.314 A  
HETATM   17  C   UNL     1      -9.483  19.373  67.024  1.00  0.00    -0.399 A  
HETATM   18  C   UNL     1     -10.732  19.389  66.179  1.00  0.00    -0.506 C  
ENDBRANCH  10  12
ENDBRANCH   6   8
ENDBRANCH   4   6
ENDBRANCH   3   4
ENDBRANCH   2   3
TORSDOF 5
ENDMDL
MODEL       65
REMARK 921   NORMALIZED FREE ENERGY PREDICTED BY IDOCK:   -4.57 KCAL/MOL
REMARK 922        TOTAL FREE ENERGY PREDICTED BY IDOCK:   -6.24 KCAL/MOL
REMARK 923 INTER-LIGAND FREE ENERGY PREDICTED BY IDOCK:   -5.68 KCAL/MOL
REMARK 924 INTRA-LIGAND FREE ENERGY PREDICTED BY IDOCK:   -0.56 KCAL/MOL
REMARK 927      BINDING AFFINITY PREDICTED BY RF-SCORE:    0.00 PKD
ROOT
HETATM    1  C   UNL     1     -13.200  11.612  71.877  1.00  0.00    -0.475 C  
HETATM    2  C   UNL     1     -13.266  10.092  71.907  1.00  0.00    -0.557 C  
ENDROOT
BRANCH   2   3
HETATM    3  C   UNL     1     -11.916   9.469  71.554  1.00  0.00    -0.399 C  
BRANCH   3   4
HETATM    4  N   UNL     1     -11.829   9.265  70.102  1.00  0.00    -0.462 NA 
HETATM    5  H   UNL     1     -12.681   9.569  69.631  1.00  0.00     0.000 HD 
BRANCH   4   6
HETATM    6  C   UNL     1     -10.627   9.925  69.532  1.00  0.00    -0.242 C  
HETATM    7  C   UNL     1      -9.783   8.987  68.672  1.00  0.00    -0.168 C  
BRANCH   6   8
HETATM    8  C   UNL     1     -11.044  11.147  68.682  1.00  0.00    -0.239 C  
HETATM    9  O   UNL     1     -12.097  11.106  68.049  1.00  0.00    -0.635 OA 
HETATM   10  N   UNL     1     -10.190  12.238  68.785  1.00  0.00    -0.390 N  
HETATM   11  H   UNL     1      -9.405  12.148  69.429  1.00  0.00     0.000 HD 
BRANCH  10  12
HETATM   12  C   UNL     1     -10.300  13.466  68.083  1.00  0.00    -0.247 A  
HETATM   13  C   UNL     1      -9.622  13.671  66.870  1.00  0.00    -0.262 A  
HETATM   14  C   UNL     1      -9.723  14.872  66.165  1.00  0.00    -0.333 A  
HETATM   15  C   UNL     1     -10.499  15.906  66.666  1.00  0.00    -0.306 A  
HETATM   16  C   UNL     1     -11.167  15.735  67.877  1.00  0.00    -0.313 A  
HETATM   17  C   UNL     1     -11.079  14.521  68.596  1.00  0.00    -0.272 A  
HETATM   18  C   UNL     1     -11.831  14.446  69.901  1.00  0.00    -0.382 C  
ENDBRANCH  10  12
ENDBRANCH   6   8
ENDBRANCH   4   6
ENDBRANCH   3   4
ENDBRANCH   2   3
TORSDOF 5
ENDMDL
MODEL       66
REMARK 921   NORMALIZED FREE ENERGY PREDICTED BY IDOCK:   -4.57 KCAL/MOL
REMARK 922        TOTAL FREE ENERGY PREDICTED BY IDOCK:   -6.24 KCAL/MOL
REMARK 923 INTER-LIGAND FREE ENERGY PREDICTED BY IDOCK:   -6.05 KCAL/MOL
REMARK 924 INTRA-LIGAND FREE ENERGY PREDICTED BY IDOCK:   -0.19 KCAL/MOL
REMARK 927      BINDING AFFINITY PREDICTED BY RF-SCORE:    0.00 PKD
ROOT
HETATM    1  C   UNL     1     -12.279  14.989  74.062  1.00  0.00    -0.633 C  
HETATM    2  C   UNL     1     -12.532  16.147  73.108  1.00  0.00    -0.622 C  
ENDROOT
BRANCH   2   3
HETATM    3  C   UNL     1     -12.621  15.666  71.660  1.00  0.00    -0.446 C  
BRANCH   3   4
HETATM    4  N   UNL     1     -11.772  14.482  71.478  1.00  0.00    -0.461 NA 
HETATM    5  H   UNL     1     -11.710  13.931  72.335  1.00  0.00     0.000 HD 
BRANCH   4   6
HETATM    6  C   UNL     1     -12.230  13.655  70.333  1.00  0.00    -0.363 C  
HETATM    7  C   UNL     1     -11.326  13.781  69.108  1.00  0.00    -0.329 C  
BRANCH   6   8
HETATM    8  C   UNL     1     -12.309  12.168  70.748  1.00  0.00    -0.297 C  
HETATM    9  O   UNL     1     -13.221  11.799  71.485  1.00  0.00    -0.361 OA 
HETATM   10  N   UNL     1     -11.347  11.355  70.161  1.00  0.00    -0.499 N  
HETATM   11  H   UNL     1     -10.715  11.798  69.494  1.00  0.00     0.000 HD 
BRANCH  10  12
HETATM   12  C   UNL     1     -11.154   9.970  70.397  1.00  0.00    -0.327 A  
HETATM   13  C   UNL     1     -11.240   9.437  71.694  1.00  0.00    -0.431 A  
HETATM   14  C   UNL     1     -11.057   8.075  71.943  1.00  0.00    -0.333 A  
HETATM   15  C   UNL     1     -10.770   7.213  70.895  1.00  0.00    -0.251 A  
HETATM   16  C   UNL     1     -10.660   7.719  69.602  1.00  0.00    -0.242 A  
HETATM   17  C   UNL     1     -10.851   9.094  69.336  1.00  0.00    -0.165 A  
HETATM   18  C   UNL     1     -10.699   9.539  67.904  1.00  0.00    -0.285 C  
ENDBRANCH  10  12
ENDBRANCH   6   8
ENDBRANCH   4   6
ENDBRANCH   3   4
ENDBRANCH   2   3
TORSDOF 5
ENDMDL
MODEL       67
REMARK 921   NORMALIZED FREE ENERGY PREDICTED BY IDOCK:   -4.56 KCAL/MOL
REMARK 922        TOTAL FREE ENERGY PREDICTED BY IDOCK:   -6.24 KCAL/MOL
REMARK 923 INTER-LIGAND FREE ENERGY PREDICTED BY IDOCK:   -5.87 KCAL/MOL
REMARK 924 INTRA-LIGAND FREE ENERGY PREDICTED BY IDOCK:   -0.37 KCAL/MOL
REMARK 927      BINDING AFFINITY PREDICTED BY RF-SCORE:    0.00 PKD
ROOT
HETATM    1  C   UNL     1     -11.131  16.600  68.719  1.00  0.00    -0.270 C  
HETATM    2  C   UNL     1     -10.642  16.007  70.032  1.00  0.00    -0.297 C  
ENDROOT
BRANCH   2   3
HETATM    3  C   UNL     1     -11.721  16.080  71.113  1.00  0.00    -0.439 C  
BRANCH   3   4
HETATM    4  N   UNL     1     -11.594  14.930  72.017  1.00  0.00    -0.443 NA 
HETATM    5  H   UNL     1     -11.264  15.216  72.939  1.00  0.00     0.000 HD 
BRANCH   4   6
HETATM    6  C   UNL     1     -12.865  14.168  72.108  1.00  0.00    -0.332 C  
HETATM    7  C   UNL     1     -14.049  14.907  71.486  1.00  0.00    -0.593 C  
BRANCH   6   8
HETATM    8  C   UNL     1     -12.711  12.794  71.416  1.00  0.00    -0.255 C  
HETATM    9  O   UNL     1     -13.405  11.852  71.793  1.00  0.00    -0.403 OA 
HETATM   10  N   UNL     1     -11.825  12.784  70.346  1.00  0.00    -0.550 N  
HETATM   11  H   UNL     1     -11.397  13.676  70.096  1.00  0.00     0.000 HD 
BRANCH  10  12
HETATM   12  C   UNL     1     -11.456  11.659  69.566  1.00  0.00    -0.304 A  
HETATM   13  C   UNL     1     -11.039  10.462  70.171  1.00  0.00    -0.383 A  
HETATM   14  C   UNL     1     -10.675   9.344  69.418  1.00  0.00    -0.234 A  
HETATM   15  C   UNL     1     -10.709   9.403  68.033  1.00  0.00    -0.246 A  
HETATM   16  C   UNL     1     -11.100  10.584  67.407  1.00  0.00    -0.322 A  
HETATM   17  C   UNL     1     -11.478  11.720  68.158  1.00  0.00    -0.382 A  
HETATM   18  C   UNL     1     -11.874  12.950  67.382  1.00  0.00    -0.418 C  
ENDBRANCH  10  12
ENDBRANCH   6   8
ENDBRANCH   4   6
ENDBRANCH   3   4
ENDBRANCH   2   3
TORSDOF 5
ENDMDL
MODEL       68
REMARK 921   NORMALIZED FREE ENERGY PREDICTED BY IDOCK:   -4.56 KCAL/MOL
REMARK 922        TOTAL FREE ENERGY PREDICTED BY IDOCK:   -6.23 KCAL/MOL
REMARK 923 INTER-LIGAND FREE ENERGY PREDICTED BY IDOCK:   -5.87 KCAL/MOL
REMARK 924 INTRA-LIGAND FREE ENERGY PREDICTED BY IDOCK:   -0.36 KCAL/MOL
REMARK 927      BINDING AFFINITY PREDICTED BY RF-SCORE:    0.00 PKD
ROOT
HETATM    1  C   UNL     1      -9.126   4.884  74.031  1.00  0.00    -0.112 C  
HETATM    2  C   UNL     1      -9.729   6.094  73.333  1.00  0.00    -0.163 C  
ENDROOT
BRANCH   2   3
HETATM    3  C   UNL     1     -10.885   5.690  72.419  1.00  0.00    -0.248 C  
BRANCH   3   4
HETATM    4  N   UNL     1     -12.047   6.550  72.680  1.00  0.00    -0.503 NA 
HETATM    5  H   UNL     1     -11.869   7.194  73.451  1.00  0.00     0.000 HD 
BRANCH   4   6
HETATM    6  C   UNL     1     -12.476   7.272  71.456  1.00  0.00    -0.373 C  
HETATM    7  C   UNL     1     -13.989   7.238  71.243  1.00  0.00    -0.342 C  
BRANCH   6   8
HETATM    8  C   UNL     1     -12.010   8.745  71.516  1.00  0.00    -0.324 C  
HETATM    9  O   UNL     1     -10.880   9.000  71.928  1.00  0.00    -0.350 OA 
HETATM   10  N   UNL     1     -12.924   9.659  71.006  1.00  0.00    -0.511 N  
HETATM   11  H   UNL     1     -13.784   9.277  70.611  1.00  0.00     0.000 HD 
BRANCH  10  12
HETATM   12  C   UNL     1     -12.782  11.070  70.980  1.00  0.00    -0.386 A  
HETATM   13  C   UNL     1     -13.298  11.869  72.012  1.00  0.00    -0.425 A  
HETATM   14  C   UNL     1     -13.163  13.260  72.004  1.00  0.00    -0.541 A  
HETATM   15  C   UNL     1     -12.516  13.885  70.949  1.00  0.00    -0.447 A  
HETATM   16  C   UNL     1     -12.012  13.116  69.902  1.00  0.00    -0.387 A  
HETATM   17  C   UNL     1     -12.134  11.708  69.904  1.00  0.00    -0.373 A  
HETATM   18  C   UNL     1     -11.564  10.972  68.718  1.00  0.00    -0.386 C  
ENDBRANCH  10  12
ENDBRANCH   6   8
ENDBRANCH   4   6
ENDBRANCH   3   4
ENDBRANCH   2   3
TORSDOF 5
ENDMDL
MODEL       69
REMARK 921   NORMALIZED FREE ENERGY PREDICTED BY IDOCK:   -4.55 KCAL/MOL
REMARK 922        TOTAL FREE ENERGY PREDICTED BY IDOCK:   -6.23 KCAL/MOL
REMARK 923 INTER-LIGAND FREE ENERGY PREDICTED BY IDOCK:   -5.80 KCAL/MOL
REMARK 924 INTRA-LIGAND FREE ENERGY PREDICTED BY IDOCK:   -0.43 KCAL/MOL
REMARK 927      BINDING AFFINITY PREDICTED BY RF-SCORE:    0.00 PKD
ROOT
HETATM    1  C   UNL     1     -13.797   8.985  72.500  1.00  0.00    -0.491 C  
HETATM    2  C   UNL     1     -13.223   9.448  71.169  1.00  0.00    -0.288 C  
ENDROOT
BRANCH   2   3
HETATM    3  C   UNL     1     -11.695   9.412  71.179  1.00  0.00    -0.345 C  
BRANCH   3   4
HETATM    4  N   UNL     1     -11.167  10.682  70.665  1.00  0.00    -0.416 NA 
HETATM    5  H   UNL     1     -10.429  10.529  69.977  1.00  0.00     0.000 HD 
BRANCH   4   6
HETATM    6  C   UNL     1     -12.249  11.541  70.121  1.00  0.00    -0.308 C  
HETATM    7  C   UNL     1     -12.419  12.848  70.893  1.00  0.00    -0.383 C  
BRANCH   6   8
HETATM    8  C   UNL     1     -11.971  11.868  68.635  1.00  0.00    -0.233 C  
HETATM    9  O   UNL     1     -11.811  10.946  67.838  1.00  0.00    -0.590 OA 
HETATM   10  N   UNL     1     -12.009  13.223  68.328  1.00  0.00    -0.339 N  
HETATM   11  H   UNL     1     -12.250  13.860  69.087  1.00  0.00     0.000 HD 
BRANCH  10  12
HETATM   12  C   UNL     1     -11.745  13.809  67.064  1.00  0.00    -0.390 A  
HETATM   13  C   UNL     1     -12.612  13.609  65.977  1.00  0.00    -0.441 A  
HETATM   14  C   UNL     1     -12.369  14.181  64.726  1.00  0.00    -0.436 A  
HETATM   15  C   UNL     1     -11.239  14.961  64.531  1.00  0.00    -0.273 A  
HETATM   16  C   UNL     1     -10.353  15.160  65.588  1.00  0.00    -0.379 A  
HETATM   17  C   UNL     1     -10.592  14.593  66.860  1.00  0.00    -0.281 A  
HETATM   18  C   UNL     1      -9.565  14.860  67.930  1.00  0.00    -0.205 C  
ENDBRANCH  10  12
ENDBRANCH   6   8
ENDBRANCH   4   6
ENDBRANCH   3   4
ENDBRANCH   2   3
TORSDOF 5
ENDMDL
MODEL       70
REMARK 921   NORMALIZED FREE ENERGY PREDICTED BY IDOCK:   -4.55 KCAL/MOL
REMARK 922        TOTAL FREE ENERGY PREDICTED BY IDOCK:   -6.22 KCAL/MOL
REMARK 923 INTER-LIGAND FREE ENERGY PREDICTED BY IDOCK:   -5.81 KCAL/MOL
REMARK 924 INTRA-LIGAND FREE ENERGY PREDICTED BY IDOCK:   -0.41 KCAL/MOL
REMARK 927      BINDING AFFINITY PREDICTED BY RF-SCORE:    0.00 PKD
ROOT
HETATM    1  C   UNL     1     -12.247   9.112  71.967  1.00  0.00    -0.443 C  
HETATM    2  C   UNL     1     -11.402   9.898  70.975  1.00  0.00    -0.460 C  
ENDROOT
BRANCH   2   3
HETATM    3  C   UNL     1     -12.250  10.904  70.197  1.00  0.00    -0.343 C  
BRANCH   3   4
HETATM    4  N   UNL     1     -12.226  10.570  68.766  1.00  0.00    -0.780 NA 
HETATM    5  H   UNL     1     -12.719  11.270  68.212  1.00  0.00     0.000 HD 
BRANCH   4   6
HETATM    6  C   UNL     1     -10.839  10.368  68.278  1.00  0.00    -0.254 C  
HETATM    7  C   UNL     1     -10.627   8.998  67.635  1.00  0.00    -0.298 C  
BRANCH   6   8
HETATM    8  C   UNL     1     -10.469  11.466  67.255  1.00  0.00    -0.206 C  
HETATM    9  O   UNL     1      -9.436  11.352  66.599  1.00  0.00    -0.181 OA 
HETATM   10  N   UNL     1     -11.419  12.472  67.123  1.00  0.00    -0.329 N  
HETATM   11  H   UNL     1     -12.272  12.373  67.672  1.00  0.00     0.000 HD 
BRANCH  10  12
HETATM   12  C   UNL     1     -11.320  13.623  66.300  1.00  0.00    -0.312 A  
HETATM   13  C   UNL     1     -10.651  14.775  66.742  1.00  0.00    -0.302 A  
HETATM   14  C   UNL     1     -10.542  15.916  65.943  1.00  0.00    -0.348 A  
HETATM   15  C   UNL     1     -11.114  15.932  64.680  1.00  0.00    -0.368 A  
HETATM   16  C   UNL     1     -11.801  14.809  64.225  1.00  0.00    -0.335 A  
HETATM   17  C   UNL     1     -11.911  13.646  65.021  1.00  0.00    -0.401 A  
HETATM   18  C   UNL     1     -12.685  12.491  64.438  1.00  0.00    -0.447 C  
ENDBRANCH  10  12
ENDBRANCH   6   8
ENDBRANCH   4   6
ENDBRANCH   3   4
ENDBRANCH   2   3
TORSDOF 5
ENDMDL
MODEL       71
REMARK 921   NORMALIZED FREE ENERGY PREDICTED BY IDOCK:   -4.53 KCAL/MOL
REMARK 922        TOTAL FREE ENERGY PREDICTED BY IDOCK:   -6.20 KCAL/MOL
REMARK 923 INTER-LIGAND FREE ENERGY PREDICTED BY IDOCK:   -5.68 KCAL/MOL
REMARK 924 INTRA-LIGAND FREE ENERGY PREDICTED BY IDOCK:   -0.52 KCAL/MOL
REMARK 927      BINDING AFFINITY PREDICTED BY RF-SCORE:    0.00 PKD
ROOT
HETATM    1  C   UNL     1     -13.136  10.393  71.748  1.00  0.00    -0.567 C  
HETATM    2  C   UNL     1     -12.315   9.125  71.928  1.00  0.00    -0.455 C  
ENDROOT
BRANCH   2   3
HETATM    3  C   UNL     1     -10.979   9.217  71.191  1.00  0.00    -0.339 C  
BRANCH   3   4
HETATM    4  N   UNL     1     -10.787  10.582  70.684  1.00  0.00    -0.368 NA 
HETATM    5  H   UNL     1     -10.250  11.151  71.338  1.00  0.00     0.000 HD 
BRANCH   4   6
HETATM    6  C   UNL     1     -10.170  10.578  69.333  1.00  0.00    -0.221 C  
HETATM    7  C   UNL     1      -9.925   9.169  68.794  1.00  0.00    -0.188 C  
BRANCH   6   8
HETATM    8  C   UNL     1     -11.067  11.348  68.336  1.00  0.00    -0.242 C  
HETATM    9  O   UNL     1     -12.280  11.392  68.531  1.00  0.00    -0.557 OA 
HETATM   10  N   UNL     1     -10.373  12.001  67.325  1.00  0.00    -0.210 N  
HETATM   11  H   UNL     1      -9.355  11.945  67.356  1.00  0.00     0.000 HD 
BRANCH  10  12
HETATM   12  C   UNL     1     -10.938  12.737  66.252  1.00  0.00    -0.280 A  
HETATM   13  C   UNL     1     -11.166  12.138  65.003  1.00  0.00    -0.372 A  
HETATM   14  C   UNL     1     -11.725  12.848  63.938  1.00  0.00    -0.526 A  
HETATM   15  C   UNL     1     -12.060  14.184  64.097  1.00  0.00    -0.437 A  
HETATM   16  C   UNL     1     -11.826  14.807  65.321  1.00  0.00    -0.276 A  
HETATM   17  C   UNL     1     -11.269  14.097  66.409  1.00  0.00    -0.328 A  
HETATM   18  C   UNL     1     -11.046  14.869  67.684  1.00  0.00    -0.315 C  
ENDBRANCH  10  12
ENDBRANCH   6   8
ENDBRANCH   4   6
ENDBRANCH   3   4
ENDBRANCH   2   3
TORSDOF 5
ENDMDL
MODEL       72
REMARK 921   NORMALIZED FREE ENERGY PREDICTED BY IDOCK:   -4.51 KCAL/MOL
REMARK 922        TOTAL FREE ENERGY PREDICTED BY IDOCK:   -6.16 KCAL/MOL
REMARK 923 INTER-LIGAND FREE ENERGY PREDICTED BY IDOCK:   -5.64 KCAL/MOL
REMARK 924 INTRA-LIGAND FREE ENERGY PREDICTED BY IDOCK:   -0.53 KCAL/MOL
REMARK 927      BINDING AFFINITY PREDICTED BY RF-SCORE:    0.00 PKD
ROOT
HETATM    1  C   UNL     1      -7.108   9.906  63.481  1.00  0.00    -0.120 C  
HETATM    2  C   UNL     1      -8.539   9.476  63.192  1.00  0.00    -0.218 C  
ENDROOT
BRANCH   2   3
HETATM    3  C   UNL     1      -9.344  10.610  62.559  1.00  0.00    -0.286 C  
BRANCH   3   4
HETATM    4  N   UNL     1     -10.575  10.834  63.330  1.00  0.00    -0.625 NA 
HETATM    5  H   UNL     1     -10.655  10.175  64.105  1.00  0.00     0.000 HD 
BRANCH   4   6
HETATM    6  C   UNL     1     -10.674  12.239  63.799  1.00  0.00    -0.449 C  
HETATM    7  C   UNL     1     -12.009  12.893  63.446  1.00  0.00    -0.612 C  
BRANCH   6   8
HETATM    8  C   UNL     1     -10.472  12.305  65.330  1.00  0.00    -0.269 C  
HETATM    9  O   UNL     1      -9.336  12.207  65.790  1.00  0.00    -0.194 OA 
HETATM   10  N   UNL     1     -11.632  12.554  66.053  1.00  0.00    -0.384 N  
HETATM   11  H   UNL     1     -12.485  12.708  65.515  1.00  0.00     0.000 HD 
BRANCH  10  12
HETATM   12  C   UNL     1     -11.750  12.617  67.465  1.00  0.00    -0.368 A  
HETATM   13  C   UNL     1     -11.888  11.450  68.234  1.00  0.00    -0.320 A  
HETATM   14  C   UNL     1     -12.002  11.495  69.625  1.00  0.00    -0.407 A  
HETATM   15  C   UNL     1     -11.991  12.716  70.281  1.00  0.00    -0.363 A  
HETATM   16  C   UNL     1     -11.874  13.890  69.540  1.00  0.00    -0.383 A  
HETATM   17  C   UNL     1     -11.750  13.858  68.133  1.00  0.00    -0.388 A  
HETATM   18  C   UNL     1     -11.641  15.186  67.427  1.00  0.00    -0.251 C  
ENDBRANCH  10  12
ENDBRANCH   6   8
ENDBRANCH   4   6
ENDBRANCH   3   4
ENDBRANCH   2   3
TORSDOF 5
ENDMDL
MODEL       73
REMARK 921   NORMALIZED FREE ENERGY PREDICTED BY IDOCK:   -4.50 KCAL/MOL
REMARK 922        TOTAL FREE ENERGY PREDICTED BY IDOCK:   -6.15 KCAL/MOL
REMARK 923 INTER-LIGAND FREE ENERGY PREDICTED BY IDOCK:   -5.83 KCAL/MOL
REMARK 924 INTRA-LIGAND FREE ENERGY PREDICTED BY IDOCK:   -0.33 KCAL/MOL
REMARK 927      BINDING AFFINITY PREDICTED BY RF-SCORE:    0.00 PKD
ROOT
HETATM    1  C   UNL     1      -6.570  17.359  66.369  1.00  0.00    -0.292 C  
HETATM    2  C   UNL     1      -7.426  16.253  66.967  1.00  0.00    -0.257 C  
ENDROOT
BRANCH   2   3
HETATM    3  C   UNL     1      -8.752  16.111  66.220  1.00  0.00    -0.337 C  
BRANCH   3   4
HETATM    4  N   UNL     1      -9.797  15.659  67.148  1.00  0.00    -0.227 NA 
HETATM    5  H   UNL     1     -10.054  16.394  67.808  1.00  0.00     0.000 HD 
BRANCH   4   6
HETATM    6  C   UNL     1     -10.984  15.142  66.421  1.00  0.00    -0.329 C  
HETATM    7  C   UNL     1     -10.628  14.498  65.082  1.00  0.00    -0.429 C  
BRANCH   6   8
HETATM    8  C   UNL     1     -11.734  14.109  67.292  1.00  0.00    -0.392 C  
HETATM    9  O   UNL     1     -12.576  13.382  66.769  1.00  0.00    -0.193 OA 
HETATM   10  N   UNL     1     -11.309  14.054  68.614  1.00  0.00    -0.258 N  
HETATM   11  H   UNL     1     -10.530  14.660  68.872  1.00  0.00     0.000 HD 
BRANCH  10  12
HETATM   12  C   UNL     1     -11.849  13.239  69.641  1.00  0.00    -0.327 A  
HETATM   13  C   UNL     1     -11.708  11.842  69.608  1.00  0.00    -0.413 A  
HETATM   14  C   UNL     1     -12.232  11.026  70.613  1.00  0.00    -0.481 A  
HETATM   15  C   UNL     1     -12.922  11.592  71.674  1.00  0.00    -0.499 A  
HETATM   16  C   UNL     1     -13.093  12.973  71.721  1.00  0.00    -0.469 A  
HETATM   17  C   UNL     1     -12.561  13.811  70.714  1.00  0.00    -0.410 A  
HETATM   18  C   UNL     1     -12.813  15.291  70.855  1.00  0.00    -0.511 C  
ENDBRANCH  10  12
ENDBRANCH   6   8
ENDBRANCH   4   6
ENDBRANCH   3   4
ENDBRANCH   2   3
TORSDOF 5
ENDMDL
MODEL       74
REMARK 921   NORMALIZED FREE ENERGY PREDICTED BY IDOCK:   -4.50 KCAL/MOL
REMARK 922        TOTAL FREE ENERGY PREDICTED BY IDOCK:   -6.15 KCAL/MOL
REMARK 923 INTER-LIGAND FREE ENERGY PREDICTED BY IDOCK:   -5.96 KCAL/MOL
REMARK 924 INTRA-LIGAND FREE ENERGY PREDICTED BY IDOCK:   -0.19 KCAL/MOL
REMARK 927      BINDING AFFINITY PREDICTED BY RF-SCORE:    0.00 PKD
ROOT
HETATM    1  C   UNL     1      -9.249  16.298  66.084  1.00  0.00    -0.376 C  
HETATM    2  C   UNL     1     -10.049  17.094  67.105  1.00  0.00    -0.295 C  
ENDROOT
BRANCH   2   3
HETATM    3  C   UNL     1     -10.897  16.176  67.984  1.00  0.00    -0.333 C  
BRANCH   3   4
HETATM    4  N   UNL     1     -10.686  14.777  67.589  1.00  0.00    -0.266 NA 
HETATM    5  H   UNL     1     -10.140  14.271  68.286  1.00  0.00     0.000 HD 
BRANCH   4   6
HETATM    6  C   UNL     1     -11.973  14.093  67.304  1.00  0.00    -0.414 C  
HETATM    7  C   UNL     1     -12.283  14.005  65.811  1.00  0.00    -0.475 C  
BRANCH   6   8
HETATM    8  C   UNL     1     -11.960  12.666  67.900  1.00  0.00    -0.249 C  
HETATM    9  O   UNL     1     -12.004  11.700  67.142  1.00  0.00    -0.614 OA 
HETATM   10  N   UNL     1     -11.817  12.621  69.281  1.00  0.00    -0.311 N  
HETATM   11  H   UNL     1     -11.696  13.513  69.760  1.00  0.00     0.000 HD 
BRANCH  10  12
HETATM   12  C   UNL     1     -11.822  11.457  70.092  1.00  0.00    -0.355 A  
HETATM   13  C   UNL     1     -11.108  10.308  69.716  1.00  0.00    -0.340 A  
HETATM   14  C   UNL     1     -11.100   9.155  70.504  1.00  0.00    -0.308 A  
HETATM   15  C   UNL     1     -11.821   9.123  71.688  1.00  0.00    -0.443 A  
HETATM   16  C   UNL     1     -12.554  10.242  72.075  1.00  0.00    -0.315 A  
HETATM   17  C   UNL     1     -12.563  11.418  71.290  1.00  0.00    -0.480 A  
HETATM   18  C   UNL     1     -13.398  12.567  71.793  1.00  0.00    -0.382 C  
ENDBRANCH  10  12
ENDBRANCH   6   8
ENDBRANCH   4   6
ENDBRANCH   3   4
ENDBRANCH   2   3
TORSDOF 5
ENDMDL
MODEL       75
REMARK 921   NORMALIZED FREE ENERGY PREDICTED BY IDOCK:   -4.49 KCAL/MOL
REMARK 922        TOTAL FREE ENERGY PREDICTED BY IDOCK:   -6.15 KCAL/MOL
REMARK 923 INTER-LIGAND FREE ENERGY PREDICTED BY IDOCK:   -5.78 KCAL/MOL
REMARK 924 INTRA-LIGAND FREE ENERGY PREDICTED BY IDOCK:   -0.37 KCAL/MOL
REMARK 927      BINDING AFFINITY PREDICTED BY RF-SCORE:    0.00 PKD
ROOT
HETATM    1  C   UNL     1     -10.866  11.284  64.524  1.00  0.00    -0.354 C  
HETATM    2  C   UNL     1     -11.865  12.017  63.642  1.00  0.00    -0.602 C  
ENDROOT
BRANCH   2   3
HETATM    3  C   UNL     1     -11.946  13.499  64.006  1.00  0.00    -0.449 C  
BRANCH   3   4
HETATM    4  N   UNL     1     -10.962  13.807  65.052  1.00  0.00    -0.337 NA 
HETATM    5  H   UNL     1     -10.070  14.097  64.651  1.00  0.00     0.000 HD 
BRANCH   4   6
HETATM    6  C   UNL     1     -11.482  14.817  66.008  1.00  0.00    -0.316 C  
HETATM    7  C   UNL     1     -11.842  14.220  67.368  1.00  0.00    -0.441 C  
BRANCH   6   8
HETATM    8  C   UNL     1     -10.441  15.942  66.213  1.00  0.00    -0.318 C  
HETATM    9  O   UNL     1     -10.123  16.645  65.257  1.00  0.00    -0.575 OA 
HETATM   10  N   UNL     1     -10.013  16.096  67.526  1.00  0.00    -0.239 N  
HETATM   11  H   UNL     1     -10.446  15.493  68.225  1.00  0.00     0.000 HD 
BRANCH  10  12
HETATM   12  C   UNL     1      -9.034  17.011  67.992  1.00  0.00    -0.230 A  
HETATM   13  C   UNL     1      -7.748  16.575  68.352  1.00  0.00    -0.189 A  
HETATM   14  C   UNL     1      -6.772  17.462  68.810  1.00  0.00    -0.219 A  
HETATM   15  C   UNL     1      -7.065  18.812  68.928  1.00  0.00    -0.333 A  
HETATM   16  C   UNL     1      -8.339  19.268  68.595  1.00  0.00    -0.407 A  
HETATM   17  C   UNL     1      -9.333  18.381  68.123  1.00  0.00    -0.331 A  
HETATM   18  C   UNL     1     -10.681  18.976  67.802  1.00  0.00    -0.441 C  
ENDBRANCH  10  12
ENDBRANCH   6   8
ENDBRANCH   4   6
ENDBRANCH   3   4
ENDBRANCH   2   3
TORSDOF 5
ENDMDL
MODEL       76
REMARK 921   NORMALIZED FREE ENERGY PREDICTED BY IDOCK:   -4.49 KCAL/MOL
REMARK 922        TOTAL FREE ENERGY PREDICTED BY IDOCK:   -6.14 KCAL/MOL
REMARK 923 INTER-LIGAND FREE ENERGY PREDICTED BY IDOCK:   -5.72 KCAL/MOL
REMARK 924 INTRA-LIGAND FREE ENERGY PREDICTED BY IDOCK:   -0.42 KCAL/MOL
REMARK 927      BINDING AFFINITY PREDICTED BY RF-SCORE:    0.00 PKD
ROOT
HETATM    1  C   UNL     1     -10.612   5.114  71.662  1.00  0.00    -0.226 C  
HETATM    2  C   UNL     1     -11.687   5.951  72.339  1.00  0.00    -0.307 C  
ENDROOT
BRANCH   2   3
HETATM    3  C   UNL     1     -12.184   7.067  71.422  1.00  0.00    -0.366 C  
BRANCH   3   4
HETATM    4  N   UNL     1     -12.525   8.251  72.221  1.00  0.00    -0.446 NA 
HETATM    5  H   UNL     1     -12.566   8.030  73.216  1.00  0.00     0.000 HD 
BRANCH   4   6
HETATM    6  C   UNL     1     -11.593   9.375  71.952  1.00  0.00    -0.278 C  
HETATM    7  C   UNL     1     -10.179   8.908  71.608  1.00  0.00    -0.415 C  
BRANCH   6   8
HETATM    8  C   UNL     1     -12.130  10.246  70.793  1.00  0.00    -0.353 C  
HETATM    9  O   UNL     1     -13.343  10.307  70.602  1.00  0.00    -0.311 OA 
HETATM   10  N   UNL     1     -11.153  10.959  70.109  1.00  0.00    -0.455 N  
HETATM   11  H   UNL     1     -10.197  10.874  70.453  1.00  0.00     0.000 HD 
BRANCH  10  12
HETATM   12  C   UNL     1     -11.353  11.793  68.980  1.00  0.00    -0.278 A  
HETATM   13  C   UNL     1     -11.704  13.145  69.130  1.00  0.00    -0.376 A  
HETATM   14  C   UNL     1     -11.901  13.981  68.029  1.00  0.00    -0.403 A  
HETATM   15  C   UNL     1     -11.763  13.477  66.745  1.00  0.00    -0.430 A  
HETATM   16  C   UNL     1     -11.434  12.135  66.567  1.00  0.00    -0.430 A  
HETATM   17  C   UNL     1     -11.224  11.281  67.674  1.00  0.00    -0.357 A  
HETATM   18  C   UNL     1     -10.884   9.844  67.371  1.00  0.00    -0.293 C  
ENDBRANCH  10  12
ENDBRANCH   6   8
ENDBRANCH   4   6
ENDBRANCH   3   4
ENDBRANCH   2   3
TORSDOF 5
ENDMDL
MODEL       77
REMARK 921   NORMALIZED FREE ENERGY PREDICTED BY IDOCK:   -4.49 KCAL/MOL
REMARK 922        TOTAL FREE ENERGY PREDICTED BY IDOCK:   -6.14 KCAL/MOL
REMARK 923 INTER-LIGAND FREE ENERGY PREDICTED BY IDOCK:   -5.71 KCAL/MOL
REMARK 924 INTRA-LIGAND FREE ENERGY PREDICTED BY IDOCK:   -0.43 KCAL/MOL
REMARK 927      BINDING AFFINITY PREDICTED BY RF-SCORE:    0.00 PKD
ROOT
HETATM    1  C   UNL     1     -11.965  14.390  64.473  1.00  0.00    -0.487 C  
HETATM    2  C   UNL     1     -12.475  13.518  65.611  1.00  0.00    -0.528 C  
ENDROOT
BRANCH   2   3
HETATM    3  C   UNL     1     -11.450  12.451  65.996  1.00  0.00    -0.382 C  
BRANCH   3   4
HETATM    4  N   UNL     1     -11.957  11.665  67.129  1.00  0.00    -0.574 NA 
HETATM    5  H   UNL     1     -12.047  10.678  66.887  1.00  0.00     0.000 HD 
BRANCH   4   6
HETATM    6  C   UNL     1     -11.118  11.853  68.339  1.00  0.00    -0.244 C  
HETATM    7  C   UNL     1     -11.793  12.715  69.404  1.00  0.00    -0.356 C  
BRANCH   6   8
HETATM    8  C   UNL     1     -10.759  10.481  68.956  1.00  0.00    -0.225 C  
HETATM    9  O   UNL     1     -10.557   9.523  68.213  1.00  0.00    -0.214 OA 
HETATM   10  N   UNL     1     -10.622  10.491  70.339  1.00  0.00    -0.414 N  
HETATM   11  H   UNL     1     -10.729  11.392  70.805  1.00  0.00     0.000 HD 
BRANCH  10  12
HETATM   12  C   UNL     1     -10.347   9.373  71.168  1.00  0.00    -0.307 A  
HETATM   13  C   UNL     1      -9.069   8.792  71.202  1.00  0.00    -0.285 A  
HETATM   14  C   UNL     1      -8.782   7.694  72.014  1.00  0.00    -0.146 A  
HETATM   15  C   UNL     1      -9.776   7.141  72.807  1.00  0.00    -0.190 A  
HETATM   16  C   UNL     1     -11.058   7.686  72.778  1.00  0.00    -0.437 A  
HETATM   17  C   UNL     1     -11.359   8.803  71.965  1.00  0.00    -0.441 A  
HETATM   18  C   UNL     1     -12.779   9.307  71.999  1.00  0.00    -0.479 C  
ENDBRANCH  10  12
ENDBRANCH   6   8
ENDBRANCH   4   6
ENDBRANCH   3   4
ENDBRANCH   2   3
TORSDOF 5
ENDMDL
MODEL       78
REMARK 921   NORMALIZED FREE ENERGY PREDICTED BY IDOCK:   -4.47 KCAL/MOL
REMARK 922        TOTAL FREE ENERGY PREDICTED BY IDOCK:   -6.12 KCAL/MOL
REMARK 923 INTER-LIGAND FREE ENERGY PREDICTED BY IDOCK:   -5.51 KCAL/MOL
REMARK 924 INTRA-LIGAND FREE ENERGY PREDICTED BY IDOCK:   -0.61 KCAL/MOL
REMARK 927      BINDING AFFINITY PREDICTED BY RF-SCORE:    0.00 PKD
ROOT
HETATM    1  C   UNL     1     -13.241  11.423  71.812  1.00  0.00    -0.472 C  
HETATM    2  C   UNL     1     -13.047   9.922  71.972  1.00  0.00    -0.545 C  
ENDROOT
BRANCH   2   3
HETATM    3  C   UNL     1     -11.657   9.488  71.507  1.00  0.00    -0.395 C  
BRANCH   3   4
HETATM    4  N   UNL     1     -11.722   9.029  70.114  1.00  0.00    -0.463 NA 
HETATM    5  H   UNL     1     -12.660   9.134  69.729  1.00  0.00     0.000 HD 
BRANCH   4   6
HETATM    6  C   UNL     1     -10.708   9.711  69.270  1.00  0.00    -0.226 C  
HETATM    7  C   UNL     1     -10.276   8.875  68.066  1.00  0.00    -0.262 C  
BRANCH   6   8
HETATM    8  C   UNL     1     -11.258  11.066  68.769  1.00  0.00    -0.266 C  
HETATM    9  O   UNL     1     -12.200  11.077  67.980  1.00  0.00    -0.520 OA 
HETATM   10  N   UNL     1     -10.656  12.179  69.344  1.00  0.00    -0.434 N  
HETATM   11  H   UNL     1      -9.949  12.001  70.058  1.00  0.00     0.000 HD 
BRANCH  10  12
HETATM   12  C   UNL     1     -10.926  13.537  69.038  1.00  0.00    -0.225 A  
HETATM   13  C   UNL     1     -11.835  14.286  69.802  1.00  0.00    -0.380 A  
HETATM   14  C   UNL     1     -12.110  15.625  69.516  1.00  0.00    -0.307 A  
HETATM   15  C   UNL     1     -11.485  16.245  68.445  1.00  0.00    -0.243 A  
HETATM   16  C   UNL     1     -10.593  15.519  67.658  1.00  0.00    -0.291 A  
HETATM   17  C   UNL     1     -10.301  14.166  67.943  1.00  0.00    -0.234 A  
HETATM   18  C   UNL     1      -9.330  13.470  67.023  1.00  0.00    -0.247 C  
ENDBRANCH  10  12
ENDBRANCH   6   8
ENDBRANCH   4   6
ENDBRANCH   3   4
ENDBRANCH   2   3
TORSDOF 5
ENDMDL
MODEL       79
REMARK 921   NORMALIZED FREE ENERGY PREDICTED BY IDOCK:   -4.46 KCAL/MOL
REMARK 922        TOTAL FREE ENERGY PREDICTED BY IDOCK:   -6.11 KCAL/MOL
REMARK 923 INTER-LIGAND FREE ENERGY PREDICTED BY IDOCK:   -5.78 KCAL/MOL
REMARK 924 INTRA-LIGAND FREE ENERGY PREDICTED BY IDOCK:   -0.33 KCAL/MOL
REMARK 927      BINDING AFFINITY PREDICTED BY RF-SCORE:    0.00 PKD
ROOT
HETATM    1  C   UNL     1      -9.028   9.403  69.990  1.00  0.00    -0.234 C  
HETATM    2  C   UNL     1     -10.453   9.758  69.594  1.00  0.00    -0.263 C  
ENDROOT
BRANCH   2   3
HETATM    3  C   UNL     1     -10.634   9.728  68.077  1.00  0.00    -0.243 C  
BRANCH   3   4
HETATM    4  N   UNL     1     -11.464  10.863  67.654  1.00  0.00    -0.518 NA 
HETATM    5  H   UNL     1     -12.312  10.935  68.216  1.00  0.00     0.000 HD 
BRANCH   4   6
HETATM    6  C   UNL     1     -10.695  12.133  67.665  1.00  0.00    -0.220 C  
HETATM    7  C   UNL     1     -10.343  12.629  66.263  1.00  0.00    -0.269 C  
BRANCH   6   8
HETATM    8  C   UNL     1     -11.493  13.233  68.401  1.00  0.00    -0.314 C  
HETATM    9  O   UNL     1     -12.040  14.117  67.746  1.00  0.00    -0.367 OA 
HETATM   10  N   UNL     1     -11.578  13.058  69.777  1.00  0.00    -0.470 N  
HETATM   11  H   UNL     1     -11.148  12.216  70.161  1.00  0.00     0.000 HD 
BRANCH  10  12
HETATM   12  C   UNL     1     -12.203  13.933  70.702  1.00  0.00    -0.373 A  
HETATM   13  C   UNL     1     -13.434  13.605  71.292  1.00  0.00    -0.196 A  
HETATM   14  C   UNL     1     -14.061  14.454  72.207  1.00  0.00    -0.609 A  
HETATM   15  C   UNL     1     -13.472  15.662  72.545  1.00  0.00    -0.630 A  
HETATM   16  C   UNL     1     -12.260  16.021  71.959  1.00  0.00    -0.582 A  
HETATM   17  C   UNL     1     -11.612  15.167  71.038  1.00  0.00    -0.390 A  
HETATM   18  C   UNL     1     -10.310  15.655  70.455  1.00  0.00    -0.106 C  
ENDBRANCH  10  12
ENDBRANCH   6   8
ENDBRANCH   4   6
ENDBRANCH   3   4
ENDBRANCH   2   3
TORSDOF 5
ENDMDL
MODEL       80
REMARK 921   NORMALIZED FREE ENERGY PREDICTED BY IDOCK:   -4.46 KCAL/MOL
REMARK 922        TOTAL FREE ENERGY PREDICTED BY IDOCK:   -6.11 KCAL/MOL
REMARK 923 INTER-LIGAND FREE ENERGY PREDICTED BY IDOCK:   -5.66 KCAL/MOL
REMARK 924 INTRA-LIGAND FREE ENERGY PREDICTED BY IDOCK:   -0.44 KCAL/MOL
REMARK 927      BINDING AFFINITY PREDICTED BY RF-SCORE:    0.00 PKD
ROOT
HETATM    1  C   UNL     1     -10.139  10.130  67.905  1.00  0.00    -0.207 C  
HETATM    2  C   UNL     1     -11.245  11.092  67.497  1.00  0.00    -0.369 C  
ENDROOT
BRANCH   2   3
HETATM    3  C   UNL     1     -11.891  11.749  68.716  1.00  0.00    -0.320 C  
BRANCH   3   4
HETATM    4  N   UNL     1     -12.561  10.727  69.532  1.00  0.00    -0.599 NA 
HETATM    5  H   UNL     1     -12.385   9.789  69.172  1.00  0.00     0.000 HD 
BRANCH   4   6
HETATM    6  C   UNL     1     -12.182  10.840  70.963  1.00  0.00    -0.380 C  
HETATM    7  C   UNL     1     -13.047  11.838  71.731  1.00  0.00    -0.480 C  
BRANCH   6   8
HETATM    8  C   UNL     1     -12.279   9.459  71.650  1.00  0.00    -0.390 C  
HETATM    9  O   UNL     1     -13.356   9.094  72.115  1.00  0.00    -0.396 OA 
HETATM   10  N   UNL     1     -11.109   8.710  71.602  1.00  0.00    -0.281 N  
HETATM   11  H   UNL     1     -10.324   9.116  71.093  1.00  0.00     0.000 HD 
BRANCH  10  12
HETATM   12  C   UNL     1     -10.898   7.436  72.189  1.00  0.00    -0.235 A  
HETATM   13  C   UNL     1     -10.598   7.308  73.555  1.00  0.00    -0.408 A  
HETATM   14  C   UNL     1     -10.391   6.061  74.149  1.00  0.00    -0.301 A  
HETATM   15  C   UNL     1     -10.468   4.909  73.383  1.00  0.00    -0.267 A  
HETATM   16  C   UNL     1     -10.744   5.009  72.021  1.00  0.00    -0.205 A  
HETATM   17  C   UNL     1     -10.964   6.264  71.410  1.00  0.00    -0.327 A  
HETATM   18  C   UNL     1     -11.244   6.261  69.928  1.00  0.00    -0.498 C  
ENDBRANCH  10  12
ENDBRANCH   6   8
ENDBRANCH   4   6
ENDBRANCH   3   4
ENDBRANCH   2   3
TORSDOF 5
ENDMDL
MODEL       81
REMARK 921   NORMALIZED FREE ENERGY PREDICTED BY IDOCK:   -4.46 KCAL/MOL
REMARK 922        TOTAL FREE ENERGY PREDICTED BY IDOCK:   -6.10 KCAL/MOL
REMARK 923 INTER-LIGAND FREE ENERGY PREDICTED BY IDOCK:   -5.61 KCAL/MOL
REMARK 924 INTRA-LIGAND FREE ENERGY PREDICTED BY IDOCK:   -0.48 KCAL/MOL
REMARK 927      BINDING AFFINITY PREDICTED BY RF-SCORE:    0.00 PKD
ROOT
HETATM    1  C   UNL     1     -12.233  12.038  63.345  1.00  0.00    -0.627 C  
HETATM    2  C   UNL     1     -10.755  11.938  63.691  1.00  0.00    -0.502 C  
ENDROOT
BRANCH   2   3
HETATM    3  C   UNL     1     -10.523  10.998  64.874  1.00  0.00    -0.303 C  
BRANCH   3   4
HETATM    4  N   UNL     1     -10.250  11.783  66.085  1.00  0.00    -0.214 NA 
HETATM    5  H   UNL     1      -9.645  12.580  65.884  1.00  0.00     0.000 HD 
BRANCH   4   6
HETATM    6  C   UNL     1     -11.506  12.208  66.752  1.00  0.00    -0.356 C  
HETATM    7  C   UNL     1     -11.625  11.689  68.184  1.00  0.00    -0.389 C  
BRANCH   6   8
HETATM    8  C   UNL     1     -11.605  13.751  66.766  1.00  0.00    -0.370 C  
HETATM    9  O   UNL     1     -12.623  14.290  66.338  1.00  0.00    -0.396 OA 
HETATM   10  N   UNL     1     -10.522  14.391  67.356  1.00  0.00    -0.259 N  
HETATM   11  H   UNL     1      -9.795  13.795  67.752  1.00  0.00     0.000 HD 
BRANCH  10  12
HETATM   12  C   UNL     1     -10.325  15.792  67.462  1.00  0.00    -0.280 A  
HETATM   13  C   UNL     1      -9.718  16.519  66.426  1.00  0.00    -0.305 A  
HETATM   14  C   UNL     1      -9.520  17.899  66.513  1.00  0.00    -0.307 A  
HETATM   15  C   UNL     1      -9.917  18.584  67.651  1.00  0.00    -0.362 A  
HETATM   16  C   UNL     1     -10.505  17.883  68.702  1.00  0.00    -0.269 A  
HETATM   17  C   UNL     1     -10.718  16.488  68.623  1.00  0.00    -0.334 A  
HETATM   18  C   UNL     1     -11.350  15.825  69.820  1.00  0.00    -0.339 C  
ENDBRANCH  10  12
ENDBRANCH   6   8
ENDBRANCH   4   6
ENDBRANCH   3   4
ENDBRANCH   2   3
TORSDOF 5
ENDMDL
MODEL       82
REMARK 921   NORMALIZED FREE ENERGY PREDICTED BY IDOCK:   -4.44 KCAL/MOL
REMARK 922        TOTAL FREE ENERGY PREDICTED BY IDOCK:   -6.08 KCAL/MOL
REMARK 923 INTER-LIGAND FREE ENERGY PREDICTED BY IDOCK:   -5.67 KCAL/MOL
REMARK 924 INTRA-LIGAND FREE ENERGY PREDICTED BY IDOCK:   -0.41 KCAL/MOL
REMARK 927      BINDING AFFINITY PREDICTED BY RF-SCORE:    0.00 PKD
ROOT
HETATM    1  C   UNL     1     -14.401   8.604  72.194  1.00  0.00    -0.518 C  
HETATM    2  C   UNL     1     -14.103   7.311  71.449  1.00  0.00    -0.456 C  
ENDROOT
BRANCH   2   3
HETATM    3  C   UNL     1     -12.604   7.016  71.423  1.00  0.00    -0.386 C  
BRANCH   3   4
HETATM    4  N   UNL     1     -12.124   7.011  70.035  1.00  0.00    -0.606 NA 
HETATM    5  H   UNL     1     -12.643   7.673  69.458  1.00  0.00     0.000 HD 
BRANCH   4   6
HETATM    6  C   UNL     1     -10.662   7.260  69.965  1.00  0.00    -0.245 C  
HETATM    7  C   UNL     1      -9.956   6.379  68.936  1.00  0.00    -0.168 C  
BRANCH   6   8
HETATM    8  C   UNL     1     -10.390   8.744  69.626  1.00  0.00    -0.213 C  
HETATM    9  O   UNL     1      -9.407   9.300  70.111  1.00  0.00    -0.192 OA 
HETATM   10  N   UNL     1     -11.279   9.297  68.711  1.00  0.00    -0.447 N  
HETATM   11  H   UNL     1     -11.988   8.674  68.326  1.00  0.00     0.000 HD 
BRANCH  10  12
HETATM   12  C   UNL     1     -11.297  10.641  68.260  1.00  0.00    -0.289 A  
HETATM   13  C   UNL     1     -10.804  10.986  66.991  1.00  0.00    -0.334 A  
HETATM   14  C   UNL     1     -10.818  12.305  66.529  1.00  0.00    -0.297 A  
HETATM   15  C   UNL     1     -11.317  13.315  67.337  1.00  0.00    -0.337 A  
HETATM   16  C   UNL     1     -11.795  13.002  68.608  1.00  0.00    -0.353 A  
HETATM   17  C   UNL     1     -11.794  11.671  69.083  1.00  0.00    -0.390 A  
HETATM   18  C   UNL     1     -12.322  11.444  70.477  1.00  0.00    -0.439 C  
ENDBRANCH  10  12
ENDBRANCH   6   8
ENDBRANCH   4   6
ENDBRANCH   3   4
ENDBRANCH   2   3
TORSDOF 5
ENDMDL
MODEL       83
REMARK 921   NORMALIZED FREE ENERGY PREDICTED BY IDOCK:   -4.43 KCAL/MOL
REMARK 922        TOTAL FREE ENERGY PREDICTED BY IDOCK:   -6.07 KCAL/MOL
REMARK 923 INTER-LIGAND FREE ENERGY PREDICTED BY IDOCK:   -5.84 KCAL/MOL
REMARK 924 INTRA-LIGAND FREE ENERGY PREDICTED BY IDOCK:   -0.22 KCAL/MOL
REMARK 927      BINDING AFFINITY PREDICTED BY RF-SCORE:    0.00 PKD
ROOT
HETATM    1  C   UNL     1     -12.571  15.309  73.800  1.00  0.00    -0.736 C  
HETATM    2  C   UNL     1     -13.491  15.503  72.604  1.00  0.00    -0.642 C  
ENDROOT
BRANCH   2   3
HETATM    3  C   UNL     1     -13.011  14.701  71.395  1.00  0.00    -0.334 C  
BRANCH   3   4
HETATM    4  N   UNL     1     -13.050  15.544  70.194  1.00  0.00    -0.682 NA 
HETATM    5  H   UNL     1     -13.291  16.509  70.422  1.00  0.00     0.000 HD 
BRANCH   4   6
HETATM    6  C   UNL     1     -11.777  15.468  69.434  1.00  0.00    -0.367 C  
HETATM    7  C   UNL     1     -10.551  15.778  70.291  1.00  0.00    -0.297 C  
BRANCH   6   8
HETATM    8  C   UNL     1     -11.612  14.061  68.812  1.00  0.00    -0.331 C  
HETATM    9  O   UNL     1     -11.984  13.869  67.657  1.00  0.00    -0.366 OA 
HETATM   10  N   UNL     1     -10.965  13.143  69.630  1.00  0.00    -0.456 N  
HETATM   11  H   UNL     1     -10.630  13.486  70.531  1.00  0.00     0.000 HD 
BRANCH  10  12
HETATM   12  C   UNL     1     -10.723  11.776  69.339  1.00  0.00     0.003 A  
HETATM   13  C   UNL     1      -9.845  11.399  68.310  1.00  0.00    -0.202 A  
HETATM   14  C   UNL     1      -9.593  10.058  68.012  1.00  0.00    -0.154 A  
HETATM   15  C   UNL     1     -10.228   9.059  68.733  1.00  0.00    -0.226 A  
HETATM   16  C   UNL     1     -11.120   9.406  69.746  1.00  0.00    -0.193 A  
HETATM   17  C   UNL     1     -11.377  10.759  70.062  1.00  0.00    -0.397 A  
HETATM   18  C   UNL     1     -12.367  11.025  71.167  1.00  0.00    -0.465 C  
ENDBRANCH  10  12
ENDBRANCH   6   8
ENDBRANCH   4   6
ENDBRANCH   3   4
ENDBRANCH   2   3
TORSDOF 5
ENDMDL
MODEL       84
REMARK 921   NORMALIZED FREE ENERGY PREDICTED BY IDOCK:   -4.42 KCAL/MOL
REMARK 922        TOTAL FREE ENERGY PREDICTED BY IDOCK:   -6.06 KCAL/MOL
REMARK 923 INTER-LIGAND FREE ENERGY PREDICTED BY IDOCK:   -5.72 KCAL/MOL
REMARK 924 INTRA-LIGAND FREE ENERGY PREDICTED BY IDOCK:   -0.34 KCAL/MOL
REMARK 927      BINDING AFFINITY PREDICTED BY RF-SCORE:    0.00 PKD
ROOT
HETATM    1  C   UNL     1     -11.133   6.441  71.085  1.00  0.00    -0.344 C  
HETATM    2  C   UNL     1     -11.022   6.533  69.570  1.00  0.00    -0.398 C  
ENDROOT
BRANCH   2   3
HETATM    3  C   UNL     1     -10.408   7.864  69.137  1.00  0.00    -0.219 C  
BRANCH   3   4
HETATM    4  N   UNL     1     -10.843   8.930  70.050  1.00  0.00    -0.231 NA 
HETATM    5  H   UNL     1     -10.585   8.723  71.015  1.00  0.00     0.000 HD 
BRANCH   4   6
HETATM    6  C   UNL     1     -10.328  10.255  69.622  1.00  0.00    -0.248 C  
HETATM    7  C   UNL     1      -8.868  10.211  69.174  1.00  0.00    -0.179 C  
BRANCH   6   8
HETATM    8  C   UNL     1     -11.191  10.814  68.467  1.00  0.00    -0.279 C  
HETATM    9  O   UNL     1     -12.408  10.898  68.615  1.00  0.00    -0.501 OA 
HETATM   10  N   UNL     1     -10.464  11.252  67.366  1.00  0.00    -0.203 N  
HETATM   11  H   UNL     1      -9.448  11.202  67.437  1.00  0.00     0.000 HD 
BRANCH  10  12
HETATM   12  C   UNL     1     -10.995  11.762  66.154  1.00  0.00    -0.307 A  
HETATM   13  C   UNL     1     -11.914  12.824  66.155  1.00  0.00    -0.476 A  
HETATM   14  C   UNL     1     -12.443  13.340  64.970  1.00  0.00    -0.498 A  
HETATM   15  C   UNL     1     -12.073  12.793  63.751  1.00  0.00    -0.596 A  
HETATM   16  C   UNL     1     -11.178  11.726  63.723  1.00  0.00    -0.518 A  
HETATM   17  C   UNL     1     -10.629  11.200  64.915  1.00  0.00    -0.356 A  
HETATM   18  C   UNL     1      -9.679  10.037  64.774  1.00  0.00    -0.363 C  
ENDBRANCH  10  12
ENDBRANCH   6   8
ENDBRANCH   4   6
ENDBRANCH   3   4
ENDBRANCH   2   3
TORSDOF 5
ENDMDL
MODEL       85
REMARK 921   NORMALIZED FREE ENERGY PREDICTED BY IDOCK:   -4.41 KCAL/MOL
REMARK 922        TOTAL FREE ENERGY PREDICTED BY IDOCK:   -6.04 KCAL/MOL
REMARK 923 INTER-LIGAND FREE ENERGY PREDICTED BY IDOCK:   -5.57 KCAL/MOL
REMARK 924 INTRA-LIGAND FREE ENERGY PREDICTED BY IDOCK:   -0.47 KCAL/MOL
REMARK 927      BINDING AFFINITY PREDICTED BY RF-SCORE:    0.00 PKD
ROOT
HETATM    1  C   UNL     1     -13.849  13.928  72.270  1.00  0.00    -0.669 C  
HETATM    2  C   UNL     1     -13.307  15.134  71.516  1.00  0.00    -0.533 C  
ENDROOT
BRANCH   2   3
HETATM    3  C   UNL     1     -12.371  14.709  70.386  1.00  0.00    -0.339 C  
BRANCH   3   4
HETATM    4  N   UNL     1     -12.486  15.652  69.266  1.00  0.00    -0.553 NA 
HETATM    5  H   UNL     1     -12.636  16.606  69.595  1.00  0.00     0.000 HD 
BRANCH   4   6
HETATM    6  C   UNL     1     -11.313  15.568  68.361  1.00  0.00    -0.354 C  
HETATM    7  C   UNL     1      -9.988  15.446  69.112  1.00  0.00    -0.241 C  
BRANCH   6   8
HETATM    8  C   UNL     1     -11.462  14.360  67.407  1.00  0.00    -0.358 C  
HETATM    9  O   UNL     1     -12.500  14.230  66.762  1.00  0.00    -0.376 OA 
HETATM   10  N   UNL     1     -10.332  13.556  67.315  1.00  0.00    -0.241 N  
HETATM   11  H   UNL     1      -9.512  13.854  67.844  1.00  0.00     0.000 HD 
BRANCH  10  12
HETATM   12  C   UNL     1     -10.204  12.363  66.559  1.00  0.00    -0.227 A  
HETATM   13  C   UNL     1     -10.118  12.399  65.158  1.00  0.00    -0.276 A  
HETATM   14  C   UNL     1      -9.989  11.233  64.399  1.00  0.00    -0.338 A  
HETATM   15  C   UNL     1      -9.954   9.999  65.028  1.00  0.00    -0.320 A  
HETATM   16  C   UNL     1     -10.057   9.934  66.416  1.00  0.00    -0.308 A  
HETATM   17  C   UNL     1     -10.180  11.107  67.196  1.00  0.00    -0.235 A  
HETATM   18  C   UNL     1     -10.296  10.924  68.688  1.00  0.00    -0.206 C  
ENDBRANCH  10  12
ENDBRANCH   6   8
ENDBRANCH   4   6
ENDBRANCH   3   4
ENDBRANCH   2   3
TORSDOF 5
ENDMDL
MODEL       86
REMARK 921   NORMALIZED FREE ENERGY PREDICTED BY IDOCK:   -4.41 KCAL/MOL
REMARK 922        TOTAL FREE ENERGY PREDICTED BY IDOCK:   -6.03 KCAL/MOL
REMARK 923 INTER-LIGAND FREE ENERGY PREDICTED BY IDOCK:   -5.60 KCAL/MOL
REMARK 924 INTRA-LIGAND FREE ENERGY PREDICTED BY IDOCK:   -0.43 KCAL/MOL
REMARK 927      BINDING AFFINITY PREDICTED BY RF-SCORE:    0.00 PKD
ROOT
HETATM    1  C   UNL     1     -12.388  12.766  64.982  1.00  0.00    -0.559 C  
HETATM    2  C   UNL     1     -12.360  13.503  66.313  1.00  0.00    -0.440 C  
ENDROOT
BRANCH   2   3
HETATM    3  C   UNL     1     -11.436  12.810  67.314  1.00  0.00    -0.337 C  
BRANCH   3   4
HETATM    4  N   UNL     1     -11.802  11.393  67.426  1.00  0.00    -0.601 NA 
HETATM    5  H   UNL     1     -12.593  11.162  66.825  1.00  0.00     0.000 HD 
BRANCH   4   6
HETATM    6  C   UNL     1     -10.640  10.509  67.157  1.00  0.00    -0.264 C  
HETATM    7  C   UNL     1      -9.430  11.264  66.610  1.00  0.00    -0.204 C  
BRANCH   6   8
HETATM    8  C   UNL     1     -10.226   9.765  68.448  1.00  0.00    -0.185 C  
HETATM    9  O   UNL     1      -9.074   9.878  68.862  1.00  0.00    -0.142 OA 
HETATM   10  N   UNL     1     -11.260   9.080  69.074  1.00  0.00    -0.421 N  
HETATM   11  H   UNL     1     -12.186   9.162  68.654  1.00  0.00     0.000 HD 
BRANCH  10  12
HETATM   12  C   UNL     1     -11.158   8.277  70.239  1.00  0.00    -0.219 A  
HETATM   13  C   UNL     1     -11.119   8.857  71.517  1.00  0.00    -0.397 A  
HETATM   14  C   UNL     1     -11.021   8.081  72.674  1.00  0.00    -0.448 A  
HETATM   15  C   UNL     1     -10.947   6.700  72.577  1.00  0.00    -0.280 A  
HETATM   16  C   UNL     1     -10.964   6.101  71.319  1.00  0.00    -0.340 A  
HETATM   17  C   UNL     1     -11.071   6.875  70.141  1.00  0.00    -0.344 A  
HETATM   18  C   UNL     1     -11.069   6.127  68.832  1.00  0.00    -0.417 C  
ENDBRANCH  10  12
ENDBRANCH   6   8
ENDBRANCH   4   6
ENDBRANCH   3   4
ENDBRANCH   2   3
TORSDOF 5
ENDMDL
MODEL       87
REMARK 921   NORMALIZED FREE ENERGY PREDICTED BY IDOCK:   -4.39 KCAL/MOL
REMARK 922        TOTAL FREE ENERGY PREDICTED BY IDOCK:   -6.02 KCAL/MOL
REMARK 923 INTER-LIGAND FREE ENERGY PREDICTED BY IDOCK:   -5.49 KCAL/MOL
REMARK 924 INTRA-LIGAND FREE ENERGY PREDICTED BY IDOCK:   -0.53 KCAL/MOL
REMARK 927      BINDING AFFINITY PREDICTED BY RF-SCORE:    0.00 PKD
ROOT
HETATM    1  C   UNL     1     -10.925  15.772  67.981  1.00  0.00    -0.330 C  
HETATM    2  C   UNL     1     -11.147  14.958  66.715  1.00  0.00    -0.335 C  
ENDROOT
BRANCH   2   3
HETATM    3  C   UNL     1      -9.827  14.427  66.156  1.00  0.00    -0.320 C  
BRANCH   3   4
HETATM    4  N   UNL     1     -10.035  13.093  65.578  1.00  0.00    -0.426 NA 
HETATM    5  H   UNL     1      -9.617  13.019  64.650  1.00  0.00     0.000 HD 
BRANCH   4   6
HETATM    6  C   UNL     1      -9.540  12.026  66.484  1.00  0.00    -0.224 C  
HETATM    7  C   UNL     1      -8.357  12.472  67.341  1.00  0.00    -0.182 C  
BRANCH   6   8
HETATM    8  C   UNL     1     -10.680  11.544  67.411  1.00  0.00    -0.232 C  
HETATM    9  O   UNL     1     -11.824  11.476  66.969  1.00  0.00    -0.568 OA 
HETATM   10  N   UNL     1     -10.263  11.150  68.677  1.00  0.00    -0.198 N  
HETATM   11  H   UNL     1      -9.260  11.176  68.859  1.00  0.00     0.000 HD 
BRANCH  10  12
HETATM   12  C   UNL     1     -11.094  10.713  69.740  1.00  0.00    -0.295 A  
HETATM   13  C   UNL     1     -12.019  11.583  70.341  1.00  0.00    -0.459 A  
HETATM   14  C   UNL     1     -12.847  11.169  71.387  1.00  0.00    -0.544 A  
HETATM   15  C   UNL     1     -12.757   9.871  71.866  1.00  0.00    -0.501 A  
HETATM   16  C   UNL     1     -11.834   8.994  71.301  1.00  0.00    -0.379 A  
HETATM   17  C   UNL     1     -10.997   9.399  70.237  1.00  0.00    -0.305 A  
HETATM   18  C   UNL     1     -10.025   8.375  69.706  1.00  0.00    -0.191 C  
ENDBRANCH  10  12
ENDBRANCH   6   8
ENDBRANCH   4   6
ENDBRANCH   3   4
ENDBRANCH   2   3
TORSDOF 5
ENDMDL
MODEL       88
REMARK 921   NORMALIZED FREE ENERGY PREDICTED BY IDOCK:   -4.39 KCAL/MOL
REMARK 922        TOTAL FREE ENERGY PREDICTED BY IDOCK:   -6.02 KCAL/MOL
REMARK 923 INTER-LIGAND FREE ENERGY PREDICTED BY IDOCK:   -5.67 KCAL/MOL
REMARK 924 INTRA-LIGAND FREE ENERGY PREDICTED BY IDOCK:   -0.35 KCAL/MOL
REMARK 927      BINDING AFFINITY PREDICTED BY RF-SCORE:    0.00 PKD
ROOT
HETATM    1  C   UNL     1     -12.343  13.415  70.872  1.00  0.00    -0.436 C  
HETATM    2  C   UNL     1     -12.155  12.757  69.513  1.00  0.00    -0.265 C  
ENDROOT
BRANCH   2   3
HETATM    3  C   UNL     1     -11.857  11.265  69.654  1.00  0.00    -0.360 C  
BRANCH   3   4
HETATM    4  N   UNL     1     -13.015  10.582  70.245  1.00  0.00    -0.461 NA 
HETATM    5  H   UNL     1     -13.416   9.901  69.601  1.00  0.00     0.000 HD 
BRANCH   4   6
HETATM    6  C   UNL     1     -12.671   9.959  71.549  1.00  0.00    -0.415 C  
HETATM    7  C   UNL     1     -13.874   9.320  72.240  1.00  0.00    -0.492 C  
BRANCH   6   8
HETATM    8  C   UNL     1     -11.576   8.885  71.353  1.00  0.00    -0.312 C  
HETATM    9  O   UNL     1     -10.432   9.119  71.736  1.00  0.00    -0.352 OA 
HETATM   10  N   UNL     1     -12.033   7.690  70.812  1.00  0.00    -0.461 N  
HETATM   11  H   UNL     1     -13.035   7.619  70.635  1.00  0.00     0.000 HD 
BRANCH  10  12
HETATM   12  C   UNL     1     -11.245   6.557  70.481  1.00  0.00    -0.344 A  
HETATM   13  C   UNL     1     -10.811   6.337  69.164  1.00  0.00    -0.403 A  
HETATM   14  C   UNL     1     -10.032   5.229  68.822  1.00  0.00    -0.243 A  
HETATM   15  C   UNL     1      -9.679   4.306  69.794  1.00  0.00    -0.290 A  
HETATM   16  C   UNL     1     -10.113   4.491  71.105  1.00  0.00    -0.218 A  
HETATM   17  C   UNL     1     -10.895   5.612  71.465  1.00  0.00    -0.297 A  
HETATM   18  C   UNL     1     -11.322   5.711  72.907  1.00  0.00    -0.325 C  
ENDBRANCH  10  12
ENDBRANCH   6   8
ENDBRANCH   4   6
ENDBRANCH   3   4
ENDBRANCH   2   3
TORSDOF 5
ENDMDL
MODEL       89
REMARK 921   NORMALIZED FREE ENERGY PREDICTED BY IDOCK:   -4.36 KCAL/MOL
REMARK 922        TOTAL FREE ENERGY PREDICTED BY IDOCK:   -5.98 KCAL/MOL
REMARK 923 INTER-LIGAND FREE ENERGY PREDICTED BY IDOCK:   -5.54 KCAL/MOL
REMARK 924 INTRA-LIGAND FREE ENERGY PREDICTED BY IDOCK:   -0.44 KCAL/MOL
REMARK 927      BINDING AFFINITY PREDICTED BY RF-SCORE:    0.00 PKD
ROOT
HETATM    1  C   UNL     1     -11.161   9.820  70.571  1.00  0.00    -0.381 C  
HETATM    2  C   UNL     1     -12.246   9.678  71.628  1.00  0.00    -0.484 C  
ENDROOT
BRANCH   2   3
HETATM    3  C   UNL     1     -13.099  10.942  71.724  1.00  0.00    -0.459 C  
BRANCH   3   4
HETATM    4  N   UNL     1     -12.452  12.033  70.984  1.00  0.00    -0.341 NA 
HETATM    5  H   UNL     1     -12.308  11.786  70.005  1.00  0.00     0.000 HD 
BRANCH   4   6
HETATM    6  C   UNL     1     -13.208  13.304  71.117  1.00  0.00    -0.070 C  
HETATM    7  C   UNL     1     -13.467  13.693  72.572  1.00  0.00    -0.675 C  
BRANCH   6   8
HETATM    8  C   UNL     1     -12.446  14.453  70.418  1.00  0.00    -0.357 C  
HETATM    9  O   UNL     1     -12.826  15.610  70.581  1.00  0.00    -0.463 OA 
HETATM   10  N   UNL     1     -11.321  14.049  69.709  1.00  0.00    -0.406 N  
HETATM   11  H   UNL     1     -11.084  13.058  69.749  1.00  0.00     0.000 HD 
BRANCH  10  12
HETATM   12  C   UNL     1     -10.468  14.878  68.937  1.00  0.00    -0.242 A  
HETATM   13  C   UNL     1      -9.431  15.611  69.537  1.00  0.00    -0.275 A  
HETATM   14  C   UNL     1      -8.580  16.429  68.790  1.00  0.00    -0.250 A  
HETATM   15  C   UNL     1      -8.757  16.542  67.420  1.00  0.00    -0.195 A  
HETATM   16  C   UNL     1      -9.790  15.841  66.802  1.00  0.00    -0.256 A  
HETATM   17  C   UNL     1     -10.653  15.003  67.546  1.00  0.00    -0.265 A  
HETATM   18  C   UNL     1     -11.745  14.299  66.782  1.00  0.00    -0.424 C  
ENDBRANCH  10  12
ENDBRANCH   6   8
ENDBRANCH   4   6
ENDBRANCH   3   4
ENDBRANCH   2   3
TORSDOF 5
ENDMDL
MODEL       90
REMARK 921   NORMALIZED FREE ENERGY PREDICTED BY IDOCK:   -4.35 KCAL/MOL
REMARK 922        TOTAL FREE ENERGY PREDICTED BY IDOCK:   -5.96 KCAL/MOL
REMARK 923 INTER-LIGAND FREE ENERGY PREDICTED BY IDOCK:   -5.95 KCAL/MOL
REMARK 924 INTRA-LIGAND FREE ENERGY PREDICTED BY IDOCK:   -0.02 KCAL/MOL
REMARK 927      BINDING AFFINITY PREDICTED BY RF-SCORE:    0.00 PKD
ROOT
HETATM    1  C   UNL     1      -9.893   5.564  71.959  1.00  0.00    -0.204 C  
HETATM    2  C   UNL     1     -11.213   6.254  71.647  1.00  0.00    -0.337 C  
ENDROOT
BRANCH   2   3
HETATM    3  C   UNL     1     -11.424   7.479  72.537  1.00  0.00    -0.327 C  
BRANCH   3   4
HETATM    4  N   UNL     1     -11.003   8.690  71.820  1.00  0.00    -0.300 NA 
HETATM    5  H   UNL     1     -10.256   8.490  71.155  1.00  0.00     0.000 HD 
BRANCH   4   6
HETATM    6  C   UNL     1     -12.153   9.359  71.161  1.00  0.00    -0.328 C  
HETATM    7  C   UNL     1     -13.317   9.623  72.115  1.00  0.00    -0.545 C  
BRANCH   6   8
HETATM    8  C   UNL     1     -11.702  10.699  70.535  1.00  0.00    -0.356 C  
HETATM    9  O   UNL     1     -10.736  10.712  69.776  1.00  0.00    -0.256 OA 
HETATM   10  N   UNL     1     -12.515  11.782  70.848  1.00  0.00    -0.363 N  
HETATM   11  H   UNL     1     -13.340  11.588  71.417  1.00  0.00     0.000 HD 
BRANCH  10  12
HETATM   12  C   UNL     1     -12.314  13.130  70.455  1.00  0.00    -0.304 A  
HETATM   13  C   UNL     1     -11.692  13.444  69.236  1.00  0.00    -0.383 A  
HETATM   14  C   UNL     1     -11.489  14.766  68.833  1.00  0.00    -0.321 A  
HETATM   15  C   UNL     1     -11.895  15.808  69.651  1.00  0.00    -0.352 A  
HETATM   16  C   UNL     1     -12.497  15.524  70.875  1.00  0.00    -0.494 A  
HETATM   17  C   UNL     1     -12.716  14.191  71.291  1.00  0.00    -0.434 A  
HETATM   18  C   UNL     1     -13.364  13.994  72.637  1.00  0.00    -0.643 C  
ENDBRANCH  10  12
ENDBRANCH   6   8
ENDBRANCH   4   6
ENDBRANCH   3   4
ENDBRANCH   2   3
TORSDOF 5
ENDMDL
MODEL       91
REMARK 921   NORMALIZED FREE ENERGY PREDICTED BY IDOCK:   -4.33 KCAL/MOL
REMARK 922        TOTAL FREE ENERGY PREDICTED BY IDOCK:   -5.93 KCAL/MOL
REMARK 923 INTER-LIGAND FREE ENERGY PREDICTED BY IDOCK:   -5.48 KCAL/MOL
REMARK 924 INTRA-LIGAND FREE ENERGY PREDICTED BY IDOCK:   -0.45 KCAL/MOL
REMARK 927      BINDING AFFINITY PREDICTED BY RF-SCORE:    0.00 PKD
ROOT
HETATM    1  C   UNL     1     -10.153   5.262  72.081  1.00  0.00    -0.241 C  
HETATM    2  C   UNL     1     -11.433   6.075  71.959  1.00  0.00    -0.343 C  
ENDROOT
BRANCH   2   3
HETATM    3  C   UNL     1     -11.349   7.369  72.767  1.00  0.00    -0.308 C  
BRANCH   3   4
HETATM    4  N   UNL     1     -10.803   8.443  71.928  1.00  0.00    -0.278 NA 
HETATM    5  H   UNL     1     -10.021   8.113  71.362  1.00  0.00     0.000 HD 
BRANCH   4   6
HETATM    6  C   UNL     1     -11.856   9.066  71.088  1.00  0.00    -0.301 C  
HETATM    7  C   UNL     1     -12.951   9.745  71.910  1.00  0.00    -0.535 C  
BRANCH   6   8
HETATM    8  C   UNL     1     -11.229  10.106  70.131  1.00  0.00    -0.310 C  
HETATM    9  O   UNL     1     -10.005  10.169  70.033  1.00  0.00    -0.240 OA 
HETATM   10  N   UNL     1     -12.151  10.839  69.394  1.00  0.00    -0.495 N  
HETATM   11  H   UNL     1     -13.134  10.601  69.521  1.00  0.00     0.000 HD 
BRANCH  10  12
HETATM   12  C   UNL     1     -11.861  11.887  68.483  1.00  0.00    -0.297 A  
HETATM   13  C   UNL     1     -11.542  11.614  67.143  1.00  0.00    -0.291 A  
HETATM   14  C   UNL     1     -11.257  12.634  66.232  1.00  0.00    -0.354 A  
HETATM   15  C   UNL     1     -11.274  13.957  66.647  1.00  0.00    -0.328 A  
HETATM   16  C   UNL     1     -11.568  14.253  67.976  1.00  0.00    -0.364 A  
HETATM   17  C   UNL     1     -11.866  13.231  68.906  1.00  0.00    -0.367 A  
HETATM   18  C   UNL     1     -12.159  13.660  70.321  1.00  0.00    -0.427 C  
ENDBRANCH  10  12
ENDBRANCH   6   8
ENDBRANCH   4   6
ENDBRANCH   3   4
ENDBRANCH   2   3
TORSDOF 5
ENDMDL
MODEL       92
REMARK 921   NORMALIZED FREE ENERGY PREDICTED BY IDOCK:   -4.32 KCAL/MOL
REMARK 922        TOTAL FREE ENERGY PREDICTED BY IDOCK:   -5.92 KCAL/MOL
REMARK 923 INTER-LIGAND FREE ENERGY PREDICTED BY IDOCK:   -5.25 KCAL/MOL
REMARK 924 INTRA-LIGAND FREE ENERGY PREDICTED BY IDOCK:   -0.68 KCAL/MOL
REMARK 927      BINDING AFFINITY PREDICTED BY RF-SCORE:    0.00 PKD
ROOT
HETATM    1  C   UNL     1     -12.780  11.896  63.516  1.00  0.00    -0.530 C  
HETATM    2  C   UNL     1     -11.882  13.112  63.340  1.00  0.00    -0.490 C  
ENDROOT
BRANCH   2   3
HETATM    3  C   UNL     1     -12.313  14.259  64.253  1.00  0.00    -0.377 C  
BRANCH   3   4
HETATM    4  N   UNL     1     -12.526  13.754  65.615  1.00  0.00    -0.486 NA 
HETATM    5  H   UNL     1     -12.671  12.744  65.621  1.00  0.00     0.000 HD 
BRANCH   4   6
HETATM    6  C   UNL     1     -11.418  14.149  66.521  1.00  0.00    -0.358 C  
HETATM    7  C   UNL     1     -11.908  14.793  67.817  1.00  0.00    -0.322 C  
BRANCH   6   8
HETATM    8  C   UNL     1     -10.551  12.917  66.869  1.00  0.00    -0.253 C  
HETATM    9  O   UNL     1      -9.414  13.087  67.304  1.00  0.00    -0.210 OA 
HETATM   10  N   UNL     1     -11.199  11.697  66.721  1.00  0.00    -0.310 N  
HETATM   11  H   UNL     1     -12.179  11.728  66.440  1.00  0.00     0.000 HD 
BRANCH  10  12
HETATM   12  C   UNL     1     -10.635  10.411  66.921  1.00  0.00    -0.230 A  
HETATM   13  C   UNL     1     -10.795   9.731  68.139  1.00  0.00    -0.264 A  
HETATM   14  C   UNL     1     -10.248   8.463  68.351  1.00  0.00    -0.239 A  
HETATM   15  C   UNL     1      -9.514   7.850  67.347  1.00  0.00    -0.179 A  
HETATM   16  C   UNL     1      -9.324   8.512  66.136  1.00  0.00    -0.279 A  
HETATM   17  C   UNL     1      -9.879   9.791  65.906  1.00  0.00    -0.352 A  
HETATM   18  C   UNL     1      -9.603  10.423  64.566  1.00  0.00    -0.369 C  
ENDBRANCH  10  12
ENDBRANCH   6   8
ENDBRANCH   4   6
ENDBRANCH   3   4
ENDBRANCH   2   3
TORSDOF 5
ENDMDL
MODEL       93
REMARK 921   NORMALIZED FREE ENERGY PREDICTED BY IDOCK:   -4.31 KCAL/MOL
REMARK 922        TOTAL FREE ENERGY PREDICTED BY IDOCK:   -5.91 KCAL/MOL
REMARK 923 INTER-LIGAND FREE ENERGY PREDICTED BY IDOCK:   -5.45 KCAL/MOL
REMARK 924 INTRA-LIGAND FREE ENERGY PREDICTED BY IDOCK:   -0.46 KCAL/MOL
REMARK 927      BINDING AFFINITY PREDICTED BY RF-SCORE:    0.00 PKD
ROOT
HETATM    1  C   UNL     1     -11.391  12.431  63.515  1.00  0.00    -0.553 C  
HETATM    2  C   UNL     1     -12.532  12.326  64.517  1.00  0.00    -0.464 C  
ENDROOT
BRANCH   2   3
HETATM    3  C   UNL     1     -12.382  13.351  65.641  1.00  0.00    -0.470 C  
BRANCH   3   4
HETATM    4  N   UNL     1     -11.902  12.684  66.858  1.00  0.00    -0.463 NA 
HETATM    5  H   UNL     1     -11.723  11.693  66.695  1.00  0.00     0.000 HD 
BRANCH   4   6
HETATM    6  C   UNL     1     -10.709  13.367  67.418  1.00  0.00    -0.262 C  
HETATM    7  C   UNL     1      -9.520  13.372  66.459  1.00  0.00    -0.252 C  
BRANCH   6   8
HETATM    8  C   UNL     1     -11.058  14.826  67.793  1.00  0.00    -0.299 C  
HETATM    9  O   UNL     1     -12.083  15.053  68.431  1.00  0.00    -0.242 OA 
HETATM   10  N   UNL     1     -10.099  15.760  67.420  1.00  0.00    -0.242 N  
HETATM   11  H   UNL     1      -9.253  15.400  66.979  1.00  0.00     0.000 HD 
BRANCH  10  12
HETATM   12  C   UNL     1     -10.178  17.166  67.592  1.00  0.00    -0.329 A  
HETATM   13  C   UNL     1     -10.032  17.750  68.861  1.00  0.00    -0.332 A  
HETATM   14  C   UNL     1     -10.104  19.133  69.047  1.00  0.00    -0.365 A  
HETATM   15  C   UNL     1     -10.339  19.965  67.963  1.00  0.00    -0.547 A  
HETATM   16  C   UNL     1     -10.507  19.409  66.697  1.00  0.00    -0.568 A  
HETATM   17  C   UNL     1     -10.428  18.013  66.494  1.00  0.00    -0.341 A  
HETATM   18  C   UNL     1     -10.637  17.515  65.087  1.00  0.00     0.275 C  
ENDBRANCH  10  12
ENDBRANCH   6   8
ENDBRANCH   4   6
ENDBRANCH   3   4
ENDBRANCH   2   3
TORSDOF 5
ENDMDL
MODEL       94
REMARK 921   NORMALIZED FREE ENERGY PREDICTED BY IDOCK:   -4.31 KCAL/MOL
REMARK 922        TOTAL FREE ENERGY PREDICTED BY IDOCK:   -5.90 KCAL/MOL
REMARK 923 INTER-LIGAND FREE ENERGY PREDICTED BY IDOCK:   -5.65 KCAL/MOL
REMARK 924 INTRA-LIGAND FREE ENERGY PREDICTED BY IDOCK:   -0.25 KCAL/MOL
REMARK 927      BINDING AFFINITY PREDICTED BY RF-SCORE:    0.00 PKD
ROOT
HETATM    1  C   UNL     1      -6.014  11.144  68.164  1.00  0.00    -0.045 C  
HETATM    2  C   UNL     1      -7.413  11.093  67.566  1.00  0.00    -0.104 C  
ENDROOT
BRANCH   2   3
HETATM    3  C   UNL     1      -8.420  10.512  68.557  1.00  0.00    -0.131 C  
BRANCH   3   4
HETATM    4  N   UNL     1      -9.342  11.566  69.001  1.00  0.00    -0.408 NA 
HETATM    5  H   UNL     1      -8.837  12.387  69.336  1.00  0.00     0.000 HD 
BRANCH   4   6
HETATM    6  C   UNL     1     -10.312  11.923  67.935  1.00  0.00    -0.198 C  
HETATM    7  C   UNL     1     -10.970  10.702  67.294  1.00  0.00    -0.348 C  
BRANCH   6   8
HETATM    8  C   UNL     1     -11.414  12.846  68.506  1.00  0.00    -0.310 C  
HETATM    9  O   UNL     1     -12.160  13.440  67.730  1.00  0.00    -0.338 OA 
HETATM   10  N   UNL     1     -11.499  12.850  69.893  1.00  0.00    -0.515 N  
HETATM   11  H   UNL     1     -10.867  12.227  70.394  1.00  0.00     0.000 HD 
BRANCH  10  12
HETATM   12  C   UNL     1     -12.378  13.635  70.682  1.00  0.00    -0.368 A  
HETATM   13  C   UNL     1     -12.395  15.035  70.573  1.00  0.00    -0.411 A  
HETATM   14  C   UNL     1     -13.256  15.823  71.340  1.00  0.00    -0.396 A  
HETATM   15  C   UNL     1     -14.118  15.224  72.247  1.00  0.00    -0.651 A  
HETATM   16  C   UNL     1     -14.108  13.838  72.388  1.00  0.00    -0.593 A  
HETATM   17  C   UNL     1     -13.246  13.030  71.611  1.00  0.00    -0.426 A  
HETATM   18  C   UNL     1     -13.307  11.542  71.851  1.00  0.00    -0.408 C  
ENDBRANCH  10  12
ENDBRANCH   6   8
ENDBRANCH   4   6
ENDBRANCH   3   4
ENDBRANCH   2   3
TORSDOF 5
ENDMDL
MODEL       95
REMARK 921   NORMALIZED FREE ENERGY PREDICTED BY IDOCK:   -4.30 KCAL/MOL
REMARK 922        TOTAL FREE ENERGY PREDICTED BY IDOCK:   -5.90 KCAL/MOL
REMARK 923 INTER-LIGAND FREE ENERGY PREDICTED BY IDOCK:   -5.50 KCAL/MOL
REMARK 924 INTRA-LIGAND FREE ENERGY PREDICTED BY IDOCK:   -0.40 KCAL/MOL
REMARK 927      BINDING AFFINITY PREDICTED BY RF-SCORE:    0.00 PKD
ROOT
HETATM    1  C   UNL     1     -13.981  13.782  72.295  1.00  0.00    -0.672 C  
HETATM    2  C   UNL     1     -13.016  12.833  71.600  1.00  0.00    -0.402 C  
ENDROOT
BRANCH   2   3
HETATM    3  C   UNL     1     -13.409  11.374  71.827  1.00  0.00    -0.264 C  
BRANCH   3   4
HETATM    4  N   UNL     1     -12.949  10.555  70.698  1.00  0.00    -0.412 NA 
HETATM    5  H   UNL     1     -12.821  11.117  69.857  1.00  0.00     0.000 HD 
BRANCH   4   6
HETATM    6  C   UNL     1     -11.717   9.800  71.041  1.00  0.00    -0.370 C  
HETATM    7  C   UNL     1     -11.993   8.341  71.402  1.00  0.00    -0.333 C  
BRANCH   6   8
HETATM    8  C   UNL     1     -10.720   9.845  69.860  1.00  0.00    -0.280 C  
HETATM    9  O   UNL     1      -9.514   9.824  70.093  1.00  0.00    -0.240 OA 
HETATM   10  N   UNL     1     -11.315   9.828  68.604  1.00  0.00    -0.493 N  
HETATM   11  H   UNL     1     -12.331   9.748  68.578  1.00  0.00     0.000 HD 
BRANCH  10  12
HETATM   12  C   UNL     1     -10.649   9.909  67.354  1.00  0.00    -0.277 A  
HETATM   13  C   UNL     1     -10.470  11.143  66.708  1.00  0.00    -0.297 A  
HETATM   14  C   UNL     1      -9.814  11.241  65.479  1.00  0.00    -0.274 A  
HETATM   15  C   UNL     1      -9.331  10.099  64.860  1.00  0.00    -0.310 A  
HETATM   16  C   UNL     1      -9.513   8.860  65.470  1.00  0.00    -0.162 A  
HETATM   17  C   UNL     1     -10.168   8.748  66.718  1.00  0.00    -0.354 A  
HETATM   18  C   UNL     1     -10.322   7.360  67.286  1.00  0.00    -0.356 C  
ENDBRANCH  10  12
ENDBRANCH   6   8
ENDBRANCH   4   6
ENDBRANCH   3   4
ENDBRANCH   2   3
TORSDOF 5
ENDMDL
MODEL       96
REMARK 921   NORMALIZED FREE ENERGY PREDICTED BY IDOCK:   -4.29 KCAL/MOL
REMARK 922        TOTAL FREE ENERGY PREDICTED BY IDOCK:   -5.88 KCAL/MOL
REMARK 923 INTER-LIGAND FREE ENERGY PREDICTED BY IDOCK:   -5.43 KCAL/MOL
REMARK 924 INTRA-LIGAND FREE ENERGY PREDICTED BY IDOCK:   -0.45 KCAL/MOL
REMARK 927      BINDING AFFINITY PREDICTED BY RF-SCORE:    0.00 PKD
ROOT
HETATM    1  C   UNL     1     -12.429   8.529  72.619  1.00  0.00    -0.276 C  
HETATM    2  C   UNL     1     -13.343   9.429  71.801  1.00  0.00    -0.489 C  
ENDROOT
BRANCH   2   3
HETATM    3  C   UNL     1     -12.604  10.672  71.307  1.00  0.00    -0.427 C  
BRANCH   3   4
HETATM    4  N   UNL     1     -12.106  10.443  69.944  1.00  0.00    -0.467 NA 
HETATM    5  H   UNL     1     -12.549  11.071  69.274  1.00  0.00     0.000 HD 
BRANCH   4   6
HETATM    6  C   UNL     1     -10.626  10.541  69.883  1.00  0.00    -0.211 C  
HETATM    7  C   UNL     1      -9.930   9.196  70.085  1.00  0.00    -0.231 C  
BRANCH   6   8
HETATM    8  C   UNL     1     -10.187  11.133  68.524  1.00  0.00    -0.198 C  
HETATM    9  O   UNL     1      -9.149  11.788  68.462  1.00  0.00    -0.190 OA 
HETATM   10  N   UNL     1     -11.005  10.787  67.455  1.00  0.00    -0.293 N  
HETATM   11  H   UNL     1     -11.779  10.154  67.655  1.00  0.00     0.000 HD 
BRANCH  10  12
HETATM   12  C   UNL     1     -10.870  11.225  66.112  1.00  0.00    -0.222 A  
HETATM   13  C   UNL     1     -10.119  10.489  65.182  1.00  0.00    -0.383 A  
HETATM   14  C   UNL     1      -9.979  10.904  63.856  1.00  0.00    -0.400 A  
HETATM   15  C   UNL     1     -10.580  12.079  63.432  1.00  0.00    -0.478 A  
HETATM   16  C   UNL     1     -11.315  12.839  64.340  1.00  0.00    -0.394 A  
HETATM   17  C   UNL     1     -11.471  12.424  65.683  1.00  0.00    -0.412 A  
HETATM   18  C   UNL     1     -12.275  13.325  66.585  1.00  0.00    -0.359 C  
ENDBRANCH  10  12
ENDBRANCH   6   8
ENDBRANCH   4   6
ENDBRANCH   3   4
ENDBRANCH   2   3
TORSDOF 5
ENDMDL
MODEL       97
REMARK 921   NORMALIZED FREE ENERGY PREDICTED BY IDOCK:   -4.29 KCAL/MOL
REMARK 922        TOTAL FREE ENERGY PREDICTED BY IDOCK:   -5.88 KCAL/MOL
REMARK 923 INTER-LIGAND FREE ENERGY PREDICTED BY IDOCK:   -5.43 KCAL/MOL
REMARK 924 INTRA-LIGAND FREE ENERGY PREDICTED BY IDOCK:   -0.45 KCAL/MOL
REMARK 927      BINDING AFFINITY PREDICTED BY RF-SCORE:    0.00 PKD
ROOT
HETATM    1  C   UNL     1      -6.650  19.959  69.751  1.00  0.00    -0.353 C  
HETATM    2  C   UNL     1      -6.032  18.568  69.749  1.00  0.00    -0.253 C  
ENDROOT
BRANCH   2   3
HETATM    3  C   UNL     1      -6.755  17.640  68.773  1.00  0.00    -0.230 C  
BRANCH   3   4
HETATM    4  N   UNL     1      -8.108  18.151  68.513  1.00  0.00    -0.301 NA 
HETATM    5  H   UNL     1      -8.292  19.004  69.040  1.00  0.00     0.000 HD 
BRANCH   4   6
HETATM    6  C   UNL     1      -8.345  18.347  67.061  1.00  0.00    -0.252 C  
HETATM    7  C   UNL     1      -7.205  17.814  66.194  1.00  0.00    -0.346 C  
BRANCH   6   8
HETATM    8  C   UNL     1      -9.662  17.656  66.638  1.00  0.00    -0.301 C  
HETATM    9  O   UNL     1     -10.655  18.345  66.415  1.00  0.00    -0.384 OA 
HETATM   10  N   UNL     1      -9.563  16.280  66.475  1.00  0.00    -0.247 N  
HETATM   11  H   UNL     1      -8.640  15.867  66.607  1.00  0.00     0.000 HD 
BRANCH  10  12
HETATM   12  C   UNL     1     -10.618  15.392  66.142  1.00  0.00    -0.316 A  
HETATM   13  C   UNL     1     -11.101  15.301  64.827  1.00  0.00    -0.407 A  
HETATM   14  C   UNL     1     -12.136  14.430  64.482  1.00  0.00    -0.498 A  
HETATM   15  C   UNL     1     -12.723  13.634  65.454  1.00  0.00    -0.500 A  
HETATM   16  C   UNL     1     -12.275  13.718  66.770  1.00  0.00    -0.440 A  
HETATM   17  C   UNL     1     -11.222  14.590  67.130  1.00  0.00    -0.341 A  
HETATM   18  C   UNL     1     -10.823  14.613  68.584  1.00  0.00    -0.261 C  
ENDBRANCH  10  12
ENDBRANCH   6   8
ENDBRANCH   4   6
ENDBRANCH   3   4
ENDBRANCH   2   3
TORSDOF 5
ENDMDL
MODEL       98
REMARK 921   NORMALIZED FREE ENERGY PREDICTED BY IDOCK:   -4.27 KCAL/MOL
REMARK 922        TOTAL FREE ENERGY PREDICTED BY IDOCK:   -5.86 KCAL/MOL
REMARK 923 INTER-LIGAND FREE ENERGY PREDICTED BY IDOCK:   -5.39 KCAL/MOL
REMARK 924 INTRA-LIGAND FREE ENERGY PREDICTED BY IDOCK:   -0.47 KCAL/MOL
REMARK 927      BINDING AFFINITY PREDICTED BY RF-SCORE:    0.00 PKD
ROOT
HETATM    1  C   UNL     1      -5.554  19.233  64.067  1.00  0.00    -0.336 C  
HETATM    2  C   UNL     1      -6.575  20.211  64.632  1.00  0.00    -0.221 C  
ENDROOT
BRANCH   2   3
HETATM    3  C   UNL     1      -7.234  19.660  65.896  1.00  0.00    -0.300 C  
BRANCH   3   4
HETATM    4  N   UNL     1      -7.582  18.247  65.697  1.00  0.00    -0.529 NA 
HETATM    5  H   UNL     1      -6.957  17.799  65.028  1.00  0.00     0.000 HD 
BRANCH   4   6
HETATM    6  C   UNL     1      -7.619  17.510  66.985  1.00  0.00    -0.207 C  
HETATM    7  C   UNL     1      -8.329  18.283  68.095  1.00  0.00    -0.296 C  
BRANCH   6   8
HETATM    8  C   UNL     1      -8.319  16.144  66.797  1.00  0.00    -0.264 C  
HETATM    9  O   UNL     1      -7.733  15.119  67.139  1.00  0.00    -0.200 OA 
HETATM   10  N   UNL     1      -9.619  16.226  66.313  1.00  0.00    -0.287 N  
HETATM   11  H   UNL     1      -9.997  17.162  66.167  1.00  0.00     0.000 HD 
BRANCH  10  12
HETATM   12  C   UNL     1     -10.473  15.137  66.001  1.00  0.00    -0.319 A  
HETATM   13  C   UNL     1     -10.414  14.506  64.748  1.00  0.00    -0.365 A  
HETATM   14  C   UNL     1     -11.246  13.431  64.426  1.00  0.00    -0.408 A  
HETATM   15  C   UNL     1     -12.168  12.969  65.352  1.00  0.00    -0.520 A  
HETATM   16  C   UNL     1     -12.260  13.591  66.596  1.00  0.00    -0.411 A  
HETATM   17  C   UNL     1     -11.419  14.674  66.936  1.00  0.00    -0.372 A  
HETATM   18  C   UNL     1     -11.609  15.282  68.303  1.00  0.00    -0.357 C  
ENDBRANCH  10  12
ENDBRANCH   6   8
ENDBRANCH   4   6
ENDBRANCH   3   4
ENDBRANCH   2   3
TORSDOF 5
ENDMDL
MODEL       99
REMARK 921   NORMALIZED FREE ENERGY PREDICTED BY IDOCK:   -4.26 KCAL/MOL
REMARK 922        TOTAL FREE ENERGY PREDICTED BY IDOCK:   -5.84 KCAL/MOL
REMARK 923 INTER-LIGAND FREE ENERGY PREDICTED BY IDOCK:   -5.82 KCAL/MOL
REMARK 924 INTRA-LIGAND FREE ENERGY PREDICTED BY IDOCK:   -0.02 KCAL/MOL
REMARK 927      BINDING AFFINITY PREDICTED BY RF-SCORE:    0.00 PKD
ROOT
HETATM    1  C   UNL     1      -8.800   9.431  70.220  1.00  0.00    -0.269 C  
HETATM    2  C   UNL     1      -9.194   8.730  71.511  1.00  0.00    -0.332 C  
ENDROOT
BRANCH   2   3
HETATM    3  C   UNL     1     -10.562   8.060  71.385  1.00  0.00    -0.216 C  
BRANCH   3   4
HETATM    4  N   UNL     1     -11.550   8.795  72.185  1.00  0.00    -0.372 NA 
HETATM    5  H   UNL     1     -11.128   9.598  72.653  1.00  0.00     0.000 HD 
BRANCH   4   6
HETATM    6  C   UNL     1     -12.721   9.198  71.366  1.00  0.00    -0.318 C  
HETATM    7  C   UNL     1     -14.037   8.618  71.883  1.00  0.00    -0.512 C  
BRANCH   6   8
HETATM    8  C   UNL     1     -12.834  10.739  71.320  1.00  0.00    -0.438 C  
HETATM    9  O   UNL     1     -13.465  11.320  72.201  1.00  0.00    -0.390 OA 
HETATM   10  N   UNL     1     -12.119  11.338  70.290  1.00  0.00    -0.349 N  
HETATM   11  H   UNL     1     -11.565  10.721  69.697  1.00  0.00     0.000 HD 
BRANCH  10  12
HETATM   12  C   UNL     1     -12.082  12.722  69.982  1.00  0.00    -0.285 A  
HETATM   13  C   UNL     1     -12.358  13.690  70.961  1.00  0.00    -0.436 A  
HETATM   14  C   UNL     1     -12.323  15.057  70.675  1.00  0.00    -0.404 A  
HETATM   15  C   UNL     1     -12.021  15.487  69.392  1.00  0.00    -0.358 A  
HETATM   16  C   UNL     1     -11.762  14.547  68.398  1.00  0.00    -0.367 A  
HETATM   17  C   UNL     1     -11.787  13.161  68.677  1.00  0.00    -0.363 A  
HETATM   18  C   UNL     1     -11.504  12.229  67.526  1.00  0.00    -0.414 C  
ENDBRANCH  10  12
ENDBRANCH   6   8
ENDBRANCH   4   6
ENDBRANCH   3   4
ENDBRANCH   2   3
TORSDOF 5
ENDMDL
MODEL      100
REMARK 921   NORMALIZED FREE ENERGY PREDICTED BY IDOCK:   -4.26 KCAL/MOL
REMARK 922        TOTAL FREE ENERGY PREDICTED BY IDOCK:   -5.84 KCAL/MOL
REMARK 923 INTER-LIGAND FREE ENERGY PREDICTED BY IDOCK:   -5.36 KCAL/MOL
REMARK 924 INTRA-LIGAND FREE ENERGY PREDICTED BY IDOCK:   -0.48 KCAL/MOL
REMARK 927      BINDING AFFINITY PREDICTED BY RF-SCORE:    0.00 PKD
ROOT
HETATM    1  C   UNL     1     -10.796   5.602  71.708  1.00  0.00    -0.301 C  
HETATM    2  C   UNL     1     -11.775   6.422  72.535  1.00  0.00    -0.222 C  
ENDROOT
BRANCH   2   3
HETATM    3  C   UNL     1     -11.269   7.849  72.742  1.00  0.00    -0.405 C  
BRANCH   3   4
HETATM    4  N   UNL     1     -11.972   8.761  71.831  1.00  0.00    -0.339 NA 
HETATM    5  H   UNL     1     -12.752   9.225  72.296  1.00  0.00     0.000 HD 
BRANCH   4   6
HETATM    6  C   UNL     1     -11.041   9.744  71.221  1.00  0.00    -0.304 C  
HETATM    7  C   UNL     1      -9.772   9.099  70.666  1.00  0.00    -0.314 C  
BRANCH   6   8
HETATM    8  C   UNL     1     -11.751  10.516  70.085  1.00  0.00    -0.326 C  
HETATM    9  O   UNL     1     -12.969  10.412  69.960  1.00  0.00    -0.123 OA 
HETATM   10  N   UNL     1     -10.916  11.338  69.339  1.00  0.00    -0.330 N  
HETATM   11  H   UNL     1      -9.939  11.387  69.629  1.00  0.00     0.000 HD 
BRANCH  10  12
HETATM   12  C   UNL     1     -11.285  12.118  68.213  1.00  0.00    -0.268 A  
HETATM   13  C   UNL     1     -11.218  11.591  66.913  1.00  0.00    -0.363 A  
HETATM   14  C   UNL     1     -11.582  12.344  65.794  1.00  0.00    -0.449 A  
HETATM   15  C   UNL     1     -12.011  13.653  65.952  1.00  0.00    -0.438 A  
HETATM   16  C   UNL     1     -12.068  14.206  67.229  1.00  0.00    -0.407 A  
HETATM   17  C   UNL     1     -11.711  13.452  68.370  1.00  0.00    -0.390 A  
HETATM   18  C   UNL     1     -11.797  14.149  69.703  1.00  0.00    -0.379 C  
ENDBRANCH  10  12
ENDBRANCH   6   8
ENDBRANCH   4   6
ENDBRANCH   3   4
ENDBRANCH   2   3
TORSDOF 5
ENDMDL
MODEL      101
REMARK 921   NORMALIZED FREE ENERGY PREDICTED BY IDOCK:   -4.24 KCAL/MOL
REMARK 922        TOTAL FREE ENERGY PREDICTED BY IDOCK:   -5.82 KCAL/MOL
REMARK 923 INTER-LIGAND FREE ENERGY PREDICTED BY IDOCK:   -5.33 KCAL/MOL
REMARK 924 INTRA-LIGAND FREE ENERGY PREDICTED BY IDOCK:   -0.48 KCAL/MOL
REMARK 927      BINDING AFFINITY PREDICTED BY RF-SCORE:    0.00 PKD
ROOT
HETATM    1  C   UNL     1     -10.548   6.069  70.554  1.00  0.00    -0.329 C  
HETATM    2  C   UNL     1     -11.844   6.623  71.127  1.00  0.00    -0.414 C  
ENDROOT
BRANCH   2   3
HETATM    3  C   UNL     1     -11.593   7.406  72.415  1.00  0.00    -0.284 C  
BRANCH   3   4
HETATM    4  N   UNL     1     -11.170   8.774  72.088  1.00  0.00    -0.362 NA 
HETATM    5  H   UNL     1     -10.164   8.825  71.926  1.00  0.00     0.000 HD 
BRANCH   4   6
HETATM    6  C   UNL     1     -11.934   9.319  70.938  1.00  0.00    -0.257 C  
HETATM    7  C   UNL     1     -12.876  10.455  71.333  1.00  0.00    -0.556 C  
BRANCH   6   8
HETATM    8  C   UNL     1     -10.964   9.827  69.847  1.00  0.00    -0.264 C  
HETATM    9  O   UNL     1      -9.784  10.018  70.135  1.00  0.00    -0.233 OA 
HETATM   10  N   UNL     1     -11.531   9.949  68.584  1.00  0.00    -0.505 N  
HETATM   11  H   UNL     1     -12.504   9.659  68.488  1.00  0.00     0.000 HD 
BRANCH  10  12
HETATM   12  C   UNL     1     -10.891  10.435  67.415  1.00  0.00    -0.286 A  
HETATM   13  C   UNL     1     -10.241   9.562  66.528  1.00  0.00    -0.307 A  
HETATM   14  C   UNL     1      -9.609  10.024  65.372  1.00  0.00    -0.342 A  
HETATM   15  C   UNL     1      -9.604  11.379  65.081  1.00  0.00    -0.258 A  
HETATM   16  C   UNL     1     -10.226  12.269  65.954  1.00  0.00    -0.274 A  
HETATM   17  C   UNL     1     -10.875  11.813  67.124  1.00  0.00    -0.303 A  
HETATM   18  C   UNL     1     -11.506  12.860  68.006  1.00  0.00    -0.361 C  
ENDBRANCH  10  12
ENDBRANCH   6   8
ENDBRANCH   4   6
ENDBRANCH   3   4
ENDBRANCH   2   3
TORSDOF 5
ENDMDL
MODEL      102
REMARK 921   NORMALIZED FREE ENERGY PREDICTED BY IDOCK:   -4.23 KCAL/MOL
REMARK 922        TOTAL FREE ENERGY PREDICTED BY IDOCK:   -5.81 KCAL/MOL
REMARK 923 INTER-LIGAND FREE ENERGY PREDICTED BY IDOCK:   -5.38 KCAL/MOL
REMARK 924 INTRA-LIGAND FREE ENERGY PREDICTED BY IDOCK:   -0.43 KCAL/MOL
REMARK 927      BINDING AFFINITY PREDICTED BY RF-SCORE:    0.00 PKD
ROOT
HETATM    1  C   UNL     1     -11.138   7.162  71.070  1.00  0.00    -0.287 C  
HETATM    2  C   UNL     1     -11.005   8.304  72.067  1.00  0.00    -0.374 C  
ENDROOT
BRANCH   2   3
HETATM    3  C   UNL     1     -11.885   9.490  71.676  1.00  0.00    -0.397 C  
BRANCH   3   4
HETATM    4  N   UNL     1     -11.772   9.736  70.232  1.00  0.00    -0.398 NA 
HETATM    5  H   UNL     1     -12.154   8.960  69.691  1.00  0.00     0.000 HD 
BRANCH   4   6
HETATM    6  C   UNL     1     -12.400  11.026  69.850  1.00  0.00    -0.288 C  
HETATM    7  C   UNL     1     -12.701  11.921  71.050  1.00  0.00    -0.354 C  
BRANCH   6   8
HETATM    8  C   UNL     1     -11.485  11.792  68.867  1.00  0.00    -0.297 C  
HETATM    9  O   UNL     1     -10.291  11.505  68.811  1.00  0.00    -0.203 OA 
HETATM   10  N   UNL     1     -12.147  12.712  68.063  1.00  0.00    -0.227 N  
HETATM   11  H   UNL     1     -13.161  12.766  68.165  1.00  0.00     0.000 HD 
BRANCH  10  12
HETATM   12  C   UNL     1     -11.555  13.583  67.114  1.00  0.00    -0.357 A  
HETATM   13  C   UNL     1     -11.186  13.123  65.839  1.00  0.00    -0.311 A  
HETATM   14  C   UNL     1     -10.605  13.969  64.891  1.00  0.00    -0.442 A  
HETATM   15  C   UNL     1     -10.367  15.298  65.204  1.00  0.00    -0.413 A  
HETATM   16  C   UNL     1     -10.706  15.776  66.469  1.00  0.00    -0.283 A  
HETATM   17  C   UNL     1     -11.302  14.932  67.433  1.00  0.00    -0.354 A  
HETATM   18  C   UNL     1     -11.618  15.545  68.774  1.00  0.00    -0.390 C  
ENDBRANCH  10  12
ENDBRANCH   6   8
ENDBRANCH   4   6
ENDBRANCH   3   4
ENDBRANCH   2   3
TORSDOF 5
ENDMDL
MODEL      103
REMARK 921   NORMALIZED FREE ENERGY PREDICTED BY IDOCK:   -4.22 KCAL/MOL
REMARK 922        TOTAL FREE ENERGY PREDICTED BY IDOCK:   -5.80 KCAL/MOL
REMARK 923 INTER-LIGAND FREE ENERGY PREDICTED BY IDOCK:   -5.35 KCAL/MOL
REMARK 924 INTRA-LIGAND FREE ENERGY PREDICTED BY IDOCK:   -0.45 KCAL/MOL
REMARK 927      BINDING AFFINITY PREDICTED BY RF-SCORE:    0.00 PKD
ROOT
HETATM    1  C   UNL     1     -10.096   9.653  66.451  1.00  0.00    -0.317 C  
HETATM    2  C   UNL     1      -9.246  10.543  65.557  1.00  0.00    -0.223 C  
ENDROOT
BRANCH   2   3
HETATM    3  C   UNL     1     -10.028  11.770  65.088  1.00  0.00    -0.253 C  
BRANCH   3   4
HETATM    4  N   UNL     1      -9.528  12.968  65.775  1.00  0.00    -0.470 NA 
HETATM    5  H   UNL     1      -8.706  13.351  65.308  1.00  0.00     0.000 HD 
BRANCH   4   6
HETATM    6  C   UNL     1     -10.593  13.992  65.926  1.00  0.00    -0.301 C  
HETATM    7  C   UNL     1     -11.495  13.739  67.133  1.00  0.00    -0.365 C  
BRANCH   6   8
HETATM    8  C   UNL     1      -9.964  15.398  66.055  1.00  0.00    -0.324 C  
HETATM    9  O   UNL     1      -8.844  15.599  65.591  1.00  0.00    -0.059 OA 
HETATM   10  N   UNL     1     -10.794  16.348  66.639  1.00  0.00    -0.165 N  
HETATM   11  H   UNL     1     -11.736  16.045  66.886  1.00  0.00     0.000 HD 
BRANCH  10  12
HETATM   12  C   UNL     1     -10.463  17.697  66.925  1.00  0.00    -0.290 A  
HETATM   13  C   UNL     1     -10.390  18.657  65.903  1.00  0.00    -0.358 A  
HETATM   14  C   UNL     1     -10.068  19.991  66.167  1.00  0.00    -0.588 A  
HETATM   15  C   UNL     1      -9.799  20.392  67.467  1.00  0.00    -0.564 A  
HETATM   16  C   UNL     1      -9.845  19.455  68.497  1.00  0.00    -0.509 A  
HETATM   17  C   UNL     1     -10.177  18.105  68.243  1.00  0.00    -0.402 A  
HETATM   18  C   UNL     1     -10.188  17.171  69.426  1.00  0.00    -0.164 C  
ENDBRANCH  10  12
ENDBRANCH   6   8
ENDBRANCH   4   6
ENDBRANCH   3   4
ENDBRANCH   2   3
TORSDOF 5
ENDMDL
MODEL      104
REMARK 921   NORMALIZED FREE ENERGY PREDICTED BY IDOCK:   -4.22 KCAL/MOL
REMARK 922        TOTAL FREE ENERGY PREDICTED BY IDOCK:   -5.79 KCAL/MOL
REMARK 923 INTER-LIGAND FREE ENERGY PREDICTED BY IDOCK:   -5.07 KCAL/MOL
REMARK 924 INTRA-LIGAND FREE ENERGY PREDICTED BY IDOCK:   -0.73 KCAL/MOL
REMARK 927      BINDING AFFINITY PREDICTED BY RF-SCORE:    0.00 PKD
ROOT
HETATM    1  C   UNL     1     -11.466  12.173  63.422  1.00  0.00    -0.501 C  
HETATM    2  C   UNL     1     -12.531  13.192  63.799  1.00  0.00    -0.368 C  
ENDROOT
BRANCH   2   3
HETATM    3  C   UNL     1     -11.909  14.440  64.427  1.00  0.00    -0.415 C  
BRANCH   3   4
HETATM    4  N   UNL     1     -10.512  14.169  64.787  1.00  0.00    -0.476 NA 
HETATM    5  H   UNL     1      -9.870  14.773  64.274  1.00  0.00     0.000 HD 
BRANCH   4   6
HETATM    6  C   UNL     1     -10.300  14.271  66.253  1.00  0.00    -0.294 C  
HETATM    7  C   UNL     1     -11.552  14.715  67.008  1.00  0.00    -0.385 C  
BRANCH   6   8
HETATM    8  C   UNL     1      -9.828  12.911  66.819  1.00  0.00    -0.241 C  
HETATM    9  O   UNL     1      -8.658  12.782  67.171  1.00  0.00    -0.191 OA 
HETATM   10  N   UNL     1     -10.834  11.961  66.946  1.00  0.00    -0.250 N  
HETATM   11  H   UNL     1     -11.779  12.256  66.698  1.00  0.00     0.000 HD 
BRANCH  10  12
HETATM   12  C   UNL     1     -10.680  10.622  67.388  1.00  0.00    -0.276 A  
HETATM   13  C   UNL     1     -10.159   9.634  66.537  1.00  0.00    -0.314 A  
HETATM   14  C   UNL     1      -9.997   8.312  66.957  1.00  0.00    -0.325 A  
HETATM   15  C   UNL     1     -10.367   7.945  68.242  1.00  0.00    -0.239 A  
HETATM   16  C   UNL     1     -10.905   8.902  69.100  1.00  0.00    -0.091 A  
HETATM   17  C   UNL     1     -11.066  10.244  68.689  1.00  0.00    -0.290 A  
HETATM   18  C   UNL     1     -11.668  11.196  69.691  1.00  0.00    -0.410 C  
ENDBRANCH  10  12
ENDBRANCH   6   8
ENDBRANCH   4   6
ENDBRANCH   3   4
ENDBRANCH   2   3
TORSDOF 5
ENDMDL
MODEL      105
REMARK 921   NORMALIZED FREE ENERGY PREDICTED BY IDOCK:   -4.20 KCAL/MOL
REMARK 922        TOTAL FREE ENERGY PREDICTED BY IDOCK:   -5.77 KCAL/MOL
REMARK 923 INTER-LIGAND FREE ENERGY PREDICTED BY IDOCK:   -5.29 KCAL/MOL
REMARK 924 INTRA-LIGAND FREE ENERGY PREDICTED BY IDOCK:   -0.48 KCAL/MOL
REMARK 927      BINDING AFFINITY PREDICTED BY RF-SCORE:    0.00 PKD
ROOT
HETATM    1  C   UNL     1     -12.022  13.063  63.345  1.00  0.00    -0.592 C  
HETATM    2  C   UNL     1     -12.646  12.810  64.710  1.00  0.00    -0.518 C  
ENDROOT
BRANCH   2   3
HETATM    3  C   UNL     1     -12.678  14.084  65.552  1.00  0.00    -0.486 C  
BRANCH   3   4
HETATM    4  N   UNL     1     -12.010  13.846  66.838  1.00  0.00    -0.420 NA 
HETATM    5  H   UNL     1     -12.538  13.194  67.418  1.00  0.00     0.000 HD 
BRANCH   4   6
HETATM    6  C   UNL     1     -10.609  13.390  66.647  1.00  0.00    -0.282 C  
HETATM    7  C   UNL     1      -9.603  14.540  66.647  1.00  0.00    -0.291 C  
BRANCH   6   8
HETATM    8  C   UNL     1     -10.221  12.383  67.754  1.00  0.00    -0.211 C  
HETATM    9  O   UNL     1      -9.231  12.606  68.446  1.00  0.00    -0.195 OA 
HETATM   10  N   UNL     1     -11.111  11.327  67.907  1.00  0.00    -0.245 N  
HETATM   11  H   UNL     1     -11.941  11.335  67.315  1.00  0.00     0.000 HD 
BRANCH  10  12
HETATM   12  C   UNL     1     -10.979  10.237  68.806  1.00  0.00    -0.243 A  
HETATM   13  C   UNL     1     -11.206  10.402  70.182  1.00  0.00    -0.393 A  
HETATM   14  C   UNL     1     -11.084   9.339  71.080  1.00  0.00    -0.411 A  
HETATM   15  C   UNL     1     -10.720   8.083  70.620  1.00  0.00    -0.235 A  
HETATM   16  C   UNL     1     -10.470   7.897  69.261  1.00  0.00    -0.221 A  
HETATM   17  C   UNL     1     -10.598   8.963  68.342  1.00  0.00    -0.190 A  
HETATM   18  C   UNL     1     -10.294   8.657  66.897  1.00  0.00    -0.355 C  
ENDBRANCH  10  12
ENDBRANCH   6   8
ENDBRANCH   4   6
ENDBRANCH   3   4
ENDBRANCH   2   3
TORSDOF 5
ENDMDL
MODEL      106
REMARK 921   NORMALIZED FREE ENERGY PREDICTED BY IDOCK:   -4.20 KCAL/MOL
REMARK 922        TOTAL FREE ENERGY PREDICTED BY IDOCK:   -5.76 KCAL/MOL
REMARK 923 INTER-LIGAND FREE ENERGY PREDICTED BY IDOCK:   -5.30 KCAL/MOL
REMARK 924 INTRA-LIGAND FREE ENERGY PREDICTED BY IDOCK:   -0.46 KCAL/MOL
REMARK 927      BINDING AFFINITY PREDICTED BY RF-SCORE:    0.00 PKD
ROOT
HETATM    1  C   UNL     1     -10.788  19.951  65.625  1.00  0.00    -0.299 C  
HETATM    2  C   UNL     1      -9.538  19.262  66.153  1.00  0.00    -0.353 C  
ENDROOT
BRANCH   2   3
HETATM    3  C   UNL     1      -9.840  18.452  67.414  1.00  0.00    -0.313 C  
BRANCH   3   4
HETATM    4  N   UNL     1      -9.407  17.062  67.225  1.00  0.00    -0.234 NA 
HETATM    5  H   UNL     1      -8.820  16.746  67.997  1.00  0.00     0.000 HD 
BRANCH   4   6
HETATM    6  C   UNL     1     -10.565  16.156  67.017  1.00  0.00    -0.292 C  
HETATM    7  C   UNL     1     -10.679  15.656  65.578  1.00  0.00    -0.403 C  
BRANCH   6   8
HETATM    8  C   UNL     1     -10.465  14.938  67.965  1.00  0.00    -0.246 C  
HETATM    9  O   UNL     1      -9.375  14.645  68.451  1.00  0.00    -0.189 OA 
HETATM   10  N   UNL     1     -11.680  14.323  68.240  1.00  0.00    -0.325 N  
HETATM   11  H   UNL     1     -12.513  14.747  67.832  1.00  0.00     0.000 HD 
BRANCH  10  12
HETATM   12  C   UNL     1     -11.878  13.164  69.033  1.00  0.00    -0.313 A  
HETATM   13  C   UNL     1     -12.254  13.264  70.382  1.00  0.00    -0.404 A  
HETATM   14  C   UNL     1     -12.457  12.132  71.176  1.00  0.00    -0.337 A  
HETATM   15  C   UNL     1     -12.274  10.868  70.637  1.00  0.00    -0.472 A  
HETATM   16  C   UNL     1     -11.882  10.741  69.306  1.00  0.00    -0.359 A  
HETATM   17  C   UNL     1     -11.682  11.878  68.491  1.00  0.00    -0.388 A  
HETATM   18  C   UNL     1     -11.248  11.630  67.069  1.00  0.00    -0.376 C  
ENDBRANCH  10  12
ENDBRANCH   6   8
ENDBRANCH   4   6
ENDBRANCH   3   4
ENDBRANCH   2   3
TORSDOF 5
ENDMDL
MODEL      107
REMARK 921   NORMALIZED FREE ENERGY PREDICTED BY IDOCK:   -4.17 KCAL/MOL
REMARK 922        TOTAL FREE ENERGY PREDICTED BY IDOCK:   -5.73 KCAL/MOL
REMARK 923 INTER-LIGAND FREE ENERGY PREDICTED BY IDOCK:   -5.28 KCAL/MOL
REMARK 924 INTRA-LIGAND FREE ENERGY PREDICTED BY IDOCK:   -0.45 KCAL/MOL
REMARK 927      BINDING AFFINITY PREDICTED BY RF-SCORE:    0.00 PKD
ROOT
HETATM    1  C   UNL     1     -11.868   7.085  70.740  1.00  0.00    -0.401 C  
HETATM    2  C   UNL     1     -11.247   6.166  69.698  1.00  0.00    -0.488 C  
ENDROOT
BRANCH   2   3
HETATM    3  C   UNL     1     -10.462   6.958  68.653  1.00  0.00    -0.195 C  
BRANCH   3   4
HETATM    4  N   UNL     1     -10.858   8.371  68.702  1.00  0.00    -0.430 NA 
HETATM    5  H   UNL     1     -10.929   8.706  69.663  1.00  0.00     0.000 HD 
BRANCH   4   6
HETATM    6  C   UNL     1      -9.944   9.220  67.897  1.00  0.00    -0.187 C  
HETATM    7  C   UNL     1      -9.483   8.543  66.608  1.00  0.00    -0.268 C  
BRANCH   6   8
HETATM    8  C   UNL     1     -10.634  10.558  67.543  1.00  0.00    -0.259 C  
HETATM    9  O   UNL     1     -11.742  10.804  68.015  1.00  0.00    -0.528 OA 
HETATM   10  N   UNL     1      -9.866  11.411  66.759  1.00  0.00    -0.202 N  
HETATM   11  H   UNL     1      -8.923  11.098  66.528  1.00  0.00     0.000 HD 
BRANCH  10  12
HETATM   12  C   UNL     1     -10.263  12.673  66.248  1.00  0.00    -0.251 A  
HETATM   13  C   UNL     1     -10.147  13.838  67.023  1.00  0.00    -0.256 A  
HETATM   14  C   UNL     1     -10.530  15.089  66.534  1.00  0.00    -0.285 A  
HETATM   15  C   UNL     1     -11.052  15.200  65.255  1.00  0.00    -0.389 A  
HETATM   16  C   UNL     1     -11.197  14.057  64.472  1.00  0.00    -0.358 A  
HETATM   17  C   UNL     1     -10.805  12.787  64.953  1.00  0.00    -0.326 A  
HETATM   18  C   UNL     1     -11.015  11.614  64.029  1.00  0.00    -0.456 C  
ENDBRANCH  10  12
ENDBRANCH   6   8
ENDBRANCH   4   6
ENDBRANCH   3   4
ENDBRANCH   2   3
TORSDOF 5
ENDMDL
MODEL      108
REMARK 921   NORMALIZED FREE ENERGY PREDICTED BY IDOCK:   -4.16 KCAL/MOL
REMARK 922        TOTAL FREE ENERGY PREDICTED BY IDOCK:   -5.72 KCAL/MOL
REMARK 923 INTER-LIGAND FREE ENERGY PREDICTED BY IDOCK:   -5.31 KCAL/MOL
REMARK 924 INTRA-LIGAND FREE ENERGY PREDICTED BY IDOCK:   -0.41 KCAL/MOL
REMARK 927      BINDING AFFINITY PREDICTED BY RF-SCORE:    0.00 PKD
ROOT
HETATM    1  C   UNL     1     -11.906   6.550  71.780  1.00  0.00    -0.384 C  
HETATM    2  C   UNL     1     -11.700   7.784  70.913  1.00  0.00    -0.281 C  
ENDROOT
BRANCH   2   3
HETATM    3  C   UNL     1     -10.996   8.897  71.688  1.00  0.00    -0.345 C  
BRANCH   3   4
HETATM    4  N   UNL     1     -10.763  10.046  70.803  1.00  0.00    -0.366 NA 
HETATM    5  H   UNL     1     -10.097   9.819  70.064  1.00  0.00     0.000 HD 
BRANCH   4   6
HETATM    6  C   UNL     1     -12.036  10.568  70.245  1.00  0.00    -0.318 C  
HETATM    7  C   UNL     1     -12.910  11.254  71.295  1.00  0.00    -0.491 C  
BRANCH   6   8
HETATM    8  C   UNL     1     -11.746  11.569  69.102  1.00  0.00    -0.329 C  
HETATM    9  O   UNL     1     -12.212  11.355  67.986  1.00  0.00    -0.607 OA 
HETATM   10  N   UNL     1     -11.022  12.690  69.490  1.00  0.00    -0.452 N  
HETATM   11  H   UNL     1     -10.789  12.767  70.480  1.00  0.00     0.000 HD 
BRANCH  10  12
HETATM   12  C   UNL     1     -10.576  13.739  68.646  1.00  0.00    -0.253 A  
HETATM   13  C   UNL     1     -11.359  14.886  68.438  1.00  0.00    -0.320 A  
HETATM   14  C   UNL     1     -10.933  15.929  67.613  1.00  0.00    -0.298 A  
HETATM   15  C   UNL     1      -9.711  15.841  66.964  1.00  0.00    -0.235 A  
HETATM   16  C   UNL     1      -8.922  14.706  67.138  1.00  0.00    -0.240 A  
HETATM   17  C   UNL     1      -9.339  13.647  67.977  1.00  0.00    -0.208 A  
HETATM   18  C   UNL     1      -8.417  12.460  68.086  1.00  0.00    -0.180 C  
ENDBRANCH  10  12
ENDBRANCH   6   8
ENDBRANCH   4   6
ENDBRANCH   3   4
ENDBRANCH   2   3
TORSDOF 5
ENDMDL
MODEL      109
REMARK 921   NORMALIZED FREE ENERGY PREDICTED BY IDOCK:   -4.16 KCAL/MOL
REMARK 922        TOTAL FREE ENERGY PREDICTED BY IDOCK:   -5.72 KCAL/MOL
REMARK 923 INTER-LIGAND FREE ENERGY PREDICTED BY IDOCK:   -5.13 KCAL/MOL
REMARK 924 INTRA-LIGAND FREE ENERGY PREDICTED BY IDOCK:   -0.58 KCAL/MOL
REMARK 927      BINDING AFFINITY PREDICTED BY RF-SCORE:    0.00 PKD
ROOT
HETATM    1  C   UNL     1      -9.797   6.460  70.552  1.00  0.00    -0.207 C  
HETATM    2  C   UNL     1     -11.292   6.196  70.652  1.00  0.00    -0.368 C  
ENDROOT
BRANCH   2   3
HETATM    3  C   UNL     1     -11.778   6.288  72.098  1.00  0.00    -0.319 C  
BRANCH   3   4
HETATM    4  N   UNL     1     -11.993   7.694  72.461  1.00  0.00    -0.530 NA 
HETATM    5  H   UNL     1     -11.113   8.210  72.492  1.00  0.00     0.000 HD 
BRANCH   4   6
HETATM    6  C   UNL     1     -12.972   8.346  71.555  1.00  0.00    -0.301 C  
HETATM    7  C   UNL     1     -14.325   8.595  72.220  1.00  0.00    -0.486 C  
BRANCH   6   8
HETATM    8  C   UNL     1     -12.410   9.691  71.042  1.00  0.00    -0.310 C  
HETATM    9  O   UNL     1     -12.568  10.705  71.719  1.00  0.00    -0.390 OA 
HETATM   10  N   UNL     1     -11.689   9.599  69.858  1.00  0.00    -0.450 N  
HETATM   11  H   UNL     1     -11.566   8.665  69.466  1.00  0.00     0.000 HD 
BRANCH  10  12
HETATM   12  C   UNL     1     -11.106  10.673  69.139  1.00  0.00    -0.255 A  
HETATM   13  C   UNL     1     -11.903  11.608  68.458  1.00  0.00    -0.357 A  
HETATM   14  C   UNL     1     -11.346  12.673  67.749  1.00  0.00    -0.349 A  
HETATM   15  C   UNL     1      -9.968  12.822  67.693  1.00  0.00    -0.217 A  
HETATM   16  C   UNL     1      -9.153  11.897  68.343  1.00  0.00    -0.167 A  
HETATM   17  C   UNL     1      -9.706  10.819  69.071  1.00  0.00    -0.201 A  
HETATM   18  C   UNL     1      -8.735   9.871  69.727  1.00  0.00    -0.229 C  
ENDBRANCH  10  12
ENDBRANCH   6   8
ENDBRANCH   4   6
ENDBRANCH   3   4
ENDBRANCH   2   3
TORSDOF 5
ENDMDL
MODEL      110
REMARK 921   NORMALIZED FREE ENERGY PREDICTED BY IDOCK:   -4.15 KCAL/MOL
REMARK 922        TOTAL FREE ENERGY PREDICTED BY IDOCK:   -5.70 KCAL/MOL
REMARK 923 INTER-LIGAND FREE ENERGY PREDICTED BY IDOCK:   -5.35 KCAL/MOL
REMARK 924 INTRA-LIGAND FREE ENERGY PREDICTED BY IDOCK:   -0.35 KCAL/MOL
REMARK 927      BINDING AFFINITY PREDICTED BY RF-SCORE:    0.00 PKD
ROOT
HETATM    1  C   UNL     1     -11.069   5.019  73.413  1.00  0.00    -0.404 C  
HETATM    2  C   UNL     1     -10.285   6.241  72.957  1.00  0.00    -0.213 C  
ENDROOT
BRANCH   2   3
HETATM    3  C   UNL     1     -11.153   7.498  72.974  1.00  0.00    -0.362 C  
BRANCH   3   4
HETATM    4  N   UNL     1     -10.575   8.511  72.081  1.00  0.00    -0.331 NA 
HETATM    5  H   UNL     1      -9.717   8.177  71.643  1.00  0.00     0.000 HD 
BRANCH   4   6
HETATM    6  C   UNL     1     -11.560   8.969  71.069  1.00  0.00    -0.300 C  
HETATM    7  C   UNL     1     -12.683   9.812  71.669  1.00  0.00    -0.517 C  
BRANCH   6   8
HETATM    8  C   UNL     1     -10.849   9.789  69.968  1.00  0.00    -0.278 C  
HETATM    9  O   UNL     1      -9.711  10.206  70.171  1.00  0.00    -0.190 OA 
HETATM   10  N   UNL     1     -11.570   9.911  68.786  1.00  0.00    -0.487 N  
HETATM   11  H   UNL     1     -12.465   9.424  68.741  1.00  0.00     0.000 HD 
BRANCH  10  12
HETATM   12  C   UNL     1     -11.185  10.645  67.635  1.00  0.00    -0.290 A  
HETATM   13  C   UNL     1     -11.516  12.002  67.496  1.00  0.00    -0.403 A  
HETATM   14  C   UNL     1     -11.142  12.740  66.370  1.00  0.00    -0.320 A  
HETATM   15  C   UNL     1     -10.434  12.129  65.347  1.00  0.00    -0.305 A  
HETATM   16  C   UNL     1     -10.109  10.778  65.451  1.00  0.00    -0.347 A  
HETATM   17  C   UNL     1     -10.475  10.023  66.589  1.00  0.00    -0.244 A  
HETATM   18  C   UNL     1     -10.084   8.567  66.595  1.00  0.00    -0.364 C  
ENDBRANCH  10  12
ENDBRANCH   6   8
ENDBRANCH   4   6
ENDBRANCH   3   4
ENDBRANCH   2   3
TORSDOF 5
ENDMDL
MODEL      111
REMARK 921   NORMALIZED FREE ENERGY PREDICTED BY IDOCK:   -4.15 KCAL/MOL
REMARK 922        TOTAL FREE ENERGY PREDICTED BY IDOCK:   -5.70 KCAL/MOL
REMARK 923 INTER-LIGAND FREE ENERGY PREDICTED BY IDOCK:   -5.56 KCAL/MOL
REMARK 924 INTRA-LIGAND FREE ENERGY PREDICTED BY IDOCK:   -0.14 KCAL/MOL
REMARK 927      BINDING AFFINITY PREDICTED BY RF-SCORE:    0.00 PKD
ROOT
HETATM    1  C   UNL     1      -6.323  17.383  66.483  1.00  0.00    -0.260 C  
HETATM    2  C   UNL     1      -6.625  18.009  67.836  1.00  0.00    -0.193 C  
ENDROOT
BRANCH   2   3
HETATM    3  C   UNL     1      -7.283  17.003  68.780  1.00  0.00    -0.226 C  
BRANCH   3   4
HETATM    4  N   UNL     1      -8.556  16.546  68.209  1.00  0.00    -0.194 NA 
HETATM    5  H   UNL     1      -8.656  15.533  68.283  1.00  0.00     0.000 HD 
BRANCH   4   6
HETATM    6  C   UNL     1      -9.710  17.252  68.818  1.00  0.00    -0.280 C  
HETATM    7  C   UNL     1     -10.328  18.297  67.890  1.00  0.00    -0.417 C  
BRANCH   6   8
HETATM    8  C   UNL     1     -10.801  16.235  69.226  1.00  0.00    -0.318 C  
HETATM    9  O   UNL     1     -11.488  15.709  68.353  1.00  0.00    -0.351 OA 
HETATM   10  N   UNL     1     -10.844  15.951  70.586  1.00  0.00    -0.279 N  
HETATM   11  H   UNL     1     -10.140  16.400  71.171  1.00  0.00     0.000 HD 
BRANCH  10  12
HETATM   12  C   UNL     1     -11.768  15.098  71.242  1.00  0.00    -0.359 A  
HETATM   13  C   UNL     1     -12.108  13.847  70.703  1.00  0.00    -0.417 A  
HETATM   14  C   UNL     1     -13.014  12.994  71.337  1.00  0.00    -0.373 A  
HETATM   15  C   UNL     1     -13.613  13.382  72.526  1.00  0.00    -0.659 A  
HETATM   16  C   UNL     1     -13.307  14.627  73.072  1.00  0.00    -0.527 A  
HETATM   17  C   UNL     1     -12.386  15.496  72.444  1.00  0.00    -0.496 A  
HETATM   18  C   UNL     1     -12.136  16.824  73.112  1.00  0.00    -0.211 C  
ENDBRANCH  10  12
ENDBRANCH   6   8
ENDBRANCH   4   6
ENDBRANCH   3   4
ENDBRANCH   2   3
TORSDOF 5
ENDMDL
MODEL      112
REMARK 921   NORMALIZED FREE ENERGY PREDICTED BY IDOCK:   -4.14 KCAL/MOL
REMARK 922        TOTAL FREE ENERGY PREDICTED BY IDOCK:   -5.69 KCAL/MOL
REMARK 923 INTER-LIGAND FREE ENERGY PREDICTED BY IDOCK:   -5.34 KCAL/MOL
REMARK 924 INTRA-LIGAND FREE ENERGY PREDICTED BY IDOCK:   -0.35 KCAL/MOL
REMARK 927      BINDING AFFINITY PREDICTED BY RF-SCORE:    0.00 PKD
ROOT
HETATM    1  C   UNL     1      -5.695  18.768  69.632  1.00  0.00    -0.251 C  
HETATM    2  C   UNL     1      -6.764  19.046  68.585  1.00  0.00    -0.306 C  
ENDROOT
BRANCH   2   3
HETATM    3  C   UNL     1      -7.804  17.928  68.542  1.00  0.00    -0.298 C  
BRANCH   3   4
HETATM    4  N   UNL     1      -8.521  17.967  67.260  1.00  0.00    -0.231 NA 
HETATM    5  H   UNL     1      -8.272  17.174  66.669  1.00  0.00     0.000 HD 
BRANCH   4   6
HETATM    6  C   UNL     1      -9.989  18.057  67.461  1.00  0.00    -0.327 C  
HETATM    7  C   UNL     1     -10.647  19.121  66.584  1.00  0.00    -0.520 C  
BRANCH   6   8
HETATM    8  C   UNL     1     -10.650  16.689  67.173  1.00  0.00    -0.264 C  
HETATM    9  O   UNL     1     -11.444  16.223  67.987  1.00  0.00    -0.272 OA 
HETATM   10  N   UNL     1     -10.324  16.142  65.938  1.00  0.00    -0.350 N  
HETATM   11  H   UNL     1      -9.723  16.701  65.332  1.00  0.00     0.000 HD 
BRANCH  10  12
HETATM   12  C   UNL     1     -10.744  14.884  65.435  1.00  0.00    -0.377 A  
HETATM   13  C   UNL     1     -11.818  14.785  64.536  1.00  0.00    -0.428 A  
HETATM   14  C   UNL     1     -12.242  13.554  64.029  1.00  0.00    -0.458 A  
HETATM   15  C   UNL     1     -11.605  12.388  64.422  1.00  0.00    -0.418 A  
HETATM   16  C   UNL     1     -10.548  12.457  65.328  1.00  0.00    -0.322 A  
HETATM   17  C   UNL     1     -10.105  13.696  65.842  1.00  0.00    -0.320 A  
HETATM   18  C   UNL     1      -8.963  13.658  66.825  1.00  0.00    -0.196 C  
ENDBRANCH  10  12
ENDBRANCH   6   8
ENDBRANCH   4   6
ENDBRANCH   3   4
ENDBRANCH   2   3
TORSDOF 5
ENDMDL
MODEL      113
REMARK 921   NORMALIZED FREE ENERGY PREDICTED BY IDOCK:   -4.13 KCAL/MOL
REMARK 922        TOTAL FREE ENERGY PREDICTED BY IDOCK:   -5.68 KCAL/MOL
REMARK 923 INTER-LIGAND FREE ENERGY PREDICTED BY IDOCK:   -5.15 KCAL/MOL
REMARK 924 INTRA-LIGAND FREE ENERGY PREDICTED BY IDOCK:   -0.53 KCAL/MOL
REMARK 927      BINDING AFFINITY PREDICTED BY RF-SCORE:    0.00 PKD
ROOT
HETATM    1  C   UNL     1     -12.965  10.743  71.344  1.00  0.00    -0.535 C  
HETATM    2  C   UNL     1     -11.777   9.794  71.305  1.00  0.00    -0.472 C  
ENDROOT
BRANCH   2   3
HETATM    3  C   UNL     1     -11.131   9.767  69.921  1.00  0.00    -0.254 C  
BRANCH   3   4
HETATM    4  N   UNL     1     -10.243  10.927  69.766  1.00  0.00    -0.438 NA 
HETATM    5  H   UNL     1      -9.293  10.714  70.070  1.00  0.00     0.000 HD 
BRANCH   4   6
HETATM    6  C   UNL     1     -10.264  11.445  68.374  1.00  0.00    -0.198 C  
HETATM    7  C   UNL     1     -11.211  10.667  67.462  1.00  0.00    -0.326 C  
BRANCH   6   8
HETATM    8  C   UNL     1     -10.673  12.936  68.368  1.00  0.00    -0.255 C  
HETATM    9  O   UNL     1     -11.728  13.271  68.902  1.00  0.00    -0.285 OA 
HETATM   10  N   UNL     1      -9.732  13.788  67.803  1.00  0.00    -0.224 N  
HETATM   11  H   UNL     1      -8.859  13.365  67.488  1.00  0.00     0.000 HD 
BRANCH  10  12
HETATM   12  C   UNL     1      -9.863  15.189  67.621  1.00  0.00    -0.219 A  
HETATM   13  C   UNL     1      -9.630  16.082  68.679  1.00  0.00    -0.222 A  
HETATM   14  C   UNL     1      -9.751  17.464  68.516  1.00  0.00    -0.304 A  
HETATM   15  C   UNL     1     -10.124  17.985  67.286  1.00  0.00    -0.346 A  
HETATM   16  C   UNL     1     -10.380  17.119  66.225  1.00  0.00    -0.315 A  
HETATM   17  C   UNL     1     -10.252  15.719  66.375  1.00  0.00    -0.304 A  
HETATM   18  C   UNL     1     -10.564  14.873  65.168  1.00  0.00    -0.450 C  
ENDBRANCH  10  12
ENDBRANCH   6   8
ENDBRANCH   4   6
ENDBRANCH   3   4
ENDBRANCH   2   3
TORSDOF 5
ENDMDL
MODEL      114
REMARK 921   NORMALIZED FREE ENERGY PREDICTED BY IDOCK:   -4.12 KCAL/MOL
REMARK 922        TOTAL FREE ENERGY PREDICTED BY IDOCK:   -5.67 KCAL/MOL
REMARK 923 INTER-LIGAND FREE ENERGY PREDICTED BY IDOCK:   -5.17 KCAL/MOL
REMARK 924 INTRA-LIGAND FREE ENERGY PREDICTED BY IDOCK:   -0.50 KCAL/MOL
REMARK 927      BINDING AFFINITY PREDICTED BY RF-SCORE:    0.00 PKD
ROOT
HETATM    1  C   UNL     1     -10.031  11.042  64.114  1.00  0.00    -0.385 C  
HETATM    2  C   UNL     1     -10.255  11.105  65.618  1.00  0.00    -0.310 C  
ENDROOT
BRANCH   2   3
HETATM    3  C   UNL     1     -10.072  12.527  66.148  1.00  0.00    -0.251 C  
BRANCH   3   4
HETATM    4  N   UNL     1      -9.567  12.480  67.526  1.00  0.00    -0.183 NA 
HETATM    5  H   UNL     1      -8.755  13.087  67.647  1.00  0.00     0.000 HD 
BRANCH   4   6
HETATM    6  C   UNL     1     -10.634  12.799  68.507  1.00  0.00    -0.252 C  
HETATM    7  C   UNL     1     -11.663  13.792  67.968  1.00  0.00    -0.390 C  
BRANCH   6   8
HETATM    8  C   UNL     1     -11.363  11.506  68.941  1.00  0.00    -0.268 C  
HETATM    9  O   UNL     1     -12.447  11.230  68.432  1.00  0.00    -0.403 OA 
HETATM   10  N   UNL     1     -10.653  10.720  69.840  1.00  0.00    -0.451 N  
HETATM   11  H   UNL     1      -9.720  11.043  70.096  1.00  0.00     0.000 HD 
BRANCH  10  12
HETATM   12  C   UNL     1     -11.097   9.514  70.440  1.00  0.00    -0.277 A  
HETATM   13  C   UNL     1     -11.917   9.530  71.580  1.00  0.00    -0.475 A  
HETATM   14  C   UNL     1     -12.365   8.351  72.180  1.00  0.00    -0.426 A  
HETATM   15  C   UNL     1     -11.991   7.123  71.657  1.00  0.00    -0.353 A  
HETATM   16  C   UNL     1     -11.163   7.079  70.537  1.00  0.00    -0.335 A  
HETATM   17  C   UNL     1     -10.709   8.265  69.916  1.00  0.00    -0.234 A  
HETATM   18  C   UNL     1      -9.808   8.105  68.718  1.00  0.00    -0.181 C  
ENDBRANCH  10  12
ENDBRANCH   6   8
ENDBRANCH   4   6
ENDBRANCH   3   4
ENDBRANCH   2   3
TORSDOF 5
ENDMDL
MODEL      115
REMARK 921   NORMALIZED FREE ENERGY PREDICTED BY IDOCK:   -4.10 KCAL/MOL
REMARK 922        TOTAL FREE ENERGY PREDICTED BY IDOCK:   -5.64 KCAL/MOL
REMARK 923 INTER-LIGAND FREE ENERGY PREDICTED BY IDOCK:   -5.26 KCAL/MOL
REMARK 924 INTRA-LIGAND FREE ENERGY PREDICTED BY IDOCK:   -0.38 KCAL/MOL
REMARK 927      BINDING AFFINITY PREDICTED BY RF-SCORE:    0.00 PKD
ROOT
HETATM    1  C   UNL     1      -5.951  10.241  69.019  1.00  0.00    -0.037 C  
HETATM    2  C   UNL     1      -7.361  10.052  68.481  1.00  0.00    -0.077 C  
ENDROOT
BRANCH   2   3
HETATM    3  C   UNL     1      -8.336   9.675  69.596  1.00  0.00    -0.168 C  
BRANCH   3   4
HETATM    4  N   UNL     1      -9.441  10.642  69.636  1.00  0.00    -0.419 NA 
HETATM    5  H   UNL     1      -9.302  11.396  68.962  1.00  0.00     0.000 HD 
BRANCH   4   6
HETATM    6  C   UNL     1     -10.754   9.976  69.441  1.00  0.00    -0.233 C  
HETATM    7  C   UNL     1     -10.943   8.758  70.343  1.00  0.00    -0.262 C  
BRANCH   6   8
HETATM    8  C   UNL     1     -11.903  10.978  69.701  1.00  0.00    -0.342 C  
HETATM    9  O   UNL     1     -13.008  10.762  69.209  1.00  0.00    -0.021 OA 
HETATM   10  N   UNL     1     -11.574  12.019  70.560  1.00  0.00    -0.423 N  
HETATM   11  H   UNL     1     -10.637  12.005  70.963  1.00  0.00     0.000 HD 
BRANCH  10  12
HETATM   12  C   UNL     1     -12.412  13.101  70.933  1.00  0.00    -0.323 A  
HETATM   13  C   UNL     1     -13.411  12.942  71.907  1.00  0.00    -0.530 A  
HETATM   14  C   UNL     1     -14.242  13.997  72.289  1.00  0.00    -0.599 A  
HETATM   15  C   UNL     1     -14.099  15.240  71.692  1.00  0.00    -0.640 A  
HETATM   16  C   UNL     1     -13.128  15.420  70.708  1.00  0.00    -0.479 A  
HETATM   17  C   UNL     1     -12.276  14.362  70.319  1.00  0.00    -0.397 A  
HETATM   18  C   UNL     1     -11.268  14.660  69.239  1.00  0.00    -0.306 C  
ENDBRANCH  10  12
ENDBRANCH   6   8
ENDBRANCH   4   6
ENDBRANCH   3   4
ENDBRANCH   2   3
TORSDOF 5
ENDMDL
MODEL      116
REMARK 921   NORMALIZED FREE ENERGY PREDICTED BY IDOCK:   -4.09 KCAL/MOL
REMARK 922        TOTAL FREE ENERGY PREDICTED BY IDOCK:   -5.63 KCAL/MOL
REMARK 923 INTER-LIGAND FREE ENERGY PREDICTED BY IDOCK:   -5.18 KCAL/MOL
REMARK 924 INTRA-LIGAND FREE ENERGY PREDICTED BY IDOCK:   -0.45 KCAL/MOL
REMARK 927      BINDING AFFINITY PREDICTED BY RF-SCORE:    0.00 PKD
ROOT
HETATM    1  C   UNL     1     -10.620   6.571  69.371  1.00  0.00    -0.291 C  
HETATM    2  C   UNL     1     -10.975   6.174  67.946  1.00  0.00    -0.399 C  
ENDROOT
BRANCH   2   3
HETATM    3  C   UNL     1     -10.730   7.324  66.970  1.00  0.00    -0.336 C  
BRANCH   3   4
HETATM    4  N   UNL     1     -10.972   8.606  67.644  1.00  0.00    -0.475 NA 
HETATM    5  H   UNL     1     -10.891   8.516  68.657  1.00  0.00     0.000 HD 
BRANCH   4   6
HETATM    6  C   UNL     1     -10.081   9.672  67.120  1.00  0.00    -0.218 C  
HETATM    7  C   UNL     1      -9.771   9.512  65.633  1.00  0.00    -0.361 C  
BRANCH   6   8
HETATM    8  C   UNL     1     -10.719  11.061  67.354  1.00  0.00    -0.257 C  
HETATM    9  O   UNL     1     -11.898  11.130  67.693  1.00  0.00    -0.612 OA 
HETATM   10  N   UNL     1      -9.837  12.127  67.225  1.00  0.00    -0.195 N  
HETATM   11  H   UNL     1      -8.862  11.897  67.031  1.00  0.00     0.000 HD 
BRANCH  10  12
HETATM   12  C   UNL     1     -10.157  13.505  67.336  1.00  0.00    -0.237 A  
HETATM   13  C   UNL     1     -10.227  14.134  68.589  1.00  0.00    -0.238 A  
HETATM   14  C   UNL     1     -10.537  15.490  68.716  1.00  0.00    -0.242 A  
HETATM   15  C   UNL     1     -10.798  16.248  67.584  1.00  0.00    -0.293 A  
HETATM   16  C   UNL     1     -10.754  15.643  66.330  1.00  0.00    -0.295 A  
HETATM   17  C   UNL     1     -10.433  14.274  66.188  1.00  0.00    -0.294 A  
HETATM   18  C   UNL     1     -10.425  13.717  64.787  1.00  0.00    -0.436 C  
ENDBRANCH  10  12
ENDBRANCH   6   8
ENDBRANCH   4   6
ENDBRANCH   3   4
ENDBRANCH   2   3
TORSDOF 5
ENDMDL
MODEL      117
REMARK 921   NORMALIZED FREE ENERGY PREDICTED BY IDOCK:   -4.09 KCAL/MOL
REMARK 922        TOTAL FREE ENERGY PREDICTED BY IDOCK:   -5.62 KCAL/MOL
REMARK 923 INTER-LIGAND FREE ENERGY PREDICTED BY IDOCK:   -5.21 KCAL/MOL
REMARK 924 INTRA-LIGAND FREE ENERGY PREDICTED BY IDOCK:   -0.41 KCAL/MOL
REMARK 927      BINDING AFFINITY PREDICTED BY RF-SCORE:    0.00 PKD
ROOT
HETATM    1  C   UNL     1     -11.709   6.361  70.958  1.00  0.00    -0.358 C  
HETATM    2  C   UNL     1     -11.268   6.231  69.508  1.00  0.00    -0.500 C  
ENDROOT
BRANCH   2   3
HETATM    3  C   UNL     1     -10.432   7.433  69.070  1.00  0.00    -0.210 C  
BRANCH   3   4
HETATM    4  N   UNL     1     -11.223   8.663  69.210  1.00  0.00    -0.417 NA 
HETATM    5  H   UNL     1     -11.964   8.553  69.903  1.00  0.00     0.000 HD 
BRANCH   4   6
HETATM    6  C   UNL     1     -10.360   9.831  69.519  1.00  0.00    -0.230 C  
HETATM    7  C   UNL     1      -8.937   9.679  68.983  1.00  0.00    -0.148 C  
BRANCH   6   8
HETATM    8  C   UNL     1     -10.982  11.121  68.934  1.00  0.00    -0.225 C  
HETATM    9  O   UNL     1     -12.013  11.042  68.270  1.00  0.00    -0.593 OA 
HETATM   10  N   UNL     1     -10.327  12.291  69.299  1.00  0.00    -0.402 N  
HETATM   11  H   UNL     1      -9.537  12.196  69.937  1.00  0.00     0.000 HD 
BRANCH  10  12
HETATM   12  C   UNL     1     -10.647  13.605  68.872  1.00  0.00    -0.190 A  
HETATM   13  C   UNL     1     -10.010  14.181  67.761  1.00  0.00    -0.235 A  
HETATM   14  C   UNL     1     -10.316  15.473  67.325  1.00  0.00    -0.267 A  
HETATM   15  C   UNL     1     -11.263  16.225  68.003  1.00  0.00    -0.260 A  
HETATM   16  C   UNL     1     -11.895  15.684  69.121  1.00  0.00    -0.378 A  
HETATM   17  C   UNL     1     -11.600  14.375  69.566  1.00  0.00    -0.352 A  
HETATM   18  C   UNL     1     -12.333  13.891  70.792  1.00  0.00    -0.449 C  
ENDBRANCH  10  12
ENDBRANCH   6   8
ENDBRANCH   4   6
ENDBRANCH   3   4
ENDBRANCH   2   3
TORSDOF 5
ENDMDL
MODEL      118
REMARK 921   NORMALIZED FREE ENERGY PREDICTED BY IDOCK:   -4.07 KCAL/MOL
REMARK 922        TOTAL FREE ENERGY PREDICTED BY IDOCK:   -5.60 KCAL/MOL
REMARK 923 INTER-LIGAND FREE ENERGY PREDICTED BY IDOCK:   -5.14 KCAL/MOL
REMARK 924 INTRA-LIGAND FREE ENERGY PREDICTED BY IDOCK:   -0.46 KCAL/MOL
REMARK 927      BINDING AFFINITY PREDICTED BY RF-SCORE:    0.00 PKD
ROOT
HETATM    1  C   UNL     1     -11.026   6.624  67.121  1.00  0.00    -0.478 C  
HETATM    2  C   UNL     1      -9.572   6.656  67.567  1.00  0.00    -0.142 C  
ENDROOT
BRANCH   2   3
HETATM    3  C   UNL     1      -8.736   7.571  66.673  1.00  0.00    -0.138 C  
BRANCH   3   4
HETATM    4  N   UNL     1      -9.622   8.415  65.861  1.00  0.00    -0.456 NA 
HETATM    5  H   UNL     1     -10.472   8.660  66.369  1.00  0.00     0.000 HD 
BRANCH   4   6
HETATM    6  C   UNL     1      -8.917   9.625  65.367  1.00  0.00    -0.190 C  
HETATM    7  C   UNL     1      -8.664   9.593  63.860  1.00  0.00    -0.241 C  
BRANCH   6   8
HETATM    8  C   UNL     1      -9.730  10.894  65.713  1.00  0.00    -0.224 C  
HETATM    9  O   UNL     1     -10.318  10.953  66.791  1.00  0.00    -0.222 OA 
HETATM   10  N   UNL     1      -9.646  11.907  64.765  1.00  0.00    -0.427 N  
HETATM   11  H   UNL     1      -9.037  11.738  63.965  1.00  0.00     0.000 HD 
BRANCH  10  12
HETATM   12  C   UNL     1     -10.324  13.152  64.800  1.00  0.00    -0.350 A  
HETATM   13  C   UNL     1      -9.765  14.263  65.453  1.00  0.00    -0.135 A  
HETATM   14  C   UNL     1     -10.417  15.498  65.493  1.00  0.00    -0.407 A  
HETATM   15  C   UNL     1     -11.656  15.645  64.888  1.00  0.00    -0.156 A  
HETATM   16  C   UNL     1     -12.241  14.554  64.250  1.00  0.00    -0.441 A  
HETATM   17  C   UNL     1     -11.587  13.301  64.195  1.00  0.00    -0.451 A  
HETATM   18  C   UNL     1     -12.313  12.184  63.490  1.00  0.00    -0.682 C  
ENDBRANCH  10  12
ENDBRANCH   6   8
ENDBRANCH   4   6
ENDBRANCH   3   4
ENDBRANCH   2   3
TORSDOF 5
ENDMDL
MODEL      119
REMARK 921   NORMALIZED FREE ENERGY PREDICTED BY IDOCK:   -4.06 KCAL/MOL
REMARK 922        TOTAL FREE ENERGY PREDICTED BY IDOCK:   -5.59 KCAL/MOL
REMARK 923 INTER-LIGAND FREE ENERGY PREDICTED BY IDOCK:   -5.21 KCAL/MOL
REMARK 924 INTRA-LIGAND FREE ENERGY PREDICTED BY IDOCK:   -0.38 KCAL/MOL
REMARK 927      BINDING AFFINITY PREDICTED BY RF-SCORE:    0.00 PKD
ROOT
HETATM    1  C   UNL     1     -12.156  14.991  73.592  1.00  0.00    -0.539 C  
HETATM    2  C   UNL     1     -11.919  16.366  72.986  1.00  0.00    -0.559 C  
ENDROOT
BRANCH   2   3
HETATM    3  C   UNL     1     -11.750  16.284  71.469  1.00  0.00    -0.403 C  
BRANCH   3   4
HETATM    4  N   UNL     1     -11.556  14.885  71.067  1.00  0.00    -0.387 NA 
HETATM    5  H   UNL     1     -11.965  14.242  71.745  1.00  0.00     0.000 HD 
BRANCH   4   6
HETATM    6  C   UNL     1     -12.076  14.636  69.699  1.00  0.00    -0.311 C  
HETATM    7  C   UNL     1     -11.606  15.676  68.684  1.00  0.00    -0.391 C  
BRANCH   6   8
HETATM    8  C   UNL     1     -11.648  13.231  69.215  1.00  0.00    -0.314 C  
HETATM    9  O   UNL     1     -12.053  12.240  69.818  1.00  0.00    -0.287 OA 
HETATM   10  N   UNL     1     -10.880  13.232  68.056  1.00  0.00    -0.237 N  
HETATM   11  H   UNL     1     -10.708  14.137  67.620  1.00  0.00     0.000 HD 
BRANCH  10  12
HETATM   12  C   UNL     1     -10.312  12.099  67.420  1.00  0.00    -0.205 A  
HETATM   13  C   UNL     1      -9.339  11.317  68.064  1.00  0.00    -0.166 A  
HETATM   14  C   UNL     1      -8.773  10.196  67.453  1.00  0.00    -0.125 A  
HETATM   15  C   UNL     1      -9.160   9.838  66.171  1.00  0.00    -0.198 A  
HETATM   16  C   UNL     1     -10.110  10.608  65.502  1.00  0.00    -0.343 A  
HETATM   17  C   UNL     1     -10.696  11.739  66.113  1.00  0.00    -0.320 A  
HETATM   18  C   UNL     1     -11.704  12.509  65.298  1.00  0.00    -0.430 C  
ENDBRANCH  10  12
ENDBRANCH   6   8
ENDBRANCH   4   6
ENDBRANCH   3   4
ENDBRANCH   2   3
TORSDOF 5
ENDMDL
MODEL      120
REMARK 921   NORMALIZED FREE ENERGY PREDICTED BY IDOCK:   -4.04 KCAL/MOL
REMARK 922        TOTAL FREE ENERGY PREDICTED BY IDOCK:   -5.56 KCAL/MOL
REMARK 923 INTER-LIGAND FREE ENERGY PREDICTED BY IDOCK:   -5.15 KCAL/MOL
REMARK 924 INTRA-LIGAND FREE ENERGY PREDICTED BY IDOCK:   -0.41 KCAL/MOL
REMARK 927      BINDING AFFINITY PREDICTED BY RF-SCORE:    0.00 PKD
ROOT
HETATM    1  C   UNL     1      -9.936   4.572  65.863  1.00  0.00    -0.260 C  
HETATM    2  C   UNL     1      -9.404   5.918  66.332  1.00  0.00    -0.171 C  
ENDROOT
BRANCH   2   3
HETATM    3  C   UNL     1     -10.506   6.756  66.981  1.00  0.00    -0.299 C  
BRANCH   3   4
HETATM    4  N   UNL     1     -10.406   8.147  66.521  1.00  0.00    -0.451 NA 
HETATM    5  H   UNL     1     -11.184   8.395  65.910  1.00  0.00     0.000 HD 
BRANCH   4   6
HETATM    6  C   UNL     1     -10.290   9.089  67.663  1.00  0.00    -0.257 C  
HETATM    7  C   UNL     1      -8.842   9.364  68.065  1.00  0.00    -0.124 C  
BRANCH   6   8
HETATM    8  C   UNL     1     -10.979  10.430  67.318  1.00  0.00    -0.240 C  
HETATM    9  O   UNL     1     -11.831  10.880  68.080  1.00  0.00    -0.585 OA 
HETATM   10  N   UNL     1     -10.488  11.051  66.175  1.00  0.00    -0.251 N  
HETATM   11  H   UNL     1      -9.709  10.594  65.702  1.00  0.00     0.000 HD 
BRANCH  10  12
HETATM   12  C   UNL     1     -10.963  12.258  65.600  1.00  0.00    -0.299 A  
HETATM   13  C   UNL     1     -11.912  12.243  64.565  1.00  0.00    -0.459 A  
HETATM   14  C   UNL     1     -12.393  13.422  63.991  1.00  0.00    -0.402 A  
HETATM   15  C   UNL     1     -11.922  14.648  64.434  1.00  0.00    -0.454 A  
HETATM   16  C   UNL     1     -10.967  14.690  65.446  1.00  0.00    -0.358 A  
HETATM   17  C   UNL     1     -10.478  13.505  66.041  1.00  0.00    -0.299 A  
HETATM   18  C   UNL     1      -9.437  13.661  67.120  1.00  0.00    -0.244 C  
ENDBRANCH  10  12
ENDBRANCH   6   8
ENDBRANCH   4   6
ENDBRANCH   3   4
ENDBRANCH   2   3
TORSDOF 5
ENDMDL
MODEL      121
REMARK 921   NORMALIZED FREE ENERGY PREDICTED BY IDOCK:   -4.04 KCAL/MOL
REMARK 922        TOTAL FREE ENERGY PREDICTED BY IDOCK:   -5.56 KCAL/MOL
REMARK 923 INTER-LIGAND FREE ENERGY PREDICTED BY IDOCK:   -5.14 KCAL/MOL
REMARK 924 INTRA-LIGAND FREE ENERGY PREDICTED BY IDOCK:   -0.42 KCAL/MOL
REMARK 927      BINDING AFFINITY PREDICTED BY RF-SCORE:    0.00 PKD
ROOT
HETATM    1  C   UNL     1      -8.087   8.721  67.944  1.00  0.00    -0.107 C  
HETATM    2  C   UNL     1      -8.417   9.503  69.207  1.00  0.00    -0.139 C  
ENDROOT
BRANCH   2   3
HETATM    3  C   UNL     1      -9.698   8.989  69.861  1.00  0.00    -0.183 C  
BRANCH   3   4
HETATM    4  N   UNL     1     -10.339  10.074  70.616  1.00  0.00    -0.389 NA 
HETATM    5  H   UNL     1      -9.763  10.916  70.621  1.00  0.00     0.000 HD 
BRANCH   4   6
HETATM    6  C   UNL     1     -11.707  10.353  70.110  1.00  0.00    -0.312 C  
HETATM    7  C   UNL     1     -12.657  10.845  71.201  1.00  0.00    -0.532 C  
BRANCH   6   8
HETATM    8  C   UNL     1     -11.651  11.407  68.980  1.00  0.00    -0.317 C  
HETATM    9  O   UNL     1     -12.130  11.133  67.881  1.00  0.00    -0.627 OA 
HETATM   10  N   UNL     1     -11.113  12.630  69.360  1.00  0.00    -0.447 N  
HETATM   11  H   UNL     1     -10.846  12.731  70.339  1.00  0.00     0.000 HD 
BRANCH  10  12
HETATM   12  C   UNL     1     -10.896  13.753  68.522  1.00  0.00    -0.263 A  
HETATM   13  C   UNL     1     -10.055  13.670  67.400  1.00  0.00    -0.241 A  
HETATM   14  C   UNL     1      -9.834  14.765  66.562  1.00  0.00    -0.287 A  
HETATM   15  C   UNL     1     -10.444  15.980  66.838  1.00  0.00    -0.306 A  
HETATM   16  C   UNL     1     -11.268  16.095  67.955  1.00  0.00    -0.291 A  
HETATM   17  C   UNL     1     -11.506  14.991  68.806  1.00  0.00    -0.337 A  
HETATM   18  C   UNL     1     -12.403  15.227  69.993  1.00  0.00    -0.366 C  
ENDBRANCH  10  12
ENDBRANCH   6   8
ENDBRANCH   4   6
ENDBRANCH   3   4
ENDBRANCH   2   3
TORSDOF 5
ENDMDL
MODEL      122
REMARK 921   NORMALIZED FREE ENERGY PREDICTED BY IDOCK:   -4.04 KCAL/MOL
REMARK 922        TOTAL FREE ENERGY PREDICTED BY IDOCK:   -5.56 KCAL/MOL
REMARK 923 INTER-LIGAND FREE ENERGY PREDICTED BY IDOCK:   -5.06 KCAL/MOL
REMARK 924 INTRA-LIGAND FREE ENERGY PREDICTED BY IDOCK:   -0.50 KCAL/MOL
REMARK 927      BINDING AFFINITY PREDICTED BY RF-SCORE:    0.00 PKD
ROOT
HETATM    1  C   UNL     1     -12.143  13.764  66.239  1.00  0.00    -0.484 C  
HETATM    2  C   UNL     1     -11.438  14.295  67.478  1.00  0.00    -0.368 C  
ENDROOT
BRANCH   2   3
HETATM    3  C   UNL     1     -11.975  13.637  68.749  1.00  0.00    -0.359 C  
BRANCH   3   4
HETATM    4  N   UNL     1     -11.089  12.537  69.149  1.00  0.00    -0.380 NA 
HETATM    5  H   UNL     1     -10.855  12.588  70.141  1.00  0.00     0.000 HD 
BRANCH   4   6
HETATM    6  C   UNL     1     -11.667  11.216  68.795  1.00  0.00    -0.326 C  
HETATM    7  C   UNL     1     -10.964  10.557  67.609  1.00  0.00    -0.375 C  
BRANCH   6   8
HETATM    8  C   UNL     1     -11.603  10.263  70.011  1.00  0.00    -0.276 C  
HETATM    9  O   UNL     1     -11.857  10.702  71.130  1.00  0.00    -0.328 OA 
HETATM   10  N   UNL     1     -11.328   8.939  69.690  1.00  0.00    -0.431 N  
HETATM   11  H   UNL     1     -11.235   8.716  68.699  1.00  0.00     0.000 HD 
BRANCH  10  12
HETATM   12  C   UNL     1     -11.163   7.866  70.603  1.00  0.00    -0.263 A  
HETATM   13  C   UNL     1     -12.268   7.292  71.253  1.00  0.00    -0.389 A  
HETATM   14  C   UNL     1     -12.123   6.233  72.152  1.00  0.00    -0.304 A  
HETATM   15  C   UNL     1     -10.862   5.731  72.431  1.00  0.00    -0.294 A  
HETATM   16  C   UNL     1      -9.747   6.295  71.814  1.00  0.00    -0.168 A  
HETATM   17  C   UNL     1      -9.881   7.362  70.897  1.00  0.00    -0.177 A  
HETATM   18  C   UNL     1      -8.611   7.907  70.295  1.00  0.00    -0.137 C  
ENDBRANCH  10  12
ENDBRANCH   6   8
ENDBRANCH   4   6
ENDBRANCH   3   4
ENDBRANCH   2   3
TORSDOF 5
ENDMDL
MODEL      123
REMARK 921   NORMALIZED FREE ENERGY PREDICTED BY IDOCK:   -4.03 KCAL/MOL
REMARK 922        TOTAL FREE ENERGY PREDICTED BY IDOCK:   -5.55 KCAL/MOL
REMARK 923 INTER-LIGAND FREE ENERGY PREDICTED BY IDOCK:   -5.12 KCAL/MOL
REMARK 924 INTRA-LIGAND FREE ENERGY PREDICTED BY IDOCK:   -0.43 KCAL/MOL
REMARK 927      BINDING AFFINITY PREDICTED BY RF-SCORE:    0.00 PKD
ROOT
HETATM    1  C   UNL     1     -11.178   6.409  69.607  1.00  0.00    -0.483 C  
HETATM    2  C   UNL     1     -11.906   7.171  70.704  1.00  0.00    -0.334 C  
ENDROOT
BRANCH   2   3
HETATM    3  C   UNL     1     -11.126   8.413  71.131  1.00  0.00    -0.256 C  
BRANCH   3   4
HETATM    4  N   UNL     1     -10.668   9.143  69.942  1.00  0.00    -0.227 NA 
HETATM    5  H   UNL     1     -10.505   8.513  69.157  1.00  0.00     0.000 HD 
BRANCH   4   6
HETATM    6  C   UNL     1     -11.607  10.234  69.578  1.00  0.00    -0.168 C  
HETATM    7  C   UNL     1     -12.169  10.967  70.795  1.00  0.00    -0.480 C  
BRANCH   6   8
HETATM    8  C   UNL     1     -10.904  11.256  68.655  1.00  0.00    -0.204 C  
HETATM    9  O   UNL     1      -9.704  11.473  68.805  1.00  0.00    -0.196 OA 
HETATM   10  N   UNL     1     -11.718  11.789  67.662  1.00  0.00    -0.287 N  
HETATM   11  H   UNL     1     -12.672  11.433  67.610  1.00  0.00     0.000 HD 
BRANCH  10  12
HETATM   12  C   UNL     1     -11.353  12.778  66.713  1.00  0.00    -0.313 A  
HETATM   13  C   UNL     1     -11.559  14.142  66.973  1.00  0.00    -0.404 A  
HETATM   14  C   UNL     1     -11.203  15.129  66.050  1.00  0.00    -0.275 A  
HETATM   15  C   UNL     1     -10.640  14.768  64.835  1.00  0.00    -0.431 A  
HETATM   16  C   UNL     1     -10.443  13.420  64.545  1.00  0.00    -0.431 A  
HETATM   17  C   UNL     1     -10.792  12.413  65.473  1.00  0.00    -0.316 A  
HETATM   18  C   UNL     1     -10.547  10.986  65.055  1.00  0.00    -0.315 C  
ENDBRANCH  10  12
ENDBRANCH   6   8
ENDBRANCH   4   6
ENDBRANCH   3   4
ENDBRANCH   2   3
TORSDOF 5
ENDMDL
MODEL      124
REMARK 921   NORMALIZED FREE ENERGY PREDICTED BY IDOCK:   -4.03 KCAL/MOL
REMARK 922        TOTAL FREE ENERGY PREDICTED BY IDOCK:   -5.55 KCAL/MOL
REMARK 923 INTER-LIGAND FREE ENERGY PREDICTED BY IDOCK:   -5.12 KCAL/MOL
REMARK 924 INTRA-LIGAND FREE ENERGY PREDICTED BY IDOCK:   -0.43 KCAL/MOL
REMARK 927      BINDING AFFINITY PREDICTED BY RF-SCORE:    0.00 PKD
ROOT
HETATM    1  C   UNL     1     -11.463  12.498  63.330  1.00  0.00    -0.523 C  
HETATM    2  C   UNL     1     -12.385  12.598  64.536  1.00  0.00    -0.537 C  
ENDROOT
BRANCH   2   3
HETATM    3  C   UNL     1     -12.127  13.878  65.330  1.00  0.00    -0.410 C  
BRANCH   3   4
HETATM    4  N   UNL     1     -11.830  13.543  66.728  1.00  0.00    -0.386 NA 
HETATM    5  H   UNL     1     -12.635  13.117  67.189  1.00  0.00     0.000 HD 
BRANCH   4   6
HETATM    6  C   UNL     1     -10.624  12.684  66.837  1.00  0.00    -0.240 C  
HETATM    7  C   UNL     1      -9.526  13.305  67.698  1.00  0.00    -0.211 C  
BRANCH   6   8
HETATM    8  C   UNL     1     -11.003  11.305  67.424  1.00  0.00    -0.282 C  
HETATM    9  O   UNL     1     -12.133  11.137  67.878  1.00  0.00    -0.627 OA 
HETATM   10  N   UNL     1     -10.014  10.337  67.305  1.00  0.00    -0.182 N  
HETATM   11  H   UNL     1      -9.161  10.609  66.815  1.00  0.00     0.000 HD 
BRANCH  10  12
HETATM   12  C   UNL     1     -10.070   9.008  67.796  1.00  0.00    -0.208 A  
HETATM   13  C   UNL     1     -10.583   7.965  67.007  1.00  0.00    -0.381 A  
HETATM   14  C   UNL     1     -10.643   6.650  67.474  1.00  0.00    -0.347 A  
HETATM   15  C   UNL     1     -10.198   6.350  68.753  1.00  0.00    -0.206 A  
HETATM   16  C   UNL     1      -9.702   7.369  69.563  1.00  0.00    -0.159 A  
HETATM   17  C   UNL     1      -9.630   8.702  69.098  1.00  0.00    -0.163 A  
HETATM   18  C   UNL     1      -9.087   9.730  70.059  1.00  0.00    -0.258 C  
ENDBRANCH  10  12
ENDBRANCH   6   8
ENDBRANCH   4   6
ENDBRANCH   3   4
ENDBRANCH   2   3
TORSDOF 5
ENDMDL
MODEL      125
REMARK 921   NORMALIZED FREE ENERGY PREDICTED BY IDOCK:   -4.02 KCAL/MOL
REMARK 922        TOTAL FREE ENERGY PREDICTED BY IDOCK:   -5.54 KCAL/MOL
REMARK 923 INTER-LIGAND FREE ENERGY PREDICTED BY IDOCK:   -5.18 KCAL/MOL
REMARK 924 INTRA-LIGAND FREE ENERGY PREDICTED BY IDOCK:   -0.36 KCAL/MOL
REMARK 927      BINDING AFFINITY PREDICTED BY RF-SCORE:    0.00 PKD
ROOT
HETATM    1  C   UNL     1     -11.304   7.433  71.098  1.00  0.00    -0.291 C  
HETATM    2  C   UNL     1     -11.170   8.714  71.908  1.00  0.00    -0.413 C  
ENDROOT
BRANCH   2   3
HETATM    3  C   UNL     1     -11.959   9.859  71.272  1.00  0.00    -0.402 C  
BRANCH   3   4
HETATM    4  N   UNL     1     -11.586   9.991  69.858  1.00  0.00    -0.389 NA 
HETATM    5  H   UNL     1     -11.938   9.210  69.304  1.00  0.00     0.000 HD 
BRANCH   4   6
HETATM    6  C   UNL     1     -12.025  11.295  69.299  1.00  0.00    -0.342 C  
HETATM    7  C   UNL     1     -11.961  12.431  70.319  1.00  0.00    -0.371 C  
BRANCH   6   8
HETATM    8  C   UNL     1     -11.158  11.669  68.075  1.00  0.00    -0.242 C  
HETATM    9  O   UNL     1     -10.336  12.578  68.178  1.00  0.00    -0.218 OA 
HETATM   10  N   UNL     1     -11.351  10.857  66.964  1.00  0.00    -0.142 N  
HETATM   11  H   UNL     1     -12.004  10.081  67.070  1.00  0.00     0.000 HD 
BRANCH  10  12
HETATM   12  C   UNL     1     -10.730  11.000  65.697  1.00  0.00    -0.148 A  
HETATM   13  C   UNL     1     -11.070  12.058  64.838  1.00  0.00    -0.368 A  
HETATM   14  C   UNL     1     -10.466  12.215  63.589  1.00  0.00    -0.495 A  
HETATM   15  C   UNL     1      -9.511  11.304  63.163  1.00  0.00    -0.367 A  
HETATM   16  C   UNL     1      -9.169  10.234  63.988  1.00  0.00    -0.311 A  
HETATM   17  C   UNL     1      -9.768  10.069  65.258  1.00  0.00    -0.373 A  
HETATM   18  C   UNL     1      -9.336   8.872  66.065  1.00  0.00    -0.306 C  
ENDBRANCH  10  12
ENDBRANCH   6   8
ENDBRANCH   4   6
ENDBRANCH   3   4
ENDBRANCH   2   3
TORSDOF 5
ENDMDL
MODEL      126
REMARK 921   NORMALIZED FREE ENERGY PREDICTED BY IDOCK:   -3.97 KCAL/MOL
REMARK 922        TOTAL FREE ENERGY PREDICTED BY IDOCK:   -5.47 KCAL/MOL
REMARK 923 INTER-LIGAND FREE ENERGY PREDICTED BY IDOCK:   -5.05 KCAL/MOL
REMARK 924 INTRA-LIGAND FREE ENERGY PREDICTED BY IDOCK:   -0.43 KCAL/MOL
REMARK 927      BINDING AFFINITY PREDICTED BY RF-SCORE:    0.00 PKD
ROOT
HETATM    1  C   UNL     1     -10.171   6.182  69.645  1.00  0.00    -0.255 C  
HETATM    2  C   UNL     1     -11.503   6.647  70.215  1.00  0.00    -0.449 C  
ENDROOT
BRANCH   2   3
HETATM    3  C   UNL     1     -11.320   7.328  71.571  1.00  0.00    -0.251 C  
BRANCH   3   4
HETATM    4  N   UNL     1     -10.934   8.732  71.373  1.00  0.00    -0.265 NA 
HETATM    5  H   UNL     1      -9.991   8.809  70.991  1.00  0.00     0.000 HD 
BRANCH   4   6
HETATM    6  C   UNL     1     -11.922   9.453  70.531  1.00  0.00    -0.097 C  
HETATM    7  C   UNL     1     -13.202   9.809  71.285  1.00  0.00    -0.452 C  
BRANCH   6   8
HETATM    8  C   UNL     1     -11.295  10.748  69.966  1.00  0.00    -0.319 C  
HETATM    9  O   UNL     1     -10.094  10.768  69.702  1.00  0.00    -0.156 OA 
HETATM   10  N   UNL     1     -12.204  11.774  69.735  1.00  0.00    -0.242 N  
HETATM   11  H   UNL     1     -13.186  11.567  69.917  1.00  0.00     0.000 HD 
BRANCH  10  12
HETATM   12  C   UNL     1     -11.902  13.079  69.270  1.00  0.00    -0.316 A  
HETATM   13  C   UNL     1     -11.824  14.165  70.157  1.00  0.00    -0.382 A  
HETATM   14  C   UNL     1     -11.526  15.456  69.716  1.00  0.00    -0.338 A  
HETATM   15  C   UNL     1     -11.309  15.693  68.368  1.00  0.00    -0.365 A  
HETATM   16  C   UNL     1     -11.400  14.637  67.463  1.00  0.00    -0.361 A  
HETATM   17  C   UNL     1     -11.693  13.325  67.898  1.00  0.00    -0.395 A  
HETATM   18  C   UNL     1     -11.779  12.258  66.837  1.00  0.00    -0.404 C  
ENDBRANCH  10  12
ENDBRANCH   6   8
ENDBRANCH   4   6
ENDBRANCH   3   4
ENDBRANCH   2   3
TORSDOF 5
ENDMDL
MODEL      127
REMARK 921   NORMALIZED FREE ENERGY PREDICTED BY IDOCK:   -3.97 KCAL/MOL
REMARK 922        TOTAL FREE ENERGY PREDICTED BY IDOCK:   -5.47 KCAL/MOL
REMARK 923 INTER-LIGAND FREE ENERGY PREDICTED BY IDOCK:   -5.17 KCAL/MOL
REMARK 924 INTRA-LIGAND FREE ENERGY PREDICTED BY IDOCK:   -0.30 KCAL/MOL
REMARK 927      BINDING AFFINITY PREDICTED BY RF-SCORE:    0.00 PKD
ROOT
HETATM    1  C   UNL     1      -6.698  19.785  69.303  1.00  0.00    -0.383 C  
HETATM    2  C   UNL     1      -8.034  19.414  68.677  1.00  0.00    -0.403 C  
ENDROOT
BRANCH   2   3
HETATM    3  C   UNL     1      -8.084  17.931  68.310  1.00  0.00    -0.293 C  
BRANCH   3   4
HETATM    4  N   UNL     1      -9.228  17.678  67.425  1.00  0.00    -0.245 NA 
HETATM    5  H   UNL     1      -8.972  17.786  66.443  1.00  0.00     0.000 HD 
BRANCH   4   6
HETATM    6  C   UNL     1      -9.833  16.347  67.686  1.00  0.00    -0.243 C  
HETATM    7  C   UNL     1     -11.240  16.437  68.275  1.00  0.00    -0.300 C  
BRANCH   6   8
HETATM    8  C   UNL     1      -9.888  15.522  66.379  1.00  0.00    -0.278 C  
HETATM    9  O   UNL     1      -9.239  15.898  65.405  1.00  0.00    -0.271 OA 
HETATM   10  N   UNL     1     -10.635  14.354  66.468  1.00  0.00    -0.292 N  
HETATM   11  H   UNL     1     -11.036  14.133  67.380  1.00  0.00     0.000 HD 
BRANCH  10  12
HETATM   12  C   UNL     1     -10.895  13.436  65.418  1.00  0.00    -0.294 A  
HETATM   13  C   UNL     1     -10.224  12.204  65.349  1.00  0.00    -0.299 A  
HETATM   14  C   UNL     1     -10.470  11.288  64.324  1.00  0.00    -0.419 A  
HETATM   15  C   UNL     1     -11.390  11.592  63.332  1.00  0.00    -0.380 A  
HETATM   16  C   UNL     1     -12.055  12.816  63.366  1.00  0.00    -0.619 A  
HETATM   17  C   UNL     1     -11.820  13.748  64.403  1.00  0.00    -0.458 A  
HETATM   18  C   UNL     1     -12.584  15.046  64.339  1.00  0.00     0.010 C  
ENDBRANCH  10  12
ENDBRANCH   6   8
ENDBRANCH   4   6
ENDBRANCH   3   4
ENDBRANCH   2   3
TORSDOF 5
ENDMDL
MODEL      128
REMARK 921   NORMALIZED FREE ENERGY PREDICTED BY IDOCK:   -3.97 KCAL/MOL
REMARK 922        TOTAL FREE ENERGY PREDICTED BY IDOCK:   -5.47 KCAL/MOL
REMARK 923 INTER-LIGAND FREE ENERGY PREDICTED BY IDOCK:   -5.07 KCAL/MOL
REMARK 924 INTRA-LIGAND FREE ENERGY PREDICTED BY IDOCK:   -0.39 KCAL/MOL
REMARK 927      BINDING AFFINITY PREDICTED BY RF-SCORE:    0.00 PKD
ROOT
HETATM    1  C   UNL     1      -7.108   4.391  69.617  1.00  0.00    -0.050 C  
HETATM    2  C   UNL     1      -7.520   5.799  69.210  1.00  0.00    -0.083 C  
ENDROOT
BRANCH   2   3
HETATM    3  C   UNL     1      -8.915   6.144  69.730  1.00  0.00    -0.138 C  
BRANCH   3   4
HETATM    4  N   UNL     1      -9.301   7.481  69.262  1.00  0.00    -0.151 NA 
HETATM    5  H   UNL     1      -9.115   7.596  68.266  1.00  0.00     0.000 HD 
BRANCH   4   6
HETATM    6  C   UNL     1     -10.718   7.782  69.588  1.00  0.00    -0.223 C  
HETATM    7  C   UNL     1     -11.377   6.698  70.439  1.00  0.00    -0.421 C  
BRANCH   6   8
HETATM    8  C   UNL     1     -10.817   9.134  70.332  1.00  0.00    -0.242 C  
HETATM    9  O   UNL     1      -9.952   9.432  71.153  1.00  0.00    -0.289 OA 
HETATM   10  N   UNL     1     -11.874   9.939  69.924  1.00  0.00    -0.456 N  
HETATM   11  H   UNL     1     -12.451   9.587  69.160  1.00  0.00     0.000 HD 
BRANCH  10  12
HETATM   12  C   UNL     1     -12.231  11.201  70.464  1.00  0.00    -0.384 A  
HETATM   13  C   UNL     1     -12.985  11.296  71.645  1.00  0.00    -0.537 A  
HETATM   14  C   UNL     1     -13.342  12.531  72.192  1.00  0.00    -0.540 A  
HETATM   15  C   UNL     1     -12.961  13.704  71.559  1.00  0.00    -0.443 A  
HETATM   16  C   UNL     1     -12.230  13.637  70.375  1.00  0.00    -0.434 A  
HETATM   17  C   UNL     1     -11.855  12.394  69.816  1.00  0.00    -0.387 A  
HETATM   18  C   UNL     1     -11.075  12.433  68.527  1.00  0.00    -0.296 C  
ENDBRANCH  10  12
ENDBRANCH   6   8
ENDBRANCH   4   6
ENDBRANCH   3   4
ENDBRANCH   2   3
TORSDOF 5
ENDMDL
MODEL      129
REMARK 921   NORMALIZED FREE ENERGY PREDICTED BY IDOCK:   -3.96 KCAL/MOL
REMARK 922        TOTAL FREE ENERGY PREDICTED BY IDOCK:   -5.46 KCAL/MOL
REMARK 923 INTER-LIGAND FREE ENERGY PREDICTED BY IDOCK:   -5.20 KCAL/MOL
REMARK 924 INTRA-LIGAND FREE ENERGY PREDICTED BY IDOCK:   -0.26 KCAL/MOL
REMARK 927      BINDING AFFINITY PREDICTED BY RF-SCORE:    0.00 PKD
ROOT
HETATM    1  C   UNL     1     -12.653  15.963  73.349  1.00  0.00    -0.666 C  
HETATM    2  C   UNL     1     -14.086  15.818  72.856  1.00  0.00    -0.312 C  
ENDROOT
BRANCH   2   3
HETATM    3  C   UNL     1     -14.146  15.049  71.537  1.00  0.00    -0.521 C  
BRANCH   3   4
HETATM    4  N   UNL     1     -12.820  15.044  70.906  1.00  0.00    -0.364 NA 
HETATM    5  H   UNL     1     -12.203  15.738  71.328  1.00  0.00     0.000 HD 
BRANCH   4   6
HETATM    6  C   UNL     1     -12.212  13.689  70.931  1.00  0.00    -0.328 C  
HETATM    7  C   UNL     1     -13.115  12.642  71.580  1.00  0.00    -0.421 C  
BRANCH   6   8
HETATM    8  C   UNL     1     -11.868  13.234  69.494  1.00  0.00    -0.327 C  
HETATM    9  O   UNL     1     -12.391  13.808  68.541  1.00  0.00    -0.269 OA 
HETATM   10  N   UNL     1     -10.908  12.232  69.422  1.00  0.00    -0.457 N  
HETATM   11  H   UNL     1     -10.498  11.925  70.304  1.00  0.00     0.000 HD 
BRANCH  10  12
HETATM   12  C   UNL     1     -10.440  11.594  68.245  1.00  0.00    -0.204 A  
HETATM   13  C   UNL     1     -11.065  10.439  67.750  1.00  0.00    -0.365 A  
HETATM   14  C   UNL     1     -10.618   9.800  66.590  1.00  0.00    -0.178 A  
HETATM   15  C   UNL     1      -9.523  10.301  65.903  1.00  0.00    -0.241 A  
HETATM   16  C   UNL     1      -8.873  11.435  66.384  1.00  0.00    -0.193 A  
HETATM   17  C   UNL     1      -9.320  12.095  67.552  1.00  0.00    -0.181 A  
HETATM   18  C   UNL     1      -8.538  13.306  67.993  1.00  0.00    -0.178 C  
ENDBRANCH  10  12
ENDBRANCH   6   8
ENDBRANCH   4   6
ENDBRANCH   3   4
ENDBRANCH   2   3
TORSDOF 5
ENDMDL
MODEL      130
REMARK 921   NORMALIZED FREE ENERGY PREDICTED BY IDOCK:   -3.96 KCAL/MOL
REMARK 922        TOTAL FREE ENERGY PREDICTED BY IDOCK:   -5.46 KCAL/MOL
REMARK 923 INTER-LIGAND FREE ENERGY PREDICTED BY IDOCK:   -4.99 KCAL/MOL
REMARK 924 INTRA-LIGAND FREE ENERGY PREDICTED BY IDOCK:   -0.47 KCAL/MOL
REMARK 927      BINDING AFFINITY PREDICTED BY RF-SCORE:    0.00 PKD
ROOT
HETATM    1  C   UNL     1      -5.210  20.870  68.924  1.00  0.00    -0.374 C  
HETATM    2  C   UNL     1      -6.465  20.441  68.179  1.00  0.00    -0.339 C  
ENDROOT
BRANCH   2   3
HETATM    3  C   UNL     1      -7.389  19.615  69.074  1.00  0.00    -0.328 C  
BRANCH   3   4
HETATM    4  N   UNL     1      -7.420  18.224  68.605  1.00  0.00    -0.290 NA 
HETATM    5  H   UNL     1      -7.762  17.593  69.330  1.00  0.00     0.000 HD 
BRANCH   4   6
HETATM    6  C   UNL     1      -8.207  18.091  67.352  1.00  0.00    -0.224 C  
HETATM    7  C   UNL     1      -7.383  17.546  66.186  1.00  0.00    -0.347 C  
BRANCH   6   8
HETATM    8  C   UNL     1      -9.423  17.164  67.584  1.00  0.00    -0.241 C  
HETATM    9  O   UNL     1     -10.479  17.650  67.981  1.00  0.00    -0.366 OA 
HETATM   10  N   UNL     1      -9.209  15.836  67.233  1.00  0.00    -0.204 N  
HETATM   11  H   UNL     1      -8.302  15.609  66.826  1.00  0.00     0.000 HD 
BRANCH  10  12
HETATM   12  C   UNL     1     -10.127  14.766  67.384  1.00  0.00    -0.231 A  
HETATM   13  C   UNL     1     -10.259  14.091  68.608  1.00  0.00    -0.233 A  
HETATM   14  C   UNL     1     -11.160  13.037  68.775  1.00  0.00    -0.311 A  
HETATM   15  C   UNL     1     -11.945  12.624  67.709  1.00  0.00    -0.303 A  
HETATM   16  C   UNL     1     -11.820  13.264  66.478  1.00  0.00    -0.450 A  
HETATM   17  C   UNL     1     -10.917  14.337  66.299  1.00  0.00    -0.317 A  
HETATM   18  C   UNL     1     -10.852  14.951  64.924  1.00  0.00    -0.431 C  
ENDBRANCH  10  12
ENDBRANCH   6   8
ENDBRANCH   4   6
ENDBRANCH   3   4
ENDBRANCH   2   3
TORSDOF 5
ENDMDL
MODEL      131
REMARK 921   NORMALIZED FREE ENERGY PREDICTED BY IDOCK:   -3.96 KCAL/MOL
REMARK 922        TOTAL FREE ENERGY PREDICTED BY IDOCK:   -5.45 KCAL/MOL
REMARK 923 INTER-LIGAND FREE ENERGY PREDICTED BY IDOCK:   -5.07 KCAL/MOL
REMARK 924 INTRA-LIGAND FREE ENERGY PREDICTED BY IDOCK:   -0.38 KCAL/MOL
REMARK 927      BINDING AFFINITY PREDICTED BY RF-SCORE:    0.00 PKD
ROOT
HETATM    1  C   UNL     1     -13.855   8.994  72.116  1.00  0.00    -0.526 C  
HETATM    2  C   UNL     1     -12.548   9.676  71.738  1.00  0.00    -0.497 C  
ENDROOT
BRANCH   2   3
HETATM    3  C   UNL     1     -11.341   8.833  72.150  1.00  0.00    -0.341 C  
BRANCH   3   4
HETATM    4  N   UNL     1     -11.797   7.612  72.827  1.00  0.00    -0.593 NA 
HETATM    5  H   UNL     1     -12.630   7.227  72.381  1.00  0.00     0.000 HD 
BRANCH   4   6
HETATM    6  C   UNL     1     -10.713   6.603  72.917  1.00  0.00    -0.255 C  
HETATM    7  C   UNL     1     -11.197   5.253  73.443  1.00  0.00    -0.314 C  
BRANCH   6   8
HETATM    8  C   UNL     1     -10.061   6.397  71.530  1.00  0.00    -0.192 C  
HETATM    9  O   UNL     1      -8.878   6.692  71.373  1.00  0.00    -0.138 OA 
HETATM   10  N   UNL     1     -10.892   5.804  70.587  1.00  0.00    -0.280 N  
HETATM   11  H   UNL     1     -11.823   5.530  70.902  1.00  0.00     0.000 HD 
BRANCH  10  12
HETATM   12  C   UNL     1     -10.576   5.543  69.229  1.00  0.00    -0.255 A  
HETATM   13  C   UNL     1     -11.013   6.400  68.205  1.00  0.00    -0.396 A  
HETATM   14  C   UNL     1     -10.708   6.159  66.864  1.00  0.00    -0.413 A  
HETATM   15  C   UNL     1      -9.964   5.042  66.514  1.00  0.00    -0.249 A  
HETATM   16  C   UNL     1      -9.534   4.166  67.508  1.00  0.00    -0.225 A  
HETATM   17  C   UNL     1      -9.830   4.403  68.870  1.00  0.00    -0.163 A  
HETATM   18  C   UNL     1      -9.328   3.387  69.864  1.00  0.00    -0.238 C  
ENDBRANCH  10  12
ENDBRANCH   6   8
ENDBRANCH   4   6
ENDBRANCH   3   4
ENDBRANCH   2   3
TORSDOF 5
ENDMDL
MODEL      132
REMARK 921   NORMALIZED FREE ENERGY PREDICTED BY IDOCK:   -3.95 KCAL/MOL
REMARK 922        TOTAL FREE ENERGY PREDICTED BY IDOCK:   -5.45 KCAL/MOL
REMARK 923 INTER-LIGAND FREE ENERGY PREDICTED BY IDOCK:   -5.10 KCAL/MOL
REMARK 924 INTRA-LIGAND FREE ENERGY PREDICTED BY IDOCK:   -0.35 KCAL/MOL
REMARK 927      BINDING AFFINITY PREDICTED BY RF-SCORE:    0.00 PKD
ROOT
HETATM    1  C   UNL     1      -7.474  14.808  68.736  1.00  0.00    -0.133 C  
HETATM    2  C   UNL     1      -7.819  16.112  68.032  1.00  0.00    -0.150 C  
ENDROOT
BRANCH   2   3
HETATM    3  C   UNL     1      -9.135  15.999  67.264  1.00  0.00    -0.204 C  
BRANCH   3   4
HETATM    4  N   UNL     1      -9.238  14.668  66.650  1.00  0.00    -0.259 NA 
HETATM    5  H   UNL     1      -9.023  13.930  67.321  1.00  0.00     0.000 HD 
BRANCH   4   6
HETATM    6  C   UNL     1     -10.566  14.461  66.021  1.00  0.00    -0.302 C  
HETATM    7  C   UNL     1     -10.522  13.490  64.842  1.00  0.00    -0.417 C  
BRANCH   6   8
HETATM    8  C   UNL     1     -11.575  13.935  67.068  1.00  0.00    -0.369 C  
HETATM    9  O   UNL     1     -12.774  13.931  66.796  1.00  0.00    -0.193 OA 
HETATM   10  N   UNL     1     -10.993  13.430  68.224  1.00  0.00    -0.249 N  
HETATM   11  H   UNL     1      -9.974  13.417  68.258  1.00  0.00     0.000 HD 
BRANCH  10  12
HETATM   12  C   UNL     1     -11.675  12.931  69.363  1.00  0.00    -0.321 A  
HETATM   13  C   UNL     1     -12.269  13.801  70.291  1.00  0.00    -0.429 A  
HETATM   14  C   UNL     1     -12.947  13.326  71.416  1.00  0.00    -0.398 A  
HETATM   15  C   UNL     1     -13.035  11.961  71.645  1.00  0.00    -0.447 A  
HETATM   16  C   UNL     1     -12.438  11.076  70.750  1.00  0.00    -0.491 A  
HETATM   17  C   UNL     1     -11.756  11.545  69.603  1.00  0.00    -0.419 A  
HETATM   18  C   UNL     1     -11.135  10.504  68.706  1.00  0.00    -0.315 C  
ENDBRANCH  10  12
ENDBRANCH   6   8
ENDBRANCH   4   6
ENDBRANCH   3   4
ENDBRANCH   2   3
TORSDOF 5
ENDMDL
MODEL      133
REMARK 921   NORMALIZED FREE ENERGY PREDICTED BY IDOCK:   -3.94 KCAL/MOL
REMARK 922        TOTAL FREE ENERGY PREDICTED BY IDOCK:   -5.44 KCAL/MOL
REMARK 923 INTER-LIGAND FREE ENERGY PREDICTED BY IDOCK:   -5.00 KCAL/MOL
REMARK 924 INTRA-LIGAND FREE ENERGY PREDICTED BY IDOCK:   -0.44 KCAL/MOL
REMARK 927      BINDING AFFINITY PREDICTED BY RF-SCORE:    0.00 PKD
ROOT
HETATM    1  C   UNL     1     -11.007   6.769  66.971  1.00  0.00    -0.439 C  
HETATM    2  C   UNL     1      -9.632   7.221  67.440  1.00  0.00    -0.176 C  
ENDROOT
BRANCH   2   3
HETATM    3  C   UNL     1      -9.063   8.309  66.531  1.00  0.00    -0.178 C  
BRANCH   3   4
HETATM    4  N   UNL     1     -10.161   9.092  65.949  1.00  0.00    -0.387 NA 
HETATM    5  H   UNL     1     -10.917   9.230  66.619  1.00  0.00     0.000 HD 
BRANCH   4   6
HETATM    6  C   UNL     1      -9.676  10.385  65.403  1.00  0.00    -0.265 C  
HETATM    7  C   UNL     1     -10.496  10.874  64.210  1.00  0.00    -0.405 C  
BRANCH   6   8
HETATM    8  C   UNL     1      -9.697  11.470  66.505  1.00  0.00    -0.203 C  
HETATM    9  O   UNL     1      -8.642  11.803  67.039  1.00  0.00    -0.161 OA 
HETATM   10  N   UNL     1     -10.947  12.033  66.733  1.00  0.00    -0.270 N  
HETATM   11  H   UNL     1     -11.711  11.714  66.137  1.00  0.00     0.000 HD 
BRANCH  10  12
HETATM   12  C   UNL     1     -11.267  13.008  67.712  1.00  0.00    -0.279 A  
HETATM   13  C   UNL     1     -11.235  14.379  67.407  1.00  0.00    -0.337 A  
HETATM   14  C   UNL     1     -11.551  15.352  68.358  1.00  0.00    -0.368 A  
HETATM   15  C   UNL     1     -11.896  14.972  69.647  1.00  0.00    -0.358 A  
HETATM   16  C   UNL     1     -11.917  13.620  69.980  1.00  0.00    -0.413 A  
HETATM   17  C   UNL     1     -11.607  12.626  69.024  1.00  0.00    -0.367 A  
HETATM   18  C   UNL     1     -11.649  11.193  69.493  1.00  0.00    -0.392 C  
ENDBRANCH  10  12
ENDBRANCH   6   8
ENDBRANCH   4   6
ENDBRANCH   3   4
ENDBRANCH   2   3
TORSDOF 5
ENDMDL
MODEL      134
REMARK 921   NORMALIZED FREE ENERGY PREDICTED BY IDOCK:   -3.94 KCAL/MOL
REMARK 922        TOTAL FREE ENERGY PREDICTED BY IDOCK:   -5.43 KCAL/MOL
REMARK 923 INTER-LIGAND FREE ENERGY PREDICTED BY IDOCK:   -4.95 KCAL/MOL
REMARK 924 INTRA-LIGAND FREE ENERGY PREDICTED BY IDOCK:   -0.48 KCAL/MOL
REMARK 927      BINDING AFFINITY PREDICTED BY RF-SCORE:    0.00 PKD
ROOT
HETATM    1  C   UNL     1     -11.007   6.771  66.971  1.00  0.00    -0.439 C  
HETATM    2  C   UNL     1      -9.638   7.228  67.456  1.00  0.00    -0.171 C  
ENDROOT
BRANCH   2   3
HETATM    3  C   UNL     1      -9.059   8.311  66.547  1.00  0.00    -0.178 C  
BRANCH   3   4
HETATM    4  N   UNL     1     -10.151   9.090  65.947  1.00  0.00    -0.394 NA 
HETATM    5  H   UNL     1     -10.918   9.225  66.605  1.00  0.00     0.000 HD 
BRANCH   4   6
HETATM    6  C   UNL     1      -9.662  10.385  65.409  1.00  0.00    -0.265 C  
HETATM    7  C   UNL     1     -10.463  10.868  64.201  1.00  0.00    -0.397 C  
BRANCH   6   8
HETATM    8  C   UNL     1      -9.708  11.470  66.509  1.00  0.00    -0.203 C  
HETATM    9  O   UNL     1      -8.664  11.810  67.061  1.00  0.00    -0.167 OA 
HETATM   10  N   UNL     1     -10.965  12.026  66.716  1.00  0.00    -0.270 N  
HETATM   11  H   UNL     1     -11.717  11.702  66.108  1.00  0.00     0.000 HD 
BRANCH  10  12
HETATM   12  C   UNL     1     -11.307  13.000  67.689  1.00  0.00    -0.300 A  
HETATM   13  C   UNL     1     -11.720  12.623  68.978  1.00  0.00    -0.367 A  
HETATM   14  C   UNL     1     -12.057  13.570  69.948  1.00  0.00    -0.408 A  
HETATM   15  C   UNL     1     -12.000  14.921  69.645  1.00  0.00    -0.360 A  
HETATM   16  C   UNL     1     -11.612  15.321  68.368  1.00  0.00    -0.365 A  
HETATM   17  C   UNL     1     -11.260  14.373  67.380  1.00  0.00    -0.337 A  
HETATM   18  C   UNL     1     -10.867  14.912  66.028  1.00  0.00    -0.328 C  
ENDBRANCH  10  12
ENDBRANCH   6   8
ENDBRANCH   4   6
ENDBRANCH   3   4
ENDBRANCH   2   3
TORSDOF 5
ENDMDL
MODEL      135
REMARK 921   NORMALIZED FREE ENERGY PREDICTED BY IDOCK:   -3.94 KCAL/MOL
REMARK 922        TOTAL FREE ENERGY PREDICTED BY IDOCK:   -5.43 KCAL/MOL
REMARK 923 INTER-LIGAND FREE ENERGY PREDICTED BY IDOCK:   -4.87 KCAL/MOL
REMARK 924 INTRA-LIGAND FREE ENERGY PREDICTED BY IDOCK:   -0.56 KCAL/MOL
REMARK 927      BINDING AFFINITY PREDICTED BY RF-SCORE:    0.00 PKD
ROOT
HETATM    1  C   UNL     1     -12.507  12.718  64.804  1.00  0.00    -0.539 C  
HETATM    2  C   UNL     1     -11.080  13.133  65.130  1.00  0.00    -0.308 C  
ENDROOT
BRANCH   2   3
HETATM    3  C   UNL     1     -11.052  14.311  66.104  1.00  0.00    -0.324 C  
BRANCH   3   4
HETATM    4  N   UNL     1     -12.068  14.117  67.146  1.00  0.00    -0.521 NA 
HETATM    5  H   UNL     1     -12.776  13.441  66.856  1.00  0.00     0.000 HD 
BRANCH   4   6
HETATM    6  C   UNL     1     -11.453  13.735  68.442  1.00  0.00    -0.316 C  
HETATM    7  C   UNL     1     -12.259  14.213  69.649  1.00  0.00    -0.376 C  
BRANCH   6   8
HETATM    8  C   UNL     1     -11.289  12.200  68.523  1.00  0.00    -0.275 C  
HETATM    9  O   UNL     1     -12.168  11.478  68.056  1.00  0.00    -0.582 OA 
HETATM   10  N   UNL     1     -10.082  11.778  69.068  1.00  0.00    -0.416 N  
HETATM   11  H   UNL     1      -9.414  12.505  69.322  1.00  0.00     0.000 HD 
BRANCH  10  12
HETATM   12  C   UNL     1      -9.687  10.437  69.306  1.00  0.00    -0.214 A  
HETATM   13  C   UNL     1      -9.986   9.798  70.521  1.00  0.00    -0.258 A  
HETATM   14  C   UNL     1      -9.607   8.477  70.770  1.00  0.00    -0.217 A  
HETATM   15  C   UNL     1      -8.906   7.766  69.808  1.00  0.00    -0.139 A  
HETATM   16  C   UNL     1      -8.581   8.382  68.602  1.00  0.00    -0.132 A  
HETATM   17  C   UNL     1      -8.966   9.716  68.335  1.00  0.00    -0.123 A  
HETATM   18  C   UNL     1      -8.553  10.291  67.004  1.00  0.00    -0.129 C  
ENDBRANCH  10  12
ENDBRANCH   6   8
ENDBRANCH   4   6
ENDBRANCH   3   4
ENDBRANCH   2   3
TORSDOF 5
ENDMDL
MODEL      136
REMARK 921   NORMALIZED FREE ENERGY PREDICTED BY IDOCK:   -3.93 KCAL/MOL
REMARK 922        TOTAL FREE ENERGY PREDICTED BY IDOCK:   -5.41 KCAL/MOL
REMARK 923 INTER-LIGAND FREE ENERGY PREDICTED BY IDOCK:   -4.97 KCAL/MOL
REMARK 924 INTRA-LIGAND FREE ENERGY PREDICTED BY IDOCK:   -0.44 KCAL/MOL
REMARK 927      BINDING AFFINITY PREDICTED BY RF-SCORE:    0.00 PKD
ROOT
HETATM    1  C   UNL     1      -8.981  16.540  66.087  1.00  0.00    -0.344 C  
HETATM    2  C   UNL     1     -10.295  15.931  65.618  1.00  0.00    -0.413 C  
ENDROOT
BRANCH   2   3
HETATM    3  C   UNL     1     -10.086  14.528  65.049  1.00  0.00    -0.290 C  
BRANCH   3   4
HETATM    4  N   UNL     1     -11.226  14.165  64.197  1.00  0.00    -0.590 NA 
HETATM    5  H   UNL     1     -11.153  14.591  63.273  1.00  0.00     0.000 HD 
BRANCH   4   6
HETATM    6  C   UNL     1     -11.388  12.692  64.105  1.00  0.00    -0.383 C  
HETATM    7  C   UNL     1     -10.315  12.027  63.245  1.00  0.00    -0.398 C  
BRANCH   6   8
HETATM    8  C   UNL     1     -11.360  12.064  65.518  1.00  0.00    -0.328 C  
HETATM    9  O   UNL     1     -12.292  12.283  66.290  1.00  0.00    -0.556 OA 
HETATM   10  N   UNL     1     -10.280  11.222  65.752  1.00  0.00    -0.242 N  
HETATM   11  H   UNL     1      -9.640  11.068  64.973  1.00  0.00     0.000 HD 
BRANCH  10  12
HETATM   12  C   UNL     1      -9.978  10.555  66.967  1.00  0.00    -0.201 A  
HETATM   13  C   UNL     1     -10.373   9.225  67.181  1.00  0.00    -0.330 A  
HETATM   14  C   UNL     1     -10.081   8.552  68.370  1.00  0.00    -0.221 A  
HETATM   15  C   UNL     1      -9.392   9.204  69.381  1.00  0.00    -0.160 A  
HETATM   16  C   UNL     1      -9.005  10.531  69.202  1.00  0.00    -0.171 A  
HETATM   17  C   UNL     1      -9.288  11.219  68.000  1.00  0.00    -0.166 A  
HETATM   18  C   UNL     1      -8.835  12.654  67.914  1.00  0.00    -0.182 C  
ENDBRANCH  10  12
ENDBRANCH   6   8
ENDBRANCH   4   6
ENDBRANCH   3   4
ENDBRANCH   2   3
TORSDOF 5
ENDMDL
MODEL      137
REMARK 921   NORMALIZED FREE ENERGY PREDICTED BY IDOCK:   -3.92 KCAL/MOL
REMARK 922        TOTAL FREE ENERGY PREDICTED BY IDOCK:   -5.40 KCAL/MOL
REMARK 923 INTER-LIGAND FREE ENERGY PREDICTED BY IDOCK:   -4.83 KCAL/MOL
REMARK 924 INTRA-LIGAND FREE ENERGY PREDICTED BY IDOCK:   -0.57 KCAL/MOL
REMARK 927      BINDING AFFINITY PREDICTED BY RF-SCORE:    0.00 PKD
ROOT
HETATM    1  C   UNL     1     -11.323  11.842  67.145  1.00  0.00    -0.387 C  
HETATM    2  C   UNL     1     -10.094  12.680  66.827  1.00  0.00    -0.243 C  
ENDROOT
BRANCH   2   3
HETATM    3  C   UNL     1      -8.930  12.336  67.756  1.00  0.00    -0.177 C  
BRANCH   3   4
HETATM    4  N   UNL     1      -8.733  13.422  68.726  1.00  0.00    -0.371 NA 
HETATM    5  H   UNL     1      -8.812  13.084  69.685  1.00  0.00     0.000 HD 
BRANCH   4   6
HETATM    6  C   UNL     1      -7.444  14.123  68.501  1.00  0.00    -0.123 C  
HETATM    7  C   UNL     1      -6.437  13.283  67.717  1.00  0.00    -0.161 C  
BRANCH   6   8
HETATM    8  C   UNL     1      -7.685  15.452  67.747  1.00  0.00    -0.145 C  
HETATM    9  O   UNL     1      -6.951  15.749  66.807  1.00  0.00    -0.218 OA 
HETATM   10  N   UNL     1      -8.798  16.164  68.178  1.00  0.00    -0.181 N  
HETATM   11  H   UNL     1      -9.363  15.734  68.910  1.00  0.00     0.000 HD 
BRANCH  10  12
HETATM   12  C   UNL     1      -9.226  17.429  67.703  1.00  0.00    -0.234 A  
HETATM   13  C   UNL     1      -8.892  18.611  68.384  1.00  0.00    -0.367 A  
HETATM   14  C   UNL     1      -9.303  19.865  67.928  1.00  0.00    -0.448 A  
HETATM   15  C   UNL     1     -10.072  19.964  66.778  1.00  0.00    -0.586 A  
HETATM   16  C   UNL     1     -10.433  18.806  66.093  1.00  0.00    -0.499 A  
HETATM   17  C   UNL     1     -10.016  17.532  66.541  1.00  0.00    -0.323 A  
HETATM   18  C   UNL     1     -10.472  16.343  65.734  1.00  0.00    -0.369 C  
ENDBRANCH  10  12
ENDBRANCH   6   8
ENDBRANCH   4   6
ENDBRANCH   3   4
ENDBRANCH   2   3
TORSDOF 5
ENDMDL
MODEL      138
REMARK 921   NORMALIZED FREE ENERGY PREDICTED BY IDOCK:   -3.91 KCAL/MOL
REMARK 922        TOTAL FREE ENERGY PREDICTED BY IDOCK:   -5.40 KCAL/MOL
REMARK 923 INTER-LIGAND FREE ENERGY PREDICTED BY IDOCK:   -4.83 KCAL/MOL
REMARK 924 INTRA-LIGAND FREE ENERGY PREDICTED BY IDOCK:   -0.57 KCAL/MOL
REMARK 927      BINDING AFFINITY PREDICTED BY RF-SCORE:    0.00 PKD
ROOT
HETATM    1  C   UNL     1      -7.571  14.049  68.052  1.00  0.00    -0.143 C  
HETATM    2  C   UNL     1      -6.866  15.385  68.237  1.00  0.00    -0.121 C  
ENDROOT
BRANCH   2   3
HETATM    3  C   UNL     1      -7.744  16.376  68.999  1.00  0.00    -0.235 C  
BRANCH   3   4
HETATM    4  N   UNL     1      -8.485  17.215  68.048  1.00  0.00    -0.213 NA 
HETATM    5  H   UNL     1      -8.477  16.813  67.111  1.00  0.00     0.000 HD 
BRANCH   4   6
HETATM    6  C   UNL     1      -9.870  17.475  68.516  1.00  0.00    -0.330 C  
HETATM    7  C   UNL     1     -10.424  18.811  68.026  1.00  0.00    -0.410 C  
BRANCH   6   8
HETATM    8  C   UNL     1     -10.811  16.339  68.051  1.00  0.00    -0.339 C  
HETATM    9  O   UNL     1     -11.815  16.084  68.712  1.00  0.00    -0.375 OA 
HETATM   10  N   UNL     1     -10.450  15.751  66.845  1.00  0.00    -0.311 N  
HETATM   11  H   UNL     1      -9.637  16.142  66.368  1.00  0.00     0.000 HD 
BRANCH  10  12
HETATM   12  C   UNL     1     -11.099  14.662  66.210  1.00  0.00    -0.336 A  
HETATM   13  C   UNL     1     -11.102  13.383  66.789  1.00  0.00    -0.308 A  
HETATM   14  C   UNL     1     -11.739  12.300  66.179  1.00  0.00    -0.440 A  
HETATM   15  C   UNL     1     -12.380  12.472  64.962  1.00  0.00    -0.522 A  
HETATM   16  C   UNL     1     -12.375  13.726  64.356  1.00  0.00    -0.389 A  
HETATM   17  C   UNL     1     -11.741  14.831  64.968  1.00  0.00    -0.364 A  
HETATM   18  C   UNL     1     -11.785  16.141  64.222  1.00  0.00     0.003 C  
ENDBRANCH  10  12
ENDBRANCH   6   8
ENDBRANCH   4   6
ENDBRANCH   3   4
ENDBRANCH   2   3
TORSDOF 5
ENDMDL
MODEL      139
REMARK 921   NORMALIZED FREE ENERGY PREDICTED BY IDOCK:   -3.90 KCAL/MOL
REMARK 922        TOTAL FREE ENERGY PREDICTED BY IDOCK:   -5.38 KCAL/MOL
REMARK 923 INTER-LIGAND FREE ENERGY PREDICTED BY IDOCK:   -4.93 KCAL/MOL
REMARK 924 INTRA-LIGAND FREE ENERGY PREDICTED BY IDOCK:   -0.44 KCAL/MOL
REMARK 927      BINDING AFFINITY PREDICTED BY RF-SCORE:    0.00 PKD
ROOT
HETATM    1  C   UNL     1      -9.865  10.023  67.474  1.00  0.00    -0.211 C  
HETATM    2  C   UNL     1     -11.043  10.926  67.139  1.00  0.00    -0.308 C  
ENDROOT
BRANCH   2   3
HETATM    3  C   UNL     1     -10.737  12.386  67.472  1.00  0.00    -0.228 C  
BRANCH   3   4
HETATM    4  N   UNL     1     -11.370  13.263  66.479  1.00  0.00    -0.312 NA 
HETATM    5  H   UNL     1     -11.799  14.078  66.920  1.00  0.00     0.000 HD 
BRANCH   4   6
HETATM    6  C   UNL     1     -10.412  13.662  65.417  1.00  0.00    -0.324 C  
HETATM    7  C   UNL     1     -10.901  13.313  64.012  1.00  0.00    -0.287 C  
BRANCH   6   8
HETATM    8  C   UNL     1     -10.138  15.182  65.491  1.00  0.00    -0.370 C  
HETATM    9  O   UNL     1     -10.741  15.937  64.731  1.00  0.00    -0.559 OA 
HETATM   10  N   UNL     1      -9.261  15.560  66.500  1.00  0.00    -0.268 N  
HETATM   11  H   UNL     1      -8.917  14.819  67.111  1.00  0.00     0.000 HD 
BRANCH  10  12
HETATM   12  C   UNL     1      -8.795  16.873  66.765  1.00  0.00    -0.235 A  
HETATM   13  C   UNL     1      -7.676  17.394  66.095  1.00  0.00    -0.311 A  
HETATM   14  C   UNL     1      -7.207  18.686  66.342  1.00  0.00    -0.268 A  
HETATM   15  C   UNL     1      -7.843  19.486  67.279  1.00  0.00    -0.293 A  
HETATM   16  C   UNL     1      -8.944  18.986  67.972  1.00  0.00    -0.348 A  
HETATM   17  C   UNL     1      -9.433  17.683  67.725  1.00  0.00    -0.260 A  
HETATM   18  C   UNL     1     -10.622  17.236  68.537  1.00  0.00    -0.350 C  
ENDBRANCH  10  12
ENDBRANCH   6   8
ENDBRANCH   4   6
ENDBRANCH   3   4
ENDBRANCH   2   3
TORSDOF 5
ENDMDL
MODEL      140
REMARK 921   NORMALIZED FREE ENERGY PREDICTED BY IDOCK:   -3.89 KCAL/MOL
REMARK 922        TOTAL FREE ENERGY PREDICTED BY IDOCK:   -5.36 KCAL/MOL
REMARK 923 INTER-LIGAND FREE ENERGY PREDICTED BY IDOCK:   -4.93 KCAL/MOL
REMARK 924 INTRA-LIGAND FREE ENERGY PREDICTED BY IDOCK:   -0.44 KCAL/MOL
REMARK 927      BINDING AFFINITY PREDICTED BY RF-SCORE:    0.00 PKD
ROOT
HETATM    1  C   UNL     1     -11.748   6.640  70.066  1.00  0.00    -0.378 C  
HETATM    2  C   UNL     1     -11.269   6.098  68.727  1.00  0.00    -0.307 C  
ENDROOT
BRANCH   2   3
HETATM    3  C   UNL     1     -10.605   7.191  67.890  1.00  0.00    -0.208 C  
BRANCH   3   4
HETATM    4  N   UNL     1     -10.721   8.483  68.580  1.00  0.00    -0.417 NA 
HETATM    5  H   UNL     1     -11.063   8.367  69.534  1.00  0.00     0.000 HD 
BRANCH   4   6
HETATM    6  C   UNL     1      -9.440   9.232  68.549  1.00  0.00    -0.146 C  
HETATM    7  C   UNL     1      -8.304   8.444  67.900  1.00  0.00    -0.131 C  
BRANCH   6   8
HETATM    8  C   UNL     1      -9.623  10.568  67.792  1.00  0.00    -0.156 C  
HETATM    9  O   UNL     1      -8.664  11.328  67.677  1.00  0.00    -0.128 OA 
HETATM   10  N   UNL     1     -10.882  10.743  67.231  1.00  0.00    -0.278 N  
HETATM   11  H   UNL     1     -11.542   9.973  67.334  1.00  0.00     0.000 HD 
BRANCH  10  12
HETATM   12  C   UNL     1     -11.340  11.886  66.528  1.00  0.00    -0.341 A  
HETATM   13  C   UNL     1     -11.330  11.927  65.124  1.00  0.00    -0.328 A  
HETATM   14  C   UNL     1     -11.781  13.043  64.417  1.00  0.00    -0.426 A  
HETATM   15  C   UNL     1     -12.244  14.156  65.103  1.00  0.00    -0.439 A  
HETATM   16  C   UNL     1     -12.247  14.149  66.496  1.00  0.00    -0.463 A  
HETATM   17  C   UNL     1     -11.801  13.022  67.223  1.00  0.00    -0.419 A  
HETATM   18  C   UNL     1     -11.835  13.124  68.727  1.00  0.00    -0.361 C  
ENDBRANCH  10  12
ENDBRANCH   6   8
ENDBRANCH   4   6
ENDBRANCH   3   4
ENDBRANCH   2   3
TORSDOF 5
ENDMDL
MODEL      141
REMARK 921   NORMALIZED FREE ENERGY PREDICTED BY IDOCK:   -3.88 KCAL/MOL
REMARK 922        TOTAL FREE ENERGY PREDICTED BY IDOCK:   -5.36 KCAL/MOL
REMARK 923 INTER-LIGAND FREE ENERGY PREDICTED BY IDOCK:   -5.03 KCAL/MOL
REMARK 924 INTRA-LIGAND FREE ENERGY PREDICTED BY IDOCK:   -0.33 KCAL/MOL
REMARK 927      BINDING AFFINITY PREDICTED BY RF-SCORE:    0.00 PKD
ROOT
HETATM    1  C   UNL     1      -5.942  20.117  69.780  1.00  0.00    -0.387 C  
HETATM    2  C   UNL     1      -6.987  19.312  69.020  1.00  0.00    -0.381 C  
ENDROOT
BRANCH   2   3
HETATM    3  C   UNL     1      -7.901  20.221  68.199  1.00  0.00    -0.105 C  
BRANCH   3   4
HETATM    4  N   UNL     1      -9.300  19.812  68.382  1.00  0.00    -0.339 NA 
HETATM    5  H   UNL     1      -9.799  20.456  68.996  1.00  0.00     0.000 HD 
BRANCH   4   6
HETATM    6  C   UNL     1      -9.995  19.654  67.080  1.00  0.00    -0.392 C  
HETATM    7  C   UNL     1      -9.196  20.217  65.906  1.00  0.00    -0.088 C  
BRANCH   6   8
HETATM    8  C   UNL     1     -10.294  18.161  66.814  1.00  0.00    -0.365 C  
HETATM    9  O   UNL     1     -10.510  17.789  65.662  1.00  0.00    -0.613 OA 
HETATM   10  N   UNL     1     -10.209  17.348  67.938  1.00  0.00    -0.330 N  
HETATM   11  H   UNL     1      -9.923  17.796  68.808  1.00  0.00     0.000 HD 
BRANCH  10  12
HETATM   12  C   UNL     1     -10.478  15.957  67.995  1.00  0.00    -0.274 A  
HETATM   13  C   UNL     1     -11.630  15.468  68.632  1.00  0.00    -0.379 A  
HETATM   14  C   UNL     1     -11.913  14.101  68.695  1.00  0.00    -0.373 A  
HETATM   15  C   UNL     1     -11.037  13.188  68.129  1.00  0.00    -0.284 A  
HETATM   16  C   UNL     1      -9.877  13.645  67.508  1.00  0.00    -0.227 A  
HETATM   17  C   UNL     1      -9.584  15.026  67.431  1.00  0.00    -0.205 A  
HETATM   18  C   UNL     1      -8.297  15.413  66.747  1.00  0.00    -0.285 C  
ENDBRANCH  10  12
ENDBRANCH   6   8
ENDBRANCH   4   6
ENDBRANCH   3   4
ENDBRANCH   2   3
TORSDOF 5
ENDMDL
MODEL      142
REMARK 921   NORMALIZED FREE ENERGY PREDICTED BY IDOCK:   -3.86 KCAL/MOL
REMARK 922        TOTAL FREE ENERGY PREDICTED BY IDOCK:   -5.32 KCAL/MOL
REMARK 923 INTER-LIGAND FREE ENERGY PREDICTED BY IDOCK:   -4.88 KCAL/MOL
REMARK 924 INTRA-LIGAND FREE ENERGY PREDICTED BY IDOCK:   -0.44 KCAL/MOL
REMARK 927      BINDING AFFINITY PREDICTED BY RF-SCORE:    0.00 PKD
ROOT
HETATM    1  C   UNL     1      -7.012  14.218  68.059  1.00  0.00    -0.149 C  
HETATM    2  C   UNL     1      -6.159  15.459  68.276  1.00  0.00    -0.120 C  
ENDROOT
BRANCH   2   3
HETATM    3  C   UNL     1      -7.005  16.641  68.749  1.00  0.00    -0.185 C  
BRANCH   3   4
HETATM    4  N   UNL     1      -7.420  17.446  67.593  1.00  0.00    -0.181 NA 
HETATM    5  H   UNL     1      -7.573  16.865  66.769  1.00  0.00     0.000 HD 
BRANCH   4   6
HETATM    6  C   UNL     1      -8.615  18.270  67.906  1.00  0.00    -0.258 C  
HETATM    7  C   UNL     1      -8.541  19.677  67.315  1.00  0.00    -0.356 C  
BRANCH   6   8
HETATM    8  C   UNL     1      -9.894  17.573  67.385  1.00  0.00    -0.297 C  
HETATM    9  O   UNL     1     -10.970  18.160  67.463  1.00  0.00    -0.324 OA 
HETATM   10  N   UNL     1      -9.673  16.337  66.790  1.00  0.00    -0.232 N  
HETATM   11  H   UNL     1      -8.704  16.028  66.717  1.00  0.00     0.000 HD 
BRANCH  10  12
HETATM   12  C   UNL     1     -10.661  15.461  66.272  1.00  0.00    -0.312 A  
HETATM   13  C   UNL     1     -11.054  15.526  64.926  1.00  0.00    -0.428 A  
HETATM   14  C   UNL     1     -12.023  14.669  64.399  1.00  0.00    -0.454 A  
HETATM   15  C   UNL     1     -12.633  13.730  65.217  1.00  0.00    -0.510 A  
HETATM   16  C   UNL     1     -12.276  13.658  66.562  1.00  0.00    -0.454 A  
HETATM   17  C   UNL     1     -11.291  14.515  67.104  1.00  0.00    -0.361 A  
HETATM   18  C   UNL     1     -10.988  14.361  68.573  1.00  0.00    -0.264 C  
ENDBRANCH  10  12
ENDBRANCH   6   8
ENDBRANCH   4   6
ENDBRANCH   3   4
ENDBRANCH   2   3
TORSDOF 5
ENDMDL
MODEL      143
REMARK 921   NORMALIZED FREE ENERGY PREDICTED BY IDOCK:   -3.85 KCAL/MOL
REMARK 922        TOTAL FREE ENERGY PREDICTED BY IDOCK:   -5.31 KCAL/MOL
REMARK 923 INTER-LIGAND FREE ENERGY PREDICTED BY IDOCK:   -5.01 KCAL/MOL
REMARK 924 INTRA-LIGAND FREE ENERGY PREDICTED BY IDOCK:   -0.30 KCAL/MOL
REMARK 927      BINDING AFFINITY PREDICTED BY RF-SCORE:    0.00 PKD
ROOT
HETATM    1  C   UNL     1      -7.972  10.065  64.080  1.00  0.00    -0.151 C  
HETATM    2  C   UNL     1      -9.462  10.193  64.359  1.00  0.00    -0.368 C  
ENDROOT
BRANCH   2   3
HETATM    3  C   UNL     1     -10.157  11.039  63.293  1.00  0.00    -0.348 C  
BRANCH   3   4
HETATM    4  N   UNL     1      -9.848  12.459  63.508  1.00  0.00    -0.656 NA 
HETATM    5  H   UNL     1      -9.679  12.942  62.625  1.00  0.00     0.000 HD 
BRANCH   4   6
HETATM    6  C   UNL     1     -10.907  13.132  64.301  1.00  0.00    -0.406 C  
HETATM    7  C   UNL     1     -12.236  12.380  64.280  1.00  0.00    -0.538 C  
BRANCH   6   8
HETATM    8  C   UNL     1     -10.447  13.299  65.768  1.00  0.00    -0.284 C  
HETATM    9  O   UNL     1     -10.963  12.604  66.641  1.00  0.00    -0.247 OA 
HETATM   10  N   UNL     1      -9.404  14.200  65.945  1.00  0.00    -0.523 N  
HETATM   11  H   UNL     1      -9.019  14.628  65.103  1.00  0.00     0.000 HD 
BRANCH  10  12
HETATM   12  C   UNL     1      -8.820  14.583  67.180  1.00  0.00    -0.229 A  
HETATM   13  C   UNL     1      -7.564  14.092  67.571  1.00  0.00    -0.200 A  
HETATM   14  C   UNL     1      -6.974  14.462  68.781  1.00  0.00    -0.100 A  
HETATM   15  C   UNL     1      -7.637  15.327  69.638  1.00  0.00    -0.176 A  
HETATM   16  C   UNL     1      -8.893  15.813  69.283  1.00  0.00    -0.262 A  
HETATM   17  C   UNL     1      -9.497  15.453  68.057  1.00  0.00    -0.201 A  
HETATM   18  C   UNL     1     -10.863  16.026  67.776  1.00  0.00    -0.324 C  
ENDBRANCH  10  12
ENDBRANCH   6   8
ENDBRANCH   4   6
ENDBRANCH   3   4
ENDBRANCH   2   3
TORSDOF 5
ENDMDL
MODEL      144
REMARK 921   NORMALIZED FREE ENERGY PREDICTED BY IDOCK:   -3.85 KCAL/MOL
REMARK 922        TOTAL FREE ENERGY PREDICTED BY IDOCK:   -5.31 KCAL/MOL
REMARK 923 INTER-LIGAND FREE ENERGY PREDICTED BY IDOCK:   -4.71 KCAL/MOL
REMARK 924 INTRA-LIGAND FREE ENERGY PREDICTED BY IDOCK:   -0.59 KCAL/MOL
REMARK 927      BINDING AFFINITY PREDICTED BY RF-SCORE:    0.00 PKD
ROOT
HETATM    1  C   UNL     1      -8.087   8.708  67.771  1.00  0.00    -0.107 C  
HETATM    2  C   UNL     1      -8.548   9.389  69.051  1.00  0.00    -0.135 C  
ENDROOT
BRANCH   2   3
HETATM    3  C   UNL     1     -10.052   9.220  69.261  1.00  0.00    -0.200 C  
BRANCH   3   4
HETATM    4  N   UNL     1     -10.514  10.146  70.303  1.00  0.00    -0.394 NA 
HETATM    5  H   UNL     1      -9.809  10.853  70.514  1.00  0.00     0.000 HD 
BRANCH   4   6
HETATM    6  C   UNL     1     -11.813  10.766  69.942  1.00  0.00    -0.335 C  
HETATM    7  C   UNL     1     -12.567  11.319  71.151  1.00  0.00    -0.501 C  
BRANCH   6   8
HETATM    8  C   UNL     1     -11.593  11.908  68.922  1.00  0.00    -0.311 C  
HETATM    9  O   UNL     1     -12.135  11.841  67.821  1.00  0.00    -0.595 OA 
HETATM   10  N   UNL     1     -10.838  12.970  69.403  1.00  0.00    -0.444 N  
HETATM   11  H   UNL     1     -10.539  12.918  70.376  1.00  0.00     0.000 HD 
BRANCH  10  12
HETATM   12  C   UNL     1     -10.441  14.121  68.675  1.00  0.00    -0.250 A  
HETATM   13  C   UNL     1     -11.258  15.263  68.622  1.00  0.00    -0.303 A  
HETATM   14  C   UNL     1     -10.881  16.405  67.913  1.00  0.00    -0.328 A  
HETATM   15  C   UNL     1      -9.677  16.426  67.226  1.00  0.00    -0.239 A  
HETATM   16  C   UNL     1      -8.857  15.300  67.245  1.00  0.00    -0.212 A  
HETATM   17  C   UNL     1      -9.224  14.141  67.967  1.00  0.00    -0.195 A  
HETATM   18  C   UNL     1      -8.270  12.974  67.912  1.00  0.00    -0.166 C  
ENDBRANCH  10  12
ENDBRANCH   6   8
ENDBRANCH   4   6
ENDBRANCH   3   4
ENDBRANCH   2   3
TORSDOF 5
ENDMDL
MODEL      145
REMARK 921   NORMALIZED FREE ENERGY PREDICTED BY IDOCK:   -3.84 KCAL/MOL
REMARK 922        TOTAL FREE ENERGY PREDICTED BY IDOCK:   -5.30 KCAL/MOL
REMARK 923 INTER-LIGAND FREE ENERGY PREDICTED BY IDOCK:   -4.79 KCAL/MOL
REMARK 924 INTRA-LIGAND FREE ENERGY PREDICTED BY IDOCK:   -0.51 KCAL/MOL
REMARK 927      BINDING AFFINITY PREDICTED BY RF-SCORE:    0.00 PKD
ROOT
HETATM    1  C   UNL     1     -10.631  19.598  66.289  1.00  0.00    -0.585 C  
HETATM    2  C   UNL     1      -9.505  18.577  66.351  1.00  0.00    -0.304 C  
ENDROOT
BRANCH   2   3
HETATM    3  C   UNL     1      -9.873  17.397  67.249  1.00  0.00    -0.278 C  
BRANCH   3   4
HETATM    4  N   UNL     1      -9.853  16.154  66.468  1.00  0.00    -0.252 NA 
HETATM    5  H   UNL     1      -9.472  15.378  67.010  1.00  0.00     0.000 HD 
BRANCH   4   6
HETATM    6  C   UNL     1     -11.197  15.830  65.926  1.00  0.00     0.004 C  
HETATM    7  C   UNL     1     -11.256  15.893  64.401  1.00  0.00    -0.242 C  
BRANCH   6   8
HETATM    8  C   UNL     1     -11.632  14.420  66.388  1.00  0.00    -0.375 C  
HETATM    9  O   UNL     1     -12.733  13.991  66.050  1.00  0.00    -0.475 OA 
HETATM   10  N   UNL     1     -10.663  13.725  67.102  1.00  0.00    -0.280 N  
HETATM   11  H   UNL     1      -9.760  14.184  67.219  1.00  0.00     0.000 HD 
BRANCH  10  12
HETATM   12  C   UNL     1     -10.805  12.440  67.686  1.00  0.00    -0.225 A  
HETATM   13  C   UNL     1     -11.235  12.291  69.015  1.00  0.00    -0.319 A  
HETATM   14  C   UNL     1     -11.383  11.033  69.603  1.00  0.00    -0.363 A  
HETATM   15  C   UNL     1     -11.091   9.890  68.875  1.00  0.00    -0.181 A  
HETATM   16  C   UNL     1     -10.644  10.011  67.561  1.00  0.00    -0.336 A  
HETATM   17  C   UNL     1     -10.498  11.278  66.951  1.00  0.00    -0.286 A  
HETATM   18  C   UNL     1      -9.996  11.297  65.530  1.00  0.00    -0.293 C  
ENDBRANCH  10  12
ENDBRANCH   6   8
ENDBRANCH   4   6
ENDBRANCH   3   4
ENDBRANCH   2   3
TORSDOF 5
ENDMDL
MODEL      146
REMARK 921   NORMALIZED FREE ENERGY PREDICTED BY IDOCK:   -3.84 KCAL/MOL
REMARK 922        TOTAL FREE ENERGY PREDICTED BY IDOCK:   -5.30 KCAL/MOL
REMARK 923 INTER-LIGAND FREE ENERGY PREDICTED BY IDOCK:   -4.87 KCAL/MOL
REMARK 924 INTRA-LIGAND FREE ENERGY PREDICTED BY IDOCK:   -0.43 KCAL/MOL
REMARK 927      BINDING AFFINITY PREDICTED BY RF-SCORE:    0.00 PKD
ROOT
HETATM    1  C   UNL     1      -9.728   2.139  71.797  1.00  0.00    -0.214 C  
HETATM    2  C   UNL     1      -9.608   2.640  73.228  1.00  0.00    -0.133 C  
ENDROOT
BRANCH   2   3
HETATM    3  C   UNL     1     -10.652   3.714  73.531  1.00  0.00    -0.195 C  
BRANCH   3   4
HETATM    4  N   UNL     1     -10.657   4.717  72.457  1.00  0.00    -0.198 NA 
HETATM    5  H   UNL     1     -11.183   4.392  71.646  1.00  0.00     0.000 HD 
BRANCH   4   6
HETATM    6  C   UNL     1     -11.158   6.028  72.941  1.00  0.00    -0.255 C  
HETATM    7  C   UNL     1     -10.200   6.710  73.916  1.00  0.00    -0.379 C  
BRANCH   6   8
HETATM    8  C   UNL     1     -11.415   6.974  71.744  1.00  0.00    -0.267 C  
HETATM    9  O   UNL     1     -12.065   6.565  70.785  1.00  0.00    -0.362 OA 
HETATM   10  N   UNL     1     -10.928   8.264  71.917  1.00  0.00    -0.266 N  
HETATM   11  H   UNL     1     -10.492   8.475  72.814  1.00  0.00     0.000 HD 
BRANCH  10  12
HETATM   12  C   UNL     1     -10.979   9.318  70.970  1.00  0.00    -0.320 A  
HETATM   13  C   UNL     1      -9.950   9.498  70.030  1.00  0.00    -0.274 A  
HETATM   14  C   UNL     1      -9.986  10.529  69.089  1.00  0.00    -0.236 A  
HETATM   15  C   UNL     1     -11.052  11.415  69.074  1.00  0.00    -0.300 A  
HETATM   16  C   UNL     1     -12.076  11.271  70.007  1.00  0.00    -0.425 A  
HETATM   17  C   UNL     1     -12.055  10.227  70.960  1.00  0.00    -0.487 A  
HETATM   18  C   UNL     1     -13.206  10.167  71.931  1.00  0.00    -0.557 C  
ENDBRANCH  10  12
ENDBRANCH   6   8
ENDBRANCH   4   6
ENDBRANCH   3   4
ENDBRANCH   2   3
TORSDOF 5
ENDMDL
MODEL      147
REMARK 921   NORMALIZED FREE ENERGY PREDICTED BY IDOCK:   -3.83 KCAL/MOL
REMARK 922        TOTAL FREE ENERGY PREDICTED BY IDOCK:   -5.29 KCAL/MOL
REMARK 923 INTER-LIGAND FREE ENERGY PREDICTED BY IDOCK:   -4.97 KCAL/MOL
REMARK 924 INTRA-LIGAND FREE ENERGY PREDICTED BY IDOCK:   -0.33 KCAL/MOL
REMARK 927      BINDING AFFINITY PREDICTED BY RF-SCORE:    0.00 PKD
ROOT
HETATM    1  C   UNL     1     -11.614   9.298  71.408  1.00  0.00    -0.437 C  
HETATM    2  C   UNL     1     -12.896  10.118  71.417  1.00  0.00    -0.530 C  
ENDROOT
BRANCH   2   3
HETATM    3  C   UNL     1     -12.605  11.606  71.224  1.00  0.00    -0.320 C  
BRANCH   3   4
HETATM    4  N   UNL     1     -11.588  11.781  70.178  1.00  0.00    -0.508 NA 
HETATM    5  H   UNL     1     -11.132  10.898  69.950  1.00  0.00     0.000 HD 
BRANCH   4   6
HETATM    6  C   UNL     1     -12.158  12.428  68.969  1.00  0.00    -0.136 C  
HETATM    7  C   UNL     1     -11.852  13.923  68.892  1.00  0.00    -0.393 C  
BRANCH   6   8
HETATM    8  C   UNL     1     -11.621  11.739  67.694  1.00  0.00    -0.294 C  
HETATM    9  O   UNL     1     -12.082  12.057  66.600  1.00  0.00    -0.615 OA 
HETATM   10  N   UNL     1     -10.577  10.849  67.918  1.00  0.00    -0.193 N  
HETATM   11  H   UNL     1     -10.242  10.765  68.877  1.00  0.00     0.000 HD 
BRANCH  10  12
HETATM   12  C   UNL     1      -9.929  10.046  66.944  1.00  0.00    -0.209 A  
HETATM   13  C   UNL     1      -9.430  10.607  65.758  1.00  0.00    -0.244 A  
HETATM   14  C   UNL     1      -8.787   9.831  64.790  1.00  0.00    -0.239 A  
HETATM   15  C   UNL     1      -8.640   8.466  64.985  1.00  0.00    -0.133 A  
HETATM   16  C   UNL     1      -9.144   7.881  66.145  1.00  0.00    -0.210 A  
HETATM   17  C   UNL     1      -9.789   8.657  67.135  1.00  0.00    -0.269 A  
HETATM   18  C   UNL     1     -10.307   7.924  68.345  1.00  0.00    -0.235 C  
ENDBRANCH  10  12
ENDBRANCH   6   8
ENDBRANCH   4   6
ENDBRANCH   3   4
ENDBRANCH   2   3
TORSDOF 5
ENDMDL
MODEL      148
REMARK 921   NORMALIZED FREE ENERGY PREDICTED BY IDOCK:   -3.82 KCAL/MOL
REMARK 922        TOTAL FREE ENERGY PREDICTED BY IDOCK:   -5.28 KCAL/MOL
REMARK 923 INTER-LIGAND FREE ENERGY PREDICTED BY IDOCK:   -4.86 KCAL/MOL
REMARK 924 INTRA-LIGAND FREE ENERGY PREDICTED BY IDOCK:   -0.42 KCAL/MOL
REMARK 927      BINDING AFFINITY PREDICTED BY RF-SCORE:    0.00 PKD
ROOT
HETATM    1  C   UNL     1     -10.044  20.273  67.777  1.00  0.00    -0.505 C  
HETATM    2  C   UNL     1      -9.524  18.854  67.957  1.00  0.00    -0.361 C  
ENDROOT
BRANCH   2   3
HETATM    3  C   UNL     1     -10.648  17.828  67.823  1.00  0.00    -0.386 C  
BRANCH   3   4
HETATM    4  N   UNL     1     -10.079  16.503  67.542  1.00  0.00    -0.261 NA 
HETATM    5  H   UNL     1      -9.080  16.561  67.345  1.00  0.00     0.000 HD 
BRANCH   4   6
HETATM    6  C   UNL     1     -10.363  15.545  68.640  1.00  0.00    -0.219 C  
HETATM    7  C   UNL     1     -11.848  15.459  68.988  1.00  0.00    -0.357 C  
BRANCH   6   8
HETATM    8  C   UNL     1      -9.853  14.136  68.262  1.00  0.00    -0.235 C  
HETATM    9  O   UNL     1      -8.724  13.794  68.607  1.00  0.00    -0.147 OA 
HETATM   10  N   UNL     1     -10.789  13.341  67.611  1.00  0.00    -0.254 N  
HETATM   11  H   UNL     1     -11.719  13.739  67.482  1.00  0.00     0.000 HD 
BRANCH  10  12
HETATM   12  C   UNL     1     -10.580  12.031  67.109  1.00  0.00    -0.224 A  
HETATM   13  C   UNL     1      -9.983  11.822  65.855  1.00  0.00    -0.266 A  
HETATM   14  C   UNL     1      -9.767  10.539  65.347  1.00  0.00    -0.315 A  
HETATM   15  C   UNL     1     -10.158   9.430  66.082  1.00  0.00    -0.324 A  
HETATM   16  C   UNL     1     -10.770   9.610  67.321  1.00  0.00    -0.284 A  
HETATM   17  C   UNL     1     -10.986  10.903  67.849  1.00  0.00    -0.325 A  
HETATM   18  C   UNL     1     -11.667  10.986  69.191  1.00  0.00    -0.403 C  
ENDBRANCH  10  12
ENDBRANCH   6   8
ENDBRANCH   4   6
ENDBRANCH   3   4
ENDBRANCH   2   3
TORSDOF 5
ENDMDL
MODEL      149
REMARK 921   NORMALIZED FREE ENERGY PREDICTED BY IDOCK:   -3.81 KCAL/MOL
REMARK 922        TOTAL FREE ENERGY PREDICTED BY IDOCK:   -5.26 KCAL/MOL
REMARK 923 INTER-LIGAND FREE ENERGY PREDICTED BY IDOCK:   -4.98 KCAL/MOL
REMARK 924 INTRA-LIGAND FREE ENERGY PREDICTED BY IDOCK:   -0.29 KCAL/MOL
REMARK 927      BINDING AFFINITY PREDICTED BY RF-SCORE:    0.00 PKD
ROOT
HETATM    1  C   UNL     1     -11.380  14.894  69.805  1.00  0.00    -0.314 C  
HETATM    2  C   UNL     1     -12.128  13.738  69.157  1.00  0.00    -0.374 C  
ENDROOT
BRANCH   2   3
HETATM    3  C   UNL     1     -11.819  13.642  67.663  1.00  0.00    -0.369 C  
BRANCH   3   4
HETATM    4  N   UNL     1     -10.679  12.742  67.449  1.00  0.00    -0.228 NA 
HETATM    5  H   UNL     1     -10.161  12.584  68.314  1.00  0.00     0.000 HD 
BRANCH   4   6
HETATM    6  C   UNL     1     -11.105  11.462  66.829  1.00  0.00    -0.281 C  
HETATM    7  C   UNL     1     -10.312  11.116  65.570  1.00  0.00    -0.326 C  
BRANCH   6   8
HETATM    8  C   UNL     1     -10.964  10.306  67.846  1.00  0.00    -0.292 C  
HETATM    9  O   UNL     1     -10.935   9.147  67.436  1.00  0.00    -0.170 OA 
HETATM   10  N   UNL     1     -10.802  10.715  69.164  1.00  0.00    -0.220 N  
HETATM   11  H   UNL     1     -10.751  11.720  69.330  1.00  0.00     0.000 HD 
BRANCH  10  12
HETATM   12  C   UNL     1     -10.698   9.874  70.302  1.00  0.00    -0.310 A  
HETATM   13  C   UNL     1     -11.834   9.523  71.048  1.00  0.00    -0.408 A  
HETATM   14  C   UNL     1     -11.750   8.694  72.169  1.00  0.00    -0.442 A  
HETATM   15  C   UNL     1     -10.519   8.205  72.577  1.00  0.00    -0.409 A  
HETATM   16  C   UNL     1      -9.373   8.555  71.865  1.00  0.00    -0.337 A  
HETATM   17  C   UNL     1      -9.446   9.386  70.725  1.00  0.00    -0.307 A  
HETATM   18  C   UNL     1      -8.146   9.713  70.034  1.00  0.00    -0.190 C  
ENDBRANCH  10  12
ENDBRANCH   6   8
ENDBRANCH   4   6
ENDBRANCH   3   4
ENDBRANCH   2   3
TORSDOF 5
ENDMDL
MODEL      150
REMARK 921   NORMALIZED FREE ENERGY PREDICTED BY IDOCK:   -3.80 KCAL/MOL
REMARK 922        TOTAL FREE ENERGY PREDICTED BY IDOCK:   -5.25 KCAL/MOL
REMARK 923 INTER-LIGAND FREE ENERGY PREDICTED BY IDOCK:   -5.29 KCAL/MOL
REMARK 924 INTRA-LIGAND FREE ENERGY PREDICTED BY IDOCK:    0.04 KCAL/MOL
REMARK 927      BINDING AFFINITY PREDICTED BY RF-SCORE:    0.00 PKD
ROOT
HETATM    1  C   UNL     1      -5.958  18.620  64.891  1.00  0.00    -0.254 C  
HETATM    2  C   UNL     1      -6.742  19.888  65.193  1.00  0.00    -0.308 C  
ENDROOT
BRANCH   2   3
HETATM    3  C   UNL     1      -7.633  19.712  66.423  1.00  0.00    -0.291 C  
BRANCH   3   4
HETATM    4  N   UNL     1      -8.885  19.049  66.037  1.00  0.00    -0.459 NA 
HETATM    5  H   UNL     1      -8.708  18.207  65.488  1.00  0.00     0.000 HD 
BRANCH   4   6
HETATM    6  C   UNL     1      -9.733  18.758  67.220  1.00  0.00    -0.302 C  
HETATM    7  C   UNL     1     -10.877  19.757  67.394  1.00  0.00    -0.440 C  
BRANCH   6   8
HETATM    8  C   UNL     1     -10.323  17.333  67.115  1.00  0.00    -0.321 C  
HETATM    9  O   UNL     1     -10.707  16.922  66.022  1.00  0.00    -0.250 OA 
HETATM   10  N   UNL     1     -10.287  16.606  68.299  1.00  0.00    -0.287 N  
HETATM   11  H   UNL     1      -9.847  17.057  69.101  1.00  0.00     0.000 HD 
BRANCH  10  12
HETATM   12  C   UNL     1     -10.800  15.300  68.504  1.00  0.00    -0.253 A  
HETATM   13  C   UNL     1     -10.710  14.321  67.501  1.00  0.00    -0.270 A  
HETATM   14  C   UNL     1     -11.207  13.029  67.688  1.00  0.00    -0.315 A  
HETATM   15  C   UNL     1     -11.820  12.690  68.884  1.00  0.00    -0.345 A  
HETATM   16  C   UNL     1     -11.940  13.649  69.888  1.00  0.00    -0.415 A  
HETATM   17  C   UNL     1     -11.433  14.957  69.714  1.00  0.00    -0.328 A  
HETATM   18  C   UNL     1     -11.626  15.920  70.858  1.00  0.00    -0.456 C  
ENDBRANCH  10  12
ENDBRANCH   6   8
ENDBRANCH   4   6
ENDBRANCH   3   4
ENDBRANCH   2   3
TORSDOF 5
ENDMDL
MODEL      151
REMARK 921   NORMALIZED FREE ENERGY PREDICTED BY IDOCK:   -3.79 KCAL/MOL
REMARK 922        TOTAL FREE ENERGY PREDICTED BY IDOCK:   -5.23 KCAL/MOL
REMARK 923 INTER-LIGAND FREE ENERGY PREDICTED BY IDOCK:   -4.76 KCAL/MOL
REMARK 924 INTRA-LIGAND FREE ENERGY PREDICTED BY IDOCK:   -0.47 KCAL/MOL
REMARK 927      BINDING AFFINITY PREDICTED BY RF-SCORE:    0.00 PKD
ROOT
HETATM    1  C   UNL     1     -12.403  13.779  64.099  1.00  0.00    -0.382 C  
HETATM    2  C   UNL     1     -11.928  12.808  65.170  1.00  0.00    -0.466 C  
ENDROOT
BRANCH   2   3
HETATM    3  C   UNL     1     -10.437  12.506  65.025  1.00  0.00    -0.297 C  
BRANCH   3   4
HETATM    4  N   UNL     1      -9.664  13.747  65.168  1.00  0.00    -0.574 NA 
HETATM    5  H   UNL     1      -9.919  14.429  64.454  1.00  0.00     0.000 HD 
BRANCH   4   6
HETATM    6  C   UNL     1      -9.795  14.315  66.534  1.00  0.00    -0.288 C  
HETATM    7  C   UNL     1      -9.181  13.423  67.611  1.00  0.00    -0.212 C  
BRANCH   6   8
HETATM    8  C   UNL     1      -9.130  15.709  66.596  1.00  0.00    -0.282 C  
HETATM    9  O   UNL     1      -9.221  16.460  65.628  1.00  0.00    -0.465 OA 
HETATM   10  N   UNL     1      -8.541  16.011  67.818  1.00  0.00    -0.162 N  
HETATM   11  H   UNL     1      -8.634  15.315  68.558  1.00  0.00     0.000 HD 
BRANCH  10  12
HETATM   12  C   UNL     1      -7.822  17.190  68.140  1.00  0.00    -0.206 A  
HETATM   13  C   UNL     1      -8.482  18.333  68.621  1.00  0.00    -0.301 A  
HETATM   14  C   UNL     1      -7.789  19.501  68.945  1.00  0.00    -0.349 A  
HETATM   15  C   UNL     1      -6.413  19.557  68.783  1.00  0.00    -0.307 A  
HETATM   16  C   UNL     1      -5.736  18.444  68.289  1.00  0.00    -0.174 A  
HETATM   17  C   UNL     1      -6.425  17.253  67.964  1.00  0.00    -0.157 A  
HETATM   18  C   UNL     1      -5.600  16.112  67.427  1.00  0.00    -0.136 C  
ENDBRANCH  10  12
ENDBRANCH   6   8
ENDBRANCH   4   6
ENDBRANCH   3   4
ENDBRANCH   2   3
TORSDOF 5
ENDMDL
MODEL      152
REMARK 921   NORMALIZED FREE ENERGY PREDICTED BY IDOCK:   -3.78 KCAL/MOL
REMARK 922        TOTAL FREE ENERGY PREDICTED BY IDOCK:   -5.22 KCAL/MOL
REMARK 923 INTER-LIGAND FREE ENERGY PREDICTED BY IDOCK:   -4.87 KCAL/MOL
REMARK 924 INTRA-LIGAND FREE ENERGY PREDICTED BY IDOCK:   -0.35 KCAL/MOL
REMARK 927      BINDING AFFINITY PREDICTED BY RF-SCORE:    0.00 PKD
ROOT
HETATM    1  C   UNL     1      -8.235   7.553  66.174  1.00  0.00    -0.125 C  
HETATM    2  C   UNL     1      -7.898   8.948  65.669  1.00  0.00    -0.096 C  
ENDROOT
BRANCH   2   3
HETATM    3  C   UNL     1      -9.154   9.700  65.230  1.00  0.00    -0.218 C  
BRANCH   3   4
HETATM    4  N   UNL     1      -9.829  10.266  66.406  1.00  0.00    -0.207 NA 
HETATM    5  H   UNL     1      -9.330  10.040  67.267  1.00  0.00     0.000 HD 
BRANCH   4   6
HETATM    6  C   UNL     1     -10.032  11.730  66.264  1.00  0.00    -0.218 C  
HETATM    7  C   UNL     1     -10.336  12.153  64.828  1.00  0.00    -0.320 C  
BRANCH   6   8
HETATM    8  C   UNL     1     -11.185  12.198  67.181  1.00  0.00    -0.314 C  
HETATM    9  O   UNL     1     -12.272  12.480  66.681  1.00  0.00    -0.552 OA 
HETATM   10  N   UNL     1     -10.886  12.179  68.538  1.00  0.00    -0.226 N  
HETATM   11  H   UNL     1      -9.965  11.827  68.800  1.00  0.00     0.000 HD 
BRANCH  10  12
HETATM   12  C   UNL     1     -11.732  12.600  69.595  1.00  0.00    -0.303 A  
HETATM   13  C   UNL     1     -11.999  13.962  69.812  1.00  0.00    -0.398 A  
HETATM   14  C   UNL     1     -12.833  14.393  70.846  1.00  0.00    -0.419 A  
HETATM   15  C   UNL     1     -13.412  13.466  71.699  1.00  0.00    -0.378 A  
HETATM   16  C   UNL     1     -13.148  12.110  71.518  1.00  0.00    -0.357 A  
HETATM   17  C   UNL     1     -12.313  11.661  70.470  1.00  0.00    -0.410 A  
HETATM   18  C   UNL     1     -12.084  10.174  70.370  1.00  0.00    -0.332 C  
ENDBRANCH  10  12
ENDBRANCH   6   8
ENDBRANCH   4   6
ENDBRANCH   3   4
ENDBRANCH   2   3
TORSDOF 5
ENDMDL
MODEL      153
REMARK 921   NORMALIZED FREE ENERGY PREDICTED BY IDOCK:   -3.78 KCAL/MOL
REMARK 922        TOTAL FREE ENERGY PREDICTED BY IDOCK:   -5.22 KCAL/MOL
REMARK 923 INTER-LIGAND FREE ENERGY PREDICTED BY IDOCK:   -4.76 KCAL/MOL
REMARK 924 INTRA-LIGAND FREE ENERGY PREDICTED BY IDOCK:   -0.46 KCAL/MOL
REMARK 927      BINDING AFFINITY PREDICTED BY RF-SCORE:    0.00 PKD
ROOT
HETATM    1  C   UNL     1     -13.638  13.312  72.257  1.00  0.00    -0.703 C  
HETATM    2  C   UNL     1     -12.940  12.264  71.403  1.00  0.00    -0.354 C  
ENDROOT
BRANCH   2   3
HETATM    3  C   UNL     1     -13.250  10.850  71.893  1.00  0.00    -0.403 C  
BRANCH   3   4
HETATM    4  N   UNL     1     -13.030   9.889  70.804  1.00  0.00    -0.560 NA 
HETATM    5  H   UNL     1     -12.909  10.362  69.908  1.00  0.00     0.000 HD 
BRANCH   4   6
HETATM    6  C   UNL     1     -11.889   8.985  71.100  1.00  0.00    -0.301 C  
HETATM    7  C   UNL     1     -12.313   7.527  71.269  1.00  0.00    -0.356 C  
BRANCH   6   8
HETATM    8  C   UNL     1     -10.834   9.074  69.973  1.00  0.00    -0.231 C  
HETATM    9  O   UNL     1     -10.541   8.060  69.345  1.00  0.00    -0.229 OA 
HETATM   10  N   UNL     1     -10.363  10.358  69.726  1.00  0.00    -0.348 N  
HETATM   11  H   UNL     1     -10.778  11.113  70.272  1.00  0.00     0.000 HD 
BRANCH  10  12
HETATM   12  C   UNL     1      -9.363  10.725  68.789  1.00  0.00    -0.182 A  
HETATM   13  C   UNL     1      -8.000  10.559  69.083  1.00  0.00    -0.145 A  
HETATM   14  C   UNL     1      -7.003  10.911  68.171  1.00  0.00    -0.069 A  
HETATM   15  C   UNL     1      -7.349  11.452  66.942  1.00  0.00    -0.147 A  
HETATM   16  C   UNL     1      -8.694  11.646  66.634  1.00  0.00    -0.187 A  
HETATM   17  C   UNL     1      -9.713  11.285  67.545  1.00  0.00    -0.192 A  
HETATM   18  C   UNL     1     -11.134  11.547  67.117  1.00  0.00    -0.355 C  
ENDBRANCH  10  12
ENDBRANCH   6   8
ENDBRANCH   4   6
ENDBRANCH   3   4
ENDBRANCH   2   3
TORSDOF 5
ENDMDL
MODEL      154
REMARK 921   NORMALIZED FREE ENERGY PREDICTED BY IDOCK:   -3.78 KCAL/MOL
REMARK 922        TOTAL FREE ENERGY PREDICTED BY IDOCK:   -5.22 KCAL/MOL
REMARK 923 INTER-LIGAND FREE ENERGY PREDICTED BY IDOCK:   -4.63 KCAL/MOL
REMARK 924 INTRA-LIGAND FREE ENERGY PREDICTED BY IDOCK:   -0.59 KCAL/MOL
REMARK 927      BINDING AFFINITY PREDICTED BY RF-SCORE:    0.00 PKD
ROOT
HETATM    1  C   UNL     1     -10.072   4.660  66.227  1.00  0.00    -0.292 C  
HETATM    2  C   UNL     1      -8.915   4.645  67.215  1.00  0.00    -0.120 C  
ENDROOT
BRANCH   2   3
HETATM    3  C   UNL     1      -8.496   6.063  67.603  1.00  0.00    -0.107 C  
BRANCH   3   4
HETATM    4  N   UNL     1      -8.329   6.149  69.060  1.00  0.00    -0.112 NA 
HETATM    5  H   UNL     1      -8.175   7.111  69.362  1.00  0.00     0.000 HD 
BRANCH   4   6
HETATM    6  C   UNL     1      -9.476   5.533  69.775  1.00  0.00    -0.149 C  
HETATM    7  C   UNL     1      -9.112   5.048  71.177  1.00  0.00    -0.177 C  
BRANCH   6   8
HETATM    8  C   UNL     1     -10.643   6.541  69.879  1.00  0.00    -0.233 C  
HETATM    9  O   UNL     1     -11.630   6.392  69.162  1.00  0.00    -0.318 OA 
HETATM   10  N   UNL     1     -10.481   7.508  70.864  1.00  0.00    -0.212 N  
HETATM   11  H   UNL     1      -9.644   7.439  71.442  1.00  0.00     0.000 HD 
BRANCH  10  12
HETATM   12  C   UNL     1     -11.365   8.580  71.147  1.00  0.00    -0.270 A  
HETATM   13  C   UNL     1     -12.490   8.396  71.967  1.00  0.00    -0.407 A  
HETATM   14  C   UNL     1     -13.369   9.442  72.258  1.00  0.00    -0.539 A  
HETATM   15  C   UNL     1     -13.146  10.701  71.721  1.00  0.00    -0.571 A  
HETATM   16  C   UNL     1     -12.048  10.906  70.889  1.00  0.00    -0.455 A  
HETATM   17  C   UNL     1     -11.148   9.858  70.593  1.00  0.00    -0.409 A  
HETATM   18  C   UNL     1      -9.999  10.184  69.673  1.00  0.00    -0.262 C  
ENDBRANCH  10  12
ENDBRANCH   6   8
ENDBRANCH   4   6
ENDBRANCH   3   4
ENDBRANCH   2   3
TORSDOF 5
ENDMDL
MODEL      155
REMARK 921   NORMALIZED FREE ENERGY PREDICTED BY IDOCK:   -3.77 KCAL/MOL
REMARK 922        TOTAL FREE ENERGY PREDICTED BY IDOCK:   -5.21 KCAL/MOL
REMARK 923 INTER-LIGAND FREE ENERGY PREDICTED BY IDOCK:   -4.82 KCAL/MOL
REMARK 924 INTRA-LIGAND FREE ENERGY PREDICTED BY IDOCK:   -0.39 KCAL/MOL
REMARK 927      BINDING AFFINITY PREDICTED BY RF-SCORE:    0.00 PKD
ROOT
HETATM    1  C   UNL     1      -5.544  17.953  65.461  1.00  0.00    -0.130 C  
HETATM    2  C   UNL     1      -6.141  19.345  65.600  1.00  0.00    -0.224 C  
ENDROOT
BRANCH   2   3
HETATM    3  C   UNL     1      -7.162  19.402  66.736  1.00  0.00    -0.213 C  
BRANCH   3   4
HETATM    4  N   UNL     1      -8.331  18.582  66.393  1.00  0.00    -0.339 NA 
HETATM    5  H   UNL     1      -8.060  17.744  65.877  1.00  0.00     0.000 HD 
BRANCH   4   6
HETATM    6  C   UNL     1      -9.129  18.243  67.598  1.00  0.00    -0.263 C  
HETATM    7  C   UNL     1     -10.112  19.345  67.990  1.00  0.00    -0.516 C  
BRANCH   6   8
HETATM    8  C   UNL     1      -9.913  16.931  67.366  1.00  0.00    -0.269 C  
HETATM    9  O   UNL     1     -10.972  16.752  67.962  1.00  0.00    -0.356 OA 
HETATM   10  N   UNL     1      -9.354  16.088  66.413  1.00  0.00    -0.271 N  
HETATM   11  H   UNL     1      -8.518  16.425  65.935  1.00  0.00     0.000 HD 
BRANCH  10  12
HETATM   12  C   UNL     1      -9.830  14.806  66.037  1.00  0.00    -0.324 A  
HETATM   13  C   UNL     1      -9.298  13.639  66.609  1.00  0.00    -0.265 A  
HETATM   14  C   UNL     1      -9.758  12.369  66.253  1.00  0.00    -0.253 A  
HETATM   15  C   UNL     1     -10.757  12.238  65.300  1.00  0.00    -0.329 A  
HETATM   16  C   UNL     1     -11.288  13.379  64.703  1.00  0.00    -0.372 A  
HETATM   17  C   UNL     1     -10.837  14.670  65.061  1.00  0.00    -0.431 A  
HETATM   18  C   UNL     1     -11.469  15.836  64.346  1.00  0.00    -0.268 C  
ENDBRANCH  10  12
ENDBRANCH   6   8
ENDBRANCH   4   6
ENDBRANCH   3   4
ENDBRANCH   2   3
TORSDOF 5
ENDMDL
MODEL      156
REMARK 921   NORMALIZED FREE ENERGY PREDICTED BY IDOCK:   -3.76 KCAL/MOL
REMARK 922        TOTAL FREE ENERGY PREDICTED BY IDOCK:   -5.20 KCAL/MOL
REMARK 923 INTER-LIGAND FREE ENERGY PREDICTED BY IDOCK:   -4.73 KCAL/MOL
REMARK 924 INTRA-LIGAND FREE ENERGY PREDICTED BY IDOCK:   -0.47 KCAL/MOL
REMARK 927      BINDING AFFINITY PREDICTED BY RF-SCORE:    0.00 PKD
ROOT
HETATM    1  C   UNL     1      -7.897   7.939  63.082  1.00  0.00    -0.142 C  
HETATM    2  C   UNL     1      -8.352   9.305  63.576  1.00  0.00    -0.185 C  
ENDROOT
BRANCH   2   3
HETATM    3  C   UNL     1      -8.509   9.324  65.096  1.00  0.00    -0.159 C  
BRANCH   3   4
HETATM    4  N   UNL     1      -9.933   9.406  65.446  1.00  0.00    -0.407 NA 
HETATM    5  H   UNL     1     -10.527   9.209  64.641  1.00  0.00     0.000 HD 
BRANCH   4   6
HETATM    6  C   UNL     1     -10.262   8.523  66.593  1.00  0.00    -0.275 C  
HETATM    7  C   UNL     1      -9.244   7.400  66.793  1.00  0.00    -0.190 C  
BRANCH   6   8
HETATM    8  C   UNL     1     -10.355   9.353  67.895  1.00  0.00    -0.225 C  
HETATM    9  O   UNL     1      -9.469   9.245  68.739  1.00  0.00    -0.147 OA 
HETATM   10  N   UNL     1     -11.435  10.226  67.943  1.00  0.00    -0.460 N  
HETATM   11  H   UNL     1     -12.031  10.267  67.116  1.00  0.00     0.000 HD 
BRANCH  10  12
HETATM   12  C   UNL     1     -11.792  11.067  69.028  1.00  0.00    -0.329 A  
HETATM   13  C   UNL     1     -12.364  10.540  70.197  1.00  0.00    -0.339 A  
HETATM   14  C   UNL     1     -12.718  11.353  71.275  1.00  0.00    -0.498 A  
HETATM   15  C   UNL     1     -12.517  12.723  71.203  1.00  0.00    -0.335 A  
HETATM   16  C   UNL     1     -11.968  13.275  70.047  1.00  0.00    -0.399 A  
HETATM   17  C   UNL     1     -11.599  12.461  68.952  1.00  0.00    -0.364 A  
HETATM   18  C   UNL     1     -11.025  13.160  67.745  1.00  0.00    -0.272 C  
ENDBRANCH  10  12
ENDBRANCH   6   8
ENDBRANCH   4   6
ENDBRANCH   3   4
ENDBRANCH   2   3
TORSDOF 5
ENDMDL
MODEL      157
REMARK 921   NORMALIZED FREE ENERGY PREDICTED BY IDOCK:   -3.76 KCAL/MOL
REMARK 922        TOTAL FREE ENERGY PREDICTED BY IDOCK:   -5.19 KCAL/MOL
REMARK 923 INTER-LIGAND FREE ENERGY PREDICTED BY IDOCK:   -4.91 KCAL/MOL
REMARK 924 INTRA-LIGAND FREE ENERGY PREDICTED BY IDOCK:   -0.28 KCAL/MOL
REMARK 927      BINDING AFFINITY PREDICTED BY RF-SCORE:    0.00 PKD
ROOT
HETATM    1  C   UNL     1      -8.741  16.750  66.166  1.00  0.00    -0.299 C  
HETATM    2  C   UNL     1     -10.246  16.726  65.938  1.00  0.00    -0.345 C  
ENDROOT
BRANCH   2   3
HETATM    3  C   UNL     1     -10.652  15.569  65.025  1.00  0.00    -0.409 C  
BRANCH   3   4
HETATM    4  N   UNL     1     -11.704  14.774  65.671  1.00  0.00    -0.304 NA 
HETATM    5  H   UNL     1     -12.138  14.125  65.014  1.00  0.00     0.000 HD 
BRANCH   4   6
HETATM    6  C   UNL     1     -11.192  14.069  66.873  1.00  0.00    -0.313 C  
HETATM    7  C   UNL     1     -11.870  14.522  68.165  1.00  0.00    -0.348 C  
BRANCH   6   8
HETATM    8  C   UNL     1     -11.381  12.542  66.715  1.00  0.00    -0.334 C  
HETATM    9  O   UNL     1     -12.325  12.120  66.051  1.00  0.00    -0.550 OA 
HETATM   10  N   UNL     1     -10.380  11.776  67.301  1.00  0.00    -0.203 N  
HETATM   11  H   UNL     1      -9.609  12.281  67.737  1.00  0.00     0.000 HD 
BRANCH  10  12
HETATM   12  C   UNL     1     -10.324  10.359  67.353  1.00  0.00    -0.228 A  
HETATM   13  C   UNL     1     -10.612   9.666  68.539  1.00  0.00    -0.253 A  
HETATM   14  C   UNL     1     -10.564   8.271  68.607  1.00  0.00    -0.144 A  
HETATM   15  C   UNL     1     -10.214   7.537  67.485  1.00  0.00    -0.288 A  
HETATM   16  C   UNL     1      -9.904   8.201  66.300  1.00  0.00    -0.193 A  
HETATM   17  C   UNL     1      -9.957   9.611  66.217  1.00  0.00    -0.335 A  
HETATM   18  C   UNL     1      -9.592  10.231  64.892  1.00  0.00    -0.365 C  
ENDBRANCH  10  12
ENDBRANCH   6   8
ENDBRANCH   4   6
ENDBRANCH   3   4
ENDBRANCH   2   3
TORSDOF 5
ENDMDL
MODEL      158
REMARK 921   NORMALIZED FREE ENERGY PREDICTED BY IDOCK:   -3.76 KCAL/MOL
REMARK 922        TOTAL FREE ENERGY PREDICTED BY IDOCK:   -5.19 KCAL/MOL
REMARK 923 INTER-LIGAND FREE ENERGY PREDICTED BY IDOCK:   -4.66 KCAL/MOL
REMARK 924 INTRA-LIGAND FREE ENERGY PREDICTED BY IDOCK:   -0.54 KCAL/MOL
REMARK 927      BINDING AFFINITY PREDICTED BY RF-SCORE:    0.00 PKD
ROOT
HETATM    1  C   UNL     1     -10.643  19.909  65.841  1.00  0.00    -0.523 C  
HETATM    2  C   UNL     1      -9.432  19.136  66.343  1.00  0.00    -0.390 C  
ENDROOT
BRANCH   2   3
HETATM    3  C   UNL     1      -9.842  18.033  67.319  1.00  0.00    -0.306 C  
BRANCH   3   4
HETATM    4  N   UNL     1      -9.503  16.721  66.754  1.00  0.00    -0.236 NA 
HETATM    5  H   UNL     1      -8.927  16.175  67.395  1.00  0.00     0.000 HD 
BRANCH   4   6
HETATM    6  C   UNL     1     -10.720  15.973  66.348  1.00  0.00    -0.232 C  
HETATM    7  C   UNL     1     -10.981  16.031  64.843  1.00  0.00    -0.399 C  
BRANCH   6   8
HETATM    8  C   UNL     1     -10.605  14.493  66.781  1.00  0.00    -0.276 C  
HETATM    9  O   UNL     1     -11.218  14.110  67.775  1.00  0.00    -0.268 OA 
HETATM   10  N   UNL     1      -9.851  13.700  65.924  1.00  0.00    -0.412 N  
HETATM   11  H   UNL     1      -9.485  14.150  65.085  1.00  0.00     0.000 HD 
BRANCH  10  12
HETATM   12  C   UNL     1      -9.541  12.327  66.099  1.00  0.00    -0.240 A  
HETATM   13  C   UNL     1      -8.428  11.927  66.857  1.00  0.00    -0.174 A  
HETATM   14  C   UNL     1      -8.111  10.580  67.043  1.00  0.00    -0.118 A  
HETATM   15  C   UNL     1      -8.897   9.598  66.460  1.00  0.00    -0.158 A  
HETATM   16  C   UNL     1      -9.995   9.968  65.687  1.00  0.00    -0.355 A  
HETATM   17  C   UNL     1     -10.332  11.328  65.499  1.00  0.00    -0.321 A  
HETATM   18  C   UNL     1     -11.532  11.620  64.635  1.00  0.00    -0.249 C  
ENDBRANCH  10  12
ENDBRANCH   6   8
ENDBRANCH   4   6
ENDBRANCH   3   4
ENDBRANCH   2   3
TORSDOF 5
ENDMDL
MODEL      159
REMARK 921   NORMALIZED FREE ENERGY PREDICTED BY IDOCK:   -3.73 KCAL/MOL
REMARK 922        TOTAL FREE ENERGY PREDICTED BY IDOCK:   -5.17 KCAL/MOL
REMARK 923 INTER-LIGAND FREE ENERGY PREDICTED BY IDOCK:   -4.75 KCAL/MOL
REMARK 924 INTRA-LIGAND FREE ENERGY PREDICTED BY IDOCK:   -0.42 KCAL/MOL
REMARK 927      BINDING AFFINITY PREDICTED BY RF-SCORE:    0.00 PKD
ROOT
HETATM    1  C   UNL     1     -10.641  19.399  66.251  1.00  0.00    -0.569 C  
HETATM    2  C   UNL     1      -9.217  19.655  66.724  1.00  0.00    -0.438 C  
ENDROOT
BRANCH   2   3
HETATM    3  C   UNL     1      -9.076  19.404  68.225  1.00  0.00    -0.345 C  
BRANCH   3   4
HETATM    4  N   UNL     1      -7.939  18.509  68.472  1.00  0.00    -0.317 NA 
HETATM    5  H   UNL     1      -7.981  18.101  69.406  1.00  0.00     0.000 HD 
BRANCH   4   6
HETATM    6  C   UNL     1      -7.835  17.460  67.426  1.00  0.00    -0.196 C  
HETATM    7  C   UNL     1      -6.407  16.952  67.232  1.00  0.00    -0.203 C  
BRANCH   6   8
HETATM    8  C   UNL     1      -8.751  16.265  67.777  1.00  0.00    -0.179 C  
HETATM    9  O   UNL     1      -9.294  16.230  68.879  1.00  0.00    -0.227 OA 
HETATM   10  N   UNL     1      -8.932  15.356  66.741  1.00  0.00    -0.238 N  
HETATM   11  H   UNL     1      -8.486  15.578  65.852  1.00  0.00     0.000 HD 
BRANCH  10  12
HETATM   12  C   UNL     1      -9.677  14.151  66.798  1.00  0.00    -0.277 A  
HETATM   13  C   UNL     1     -11.047  14.129  66.490  1.00  0.00    -0.318 A  
HETATM   14  C   UNL     1     -11.794  12.950  66.538  1.00  0.00    -0.473 A  
HETATM   15  C   UNL     1     -11.185  11.761  66.909  1.00  0.00    -0.387 A  
HETATM   16  C   UNL     1      -9.831  11.758  67.238  1.00  0.00    -0.198 A  
HETATM   17  C   UNL     1      -9.063  12.943  67.185  1.00  0.00    -0.220 A  
HETATM   18  C   UNL     1      -7.610  12.832  67.572  1.00  0.00    -0.162 C  
ENDBRANCH  10  12
ENDBRANCH   6   8
ENDBRANCH   4   6
ENDBRANCH   3   4
ENDBRANCH   2   3
TORSDOF 5
ENDMDL
MODEL      160
REMARK 921   NORMALIZED FREE ENERGY PREDICTED BY IDOCK:   -3.73 KCAL/MOL
REMARK 922        TOTAL FREE ENERGY PREDICTED BY IDOCK:   -5.16 KCAL/MOL
REMARK 923 INTER-LIGAND FREE ENERGY PREDICTED BY IDOCK:   -4.84 KCAL/MOL
REMARK 924 INTRA-LIGAND FREE ENERGY PREDICTED BY IDOCK:   -0.32 KCAL/MOL
REMARK 927      BINDING AFFINITY PREDICTED BY RF-SCORE:    0.00 PKD
ROOT
HETATM    1  C   UNL     1      -7.969  16.502  66.663  1.00  0.00    -0.320 C  
HETATM    2  C   UNL     1      -9.035  15.495  67.069  1.00  0.00    -0.249 C  
ENDROOT
BRANCH   2   3
HETATM    3  C   UNL     1     -10.162  15.431  66.038  1.00  0.00    -0.324 C  
BRANCH   3   4
HETATM    4  N   UNL     1      -9.783  14.526  64.946  1.00  0.00    -0.381 NA 
HETATM    5  H   UNL     1      -8.800  14.257  65.007  1.00  0.00     0.000 HD 
BRANCH   4   6
HETATM    6  C   UNL     1     -10.669  13.336  64.894  1.00  0.00    -0.351 C  
HETATM    7  C   UNL     1     -10.692  12.669  63.519  1.00  0.00    -0.337 C  
BRANCH   6   8
HETATM    8  C   UNL     1     -10.226  12.296  65.949  1.00  0.00    -0.249 C  
HETATM    9  O   UNL     1      -9.049  11.944  65.987  1.00  0.00    -0.199 OA 
HETATM   10  N   UNL     1     -11.228  11.908  66.830  1.00  0.00    -0.311 N  
HETATM   11  H   UNL     1     -12.134  12.365  66.726  1.00  0.00     0.000 HD 
BRANCH  10  12
HETATM   12  C   UNL     1     -11.118  10.939  67.860  1.00  0.00    -0.302 A  
HETATM   13  C   UNL     1     -10.681   9.633  67.582  1.00  0.00    -0.324 A  
HETATM   14  C   UNL     1     -10.564   8.668  68.585  1.00  0.00    -0.165 A  
HETATM   15  C   UNL     1     -10.894   8.987  69.893  1.00  0.00    -0.228 A  
HETATM   16  C   UNL     1     -11.349  10.270  70.192  1.00  0.00    -0.388 A  
HETATM   17  C   UNL     1     -11.464  11.257  69.188  1.00  0.00    -0.364 A  
HETATM   18  C   UNL     1     -11.977  12.609  69.616  1.00  0.00    -0.352 C  
ENDBRANCH  10  12
ENDBRANCH   6   8
ENDBRANCH   4   6
ENDBRANCH   3   4
ENDBRANCH   2   3
TORSDOF 5
ENDMDL
MODEL      161
REMARK 921   NORMALIZED FREE ENERGY PREDICTED BY IDOCK:   -3.73 KCAL/MOL
REMARK 922        TOTAL FREE ENERGY PREDICTED BY IDOCK:   -5.16 KCAL/MOL
REMARK 923 INTER-LIGAND FREE ENERGY PREDICTED BY IDOCK:   -5.04 KCAL/MOL
REMARK 924 INTRA-LIGAND FREE ENERGY PREDICTED BY IDOCK:   -0.13 KCAL/MOL
REMARK 927      BINDING AFFINITY PREDICTED BY RF-SCORE:    0.00 PKD
ROOT
HETATM    1  C   UNL     1      -6.435  15.427  69.230  1.00  0.00    -0.137 C  
HETATM    2  C   UNL     1      -7.882  15.892  69.297  1.00  0.00    -0.226 C  
ENDROOT
BRANCH   2   3
HETATM    3  C   UNL     1      -8.851  14.732  69.070  1.00  0.00    -0.136 C  
BRANCH   3   4
HETATM    4  N   UNL     1     -10.064  14.935  69.872  1.00  0.00    -0.460 NA 
HETATM    5  H   UNL     1      -9.978  15.750  70.479  1.00  0.00     0.000 HD 
BRANCH   4   6
HETATM    6  C   UNL     1     -11.274  15.019  69.016  1.00  0.00    -0.268 C  
HETATM    7  C   UNL     1     -11.323  16.296  68.178  1.00  0.00    -0.248 C  
BRANCH   6   8
HETATM    8  C   UNL     1     -11.345  13.797  68.072  1.00  0.00    -0.288 C  
HETATM    9  O   UNL     1     -11.953  12.793  68.436  1.00  0.00    -0.319 OA 
HETATM   10  N   UNL     1     -10.755  13.994  66.829  1.00  0.00    -0.284 N  
HETATM   11  H   UNL     1     -10.373  14.922  66.644  1.00  0.00     0.000 HD 
BRANCH  10  12
HETATM   12  C   UNL     1     -10.631  13.035  65.792  1.00  0.00    -0.277 A  
HETATM   13  C   UNL     1      -9.795  11.916  65.936  1.00  0.00    -0.261 A  
HETATM   14  C   UNL     1      -9.664  10.960  64.926  1.00  0.00    -0.318 A  
HETATM   15  C   UNL     1     -10.361  11.111  63.737  1.00  0.00    -0.447 A  
HETATM   16  C   UNL     1     -11.182  12.223  63.561  1.00  0.00    -0.535 A  
HETATM   17  C   UNL     1     -11.329  13.193  64.579  1.00  0.00    -0.383 A  
HETATM   18  C   UNL     1     -12.232  14.362  64.281  1.00  0.00    -0.450 C  
ENDBRANCH  10  12
ENDBRANCH   6   8
ENDBRANCH   4   6
ENDBRANCH   3   4
ENDBRANCH   2   3
TORSDOF 5
ENDMDL
MODEL      162
REMARK 921   NORMALIZED FREE ENERGY PREDICTED BY IDOCK:   -3.73 KCAL/MOL
REMARK 922        TOTAL FREE ENERGY PREDICTED BY IDOCK:   -5.16 KCAL/MOL
REMARK 923 INTER-LIGAND FREE ENERGY PREDICTED BY IDOCK:   -4.71 KCAL/MOL
REMARK 924 INTRA-LIGAND FREE ENERGY PREDICTED BY IDOCK:   -0.45 KCAL/MOL
REMARK 927      BINDING AFFINITY PREDICTED BY RF-SCORE:    0.00 PKD
ROOT
HETATM    1  C   UNL     1      -9.878   4.775  69.635  1.00  0.00    -0.292 C  
HETATM    2  C   UNL     1     -10.248   6.106  68.997  1.00  0.00    -0.237 C  
ENDROOT
BRANCH   2   3
HETATM    3  C   UNL     1     -10.684   7.125  70.049  1.00  0.00    -0.248 C  
BRANCH   3   4
HETATM    4  N   UNL     1     -11.276   8.296  69.390  1.00  0.00    -0.425 NA 
HETATM    5  H   UNL     1     -12.294   8.286  69.455  1.00  0.00     0.000 HD 
BRANCH   4   6
HETATM    6  C   UNL     1     -10.710   9.562  69.919  1.00  0.00    -0.240 C  
HETATM    7  C   UNL     1      -9.210   9.475  70.196  1.00  0.00    -0.281 C  
BRANCH   6   8
HETATM    8  C   UNL     1     -10.971  10.718  68.926  1.00  0.00    -0.241 C  
HETATM    9  O   UNL     1     -11.704  10.524  67.959  1.00  0.00    -0.450 OA 
HETATM   10  N   UNL     1     -10.388  11.927  69.286  1.00  0.00    -0.421 N  
HETATM   11  H   UNL     1      -9.886  11.950  70.173  1.00  0.00     0.000 HD 
BRANCH  10  12
HETATM   12  C   UNL     1     -10.422  13.135  68.542  1.00  0.00    -0.251 A  
HETATM   13  C   UNL     1     -11.513  14.014  68.636  1.00  0.00    -0.337 A  
HETATM   14  C   UNL     1     -11.560  15.208  67.913  1.00  0.00    -0.326 A  
HETATM   15  C   UNL     1     -10.516  15.544  67.065  1.00  0.00    -0.304 A  
HETATM   16  C   UNL     1      -9.430  14.680  66.939  1.00  0.00    -0.259 A  
HETATM   17  C   UNL     1      -9.367  13.473  67.671  1.00  0.00    -0.216 A  
HETATM   18  C   UNL     1      -8.154  12.605  67.452  1.00  0.00    -0.182 C  
ENDBRANCH  10  12
ENDBRANCH   6   8
ENDBRANCH   4   6
ENDBRANCH   3   4
ENDBRANCH   2   3
TORSDOF 5
ENDMDL
MODEL      163
REMARK 921   NORMALIZED FREE ENERGY PREDICTED BY IDOCK:   -3.72 KCAL/MOL
REMARK 922        TOTAL FREE ENERGY PREDICTED BY IDOCK:   -5.15 KCAL/MOL
REMARK 923 INTER-LIGAND FREE ENERGY PREDICTED BY IDOCK:   -4.69 KCAL/MOL
REMARK 924 INTRA-LIGAND FREE ENERGY PREDICTED BY IDOCK:   -0.46 KCAL/MOL
REMARK 927      BINDING AFFINITY PREDICTED BY RF-SCORE:    0.00 PKD
ROOT
HETATM    1  C   UNL     1      -9.406   8.416  68.052  1.00  0.00    -0.146 C  
HETATM    2  C   UNL     1     -10.830   8.949  67.980  1.00  0.00    -0.079 C  
ENDROOT
BRANCH   2   3
HETATM    3  C   UNL     1     -10.917  10.378  68.515  1.00  0.00    -0.254 C  
BRANCH   3   4
HETATM    4  N   UNL     1     -11.750  11.192  67.621  1.00  0.00    -0.598 NA 
HETATM    5  H   UNL     1     -12.472  11.695  68.138  1.00  0.00     0.000 HD 
BRANCH   4   6
HETATM    6  C   UNL     1     -10.926  12.116  66.800  1.00  0.00    -0.280 C  
HETATM    7  C   UNL     1     -11.170  11.959  65.300  1.00  0.00    -0.351 C  
BRANCH   6   8
HETATM    8  C   UNL     1     -11.207  13.581  67.205  1.00  0.00    -0.298 C  
HETATM    9  O   UNL     1     -12.253  13.852  67.791  1.00  0.00    -0.338 OA 
HETATM   10  N   UNL     1     -10.172  14.464  66.921  1.00  0.00    -0.262 N  
HETATM   11  H   UNL     1      -9.325  14.065  66.517  1.00  0.00     0.000 HD 
BRANCH  10  12
HETATM   12  C   UNL     1     -10.176  15.866  67.138  1.00  0.00    -0.278 A  
HETATM   13  C   UNL     1      -9.830  16.408  68.386  1.00  0.00    -0.233 A  
HETATM   14  C   UNL     1      -9.826  17.785  68.615  1.00  0.00    -0.359 A  
HETATM   15  C   UNL     1     -10.181  18.656  67.597  1.00  0.00    -0.425 A  
HETATM   16  C   UNL     1     -10.547  18.144  66.354  1.00  0.00    -0.288 A  
HETATM   17  C   UNL     1     -10.548  16.752  66.108  1.00  0.00    -0.212 A  
HETATM   18  C   UNL     1     -10.971  16.303  64.732  1.00  0.00    -0.288 C  
ENDBRANCH  10  12
ENDBRANCH   6   8
ENDBRANCH   4   6
ENDBRANCH   3   4
ENDBRANCH   2   3
TORSDOF 5
ENDMDL
MODEL      164
REMARK 921   NORMALIZED FREE ENERGY PREDICTED BY IDOCK:   -3.72 KCAL/MOL
REMARK 922        TOTAL FREE ENERGY PREDICTED BY IDOCK:   -5.15 KCAL/MOL
REMARK 923 INTER-LIGAND FREE ENERGY PREDICTED BY IDOCK:   -4.81 KCAL/MOL
REMARK 924 INTRA-LIGAND FREE ENERGY PREDICTED BY IDOCK:   -0.34 KCAL/MOL
REMARK 927      BINDING AFFINITY PREDICTED BY RF-SCORE:    0.00 PKD
ROOT
HETATM    1  C   UNL     1      -9.912   3.902  64.395  1.00  0.00    -0.199 C  
HETATM    2  C   UNL     1      -9.303   4.934  65.332  1.00  0.00    -0.147 C  
ENDROOT
BRANCH   2   3
HETATM    3  C   UNL     1     -10.287   5.340  66.429  1.00  0.00    -0.268 C  
BRANCH   3   4
HETATM    4  N   UNL     1     -10.422   6.802  66.456  1.00  0.00    -0.491 NA 
HETATM    5  H   UNL     1     -11.267   7.108  65.973  1.00  0.00     0.000 HD 
BRANCH   4   6
HETATM    6  C   UNL     1     -10.370   7.327  67.844  1.00  0.00    -0.201 C  
HETATM    7  C   UNL     1      -9.246   6.707  68.674  1.00  0.00    -0.128 C  
BRANCH   6   8
HETATM    8  C   UNL     1     -10.193   8.863  67.826  1.00  0.00    -0.228 C  
HETATM    9  O   UNL     1      -9.090   9.336  67.563  1.00  0.00    -0.121 OA 
HETATM   10  N   UNL     1     -11.364   9.579  68.044  1.00  0.00    -0.434 N  
HETATM   11  H   UNL     1     -12.221   9.037  68.154  1.00  0.00     0.000 HD 
BRANCH  10  12
HETATM   12  C   UNL     1     -11.486  10.989  68.130  1.00  0.00    -0.302 A  
HETATM   13  C   UNL     1     -11.486  11.788  66.974  1.00  0.00    -0.368 A  
HETATM   14  C   UNL     1     -11.609  13.178  67.041  1.00  0.00    -0.408 A  
HETATM   15  C   UNL     1     -11.724  13.804  68.272  1.00  0.00    -0.394 A  
HETATM   16  C   UNL     1     -11.708  13.036  69.435  1.00  0.00    -0.386 A  
HETATM   17  C   UNL     1     -11.592  11.628  69.381  1.00  0.00    -0.392 A  
HETATM   18  C   UNL     1     -11.573  10.894  70.697  1.00  0.00    -0.341 C  
ENDBRANCH  10  12
ENDBRANCH   6   8
ENDBRANCH   4   6
ENDBRANCH   3   4
ENDBRANCH   2   3
TORSDOF 5
ENDMDL
MODEL      165
REMARK 921   NORMALIZED FREE ENERGY PREDICTED BY IDOCK:   -3.72 KCAL/MOL
REMARK 922        TOTAL FREE ENERGY PREDICTED BY IDOCK:   -5.14 KCAL/MOL
REMARK 923 INTER-LIGAND FREE ENERGY PREDICTED BY IDOCK:   -5.06 KCAL/MOL
REMARK 924 INTRA-LIGAND FREE ENERGY PREDICTED BY IDOCK:   -0.08 KCAL/MOL
REMARK 927      BINDING AFFINITY PREDICTED BY RF-SCORE:    0.00 PKD
ROOT
HETATM    1  C   UNL     1     -10.896  10.132  69.989  1.00  0.00    -0.361 C  
HETATM    2  C   UNL     1     -12.192  10.929  69.990  1.00  0.00    -0.422 C  
ENDROOT
BRANCH   2   3
HETATM    3  C   UNL     1     -11.928  12.420  70.197  1.00  0.00    -0.298 C  
BRANCH   3   4
HETATM    4  N   UNL     1     -11.081  12.928  69.110  1.00  0.00    -0.385 NA 
HETATM    5  H   UNL     1     -10.356  12.256  68.856  1.00  0.00     0.000 HD 
BRANCH   4   6
HETATM    6  C   UNL     1     -11.890  13.326  67.930  1.00  0.00    -0.349 C  
HETATM    7  C   UNL     1     -11.622  14.761  67.480  1.00  0.00    -0.379 C  
BRANCH   6   8
HETATM    8  C   UNL     1     -11.614  12.368  66.748  1.00  0.00    -0.379 C  
HETATM    9  O   UNL     1     -12.506  12.154  65.929  1.00  0.00    -0.453 OA 
HETATM   10  N   UNL     1     -10.312  11.888  66.689  1.00  0.00    -0.207 N  
HETATM   11  H   UNL     1      -9.661  12.237  67.393  1.00  0.00     0.000 HD 
BRANCH  10  12
HETATM   12  C   UNL     1      -9.796  10.963  65.746  1.00  0.00    -0.237 A  
HETATM   13  C   UNL     1      -9.294   9.716  66.155  1.00  0.00    -0.248 A  
HETATM   14  C   UNL     1      -8.785   8.792  65.240  1.00  0.00    -0.216 A  
HETATM   15  C   UNL     1      -8.756   9.101  63.888  1.00  0.00    -0.154 A  
HETATM   16  C   UNL     1      -9.231  10.339  63.459  1.00  0.00    -0.321 A  
HETATM   17  C   UNL     1      -9.755  11.279  64.374  1.00  0.00    -0.293 A  
HETATM   18  C   UNL     1     -10.231  12.592  63.806  1.00  0.00    -0.360 C  
ENDBRANCH  10  12
ENDBRANCH   6   8
ENDBRANCH   4   6
ENDBRANCH   3   4
ENDBRANCH   2   3
TORSDOF 5
ENDMDL
MODEL      166
REMARK 921   NORMALIZED FREE ENERGY PREDICTED BY IDOCK:   -3.72 KCAL/MOL
REMARK 922        TOTAL FREE ENERGY PREDICTED BY IDOCK:   -5.14 KCAL/MOL
REMARK 923 INTER-LIGAND FREE ENERGY PREDICTED BY IDOCK:   -4.51 KCAL/MOL
REMARK 924 INTRA-LIGAND FREE ENERGY PREDICTED BY IDOCK:   -0.63 KCAL/MOL
REMARK 927      BINDING AFFINITY PREDICTED BY RF-SCORE:    0.00 PKD
ROOT
HETATM    1  C   UNL     1     -10.982  11.459  63.473  1.00  0.00    -0.406 C  
HETATM    2  C   UNL     1     -12.214  12.346  63.573  1.00  0.00    -0.661 C  
ENDROOT
BRANCH   2   3
HETATM    3  C   UNL     1     -11.857  13.737  64.097  1.00  0.00    -0.401 C  
BRANCH   3   4
HETATM    4  N   UNL     1     -10.406  13.834  64.296  1.00  0.00    -0.697 NA 
HETATM    5  H   UNL     1      -9.976  14.455  63.609  1.00  0.00     0.000 HD 
BRANCH   4   6
HETATM    6  C   UNL     1     -10.073  14.245  65.683  1.00  0.00    -0.341 C  
HETATM    7  C   UNL     1     -11.151  15.121  66.320  1.00  0.00    -0.309 C  
BRANCH   6   8
HETATM    8  C   UNL     1      -9.852  12.997  66.569  1.00  0.00    -0.263 C  
HETATM    9  O   UNL     1     -10.793  12.551  67.222  1.00  0.00    -0.235 OA 
HETATM   10  N   UNL     1      -8.582  12.441  66.472  1.00  0.00    -0.398 N  
HETATM   11  H   UNL     1      -7.939  12.875  65.810  1.00  0.00     0.000 HD 
BRANCH  10  12
HETATM   12  C   UNL     1      -8.090  11.330  67.204  1.00  0.00    -0.150 A  
HETATM   13  C   UNL     1      -7.817  11.429  68.577  1.00  0.00    -0.140 A  
HETATM   14  C   UNL     1      -7.335  10.344  69.313  1.00  0.00    -0.106 A  
HETATM   15  C   UNL     1      -7.103   9.131  68.683  1.00  0.00    -0.071 A  
HETATM   16  C   UNL     1      -7.347   9.011  67.316  1.00  0.00    -0.084 A  
HETATM   17  C   UNL     1      -7.842  10.099  66.563  1.00  0.00    -0.112 A  
HETATM   18  C   UNL     1      -8.061   9.866  65.090  1.00  0.00    -0.138 C  
ENDBRANCH  10  12
ENDBRANCH   6   8
ENDBRANCH   4   6
ENDBRANCH   3   4
ENDBRANCH   2   3
TORSDOF 5
ENDMDL
MODEL      167
REMARK 921   NORMALIZED FREE ENERGY PREDICTED BY IDOCK:   -3.70 KCAL/MOL
REMARK 922        TOTAL FREE ENERGY PREDICTED BY IDOCK:   -5.12 KCAL/MOL
REMARK 923 INTER-LIGAND FREE ENERGY PREDICTED BY IDOCK:   -4.67 KCAL/MOL
REMARK 924 INTRA-LIGAND FREE ENERGY PREDICTED BY IDOCK:   -0.46 KCAL/MOL
REMARK 927      BINDING AFFINITY PREDICTED BY RF-SCORE:    0.00 PKD
ROOT
HETATM    1  C   UNL     1      -7.625  15.574  69.102  1.00  0.00    -0.204 C  
HETATM    2  C   UNL     1      -8.889  15.570  68.254  1.00  0.00    -0.179 C  
ENDROOT
BRANCH   2   3
HETATM    3  C   UNL     1      -8.587  15.176  66.809  1.00  0.00    -0.262 C  
BRANCH   3   4
HETATM    4  N   UNL     1      -9.024  13.794  66.571  1.00  0.00    -0.453 NA 
HETATM    5  H   UNL     1      -8.774  13.184  67.350  1.00  0.00     0.000 HD 
BRANCH   4   6
HETATM    6  C   UNL     1     -10.478  13.727  66.275  1.00  0.00    -0.291 C  
HETATM    7  C   UNL     1     -10.774  13.481  64.796  1.00  0.00    -0.412 C  
BRANCH   6   8
HETATM    8  C   UNL     1     -11.141  12.609  67.112  1.00  0.00    -0.280 C  
HETATM    9  O   UNL     1     -12.300  12.284  66.867  1.00  0.00    -0.417 OA 
HETATM   10  N   UNL     1     -10.299  12.012  68.043  1.00  0.00    -0.190 N  
HETATM   11  H   UNL     1      -9.331  12.332  68.059  1.00  0.00     0.000 HD 
BRANCH  10  12
HETATM   12  C   UNL     1     -10.652  11.000  68.972  1.00  0.00    -0.225 A  
HETATM   13  C   UNL     1     -11.471  11.285  70.077  1.00  0.00    -0.359 A  
HETATM   14  C   UNL     1     -11.831  10.301  71.000  1.00  0.00    -0.472 A  
HETATM   15  C   UNL     1     -11.365   9.004  70.844  1.00  0.00    -0.351 A  
HETATM   16  C   UNL     1     -10.535   8.699  69.767  1.00  0.00    -0.220 A  
HETATM   17  C   UNL     1     -10.171   9.685  68.822  1.00  0.00    -0.213 A  
HETATM   18  C   UNL     1      -9.259   9.252  67.703  1.00  0.00    -0.139 C  
ENDBRANCH  10  12
ENDBRANCH   6   8
ENDBRANCH   4   6
ENDBRANCH   3   4
ENDBRANCH   2   3
TORSDOF 5
ENDMDL
MODEL      168
REMARK 921   NORMALIZED FREE ENERGY PREDICTED BY IDOCK:   -3.70 KCAL/MOL
REMARK 922        TOTAL FREE ENERGY PREDICTED BY IDOCK:   -5.12 KCAL/MOL
REMARK 923 INTER-LIGAND FREE ENERGY PREDICTED BY IDOCK:   -4.46 KCAL/MOL
REMARK 924 INTRA-LIGAND FREE ENERGY PREDICTED BY IDOCK:   -0.66 KCAL/MOL
REMARK 927      BINDING AFFINITY PREDICTED BY RF-SCORE:    0.00 PKD
ROOT
HETATM    1  C   UNL     1      -6.913  11.786  67.008  1.00  0.00    -0.135 C  
HETATM    2  C   UNL     1      -6.822  10.752  65.896  1.00  0.00    -0.084 C  
ENDROOT
BRANCH   2   3
HETATM    3  C   UNL     1      -8.206  10.235  65.502  1.00  0.00    -0.158 C  
BRANCH   3   4
HETATM    4  N   UNL     1      -8.822  11.155  64.537  1.00  0.00    -0.380 NA 
HETATM    5  H   UNL     1      -8.807  10.770  63.593  1.00  0.00     0.000 HD 
BRANCH   4   6
HETATM    6  C   UNL     1     -10.198  11.532  64.948  1.00  0.00    -0.275 C  
HETATM    7  C   UNL     1     -10.623  10.891  66.268  1.00  0.00    -0.276 C  
BRANCH   6   8
HETATM    8  C   UNL     1     -10.313  13.069  65.076  1.00  0.00    -0.318 C  
HETATM    9  O   UNL     1     -10.774  13.715  64.138  1.00  0.00    -0.333 OA 
HETATM   10  N   UNL     1      -9.939  13.572  66.316  1.00  0.00    -0.292 N  
HETATM   11  H   UNL     1      -9.667  12.891  67.025  1.00  0.00     0.000 HD 
BRANCH  10  12
HETATM   12  C   UNL     1      -9.898  14.938  66.695  1.00  0.00    -0.260 A  
HETATM   13  C   UNL     1      -8.963  15.820  66.128  1.00  0.00    -0.372 A  
HETATM   14  C   UNL     1      -8.911  17.168  66.487  1.00  0.00    -0.293 A  
HETATM   15  C   UNL     1      -9.791  17.665  67.436  1.00  0.00    -0.305 A  
HETATM   16  C   UNL     1     -10.715  16.808  68.028  1.00  0.00    -0.355 A  
HETATM   17  C   UNL     1     -10.783  15.443  67.667  1.00  0.00    -0.292 A  
HETATM   18  C   UNL     1     -11.812  14.600  68.377  1.00  0.00    -0.330 C  
ENDBRANCH  10  12
ENDBRANCH   6   8
ENDBRANCH   4   6
ENDBRANCH   3   4
ENDBRANCH   2   3
TORSDOF 5
ENDMDL
MODEL      169
REMARK 921   NORMALIZED FREE ENERGY PREDICTED BY IDOCK:   -3.69 KCAL/MOL
REMARK 922        TOTAL FREE ENERGY PREDICTED BY IDOCK:   -5.11 KCAL/MOL
REMARK 923 INTER-LIGAND FREE ENERGY PREDICTED BY IDOCK:   -4.68 KCAL/MOL
REMARK 924 INTRA-LIGAND FREE ENERGY PREDICTED BY IDOCK:   -0.43 KCAL/MOL
REMARK 927      BINDING AFFINITY PREDICTED BY RF-SCORE:    0.00 PKD
ROOT
HETATM    1  C   UNL     1     -11.147  13.147  64.274  1.00  0.00    -0.426 C  
HETATM    2  C   UNL     1     -12.061  14.265  64.754  1.00  0.00    -0.457 C  
ENDROOT
BRANCH   2   3
HETATM    3  C   UNL     1     -11.473  14.982  65.968  1.00  0.00    -0.221 C  
BRANCH   3   4
HETATM    4  N   UNL     1     -11.402  14.055  67.105  1.00  0.00    -0.316 NA 
HETATM    5  H   UNL     1     -11.490  13.085  66.802  1.00  0.00     0.000 HD 
BRANCH   4   6
HETATM    6  C   UNL     1     -10.166  14.265  67.901  1.00  0.00    -0.237 C  
HETATM    7  C   UNL     1      -8.908  13.767  67.191  1.00  0.00    -0.240 C  
BRANCH   6   8
HETATM    8  C   UNL     1      -9.995  15.765  68.233  1.00  0.00    -0.221 C  
HETATM    9  O   UNL     1     -10.669  16.261  69.133  1.00  0.00    -0.261 OA 
HETATM   10  N   UNL     1      -9.002  16.406  67.501  1.00  0.00    -0.191 N  
HETATM   11  H   UNL     1      -8.463  15.830  66.855  1.00  0.00     0.000 HD 
BRANCH  10  12
HETATM   12  C   UNL     1      -8.664  17.782  67.563  1.00  0.00    -0.239 A  
HETATM   13  C   UNL     1      -9.291  18.721  66.728  1.00  0.00    -0.330 A  
HETATM   14  C   UNL     1      -8.972  20.080  66.779  1.00  0.00    -0.445 A  
HETATM   15  C   UNL     1      -8.004  20.530  67.663  1.00  0.00    -0.254 A  
HETATM   16  C   UNL     1      -7.353  19.617  68.490  1.00  0.00    -0.371 A  
HETATM   17  C   UNL     1      -7.673  18.240  68.453  1.00  0.00    -0.312 A  
HETATM   18  C   UNL     1      -6.901  17.336  69.380  1.00  0.00    -0.159 C  
ENDBRANCH  10  12
ENDBRANCH   6   8
ENDBRANCH   4   6
ENDBRANCH   3   4
ENDBRANCH   2   3
TORSDOF 5
ENDMDL
MODEL      170
REMARK 921   NORMALIZED FREE ENERGY PREDICTED BY IDOCK:   -3.68 KCAL/MOL
REMARK 922        TOTAL FREE ENERGY PREDICTED BY IDOCK:   -5.10 KCAL/MOL
REMARK 923 INTER-LIGAND FREE ENERGY PREDICTED BY IDOCK:   -4.84 KCAL/MOL
REMARK 924 INTRA-LIGAND FREE ENERGY PREDICTED BY IDOCK:   -0.26 KCAL/MOL
REMARK 927      BINDING AFFINITY PREDICTED BY RF-SCORE:    0.00 PKD
ROOT
HETATM    1  C   UNL     1      -5.973  20.182  68.855  1.00  0.00    -0.329 C  
HETATM    2  C   UNL     1      -7.245  19.362  69.010  1.00  0.00    -0.397 C  
ENDROOT
BRANCH   2   3
HETATM    3  C   UNL     1      -6.929  17.889  69.269  1.00  0.00    -0.144 C  
BRANCH   3   4
HETATM    4  N   UNL     1      -7.098  17.121  68.028  1.00  0.00    -0.171 NA 
HETATM    5  H   UNL     1      -6.602  16.230  68.071  1.00  0.00     0.000 HD 
BRANCH   4   6
HETATM    6  C   UNL     1      -8.532  16.930  67.698  1.00  0.00    -0.200 C  
HETATM    7  C   UNL     1      -8.747  16.211  66.367  1.00  0.00    -0.360 C  
BRANCH   6   8
HETATM    8  C   UNL     1      -9.235  16.130  68.819  1.00  0.00    -0.224 C  
HETATM    9  O   UNL     1      -8.622  15.231  69.389  1.00  0.00    -0.238 OA 
HETATM   10  N   UNL     1     -10.513  16.579  69.132  1.00  0.00    -0.296 N  
HETATM   11  H   UNL     1     -10.846  17.403  68.630  1.00  0.00     0.000 HD 
BRANCH  10  12
HETATM   12  C   UNL     1     -11.400  16.007  70.079  1.00  0.00    -0.352 A  
HETATM   13  C   UNL     1     -11.551  16.564  71.359  1.00  0.00    -0.135 A  
HETATM   14  C   UNL     1     -12.423  16.015  72.302  1.00  0.00    -0.536 A  
HETATM   15  C   UNL     1     -13.158  14.883  71.987  1.00  0.00    -0.426 A  
HETATM   16  C   UNL     1     -13.012  14.299  70.731  1.00  0.00    -0.368 A  
HETATM   17  C   UNL     1     -12.140  14.850  69.765  1.00  0.00    -0.357 A  
HETATM   18  C   UNL     1     -12.048  14.134  68.441  1.00  0.00    -0.308 C  
ENDBRANCH  10  12
ENDBRANCH   6   8
ENDBRANCH   4   6
ENDBRANCH   3   4
ENDBRANCH   2   3
TORSDOF 5
ENDMDL
MODEL      171
REMARK 921   NORMALIZED FREE ENERGY PREDICTED BY IDOCK:   -3.66 KCAL/MOL
REMARK 922        TOTAL FREE ENERGY PREDICTED BY IDOCK:   -5.07 KCAL/MOL
REMARK 923 INTER-LIGAND FREE ENERGY PREDICTED BY IDOCK:   -4.55 KCAL/MOL
REMARK 924 INTRA-LIGAND FREE ENERGY PREDICTED BY IDOCK:   -0.52 KCAL/MOL
REMARK 927      BINDING AFFINITY PREDICTED BY RF-SCORE:    0.00 PKD
ROOT
HETATM    1  C   UNL     1     -10.154   2.419  71.951  1.00  0.00    -0.174 C  
HETATM    2  C   UNL     1      -9.140   3.540  72.124  1.00  0.00    -0.152 C  
ENDROOT
BRANCH   2   3
HETATM    3  C   UNL     1      -9.804   4.817  72.639  1.00  0.00    -0.149 C  
BRANCH   3   4
HETATM    4  N   UNL     1     -10.701   5.359  71.610  1.00  0.00    -0.225 NA 
HETATM    5  H   UNL     1     -11.499   5.839  72.025  1.00  0.00     0.000 HD 
BRANCH   4   6
HETATM    6  C   UNL     1      -9.972   6.237  70.661  1.00  0.00    -0.186 C  
HETATM    7  C   UNL     1     -10.379   6.012  69.206  1.00  0.00    -0.294 C  
BRANCH   6   8
HETATM    8  C   UNL     1     -10.205   7.722  71.024  1.00  0.00    -0.197 C  
HETATM    9  O   UNL     1      -9.449   8.270  71.823  1.00  0.00    -0.170 OA 
HETATM   10  N   UNL     1     -11.241   8.329  70.324  1.00  0.00    -0.379 N  
HETATM   11  H   UNL     1     -11.715   7.762  69.622  1.00  0.00     0.000 HD 
BRANCH  10  12
HETATM   12  C   UNL     1     -11.705   9.660  70.489  1.00  0.00    -0.242 A  
HETATM   13  C   UNL     1     -12.482  10.024  71.601  1.00  0.00    -0.513 A  
HETATM   14  C   UNL     1     -12.943  11.330  71.780  1.00  0.00    -0.519 A  
HETATM   15  C   UNL     1     -12.646  12.303  70.839  1.00  0.00    -0.334 A  
HETATM   16  C   UNL     1     -11.893  11.964  69.717  1.00  0.00    -0.411 A  
HETATM   17  C   UNL     1     -11.413  10.648  69.528  1.00  0.00    -0.360 A  
HETATM   18  C   UNL     1     -10.618  10.384  68.275  1.00  0.00    -0.245 C  
ENDBRANCH  10  12
ENDBRANCH   6   8
ENDBRANCH   4   6
ENDBRANCH   3   4
ENDBRANCH   2   3
TORSDOF 5
ENDMDL
MODEL      172
REMARK 921   NORMALIZED FREE ENERGY PREDICTED BY IDOCK:   -3.66 KCAL/MOL
REMARK 922        TOTAL FREE ENERGY PREDICTED BY IDOCK:   -5.07 KCAL/MOL
REMARK 923 INTER-LIGAND FREE ENERGY PREDICTED BY IDOCK:   -4.73 KCAL/MOL
REMARK 924 INTRA-LIGAND FREE ENERGY PREDICTED BY IDOCK:   -0.34 KCAL/MOL
REMARK 927      BINDING AFFINITY PREDICTED BY RF-SCORE:    0.00 PKD
ROOT
HETATM    1  C   UNL     1      -6.489  12.797  67.708  1.00  0.00    -0.136 C  
HETATM    2  C   UNL     1      -8.001  12.966  67.758  1.00  0.00    -0.162 C  
ENDROOT
BRANCH   2   3
HETATM    3  C   UNL     1      -8.710  11.613  67.817  1.00  0.00    -0.152 C  
BRANCH   3   4
HETATM    4  N   UNL     1      -9.288  11.415  69.153  1.00  0.00    -0.409 NA 
HETATM    5  H   UNL     1      -9.099  12.210  69.763  1.00  0.00     0.000 HD 
BRANCH   4   6
HETATM    6  C   UNL     1     -10.741  11.119  69.078  1.00  0.00    -0.225 C  
HETATM    7  C   UNL     1     -11.156  10.502  67.743  1.00  0.00    -0.382 C  
BRANCH   6   8
HETATM    8  C   UNL     1     -11.149  10.163  70.222  1.00  0.00    -0.317 C  
HETATM    9  O   UNL     1     -12.078  10.477  70.964  1.00  0.00    -0.339 OA 
HETATM   10  N   UNL     1     -10.447   8.964  70.247  1.00  0.00    -0.202 N  
HETATM   11  H   UNL     1      -9.769   8.813  69.501  1.00  0.00     0.000 HD 
BRANCH  10  12
HETATM   12  C   UNL     1     -10.578   7.929  71.209  1.00  0.00    -0.211 A  
HETATM   13  C   UNL     1     -10.323   8.167  72.569  1.00  0.00    -0.401 A  
HETATM   14  C   UNL     1     -10.451   7.160  73.528  1.00  0.00    -0.422 A  
HETATM   15  C   UNL     1     -10.828   5.883  73.144  1.00  0.00    -0.296 A  
HETATM   16  C   UNL     1     -11.069   5.616  71.798  1.00  0.00    -0.265 A  
HETATM   17  C   UNL     1     -10.951   6.628  70.819  1.00  0.00    -0.318 A  
HETATM   18  C   UNL     1     -11.223   6.230  69.390  1.00  0.00    -0.489 C  
ENDBRANCH  10  12
ENDBRANCH   6   8
ENDBRANCH   4   6
ENDBRANCH   3   4
ENDBRANCH   2   3
TORSDOF 5
ENDMDL
MODEL      173
REMARK 921   NORMALIZED FREE ENERGY PREDICTED BY IDOCK:   -3.66 KCAL/MOL
REMARK 922        TOTAL FREE ENERGY PREDICTED BY IDOCK:   -5.07 KCAL/MOL
REMARK 923 INTER-LIGAND FREE ENERGY PREDICTED BY IDOCK:   -4.51 KCAL/MOL
REMARK 924 INTRA-LIGAND FREE ENERGY PREDICTED BY IDOCK:   -0.56 KCAL/MOL
REMARK 927      BINDING AFFINITY PREDICTED BY RF-SCORE:    0.00 PKD
ROOT
HETATM    1  C   UNL     1      -7.066   9.963  70.454  1.00  0.00    -0.146 C  
HETATM    2  C   UNL     1      -7.844   8.697  70.128  1.00  0.00    -0.098 C  
ENDROOT
BRANCH   2   3
HETATM    3  C   UNL     1      -9.297   8.802  70.591  1.00  0.00    -0.195 C  
BRANCH   3   4
HETATM    4  N   UNL     1      -9.728  10.206  70.555  1.00  0.00    -0.283 NA 
HETATM    5  H   UNL     1      -8.937  10.836  70.425  1.00  0.00     0.000 HD 
BRANCH   4   6
HETATM    6  C   UNL     1     -10.773  10.427  69.524  1.00  0.00    -0.251 C  
HETATM    7  C   UNL     1     -11.810  11.469  69.940  1.00  0.00    -0.430 C  
BRANCH   6   8
HETATM    8  C   UNL     1     -10.123  10.869  68.193  1.00  0.00    -0.173 C  
HETATM    9  O   UNL     1      -9.162  11.635  68.220  1.00  0.00    -0.177 OA 
HETATM   10  N   UNL     1     -10.665  10.272  67.061  1.00  0.00    -0.242 N  
HETATM   11  H   UNL     1     -11.400   9.581  67.213  1.00  0.00     0.000 HD 
BRANCH  10  12
HETATM   12  C   UNL     1     -10.298  10.526  65.715  1.00  0.00    -0.200 A  
HETATM   13  C   UNL     1      -9.326   9.746  65.068  1.00  0.00    -0.325 A  
HETATM   14  C   UNL     1      -8.956   9.981  63.742  1.00  0.00    -0.274 A  
HETATM   15  C   UNL     1      -9.545  11.016  63.033  1.00  0.00    -0.386 A  
HETATM   16  C   UNL     1     -10.499  11.818  63.657  1.00  0.00    -0.490 A  
HETATM   17  C   UNL     1     -10.887  11.585  64.996  1.00  0.00    -0.336 A  
HETATM   18  C   UNL     1     -11.918  12.518  65.579  1.00  0.00    -0.500 C  
ENDBRANCH  10  12
ENDBRANCH   6   8
ENDBRANCH   4   6
ENDBRANCH   3   4
ENDBRANCH   2   3
TORSDOF 5
ENDMDL
MODEL      174
REMARK 921   NORMALIZED FREE ENERGY PREDICTED BY IDOCK:   -3.65 KCAL/MOL
REMARK 922        TOTAL FREE ENERGY PREDICTED BY IDOCK:   -5.06 KCAL/MOL
REMARK 923 INTER-LIGAND FREE ENERGY PREDICTED BY IDOCK:   -4.69 KCAL/MOL
REMARK 924 INTRA-LIGAND FREE ENERGY PREDICTED BY IDOCK:   -0.36 KCAL/MOL
REMARK 927      BINDING AFFINITY PREDICTED BY RF-SCORE:    0.00 PKD
ROOT
HETATM    1  C   UNL     1      -6.896  11.320  69.299  1.00  0.00    -0.116 C  
HETATM    2  C   UNL     1      -7.411  10.104  70.056  1.00  0.00    -0.171 C  
ENDROOT
BRANCH   2   3
HETATM    3  C   UNL     1      -7.967   9.048  69.100  1.00  0.00    -0.101 C  
BRANCH   3   4
HETATM    4  N   UNL     1      -9.405   9.268  68.901  1.00  0.00    -0.149 NA 
HETATM    5  H   UNL     1      -9.706  10.156  69.305  1.00  0.00     0.000 HD 
BRANCH   4   6
HETATM    6  C   UNL     1      -9.776   9.170  67.467  1.00  0.00    -0.160 C  
HETATM    7  C   UNL     1     -10.525   7.880  67.132  1.00  0.00    -0.414 C  
BRANCH   6   8
HETATM    8  C   UNL     1     -10.650  10.378  67.059  1.00  0.00    -0.245 C  
HETATM    9  O   UNL     1     -11.637  10.660  67.735  1.00  0.00    -0.501 OA 
HETATM   10  N   UNL     1     -10.167  11.096  65.972  1.00  0.00    -0.242 N  
HETATM   11  H   UNL     1      -9.278  10.789  65.577  1.00  0.00     0.000 HD 
BRANCH  10  12
HETATM   12  C   UNL     1     -10.786  12.214  65.356  1.00  0.00    -0.294 A  
HETATM   13  C   UNL     1     -11.540  12.068  64.180  1.00  0.00    -0.460 A  
HETATM   14  C   UNL     1     -12.159  13.157  63.563  1.00  0.00    -0.585 A  
HETATM   15  C   UNL     1     -12.027  14.426  64.105  1.00  0.00    -0.373 A  
HETATM   16  C   UNL     1     -11.268  14.601  65.260  1.00  0.00    -0.358 A  
HETATM   17  C   UNL     1     -10.644  13.506  65.899  1.00  0.00    -0.284 A  
HETATM   18  C   UNL     1      -9.837  13.807  67.136  1.00  0.00    -0.242 C  
ENDBRANCH  10  12
ENDBRANCH   6   8
ENDBRANCH   4   6
ENDBRANCH   3   4
ENDBRANCH   2   3
TORSDOF 5
ENDMDL
MODEL      175
REMARK 921   NORMALIZED FREE ENERGY PREDICTED BY IDOCK:   -3.63 KCAL/MOL
REMARK 922        TOTAL FREE ENERGY PREDICTED BY IDOCK:   -5.03 KCAL/MOL
REMARK 923 INTER-LIGAND FREE ENERGY PREDICTED BY IDOCK:   -4.91 KCAL/MOL
REMARK 924 INTRA-LIGAND FREE ENERGY PREDICTED BY IDOCK:   -0.12 KCAL/MOL
REMARK 927      BINDING AFFINITY PREDICTED BY RF-SCORE:    0.00 PKD
ROOT
HETATM    1  C   UNL     1      -5.785  15.446  69.610  1.00  0.00    -0.119 C  
HETATM    2  C   UNL     1      -6.683  15.624  68.395  1.00  0.00    -0.116 C  
ENDROOT
BRANCH   2   3
HETATM    3  C   UNL     1      -7.652  16.791  68.584  1.00  0.00    -0.222 C  
BRANCH   3   4
HETATM    4  N   UNL     1      -8.885  16.539  67.828  1.00  0.00    -0.196 NA 
HETATM    5  H   UNL     1      -9.188  15.569  67.919  1.00  0.00     0.000 HD 
BRANCH   4   6
HETATM    6  C   UNL     1      -9.963  17.483  68.217  1.00  0.00    -0.330 C  
HETATM    7  C   UNL     1     -10.488  18.306  67.041  1.00  0.00    -0.407 C  
BRANCH   6   8
HETATM    8  C   UNL     1     -11.142  16.712  68.855  1.00  0.00    -0.247 C  
HETATM    9  O   UNL     1     -12.145  16.486  68.183  1.00  0.00     0.374 OA 
HETATM   10  N   UNL     1     -10.904  16.270  70.151  1.00  0.00    -0.327 N  
HETATM   11  H   UNL     1      -9.980  16.456  70.539  1.00  0.00     0.000 HD 
BRANCH  10  12
HETATM   12  C   UNL     1     -11.820  15.584  70.990  1.00  0.00    -0.382 A  
HETATM   13  C   UNL     1     -12.376  16.208  72.119  1.00  0.00    -0.503 A  
HETATM   14  C   UNL     1     -13.282  15.549  72.953  1.00  0.00    -0.633 A  
HETATM   15  C   UNL     1     -13.644  14.238  72.681  1.00  0.00    -0.601 A  
HETATM   16  C   UNL     1     -13.092  13.590  71.578  1.00  0.00    -0.427 A  
HETATM   17  C   UNL     1     -12.181  14.249  70.722  1.00  0.00    -0.423 A  
HETATM   18  C   UNL     1     -11.635  13.453  69.564  1.00  0.00    -0.352 C  
ENDBRANCH  10  12
ENDBRANCH   6   8
ENDBRANCH   4   6
ENDBRANCH   3   4
ENDBRANCH   2   3
TORSDOF 5
ENDMDL
MODEL      176
REMARK 921   NORMALIZED FREE ENERGY PREDICTED BY IDOCK:   -3.62 KCAL/MOL
REMARK 922        TOTAL FREE ENERGY PREDICTED BY IDOCK:   -5.01 KCAL/MOL
REMARK 923 INTER-LIGAND FREE ENERGY PREDICTED BY IDOCK:   -4.38 KCAL/MOL
REMARK 924 INTRA-LIGAND FREE ENERGY PREDICTED BY IDOCK:   -0.63 KCAL/MOL
REMARK 927      BINDING AFFINITY PREDICTED BY RF-SCORE:    0.00 PKD
ROOT
HETATM    1  C   UNL     1     -10.365   5.102  70.115  1.00  0.00    -0.340 C  
HETATM    2  C   UNL     1      -9.859   4.987  68.685  1.00  0.00    -0.227 C  
ENDROOT
BRANCH   2   3
HETATM    3  C   UNL     1      -8.466   5.598  68.536  1.00  0.00    -0.105 C  
BRANCH   3   4
HETATM    4  N   UNL     1      -8.041   6.179  69.816  1.00  0.00    -0.116 NA 
HETATM    5  H   UNL     1      -7.336   5.599  70.273  1.00  0.00     0.000 HD 
BRANCH   4   6
HETATM    6  C   UNL     1      -7.568   7.576  69.649  1.00  0.00    -0.094 C  
HETATM    7  C   UNL     1      -7.477   8.003  68.185  1.00  0.00    -0.101 C  
BRANCH   6   8
HETATM    8  C   UNL     1      -8.508   8.549  70.398  1.00  0.00    -0.137 C  
HETATM    9  O   UNL     1      -8.030   9.341  71.207  1.00  0.00    -0.322 OA 
HETATM   10  N   UNL     1      -9.840   8.477  70.008  1.00  0.00    -0.177 N  
HETATM   11  H   UNL     1     -10.063   7.830  69.251  1.00  0.00     0.000 HD 
BRANCH  10  12
HETATM   12  C   UNL     1     -10.921   9.212  70.557  1.00  0.00    -0.258 A  
HETATM   13  C   UNL     1     -11.668   8.708  71.634  1.00  0.00    -0.380 A  
HETATM   14  C   UNL     1     -12.733   9.421  72.189  1.00  0.00    -0.460 A  
HETATM   15  C   UNL     1     -13.084  10.656  71.667  1.00  0.00    -0.555 A  
HETATM   16  C   UNL     1     -12.371  11.171  70.586  1.00  0.00    -0.482 A  
HETATM   17  C   UNL     1     -11.286  10.463  70.022  1.00  0.00    -0.384 A  
HETATM   18  C   UNL     1     -10.591  11.104  68.848  1.00  0.00    -0.239 C  
ENDBRANCH  10  12
ENDBRANCH   6   8
ENDBRANCH   4   6
ENDBRANCH   3   4
ENDBRANCH   2   3
TORSDOF 5
ENDMDL
MODEL      177
REMARK 921   NORMALIZED FREE ENERGY PREDICTED BY IDOCK:   -3.62 KCAL/MOL
REMARK 922        TOTAL FREE ENERGY PREDICTED BY IDOCK:   -5.01 KCAL/MOL
REMARK 923 INTER-LIGAND FREE ENERGY PREDICTED BY IDOCK:   -4.54 KCAL/MOL
REMARK 924 INTRA-LIGAND FREE ENERGY PREDICTED BY IDOCK:   -0.47 KCAL/MOL
REMARK 927      BINDING AFFINITY PREDICTED BY RF-SCORE:    0.00 PKD
ROOT
HETATM    1  C   UNL     1     -10.258  17.941  68.846  1.00  0.00    -0.331 C  
HETATM    2  C   UNL     1     -10.371  16.538  69.423  1.00  0.00    -0.298 C  
ENDROOT
BRANCH   2   3
HETATM    3  C   UNL     1     -10.085  15.475  68.363  1.00  0.00    -0.214 C  
BRANCH   3   4
HETATM    4  N   UNL     1     -10.346  14.140  68.917  1.00  0.00    -0.314 NA 
HETATM    5  H   UNL     1     -10.374  14.158  69.937  1.00  0.00     0.000 HD 
BRANCH   4   6
HETATM    6  C   UNL     1     -11.583  13.548  68.350  1.00  0.00    -0.343 C  
HETATM    7  C   UNL     1     -12.090  14.295  67.117  1.00  0.00    -0.412 C  
BRANCH   6   8
HETATM    8  C   UNL     1     -11.342  12.067  67.976  1.00  0.00    -0.296 C  
HETATM    9  O   UNL     1     -12.248  11.253  68.137  1.00  0.00    -0.622 OA 
HETATM   10  N   UNL     1     -10.101  11.814  67.402  1.00  0.00    -0.194 N  
HETATM   11  H   UNL     1      -9.493  12.618  67.248  1.00  0.00     0.000 HD 
BRANCH  10  12
HETATM   12  C   UNL     1      -9.596  10.548  67.010  1.00  0.00    -0.173 A  
HETATM   13  C   UNL     1      -8.988   9.690  67.941  1.00  0.00    -0.120 A  
HETATM   14  C   UNL     1      -8.489   8.439  67.572  1.00  0.00    -0.129 A  
HETATM   15  C   UNL     1      -8.575   8.021  66.253  1.00  0.00    -0.156 A  
HETATM   16  C   UNL     1      -9.156   8.861  65.306  1.00  0.00    -0.196 A  
HETATM   17  C   UNL     1      -9.673  10.126  65.668  1.00  0.00    -0.322 A  
HETATM   18  C   UNL     1     -10.270  10.961  64.564  1.00  0.00    -0.422 C  
ENDBRANCH  10  12
ENDBRANCH   6   8
ENDBRANCH   4   6
ENDBRANCH   3   4
ENDBRANCH   2   3
TORSDOF 5
ENDMDL
MODEL      178
REMARK 921   NORMALIZED FREE ENERGY PREDICTED BY IDOCK:   -3.62 KCAL/MOL
REMARK 922        TOTAL FREE ENERGY PREDICTED BY IDOCK:   -5.01 KCAL/MOL
REMARK 923 INTER-LIGAND FREE ENERGY PREDICTED BY IDOCK:   -4.63 KCAL/MOL
REMARK 924 INTRA-LIGAND FREE ENERGY PREDICTED BY IDOCK:   -0.38 KCAL/MOL
REMARK 927      BINDING AFFINITY PREDICTED BY RF-SCORE:    0.00 PKD
ROOT
HETATM    1  C   UNL     1     -11.279   6.297  71.897  1.00  0.00    -0.332 C  
HETATM    2  C   UNL     1     -10.368   5.471  71.001  1.00  0.00    -0.307 C  
ENDROOT
BRANCH   2   3
HETATM    3  C   UNL     1     -10.364   6.005  69.569  1.00  0.00    -0.233 C  
BRANCH   3   4
HETATM    4  N   UNL     1     -10.077   7.445  69.578  1.00  0.00    -0.183 NA 
HETATM    5  H   UNL     1      -9.684   7.742  70.472  1.00  0.00     0.000 HD 
BRANCH   4   6
HETATM    6  C   UNL     1      -9.200   7.832  68.444  1.00  0.00    -0.137 C  
HETATM    7  C   UNL     1      -8.482   6.641  67.813  1.00  0.00    -0.122 C  
BRANCH   6   8
HETATM    8  C   UNL     1     -10.026   8.555  67.355  1.00  0.00    -0.214 C  
HETATM    9  O   UNL     1     -10.906   7.936  66.760  1.00  0.00    -0.234 OA 
HETATM   10  N   UNL     1      -9.728   9.904  67.208  1.00  0.00    -0.166 N  
HETATM   11  H   UNL     1      -9.035  10.294  67.847  1.00  0.00     0.000 HD 
BRANCH  10  12
HETATM   12  C   UNL     1     -10.292  10.794  66.259  1.00  0.00    -0.244 A  
HETATM   13  C   UNL     1      -9.954  10.713  64.898  1.00  0.00    -0.382 A  
HETATM   14  C   UNL     1     -10.502  11.579  63.950  1.00  0.00    -0.439 A  
HETATM   15  C   UNL     1     -11.398  12.560  64.347  1.00  0.00    -0.395 A  
HETATM   16  C   UNL     1     -11.737  12.675  65.694  1.00  0.00    -0.458 A  
HETATM   17  C   UNL     1     -11.194  11.799  66.661  1.00  0.00    -0.383 A  
HETATM   18  C   UNL     1     -11.618  12.017  68.092  1.00  0.00    -0.403 C  
ENDBRANCH  10  12
ENDBRANCH   6   8
ENDBRANCH   4   6
ENDBRANCH   3   4
ENDBRANCH   2   3
TORSDOF 5
ENDMDL
MODEL      179
REMARK 921   NORMALIZED FREE ENERGY PREDICTED BY IDOCK:   -3.60 KCAL/MOL
REMARK 922        TOTAL FREE ENERGY PREDICTED BY IDOCK:   -4.99 KCAL/MOL
REMARK 923 INTER-LIGAND FREE ENERGY PREDICTED BY IDOCK:   -4.61 KCAL/MOL
REMARK 924 INTRA-LIGAND FREE ENERGY PREDICTED BY IDOCK:   -0.38 KCAL/MOL
REMARK 927      BINDING AFFINITY PREDICTED BY RF-SCORE:    0.00 PKD
ROOT
HETATM    1  C   UNL     1     -10.329  17.256  68.615  1.00  0.00    -0.357 C  
HETATM    2  C   UNL     1     -10.881  16.166  69.523  1.00  0.00    -0.329 C  
ENDROOT
BRANCH   2   3
HETATM    3  C   UNL     1     -10.325  14.793  69.145  1.00  0.00    -0.233 C  
BRANCH   3   4
HETATM    4  N   UNL     1     -11.074  13.745  69.851  1.00  0.00    -0.469 NA 
HETATM    5  H   UNL     1     -11.848  14.136  70.387  1.00  0.00     0.000 HD 
BRANCH   4   6
HETATM    6  C   UNL     1     -11.538  12.687  68.918  1.00  0.00    -0.317 C  
HETATM    7  C   UNL     1     -10.578  12.459  67.751  1.00  0.00    -0.236 C  
BRANCH   6   8
HETATM    8  C   UNL     1     -11.730  11.354  69.678  1.00  0.00    -0.345 C  
HETATM    9  O   UNL     1     -12.811  11.121  70.214  1.00  0.00    -0.193 OA 
HETATM   10  N   UNL     1     -10.644  10.491  69.608  1.00  0.00    -0.282 N  
HETATM   11  H   UNL     1      -9.852  10.793  69.040  1.00  0.00     0.000 HD 
BRANCH  10  12
HETATM   12  C   UNL     1     -10.526   9.230  70.247  1.00  0.00    -0.228 A  
HETATM   13  C   UNL     1     -10.491   9.128  71.647  1.00  0.00    -0.403 A  
HETATM   14  C   UNL     1     -10.378   7.894  72.292  1.00  0.00    -0.314 A  
HETATM   15  C   UNL     1     -10.286   6.729  71.546  1.00  0.00    -0.210 A  
HETATM   16  C   UNL     1     -10.299   6.805  70.155  1.00  0.00    -0.228 A  
HETATM   17  C   UNL     1     -10.420   8.046  69.490  1.00  0.00    -0.226 A  
HETATM   18  C   UNL     1     -10.412   8.017  67.983  1.00  0.00    -0.243 C  
ENDBRANCH  10  12
ENDBRANCH   6   8
ENDBRANCH   4   6
ENDBRANCH   3   4
ENDBRANCH   2   3
TORSDOF 5
ENDMDL
MODEL      180
REMARK 921   NORMALIZED FREE ENERGY PREDICTED BY IDOCK:   -3.58 KCAL/MOL
REMARK 922        TOTAL FREE ENERGY PREDICTED BY IDOCK:   -4.97 KCAL/MOL
REMARK 923 INTER-LIGAND FREE ENERGY PREDICTED BY IDOCK:   -4.46 KCAL/MOL
REMARK 924 INTRA-LIGAND FREE ENERGY PREDICTED BY IDOCK:   -0.50 KCAL/MOL
REMARK 927      BINDING AFFINITY PREDICTED BY RF-SCORE:    0.00 PKD
ROOT
HETATM    1  C   UNL     1      -6.026  14.656  70.253  1.00  0.00    -0.159 C  
HETATM    2  C   UNL     1      -6.378  13.218  69.902  1.00  0.00    -0.051 C  
ENDROOT
BRANCH   2   3
HETATM    3  C   UNL     1      -7.321  13.153  68.702  1.00  0.00    -0.102 C  
BRANCH   3   4
HETATM    4  N   UNL     1      -8.623  13.730  69.063  1.00  0.00    -0.355 NA 
HETATM    5  H   UNL     1      -8.514  14.621  69.547  1.00  0.00     0.000 HD 
BRANCH   4   6
HETATM    6  C   UNL     1      -9.508  13.860  67.878  1.00  0.00    -0.212 C  
HETATM    7  C   UNL     1     -10.988  13.703  68.219  1.00  0.00    -0.275 C  
BRANCH   6   8
HETATM    8  C   UNL     1      -9.291  15.233  67.199  1.00  0.00    -0.216 C  
HETATM    9  O   UNL     1      -8.811  15.274  66.069  1.00  0.00    -0.244 OA 
HETATM   10  N   UNL     1      -9.750  16.317  67.937  1.00  0.00    -0.232 N  
HETATM   11  H   UNL     1     -10.214  16.109  68.821  1.00  0.00     0.000 HD 
BRANCH  10  12
HETATM   12  C   UNL     1      -9.638  17.686  67.583  1.00  0.00    -0.268 A  
HETATM   13  C   UNL     1     -10.659  18.336  66.871  1.00  0.00    -0.356 A  
HETATM   14  C   UNL     1     -10.567  19.684  66.517  1.00  0.00    -0.591 A  
HETATM   15  C   UNL     1      -9.438  20.413  66.860  1.00  0.00    -0.508 A  
HETATM   16  C   UNL     1      -8.402  19.787  67.550  1.00  0.00    -0.351 A  
HETATM   17  C   UNL     1      -8.488  18.425  67.920  1.00  0.00    -0.274 A  
HETATM   18  C   UNL     1      -7.306  17.843  68.654  1.00  0.00    -0.271 C  
ENDBRANCH  10  12
ENDBRANCH   6   8
ENDBRANCH   4   6
ENDBRANCH   3   4
ENDBRANCH   2   3
TORSDOF 5
ENDMDL
MODEL      181
REMARK 921   NORMALIZED FREE ENERGY PREDICTED BY IDOCK:   -3.57 KCAL/MOL
REMARK 922        TOTAL FREE ENERGY PREDICTED BY IDOCK:   -4.96 KCAL/MOL
REMARK 923 INTER-LIGAND FREE ENERGY PREDICTED BY IDOCK:   -4.58 KCAL/MOL
REMARK 924 INTRA-LIGAND FREE ENERGY PREDICTED BY IDOCK:   -0.38 KCAL/MOL
REMARK 927      BINDING AFFINITY PREDICTED BY RF-SCORE:    0.00 PKD
ROOT
HETATM    1  C   UNL     1     -12.921  15.414  71.246  1.00  0.00    -0.541 C  
HETATM    2  C   UNL     1     -12.465  14.058  70.727  1.00  0.00    -0.442 C  
ENDROOT
BRANCH   2   3
HETATM    3  C   UNL     1     -12.062  14.132  69.255  1.00  0.00    -0.324 C  
BRANCH   3   4
HETATM    4  N   UNL     1     -11.968  12.776  68.698  1.00  0.00    -0.288 NA 
HETATM    5  H   UNL     1     -12.820  12.242  68.871  1.00  0.00     0.000 HD 
BRANCH   4   6
HETATM    6  C   UNL     1     -11.629  12.804  67.253  1.00  0.00    -0.360 C  
HETATM    7  C   UNL     1     -11.312  14.209  66.742  1.00  0.00    -0.353 C  
BRANCH   6   8
HETATM    8  C   UNL     1     -10.419  11.883  66.972  1.00  0.00    -0.224 C  
HETATM    9  O   UNL     1      -9.385  12.037  67.619  1.00  0.00    -0.176 OA 
HETATM   10  N   UNL     1     -10.661  10.887  66.034  1.00  0.00    -0.224 N  
HETATM   11  H   UNL     1     -11.606  10.832  65.655  1.00  0.00     0.000 HD 
BRANCH  10  12
HETATM   12  C   UNL     1      -9.724   9.938  65.551  1.00  0.00    -0.302 A  
HETATM   13  C   UNL     1      -8.926  10.213  64.428  1.00  0.00    -0.264 A  
HETATM   14  C   UNL     1      -7.997   9.291  63.942  1.00  0.00    -0.141 A  
HETATM   15  C   UNL     1      -7.852   8.061  64.564  1.00  0.00    -0.138 A  
HETATM   16  C   UNL     1      -8.645   7.755  65.668  1.00  0.00    -0.147 A  
HETATM   17  C   UNL     1      -9.583   8.682  66.175  1.00  0.00    -0.305 A  
HETATM   18  C   UNL     1     -10.398   8.247  67.366  1.00  0.00    -0.350 C  
ENDBRANCH  10  12
ENDBRANCH   6   8
ENDBRANCH   4   6
ENDBRANCH   3   4
ENDBRANCH   2   3
TORSDOF 5
ENDMDL
MODEL      182
REMARK 921   NORMALIZED FREE ENERGY PREDICTED BY IDOCK:   -3.55 KCAL/MOL
REMARK 922        TOTAL FREE ENERGY PREDICTED BY IDOCK:   -4.93 KCAL/MOL
REMARK 923 INTER-LIGAND FREE ENERGY PREDICTED BY IDOCK:   -4.75 KCAL/MOL
REMARK 924 INTRA-LIGAND FREE ENERGY PREDICTED BY IDOCK:   -0.18 KCAL/MOL
REMARK 927      BINDING AFFINITY PREDICTED BY RF-SCORE:    0.00 PKD
ROOT
HETATM    1  C   UNL     1     -11.436  12.191  64.844  1.00  0.00    -0.379 C  
HETATM    2  C   UNL     1     -10.420  12.662  65.874  1.00  0.00    -0.295 C  
ENDROOT
BRANCH   2   3
HETATM    3  C   UNL     1      -9.749  11.480  66.574  1.00  0.00    -0.203 C  
BRANCH   3   4
HETATM    4  N   UNL     1     -10.753  10.456  66.889  1.00  0.00    -0.236 NA 
HETATM    5  H   UNL     1     -11.651  10.666  66.453  1.00  0.00     0.000 HD 
BRANCH   4   6
HETATM    6  C   UNL     1     -10.277   9.098  66.524  1.00  0.00    -0.252 C  
HETATM    7  C   UNL     1      -8.938   9.114  65.787  1.00  0.00    -0.237 C  
BRANCH   6   8
HETATM    8  C   UNL     1     -10.142   8.223  67.792  1.00  0.00    -0.206 C  
HETATM    9  O   UNL     1      -9.281   7.346  67.826  1.00  0.00    -0.132 OA 
HETATM   10  N   UNL     1     -10.990   8.583  68.832  1.00  0.00    -0.429 N  
HETATM   11  H   UNL     1     -11.583   9.399  68.680  1.00  0.00     0.000 HD 
BRANCH  10  12
HETATM   12  C   UNL     1     -11.114   7.928  70.084  1.00  0.00    -0.201 A  
HETATM   13  C   UNL     1     -11.005   6.532  70.186  1.00  0.00    -0.374 A  
HETATM   14  C   UNL     1     -11.122   5.872  71.412  1.00  0.00    -0.313 A  
HETATM   15  C   UNL     1     -11.364   6.599  72.568  1.00  0.00    -0.290 A  
HETATM   16  C   UNL     1     -11.495   7.984  72.491  1.00  0.00    -0.471 A  
HETATM   17  C   UNL     1     -11.371   8.663  71.258  1.00  0.00    -0.341 A  
HETATM   18  C   UNL     1     -11.543  10.161  71.285  1.00  0.00    -0.387 C  
ENDBRANCH  10  12
ENDBRANCH   6   8
ENDBRANCH   4   6
ENDBRANCH   3   4
ENDBRANCH   2   3
TORSDOF 5
ENDMDL
MODEL      183
REMARK 921   NORMALIZED FREE ENERGY PREDICTED BY IDOCK:   -3.54 KCAL/MOL
REMARK 922        TOTAL FREE ENERGY PREDICTED BY IDOCK:   -4.92 KCAL/MOL
REMARK 923 INTER-LIGAND FREE ENERGY PREDICTED BY IDOCK:   -4.75 KCAL/MOL
REMARK 924 INTRA-LIGAND FREE ENERGY PREDICTED BY IDOCK:   -0.17 KCAL/MOL
REMARK 927      BINDING AFFINITY PREDICTED BY RF-SCORE:    0.00 PKD
ROOT
HETATM    1  C   UNL     1      -8.570   7.976  67.733  1.00  0.00    -0.128 C  
HETATM    2  C   UNL     1      -8.647   8.988  68.866  1.00  0.00    -0.131 C  
ENDROOT
BRANCH   2   3
HETATM    3  C   UNL     1     -10.029   8.986  69.520  1.00  0.00    -0.191 C  
BRANCH   3   4
HETATM    4  N   UNL     1     -10.246  10.257  70.224  1.00  0.00    -0.420 NA 
HETATM    5  H   UNL     1      -9.370  10.764  70.357  1.00  0.00     0.000 HD 
BRANCH   4   6
HETATM    6  C   UNL     1     -11.260  11.094  69.535  1.00  0.00    -0.277 C  
HETATM    7  C   UNL     1     -12.195  11.816  70.504  1.00  0.00    -0.438 C  
BRANCH   6   8
HETATM    8  C   UNL     1     -10.563  12.141  68.635  1.00  0.00    -0.223 C  
HETATM    9  O   UNL     1      -9.341  12.105  68.510  1.00  0.00    -0.183 OA 
HETATM   10  N   UNL     1     -11.433  13.000  67.974  1.00  0.00    -0.288 N  
HETATM   11  H   UNL     1     -12.430  12.839  68.110  1.00  0.00     0.000 HD 
BRANCH  10  12
HETATM   12  C   UNL     1     -11.071  14.080  67.129  1.00  0.00    -0.303 A  
HETATM   13  C   UNL     1     -10.301  15.152  67.611  1.00  0.00    -0.248 A  
HETATM   14  C   UNL     1      -9.934  16.221  66.792  1.00  0.00    -0.268 A  
HETATM   15  C   UNL     1     -10.341  16.248  65.467  1.00  0.00    -0.363 A  
HETATM   16  C   UNL     1     -11.122  15.208  64.968  1.00  0.00    -0.428 A  
HETATM   17  C   UNL     1     -11.493  14.116  65.786  1.00  0.00    -0.327 A  
HETATM   18  C   UNL     1     -12.349  13.049  65.151  1.00  0.00    -0.536 C  
ENDBRANCH  10  12
ENDBRANCH   6   8
ENDBRANCH   4   6
ENDBRANCH   3   4
ENDBRANCH   2   3
TORSDOF 5
ENDMDL
MODEL      184
REMARK 921   NORMALIZED FREE ENERGY PREDICTED BY IDOCK:   -3.53 KCAL/MOL
REMARK 922        TOTAL FREE ENERGY PREDICTED BY IDOCK:   -4.90 KCAL/MOL
REMARK 923 INTER-LIGAND FREE ENERGY PREDICTED BY IDOCK:   -4.51 KCAL/MOL
REMARK 924 INTRA-LIGAND FREE ENERGY PREDICTED BY IDOCK:   -0.39 KCAL/MOL
REMARK 927      BINDING AFFINITY PREDICTED BY RF-SCORE:    0.00 PKD
ROOT
HETATM    1  C   UNL     1     -11.774  14.877  67.301  1.00  0.00    -0.308 C  
HETATM    2  C   UNL     1     -10.749  14.380  68.310  1.00  0.00    -0.246 C  
ENDROOT
BRANCH   2   3
HETATM    3  C   UNL     1     -11.263  13.156  69.067  1.00  0.00    -0.258 C  
BRANCH   3   4
HETATM    4  N   UNL     1     -10.264  12.081  69.005  1.00  0.00    -0.420 NA 
HETATM    5  H   UNL     1      -9.769  11.980  69.891  1.00  0.00     0.000 HD 
BRANCH   4   6
HETATM    6  C   UNL     1     -10.873  10.797  68.573  1.00  0.00    -0.228 C  
HETATM    7  C   UNL     1     -10.539  10.435  67.127  1.00  0.00    -0.319 C  
BRANCH   6   8
HETATM    8  C   UNL     1     -10.407   9.649  69.499  1.00  0.00    -0.221 C  
HETATM    9  O   UNL     1      -9.253   9.651  69.922  1.00  0.00    -0.198 OA 
HETATM   10  N   UNL     1     -11.402   8.738  69.831  1.00  0.00    -0.445 N  
HETATM   11  H   UNL     1     -12.338   8.929  69.473  1.00  0.00     0.000 HD 
BRANCH  10  12
HETATM   12  C   UNL     1     -11.247   7.568  70.618  1.00  0.00    -0.268 A  
HETATM   13  C   UNL     1     -10.638   6.417  70.092  1.00  0.00    -0.294 A  
HETATM   14  C   UNL     1     -10.475   5.258  70.855  1.00  0.00    -0.285 A  
HETATM   15  C   UNL     1     -10.930   5.222  72.164  1.00  0.00    -0.226 A  
HETATM   16  C   UNL     1     -11.554   6.344  72.703  1.00  0.00    -0.193 A  
HETATM   17  C   UNL     1     -11.719   7.526  71.944  1.00  0.00    -0.320 A  
HETATM   18  C   UNL     1     -12.418   8.678  72.619  1.00  0.00    -0.283 C  
ENDBRANCH  10  12
ENDBRANCH   6   8
ENDBRANCH   4   6
ENDBRANCH   3   4
ENDBRANCH   2   3
TORSDOF 5
ENDMDL
MODEL      185
REMARK 921   NORMALIZED FREE ENERGY PREDICTED BY IDOCK:   -3.53 KCAL/MOL
REMARK 922        TOTAL FREE ENERGY PREDICTED BY IDOCK:   -4.90 KCAL/MOL
REMARK 923 INTER-LIGAND FREE ENERGY PREDICTED BY IDOCK:   -4.60 KCAL/MOL
REMARK 924 INTRA-LIGAND FREE ENERGY PREDICTED BY IDOCK:   -0.30 KCAL/MOL
REMARK 927      BINDING AFFINITY PREDICTED BY RF-SCORE:    0.00 PKD
ROOT
HETATM    1  C   UNL     1     -12.811  10.453  71.593  1.00  0.00    -0.579 C  
HETATM    2  C   UNL     1     -11.581   9.558  71.542  1.00  0.00    -0.465 C  
ENDROOT
BRANCH   2   3
HETATM    3  C   UNL     1     -10.556  10.077  70.535  1.00  0.00    -0.246 C  
BRANCH   3   4
HETATM    4  N   UNL     1     -11.108   9.989  69.176  1.00  0.00    -0.328 NA 
HETATM    5  H   UNL     1     -11.727  10.774  68.973  1.00  0.00     0.000 HD 
BRANCH   4   6
HETATM    6  C   UNL     1     -10.032   9.869  68.160  1.00  0.00    -0.151 C  
HETATM    7  C   UNL     1     -10.182   8.631  67.277  1.00  0.00    -0.337 C  
BRANCH   6   8
HETATM    8  C   UNL     1     -10.007  11.127  67.261  1.00  0.00    -0.184 C  
HETATM    9  O   UNL     1     -10.234  11.010  66.059  1.00  0.00    -0.237 OA 
HETATM   10  N   UNL     1      -9.795  12.318  67.945  1.00  0.00    -0.195 N  
HETATM   11  H   UNL     1      -9.718  12.258  68.960  1.00  0.00     0.000 HD 
BRANCH  10  12
HETATM   12  C   UNL     1      -9.676  13.610  67.373  1.00  0.00    -0.228 A  
HETATM   13  C   UNL     1     -10.793  14.270  66.833  1.00  0.00    -0.298 A  
HETATM   14  C   UNL     1     -10.693  15.543  66.269  1.00  0.00    -0.307 A  
HETATM   15  C   UNL     1      -9.465  16.184  66.220  1.00  0.00    -0.347 A  
HETATM   16  C   UNL     1      -8.338  15.544  66.731  1.00  0.00    -0.301 A  
HETATM   17  C   UNL     1      -8.427  14.259  67.312  1.00  0.00    -0.226 A  
HETATM   18  C   UNL     1      -7.146  13.652  67.824  1.00  0.00    -0.167 C  
ENDBRANCH  10  12
ENDBRANCH   6   8
ENDBRANCH   4   6
ENDBRANCH   3   4
ENDBRANCH   2   3
TORSDOF 5
ENDMDL
MODEL      186
REMARK 921   NORMALIZED FREE ENERGY PREDICTED BY IDOCK:   -3.52 KCAL/MOL
REMARK 922        TOTAL FREE ENERGY PREDICTED BY IDOCK:   -4.89 KCAL/MOL
REMARK 923 INTER-LIGAND FREE ENERGY PREDICTED BY IDOCK:   -4.50 KCAL/MOL
REMARK 924 INTRA-LIGAND FREE ENERGY PREDICTED BY IDOCK:   -0.39 KCAL/MOL
REMARK 927      BINDING AFFINITY PREDICTED BY RF-SCORE:    0.00 PKD
ROOT
HETATM    1  C   UNL     1      -8.354  16.546  66.204  1.00  0.00    -0.305 C  
HETATM    2  C   UNL     1      -9.421  15.557  66.648  1.00  0.00    -0.281 C  
ENDROOT
BRANCH   2   3
HETATM    3  C   UNL     1     -10.392  15.238  65.511  1.00  0.00    -0.383 C  
BRANCH   3   4
HETATM    4  N   UNL     1      -9.914  14.066  64.766  1.00  0.00    -0.575 NA 
HETATM    5  H   UNL     1      -9.004  13.754  65.104  1.00  0.00     0.000 HD 
BRANCH   4   6
HETATM    6  C   UNL     1     -10.909  12.964  64.789  1.00  0.00    -0.327 C  
HETATM    7  C   UNL     1     -11.220  12.412  63.399  1.00  0.00    -0.492 C  
BRANCH   6   8
HETATM    8  C   UNL     1     -10.405  11.811  65.688  1.00  0.00    -0.252 C  
HETATM    9  O   UNL     1     -10.217  12.021  66.884  1.00  0.00    -0.206 OA 
HETATM   10  N   UNL     1     -10.285  10.588  65.040  1.00  0.00    -0.317 N  
HETATM   11  H   UNL     1     -10.573  10.556  64.062  1.00  0.00     0.000 HD 
BRANCH  10  12
HETATM   12  C   UNL     1      -9.803   9.379  65.602  1.00  0.00    -0.223 A  
HETATM   13  C   UNL     1     -10.505   8.726  66.628  1.00  0.00    -0.240 A  
HETATM   14  C   UNL     1     -10.046   7.533  67.191  1.00  0.00    -0.317 A  
HETATM   15  C   UNL     1      -8.860   6.970  66.745  1.00  0.00    -0.130 A  
HETATM   16  C   UNL     1      -8.134   7.608  65.742  1.00  0.00    -0.126 A  
HETATM   17  C   UNL     1      -8.592   8.811  65.159  1.00  0.00    -0.209 A  
HETATM   18  C   UNL     1      -7.725   9.424  64.089  1.00  0.00    -0.117 C  
ENDBRANCH  10  12
ENDBRANCH   6   8
ENDBRANCH   4   6
ENDBRANCH   3   4
ENDBRANCH   2   3
TORSDOF 5
ENDMDL
MODEL      187
REMARK 921   NORMALIZED FREE ENERGY PREDICTED BY IDOCK:   -3.52 KCAL/MOL
REMARK 922        TOTAL FREE ENERGY PREDICTED BY IDOCK:   -4.89 KCAL/MOL
REMARK 923 INTER-LIGAND FREE ENERGY PREDICTED BY IDOCK:   -4.87 KCAL/MOL
REMARK 924 INTRA-LIGAND FREE ENERGY PREDICTED BY IDOCK:   -0.02 KCAL/MOL
REMARK 927      BINDING AFFINITY PREDICTED BY RF-SCORE:    0.00 PKD
ROOT
HETATM    1  C   UNL     1     -12.262  14.530  65.394  1.00  0.00    -0.294 C  
HETATM    2  C   UNL     1     -12.208  13.073  65.827  1.00  0.00    -0.511 C  
ENDROOT
BRANCH   2   3
HETATM    3  C   UNL     1     -10.957  12.378  65.290  1.00  0.00    -0.298 C  
BRANCH   3   4
HETATM    4  N   UNL     1      -9.788  13.247  65.479  1.00  0.00    -0.476 NA 
HETATM    5  H   UNL     1      -9.786  14.020  64.813  1.00  0.00     0.000 HD 
BRANCH   4   6
HETATM    6  C   UNL     1      -9.695  13.736  66.878  1.00  0.00    -0.265 C  
HETATM    7  C   UNL     1      -8.809  12.856  67.759  1.00  0.00    -0.188 C  
BRANCH   6   8
HETATM    8  C   UNL     1      -9.148  15.182  66.902  1.00  0.00    -0.247 C  
HETATM    9  O   UNL     1      -8.921  15.754  65.838  1.00  0.00    -0.321 OA 
HETATM   10  N   UNL     1      -9.039  15.734  68.172  1.00  0.00    -0.183 N  
HETATM   11  H   UNL     1      -9.360  15.161  68.952  1.00  0.00     0.000 HD 
BRANCH  10  12
HETATM   12  C   UNL     1      -8.525  17.017  68.493  1.00  0.00    -0.257 A  
HETATM   13  C   UNL     1      -7.202  17.177  68.937  1.00  0.00    -0.242 A  
HETATM   14  C   UNL     1      -6.679  18.433  69.254  1.00  0.00    -0.248 A  
HETATM   15  C   UNL     1      -7.477  19.561  69.144  1.00  0.00    -0.340 A  
HETATM   16  C   UNL     1      -8.799  19.428  68.725  1.00  0.00    -0.385 A  
HETATM   17  C   UNL     1      -9.337  18.163  68.393  1.00  0.00    -0.319 A  
HETATM   18  C   UNL     1     -10.781  18.129  67.962  1.00  0.00    -0.297 C  
ENDBRANCH  10  12
ENDBRANCH   6   8
ENDBRANCH   4   6
ENDBRANCH   3   4
ENDBRANCH   2   3
TORSDOF 5
ENDMDL
MODEL      188
REMARK 921   NORMALIZED FREE ENERGY PREDICTED BY IDOCK:   -3.52 KCAL/MOL
REMARK 922        TOTAL FREE ENERGY PREDICTED BY IDOCK:   -4.89 KCAL/MOL
REMARK 923 INTER-LIGAND FREE ENERGY PREDICTED BY IDOCK:   -4.86 KCAL/MOL
REMARK 924 INTRA-LIGAND FREE ENERGY PREDICTED BY IDOCK:   -0.02 KCAL/MOL
REMARK 927      BINDING AFFINITY PREDICTED BY RF-SCORE:    0.00 PKD
ROOT
HETATM    1  C   UNL     1     -10.691  19.549  66.197  1.00  0.00    -0.528 C  
HETATM    2  C   UNL     1      -9.218  19.775  66.499  1.00  0.00    -0.466 C  
ENDROOT
BRANCH   2   3
HETATM    3  C   UNL     1      -8.914  19.559  67.981  1.00  0.00    -0.327 C  
BRANCH   3   4
HETATM    4  N   UNL     1      -7.922  18.486  68.132  1.00  0.00    -0.280 NA 
HETATM    5  H   UNL     1      -7.757  18.266  69.115  1.00  0.00     0.000 HD 
BRANCH   4   6
HETATM    6  C   UNL     1      -8.308  17.277  67.362  1.00  0.00    -0.199 C  
HETATM    7  C   UNL     1      -7.140  16.662  66.594  1.00  0.00    -0.257 C  
BRANCH   6   8
HETATM    8  C   UNL     1      -8.904  16.210  68.309  1.00  0.00    -0.188 C  
HETATM    9  O   UNL     1      -8.539  16.179  69.482  1.00  0.00    -0.168 OA 
HETATM   10  N   UNL     1      -9.886  15.413  67.733  1.00  0.00    -0.220 N  
HETATM   11  H   UNL     1     -10.145  15.628  66.770  1.00  0.00     0.000 HD 
BRANCH  10  12
HETATM   12  C   UNL     1     -10.563  14.330  68.350  1.00  0.00    -0.253 A  
HETATM   13  C   UNL     1     -10.404  13.015  67.884  1.00  0.00    -0.233 A  
HETATM   14  C   UNL     1     -11.061  11.938  68.482  1.00  0.00    -0.290 A  
HETATM   15  C   UNL     1     -11.907  12.155  69.558  1.00  0.00    -0.386 A  
HETATM   16  C   UNL     1     -12.099  13.453  70.028  1.00  0.00    -0.404 A  
HETATM   17  C   UNL     1     -11.433  14.551  69.436  1.00  0.00    -0.323 A  
HETATM   18  C   UNL     1     -11.719  15.914  70.013  1.00  0.00    -0.340 C  
ENDBRANCH  10  12
ENDBRANCH   6   8
ENDBRANCH   4   6
ENDBRANCH   3   4
ENDBRANCH   2   3
TORSDOF 5
ENDMDL
MODEL      189
REMARK 921   NORMALIZED FREE ENERGY PREDICTED BY IDOCK:   -3.51 KCAL/MOL
REMARK 922        TOTAL FREE ENERGY PREDICTED BY IDOCK:   -4.88 KCAL/MOL
REMARK 923 INTER-LIGAND FREE ENERGY PREDICTED BY IDOCK:   -4.49 KCAL/MOL
REMARK 924 INTRA-LIGAND FREE ENERGY PREDICTED BY IDOCK:   -0.39 KCAL/MOL
REMARK 927      BINDING AFFINITY PREDICTED BY RF-SCORE:    0.00 PKD
ROOT
HETATM    1  C   UNL     1      -8.026   7.926  65.727  1.00  0.00    -0.109 C  
HETATM    2  C   UNL     1      -9.357   8.527  66.152  1.00  0.00    -0.279 C  
ENDROOT
BRANCH   2   3
HETATM    3  C   UNL     1      -9.381  10.039  65.931  1.00  0.00    -0.185 C  
BRANCH   3   4
HETATM    4  N   UNL     1     -10.653  10.590  66.416  1.00  0.00    -0.190 NA 
HETATM    5  H   UNL     1     -11.339   9.854  66.586  1.00  0.00     0.000 HD 
BRANCH   4   6
HETATM    6  C   UNL     1     -10.455  11.436  67.620  1.00  0.00    -0.194 C  
HETATM    7  C   UNL     1     -11.676  12.292  67.955  1.00  0.00    -0.410 C  
BRANCH   6   8
HETATM    8  C   UNL     1     -10.111  10.552  68.841  1.00  0.00    -0.202 C  
HETATM    9  O   UNL     1      -8.980  10.605  69.320  1.00  0.00    -0.159 OA 
HETATM   10  N   UNL     1     -11.180   9.816  69.338  1.00  0.00    -0.401 N  
HETATM   11  H   UNL     1     -12.084   9.956  68.885  1.00  0.00     0.000 HD 
BRANCH  10  12
HETATM   12  C   UNL     1     -11.141   8.891  70.412  1.00  0.00    -0.239 A  
HETATM   13  C   UNL     1     -10.349   7.734  70.343  1.00  0.00    -0.212 A  
HETATM   14  C   UNL     1     -10.296   6.814  71.393  1.00  0.00    -0.223 A  
HETATM   15  C   UNL     1     -11.049   7.028  72.537  1.00  0.00    -0.310 A  
HETATM   16  C   UNL     1     -11.859   8.159  72.623  1.00  0.00    -0.389 A  
HETATM   17  C   UNL     1     -11.914   9.101  71.571  1.00  0.00    -0.422 A  
HETATM   18  C   UNL     1     -12.831  10.282  71.761  1.00  0.00    -0.565 C  
ENDBRANCH  10  12
ENDBRANCH   6   8
ENDBRANCH   4   6
ENDBRANCH   3   4
ENDBRANCH   2   3
TORSDOF 5
ENDMDL
MODEL      190
REMARK 921   NORMALIZED FREE ENERGY PREDICTED BY IDOCK:   -3.51 KCAL/MOL
REMARK 922        TOTAL FREE ENERGY PREDICTED BY IDOCK:   -4.88 KCAL/MOL
REMARK 923 INTER-LIGAND FREE ENERGY PREDICTED BY IDOCK:   -4.27 KCAL/MOL
REMARK 924 INTRA-LIGAND FREE ENERGY PREDICTED BY IDOCK:   -0.61 KCAL/MOL
REMARK 927      BINDING AFFINITY PREDICTED BY RF-SCORE:    0.00 PKD
ROOT
HETATM    1  C   UNL     1      -7.612  13.459  67.413  1.00  0.00    -0.138 C  
HETATM    2  C   UNL     1      -9.125  13.559  67.531  1.00  0.00    -0.214 C  
ENDROOT
BRANCH   2   3
HETATM    3  C   UNL     1      -9.824  12.698  66.480  1.00  0.00    -0.256 C  
BRANCH   3   4
HETATM    4  N   UNL     1      -8.930  11.613  66.054  1.00  0.00    -0.324 NA 
HETATM    5  H   UNL     1      -8.033  11.657  66.538  1.00  0.00     0.000 HD 
BRANCH   4   6
HETATM    6  C   UNL     1      -9.571  10.284  66.217  1.00  0.00    -0.189 C  
HETATM    7  C   UNL     1      -8.873   9.184  65.420  1.00  0.00    -0.236 C  
BRANCH   6   8
HETATM    8  C   UNL     1      -9.595   9.884  67.710  1.00  0.00    -0.141 C  
HETATM    9  O   UNL     1      -8.565   9.980  68.373  1.00  0.00    -0.110 OA 
HETATM   10  N   UNL     1     -10.847   9.516  68.187  1.00  0.00    -0.430 N  
HETATM   11  H   UNL     1     -11.626   9.580  67.531  1.00  0.00     0.000 HD 
BRANCH  10  12
HETATM   12  C   UNL     1     -11.152   9.059  69.494  1.00  0.00    -0.024 A  
HETATM   13  C   UNL     1     -10.981   7.711  69.849  1.00  0.00    -0.208 A  
HETATM   14  C   UNL     1     -11.273   7.246  71.133  1.00  0.00    -0.284 A  
HETATM   15  C   UNL     1     -11.756   8.122  72.093  1.00  0.00    -0.418 A  
HETATM   16  C   UNL     1     -11.953   9.460  71.761  1.00  0.00    -0.452 A  
HETATM   17  C   UNL     1     -11.654   9.945  70.468  1.00  0.00    -0.386 A  
HETATM   18  C   UNL     1     -11.915  11.407  70.210  1.00  0.00    -0.460 C  
ENDBRANCH  10  12
ENDBRANCH   6   8
ENDBRANCH   4   6
ENDBRANCH   3   4
ENDBRANCH   2   3
TORSDOF 5
ENDMDL
MODEL      191
REMARK 921   NORMALIZED FREE ENERGY PREDICTED BY IDOCK:   -3.51 KCAL/MOL
REMARK 922        TOTAL FREE ENERGY PREDICTED BY IDOCK:   -4.87 KCAL/MOL
REMARK 923 INTER-LIGAND FREE ENERGY PREDICTED BY IDOCK:   -4.69 KCAL/MOL
REMARK 924 INTRA-LIGAND FREE ENERGY PREDICTED BY IDOCK:   -0.18 KCAL/MOL
REMARK 927      BINDING AFFINITY PREDICTED BY RF-SCORE:    0.00 PKD
ROOT
HETATM    1  C   UNL     1     -10.757   9.302  70.670  1.00  0.00    -0.331 C  
HETATM    2  C   UNL     1     -11.791   9.822  71.658  1.00  0.00    -0.429 C  
ENDROOT
BRANCH   2   3
HETATM    3  C   UNL     1     -12.477  11.083  71.134  1.00  0.00    -0.397 C  
BRANCH   3   4
HETATM    4  N   UNL     1     -11.577  11.791  70.214  1.00  0.00    -0.517 NA 
HETATM    5  H   UNL     1     -11.345  11.217  69.403  1.00  0.00     0.000 HD 
BRANCH   4   6
HETATM    6  C   UNL     1     -12.137  13.105  69.809  1.00  0.00    -0.270 C  
HETATM    7  C   UNL     1     -12.294  14.073  70.980  1.00  0.00    -0.443 C  
BRANCH   6   8
HETATM    8  C   UNL     1     -11.238  13.758  68.734  1.00  0.00    -0.271 C  
HETATM    9  O   UNL     1     -11.457  13.528  67.547  1.00  0.00    -0.296 OA 
HETATM   10  N   UNL     1     -10.283  14.634  69.238  1.00  0.00    -0.364 N  
HETATM   11  H   UNL     1     -10.291  14.791  70.246  1.00  0.00     0.000 HD 
BRANCH  10  12
HETATM   12  C   UNL     1      -9.299  15.331  68.491  1.00  0.00    -0.200 A  
HETATM   13  C   UNL     1      -9.363  16.724  68.331  1.00  0.00    -0.231 A  
HETATM   14  C   UNL     1      -8.401  17.426  67.602  1.00  0.00    -0.214 A  
HETATM   15  C   UNL     1      -7.354  16.743  67.002  1.00  0.00    -0.238 A  
HETATM   16  C   UNL     1      -7.278  15.358  67.129  1.00  0.00    -0.179 A  
HETATM   17  C   UNL     1      -8.241  14.637  67.872  1.00  0.00    -0.152 A  
HETATM   18  C   UNL     1      -8.072  13.141  67.936  1.00  0.00    -0.159 C  
ENDBRANCH  10  12
ENDBRANCH   6   8
ENDBRANCH   4   6
ENDBRANCH   3   4
ENDBRANCH   2   3
TORSDOF 5
ENDMDL
MODEL      192
REMARK 921   NORMALIZED FREE ENERGY PREDICTED BY IDOCK:   -3.50 KCAL/MOL
REMARK 922        TOTAL FREE ENERGY PREDICTED BY IDOCK:   -4.87 KCAL/MOL
REMARK 923 INTER-LIGAND FREE ENERGY PREDICTED BY IDOCK:   -4.97 KCAL/MOL
REMARK 924 INTRA-LIGAND FREE ENERGY PREDICTED BY IDOCK:    0.10 KCAL/MOL
REMARK 927      BINDING AFFINITY PREDICTED BY RF-SCORE:    0.00 PKD
ROOT
HETATM    1  C   UNL     1     -11.553  11.788  63.425  1.00  0.00    -0.419 C  
HETATM    2  C   UNL     1     -12.230  13.150  63.399  1.00  0.00    -0.521 C  
ENDROOT
BRANCH   2   3
HETATM    3  C   UNL     1     -11.863  13.978  64.629  1.00  0.00    -0.417 C  
BRANCH   3   4
HETATM    4  N   UNL     1     -12.921  13.858  65.641  1.00  0.00    -0.619 NA 
HETATM    5  H   UNL     1     -13.638  13.191  65.354  1.00  0.00     0.000 HD 
BRANCH   4   6
HETATM    6  C   UNL     1     -12.363  13.514  66.973  1.00  0.00    -0.211 C  
HETATM    7  C   UNL     1     -11.479  12.268  66.946  1.00  0.00    -0.418 C  
BRANCH   6   8
HETATM    8  C   UNL     1     -11.541  14.701  67.528  1.00  0.00    -0.375 C  
HETATM    9  O   UNL     1     -11.909  15.254  68.561  1.00  0.00    -0.338 OA 
HETATM   10  N   UNL     1     -10.382  14.982  66.813  1.00  0.00    -0.265 N  
HETATM   11  H   UNL     1     -10.165  14.367  66.029  1.00  0.00     0.000 HD 
BRANCH  10  12
HETATM   12  C   UNL     1      -9.471  16.039  67.066  1.00  0.00    -0.218 A  
HETATM   13  C   UNL     1      -8.453  15.905  68.024  1.00  0.00    -0.162 A  
HETATM   14  C   UNL     1      -7.546  16.935  68.282  1.00  0.00    -0.202 A  
HETATM   15  C   UNL     1      -7.645  18.133  67.592  1.00  0.00    -0.219 A  
HETATM   16  C   UNL     1      -8.658  18.299  66.649  1.00  0.00    -0.287 A  
HETATM   17  C   UNL     1      -9.577  17.261  66.373  1.00  0.00    -0.290 A  
HETATM   18  C   UNL     1     -10.641  17.549  65.345  1.00  0.00    -0.005 C  
ENDBRANCH  10  12
ENDBRANCH   6   8
ENDBRANCH   4   6
ENDBRANCH   3   4
ENDBRANCH   2   3
TORSDOF 5
ENDMDL
MODEL      193
REMARK 921   NORMALIZED FREE ENERGY PREDICTED BY IDOCK:   -3.50 KCAL/MOL
REMARK 922        TOTAL FREE ENERGY PREDICTED BY IDOCK:   -4.87 KCAL/MOL
REMARK 923 INTER-LIGAND FREE ENERGY PREDICTED BY IDOCK:   -4.28 KCAL/MOL
REMARK 924 INTRA-LIGAND FREE ENERGY PREDICTED BY IDOCK:   -0.59 KCAL/MOL
REMARK 927      BINDING AFFINITY PREDICTED BY RF-SCORE:    0.00 PKD
ROOT
HETATM    1  C   UNL     1      -8.347   9.725  66.490  1.00  0.00    -0.124 C  
HETATM    2  C   UNL     1      -7.226  10.710  66.194  1.00  0.00    -0.138 C  
ENDROOT
BRANCH   2   3
HETATM    3  C   UNL     1      -6.684  11.338  67.478  1.00  0.00    -0.074 C  
BRANCH   3   4
HETATM    4  N   UNL     1      -6.548  12.790  67.300  1.00  0.00    -0.307 NA 
HETATM    5  H   UNL     1      -6.650  13.057  66.321  1.00  0.00     0.000 HD 
BRANCH   4   6
HETATM    6  C   UNL     1      -7.496  13.534  68.168  1.00  0.00    -0.132 C  
HETATM    7  C   UNL     1      -7.130  15.010  68.321  1.00  0.00    -0.115 C  
BRANCH   6   8
HETATM    8  C   UNL     1      -8.931  13.429  67.601  1.00  0.00    -0.202 C  
HETATM    9  O   UNL     1      -9.868  13.245  68.374  1.00  0.00    -0.234 OA 
HETATM   10  N   UNL     1      -9.025  13.637  66.231  1.00  0.00    -0.464 N  
HETATM   11  H   UNL     1      -8.162  13.875  65.742  1.00  0.00     0.000 HD 
BRANCH  10  12
HETATM   12  C   UNL     1     -10.202  13.552  65.443  1.00  0.00    -0.302 A  
HETATM   13  C   UNL     1     -10.580  12.346  64.832  1.00  0.00    -0.326 A  
HETATM   14  C   UNL     1     -11.736  12.244  64.057  1.00  0.00    -0.506 A  
HETATM   15  C   UNL     1     -12.539  13.358  63.864  1.00  0.00    -0.186 A  
HETATM   16  C   UNL     1     -12.177  14.572  64.443  1.00  0.00    -0.480 A  
HETATM   17  C   UNL     1     -11.013  14.686  65.236  1.00  0.00    -0.374 A  
HETATM   18  C   UNL     1     -10.705  16.047  65.806  1.00  0.00    -0.310 C  
ENDBRANCH  10  12
ENDBRANCH   6   8
ENDBRANCH   4   6
ENDBRANCH   3   4
ENDBRANCH   2   3
TORSDOF 5
ENDMDL
MODEL      194
REMARK 921   NORMALIZED FREE ENERGY PREDICTED BY IDOCK:   -3.48 KCAL/MOL
REMARK 922        TOTAL FREE ENERGY PREDICTED BY IDOCK:   -4.83 KCAL/MOL
REMARK 923 INTER-LIGAND FREE ENERGY PREDICTED BY IDOCK:   -4.35 KCAL/MOL
REMARK 924 INTRA-LIGAND FREE ENERGY PREDICTED BY IDOCK:   -0.49 KCAL/MOL
REMARK 927      BINDING AFFINITY PREDICTED BY RF-SCORE:    0.00 PKD
ROOT
HETATM    1  C   UNL     1      -7.160  11.812  68.492  1.00  0.00    -0.091 C  
HETATM    2  C   UNL     1      -7.734  12.617  67.335  1.00  0.00    -0.161 C  
ENDROOT
BRANCH   2   3
HETATM    3  C   UNL     1      -9.024  13.330  67.740  1.00  0.00    -0.196 C  
BRANCH   3   4
HETATM    4  N   UNL     1      -9.590  12.690  68.935  1.00  0.00    -0.397 NA 
HETATM    5  H   UNL     1      -9.293  13.165  69.788  1.00  0.00     0.000 HD 
BRANCH   4   6
HETATM    6  C   UNL     1     -11.069  12.596  68.852  1.00  0.00    -0.259 C  
HETATM    7  C   UNL     1     -11.633  13.185  67.560  1.00  0.00    -0.398 C  
BRANCH   6   8
HETATM    8  C   UNL     1     -11.516  11.120  68.968  1.00  0.00    -0.296 C  
HETATM    9  O   UNL     1     -12.713  10.863  69.075  1.00  0.00    -0.239 OA 
HETATM   10  N   UNL     1     -10.483  10.197  68.859  1.00  0.00    -0.198 N  
HETATM   11  H   UNL     1      -9.551  10.569  68.677  1.00  0.00     0.000 HD 
BRANCH  10  12
HETATM   12  C   UNL     1     -10.595   8.788  68.977  1.00  0.00    -0.171 A  
HETATM   13  C   UNL     1     -10.632   7.966  67.838  1.00  0.00    -0.215 A  
HETATM   14  C   UNL     1     -10.740   6.577  67.936  1.00  0.00    -0.357 A  
HETATM   15  C   UNL     1     -10.825   5.977  69.183  1.00  0.00    -0.422 A  
HETATM   16  C   UNL     1     -10.810   6.770  70.328  1.00  0.00    -0.314 A  
HETATM   17  C   UNL     1     -10.694   8.176  70.242  1.00  0.00    -0.235 A  
HETATM   18  C   UNL     1     -10.699   8.942  71.541  1.00  0.00    -0.398 C  
ENDBRANCH  10  12
ENDBRANCH   6   8
ENDBRANCH   4   6
ENDBRANCH   3   4
ENDBRANCH   2   3
TORSDOF 5
ENDMDL
MODEL      195
REMARK 921   NORMALIZED FREE ENERGY PREDICTED BY IDOCK:   -3.47 KCAL/MOL
REMARK 922        TOTAL FREE ENERGY PREDICTED BY IDOCK:   -4.83 KCAL/MOL
REMARK 923 INTER-LIGAND FREE ENERGY PREDICTED BY IDOCK:   -4.44 KCAL/MOL
REMARK 924 INTRA-LIGAND FREE ENERGY PREDICTED BY IDOCK:   -0.39 KCAL/MOL
REMARK 927      BINDING AFFINITY PREDICTED BY RF-SCORE:    0.00 PKD
ROOT
HETATM    1  C   UNL     1      -6.587  19.844  70.024  1.00  0.00    -0.302 C  
HETATM    2  C   UNL     1      -5.469  20.554  69.275  1.00  0.00    -0.352 C  
ENDROOT
BRANCH   2   3
HETATM    3  C   UNL     1      -5.698  20.513  67.765  1.00  0.00    -0.226 C  
BRANCH   3   4
HETATM    4  N   UNL     1      -5.782  19.118  67.313  1.00  0.00    -0.174 NA 
HETATM    5  H   UNL     1      -5.997  18.488  68.086  1.00  0.00     0.000 HD 
BRANCH   4   6
HETATM    6  C   UNL     1      -6.753  18.965  66.201  1.00  0.00    -0.227 C  
HETATM    7  C   UNL     1      -6.101  19.065  64.822  1.00  0.00    -0.289 C  
BRANCH   6   8
HETATM    8  C   UNL     1      -7.482  17.606  66.314  1.00  0.00    -0.305 C  
HETATM    9  O   UNL     1      -6.821  16.571  66.339  1.00  0.00    -0.186 OA 
HETATM   10  N   UNL     1      -8.861  17.704  66.459  1.00  0.00    -0.265 N  
HETATM   11  H   UNL     1      -9.252  18.645  66.515  1.00  0.00     0.000 HD 
BRANCH  10  12
HETATM   12  C   UNL     1      -9.780  16.626  66.535  1.00  0.00    -0.274 A  
HETATM   13  C   UNL     1     -10.401  16.120  65.382  1.00  0.00    -0.356 A  
HETATM   14  C   UNL     1     -11.306  15.058  65.440  1.00  0.00    -0.328 A  
HETATM   15  C   UNL     1     -11.620  14.482  66.662  1.00  0.00    -0.385 A  
HETATM   16  C   UNL     1     -11.032  14.978  67.823  1.00  0.00    -0.298 A  
HETATM   17  C   UNL     1     -10.109  16.048  67.777  1.00  0.00    -0.243 A  
HETATM   18  C   UNL     1      -9.540  16.515  69.093  1.00  0.00    -0.228 C  
ENDBRANCH  10  12
ENDBRANCH   6   8
ENDBRANCH   4   6
ENDBRANCH   3   4
ENDBRANCH   2   3
TORSDOF 5
ENDMDL
MODEL      196
REMARK 921   NORMALIZED FREE ENERGY PREDICTED BY IDOCK:   -3.47 KCAL/MOL
REMARK 922        TOTAL FREE ENERGY PREDICTED BY IDOCK:   -4.82 KCAL/MOL
REMARK 923 INTER-LIGAND FREE ENERGY PREDICTED BY IDOCK:   -4.63 KCAL/MOL
REMARK 924 INTRA-LIGAND FREE ENERGY PREDICTED BY IDOCK:   -0.19 KCAL/MOL
REMARK 927      BINDING AFFINITY PREDICTED BY RF-SCORE:    0.00 PKD
ROOT
HETATM    1  C   UNL     1      -5.172  10.787  69.961  1.00  0.00    -0.045 C  
HETATM    2  C   UNL     1      -6.314  10.353  69.053  1.00  0.00    -0.044 C  
ENDROOT
BRANCH   2   3
HETATM    3  C   UNL     1      -7.444   9.704  69.852  1.00  0.00    -0.127 C  
BRANCH   3   4
HETATM    4  N   UNL     1      -8.594  10.614  69.913  1.00  0.00    -0.287 NA 
HETATM    5  H   UNL     1      -8.316  11.580  69.737  1.00  0.00     0.000 HD 
BRANCH   4   6
HETATM    6  C   UNL     1      -9.676  10.185  68.991  1.00  0.00    -0.206 C  
HETATM    7  C   UNL     1     -11.043  10.110  69.670  1.00  0.00    -0.308 C  
BRANCH   6   8
HETATM    8  C   UNL     1      -9.765  11.151  67.787  1.00  0.00    -0.171 C  
HETATM    9  O   UNL     1      -8.776  11.810  67.474  1.00  0.00    -0.149 OA 
HETATM   10  N   UNL     1     -10.978  11.117  67.111  1.00  0.00    -0.280 N  
HETATM   11  H   UNL     1     -11.669  10.443  67.440  1.00  0.00     0.000 HD 
BRANCH  10  12
HETATM   12  C   UNL     1     -11.353  11.927  66.008  1.00  0.00    -0.316 A  
HETATM   13  C   UNL     1     -12.266  12.983  66.161  1.00  0.00    -0.428 A  
HETATM   14  C   UNL     1     -12.642  13.792  65.086  1.00  0.00    -0.471 A  
HETATM   15  C   UNL     1     -12.119  13.552  63.825  1.00  0.00    -0.482 A  
HETATM   16  C   UNL     1     -11.226  12.499  63.642  1.00  0.00    -0.545 A  
HETATM   17  C   UNL     1     -10.831  11.678  64.723  1.00  0.00    -0.367 A  
HETATM   18  C   UNL     1      -9.870  10.559  64.414  1.00  0.00    -0.405 C  
ENDBRANCH  10  12
ENDBRANCH   6   8
ENDBRANCH   4   6
ENDBRANCH   3   4
ENDBRANCH   2   3
TORSDOF 5
ENDMDL
MODEL      197
REMARK 921   NORMALIZED FREE ENERGY PREDICTED BY IDOCK:   -3.46 KCAL/MOL
REMARK 922        TOTAL FREE ENERGY PREDICTED BY IDOCK:   -4.81 KCAL/MOL
REMARK 923 INTER-LIGAND FREE ENERGY PREDICTED BY IDOCK:   -4.34 KCAL/MOL
REMARK 924 INTRA-LIGAND FREE ENERGY PREDICTED BY IDOCK:   -0.47 KCAL/MOL
REMARK 927      BINDING AFFINITY PREDICTED BY RF-SCORE:    0.00 PKD
ROOT
HETATM    1  C   UNL     1      -7.591  15.356  68.866  1.00  0.00    -0.164 C  
HETATM    2  C   UNL     1      -6.619  14.480  69.643  1.00  0.00    -0.153 C  
ENDROOT
BRANCH   2   3
HETATM    3  C   UNL     1      -6.327  13.177  68.899  1.00  0.00    -0.093 C  
BRANCH   3   4
HETATM    4  N   UNL     1      -7.477  12.271  69.017  1.00  0.00    -0.310 NA 
HETATM    5  H   UNL     1      -8.345  12.787  69.167  1.00  0.00     0.000 HD 
BRANCH   4   6
HETATM    6  C   UNL     1      -7.579  11.367  67.844  1.00  0.00    -0.108 C  
HETATM    7  C   UNL     1      -7.316   9.903  68.195  1.00  0.00    -0.080 C  
BRANCH   6   8
HETATM    8  C   UNL     1      -8.980  11.485  67.200  1.00  0.00    -0.166 C  
HETATM    9  O   UNL     1      -9.942  10.962  67.758  1.00  0.00    -0.171 OA 
HETATM   10  N   UNL     1      -9.021  12.266  66.051  1.00  0.00    -0.425 N  
HETATM   11  H   UNL     1      -8.149  12.712  65.768  1.00  0.00     0.000 HD 
BRANCH  10  12
HETATM   12  C   UNL     1     -10.155  12.504  65.234  1.00  0.00    -0.257 A  
HETATM   13  C   UNL     1     -10.559  11.572  64.264  1.00  0.00    -0.405 A  
HETATM   14  C   UNL     1     -11.675  11.790  63.453  1.00  0.00    -0.423 A  
HETATM   15  C   UNL     1     -12.409  12.959  63.587  1.00  0.00    -0.520 A  
HETATM   16  C   UNL     1     -12.018  13.909  64.528  1.00  0.00    -0.464 A  
HETATM   17  C   UNL     1     -10.896  13.696  65.360  1.00  0.00    -0.302 A  
HETATM   18  C   UNL     1     -10.553  14.793  66.336  1.00  0.00    -0.300 C  
ENDBRANCH  10  12
ENDBRANCH   6   8
ENDBRANCH   4   6
ENDBRANCH   3   4
ENDBRANCH   2   3
TORSDOF 5
ENDMDL
MODEL      198
REMARK 921   NORMALIZED FREE ENERGY PREDICTED BY IDOCK:   -3.46 KCAL/MOL
REMARK 922        TOTAL FREE ENERGY PREDICTED BY IDOCK:   -4.80 KCAL/MOL
REMARK 923 INTER-LIGAND FREE ENERGY PREDICTED BY IDOCK:   -4.46 KCAL/MOL
REMARK 924 INTRA-LIGAND FREE ENERGY PREDICTED BY IDOCK:   -0.34 KCAL/MOL
REMARK 927      BINDING AFFINITY PREDICTED BY RF-SCORE:    0.00 PKD
ROOT
HETATM    1  C   UNL     1     -12.876  10.262  70.999  1.00  0.00    -0.490 C  
HETATM    2  C   UNL     1     -12.946   9.257  72.139  1.00  0.00    -0.503 C  
ENDROOT
BRANCH   2   3
HETATM    3  C   UNL     1     -13.687   7.989  71.718  1.00  0.00    -0.359 C  
BRANCH   3   4
HETATM    4  N   UNL     1     -12.821   7.173  70.856  1.00  0.00    -0.585 NA 
HETATM    5  H   UNL     1     -12.795   7.536  69.903  1.00  0.00     0.000 HD 
BRANCH   4   6
HETATM    6  C   UNL     1     -11.456   7.042  71.425  1.00  0.00    -0.276 C  
HETATM    7  C   UNL     1     -11.385   6.045  72.581  1.00  0.00    -0.320 C  
BRANCH   6   8
HETATM    8  C   UNL     1     -10.460   6.607  70.325  1.00  0.00    -0.209 C  
HETATM    9  O   UNL     1      -9.378   7.182  70.236  1.00  0.00    -0.156 OA 
HETATM   10  N   UNL     1     -10.878   5.518  69.570  1.00  0.00    -0.273 N  
HETATM   11  H   UNL     1     -11.766   5.090  69.831  1.00  0.00     0.000 HD 
BRANCH  10  12
HETATM   12  C   UNL     1     -10.192   4.942  68.470  1.00  0.00    -0.034 A  
HETATM   13  C   UNL     1      -9.372   3.814  68.638  1.00  0.00    -0.226 A  
HETATM   14  C   UNL     1      -8.692   3.232  67.566  1.00  0.00    -0.137 A  
HETATM   15  C   UNL     1      -8.809   3.776  66.296  1.00  0.00    -0.128 A  
HETATM   16  C   UNL     1      -9.600   4.907  66.105  1.00  0.00    -0.183 A  
HETATM   17  C   UNL     1     -10.300   5.500  67.181  1.00  0.00    -0.301 A  
HETATM   18  C   UNL     1     -11.118   6.727  66.869  1.00  0.00    -0.283 C  
ENDBRANCH  10  12
ENDBRANCH   6   8
ENDBRANCH   4   6
ENDBRANCH   3   4
ENDBRANCH   2   3
TORSDOF 5
ENDMDL
MODEL      199
REMARK 921   NORMALIZED FREE ENERGY PREDICTED BY IDOCK:   -3.43 KCAL/MOL
REMARK 922        TOTAL FREE ENERGY PREDICTED BY IDOCK:   -4.77 KCAL/MOL
REMARK 923 INTER-LIGAND FREE ENERGY PREDICTED BY IDOCK:   -4.24 KCAL/MOL
REMARK 924 INTRA-LIGAND FREE ENERGY PREDICTED BY IDOCK:   -0.53 KCAL/MOL
REMARK 927      BINDING AFFINITY PREDICTED BY RF-SCORE:    0.00 PKD
ROOT
HETATM    1  C   UNL     1      -6.728   6.468  67.746  1.00  0.00    -0.071 C  
HETATM    2  C   UNL     1      -6.313   6.522  66.283  1.00  0.00    -0.042 C  
ENDROOT
BRANCH   2   3
HETATM    3  C   UNL     1      -7.267   7.391  65.465  1.00  0.00    -0.066 C  
BRANCH   3   4
HETATM    4  N   UNL     1      -7.879   8.406  66.333  1.00  0.00    -0.097 NA 
HETATM    5  H   UNL     1      -7.356   9.282  66.309  1.00  0.00     0.000 HD 
BRANCH   4   6
HETATM    6  C   UNL     1      -9.309   8.619  65.996  1.00  0.00    -0.218 C  
HETATM    7  C   UNL     1     -10.250   8.285  67.153  1.00  0.00    -0.365 C  
BRANCH   6   8
HETATM    8  C   UNL     1      -9.543  10.085  65.565  1.00  0.00    -0.266 C  
HETATM    9  O   UNL     1      -8.576  10.785  65.272  1.00  0.00    -0.183 OA 
HETATM   10  N   UNL     1     -10.880  10.453  65.478  1.00  0.00     0.102 N  
HETATM   11  H   UNL     1     -11.570   9.725  65.663  1.00  0.00     0.000 HD 
BRANCH  10  12
HETATM   12  C   UNL     1     -11.382  11.740  65.156  1.00  0.00    -0.218 A  
HETATM   13  C   UNL     1     -11.525  12.149  63.820  1.00  0.00    -0.548 A  
HETATM   14  C   UNL     1     -12.021  13.411  63.486  1.00  0.00    -0.467 A  
HETATM   15  C   UNL     1     -12.375  14.302  64.488  1.00  0.00    -0.432 A  
HETATM   16  C   UNL     1     -12.225  13.928  65.822  1.00  0.00    -0.488 A  
HETATM   17  C   UNL     1     -11.732  12.651  66.172  1.00  0.00    -0.461 A  
HETATM   18  C   UNL     1     -11.597  12.352  67.644  1.00  0.00    -0.421 C  
ENDBRANCH  10  12
ENDBRANCH   6   8
ENDBRANCH   4   6
ENDBRANCH   3   4
ENDBRANCH   2   3
TORSDOF 5
ENDMDL
MODEL      200
REMARK 921   NORMALIZED FREE ENERGY PREDICTED BY IDOCK:   -3.42 KCAL/MOL
REMARK 922        TOTAL FREE ENERGY PREDICTED BY IDOCK:   -4.76 KCAL/MOL
REMARK 923 INTER-LIGAND FREE ENERGY PREDICTED BY IDOCK:   -4.28 KCAL/MOL
REMARK 924 INTRA-LIGAND FREE ENERGY PREDICTED BY IDOCK:   -0.48 KCAL/MOL
REMARK 927      BINDING AFFINITY PREDICTED BY RF-SCORE:    0.00 PKD
ROOT
HETATM    1  C   UNL     1      -6.224  13.042  67.486  1.00  0.00    -0.143 C  
HETATM    2  C   UNL     1      -6.074  14.453  68.038  1.00  0.00    -0.157 C  
ENDROOT
BRANCH   2   3
HETATM    3  C   UNL     1      -7.354  14.917  68.732  1.00  0.00    -0.127 C  
BRANCH   3   4
HETATM    4  N   UNL     1      -8.098  15.822  67.846  1.00  0.00    -0.139 NA 
HETATM    5  H   UNL     1      -8.102  15.482  66.885  1.00  0.00     0.000 HD 
BRANCH   4   6
HETATM    6  C   UNL     1      -9.476  16.060  68.345  1.00  0.00    -0.207 C  
HETATM    7  C   UNL     1      -9.956  17.491  68.110  1.00  0.00    -0.321 C  
BRANCH   6   8
HETATM    8  C   UNL     1     -10.463  15.081  67.669  1.00  0.00    -0.247 C  
HETATM    9  O   UNL     1     -11.440  14.683  68.300  1.00  0.00    -0.284 OA 
HETATM   10  N   UNL     1     -10.174  14.800  66.339  1.00  0.00    -0.282 N  
HETATM   11  H   UNL     1      -9.377  15.287  65.929  1.00  0.00     0.000 HD 
BRANCH  10  12
HETATM   12  C   UNL     1     -10.877  13.904  65.494  1.00  0.00    -0.306 A  
HETATM   13  C   UNL     1     -11.872  14.365  64.617  1.00  0.00    -0.460 A  
HETATM   14  C   UNL     1     -12.572  13.497  63.776  1.00  0.00    -0.147 A  
HETATM   15  C   UNL     1     -12.297  12.138  63.802  1.00  0.00    -0.635 A  
HETATM   16  C   UNL     1     -11.327  11.652  64.677  1.00  0.00    -0.284 A  
HETATM   17  C   UNL     1     -10.607  12.522  65.527  1.00  0.00    -0.304 A  
HETATM   18  C   UNL     1      -9.588  11.892  66.442  1.00  0.00    -0.239 C  
ENDBRANCH  10  12
ENDBRANCH   6   8
ENDBRANCH   4   6
ENDBRANCH   3   4
ENDBRANCH   2   3
TORSDOF 5
ENDMDL
MODEL      201
REMARK 921   NORMALIZED FREE ENERGY PREDICTED BY IDOCK:   -3.40 KCAL/MOL
REMARK 922        TOTAL FREE ENERGY PREDICTED BY IDOCK:   -4.73 KCAL/MOL
REMARK 923 INTER-LIGAND FREE ENERGY PREDICTED BY IDOCK:   -4.39 KCAL/MOL
REMARK 924 INTRA-LIGAND FREE ENERGY PREDICTED BY IDOCK:   -0.34 KCAL/MOL
REMARK 927      BINDING AFFINITY PREDICTED BY RF-SCORE:    0.00 PKD
ROOT
HETATM    1  C   UNL     1     -10.132   3.567  64.256  1.00  0.00    -0.196 C  
HETATM    2  C   UNL     1      -9.516   4.585  65.205  1.00  0.00    -0.166 C  
ENDROOT
BRANCH   2   3
HETATM    3  C   UNL     1     -10.486   4.960  66.324  1.00  0.00    -0.304 C  
BRANCH   3   4
HETATM    4  N   UNL     1      -9.790   5.771  67.332  1.00  0.00    -0.129 NA 
HETATM    5  H   UNL     1      -9.067   6.352  66.908  1.00  0.00     0.000 HD 
BRANCH   4   6
HETATM    6  C   UNL     1     -10.744   6.583  68.129  1.00  0.00    -0.282 C  
HETATM    7  C   UNL     1     -10.959   6.037  69.539  1.00  0.00    -0.467 C  
BRANCH   6   8
HETATM    8  C   UNL     1     -10.247   8.044  68.226  1.00  0.00    -0.205 C  
HETATM    9  O   UNL     1      -9.158   8.273  68.748  1.00  0.00    -0.144 OA 
HETATM   10  N   UNL     1     -11.080   8.977  67.621  1.00  0.00    -0.430 N  
HETATM   11  H   UNL     1     -11.906   8.615  67.144  1.00  0.00     0.000 HD 
BRANCH  10  12
HETATM   12  C   UNL     1     -10.898  10.383  67.601  1.00  0.00    -0.306 A  
HETATM   13  C   UNL     1     -11.399  11.194  68.632  1.00  0.00    -0.342 A  
HETATM   14  C   UNL     1     -11.225  12.580  68.629  1.00  0.00    -0.319 A  
HETATM   15  C   UNL     1     -10.553  13.190  67.581  1.00  0.00    -0.235 A  
HETATM   16  C   UNL     1     -10.063  12.411  66.536  1.00  0.00    -0.246 A  
HETATM   17  C   UNL     1     -10.225  11.006  66.532  1.00  0.00    -0.280 A  
HETATM   18  C   UNL     1      -9.667  10.259  65.347  1.00  0.00    -0.340 C  
ENDBRANCH  10  12
ENDBRANCH   6   8
ENDBRANCH   4   6
ENDBRANCH   3   4
ENDBRANCH   2   3
TORSDOF 5
ENDMDL
MODEL      202
REMARK 921   NORMALIZED FREE ENERGY PREDICTED BY IDOCK:   -3.39 KCAL/MOL
REMARK 922        TOTAL FREE ENERGY PREDICTED BY IDOCK:   -4.72 KCAL/MOL
REMARK 923 INTER-LIGAND FREE ENERGY PREDICTED BY IDOCK:   -4.66 KCAL/MOL
REMARK 924 INTRA-LIGAND FREE ENERGY PREDICTED BY IDOCK:   -0.06 KCAL/MOL
REMARK 927      BINDING AFFINITY PREDICTED BY RF-SCORE:    0.00 PKD
ROOT
HETATM    1  C   UNL     1     -13.007  10.395  70.836  1.00  0.00    -0.475 C  
HETATM    2  C   UNL     1     -12.664   9.386  71.922  1.00  0.00    -0.484 C  
ENDROOT
BRANCH   2   3
HETATM    3  C   UNL     1     -13.445   8.085  71.741  1.00  0.00    -0.341 C  
BRANCH   3   4
HETATM    4  N   UNL     1     -12.883   7.322  70.619  1.00  0.00    -0.587 NA 
HETATM    5  H   UNL     1     -12.896   7.865  69.755  1.00  0.00     0.000 HD 
BRANCH   4   6
HETATM    6  C   UNL     1     -11.519   6.826  70.929  1.00  0.00    -0.334 C  
HETATM    7  C   UNL     1     -11.460   6.008  72.218  1.00  0.00    -0.364 C  
BRANCH   6   8
HETATM    8  C   UNL     1     -10.988   5.962  69.761  1.00  0.00    -0.382 C  
HETATM    9  O   UNL     1     -11.304   6.252  68.609  1.00  0.00    -0.337 OA 
HETATM   10  N   UNL     1     -10.113   4.953  70.144  1.00  0.00    -0.260 N  
HETATM   11  H   UNL     1      -9.876   4.902  71.134  1.00  0.00     0.000 HD 
BRANCH  10  12
HETATM   12  C   UNL     1      -9.517   3.986  69.295  1.00  0.00    -0.190 A  
HETATM   13  C   UNL     1      -9.172   4.300  67.970  1.00  0.00    -0.182 A  
HETATM   14  C   UNL     1      -8.581   3.360  67.121  1.00  0.00    -0.117 A  
HETATM   15  C   UNL     1      -8.333   2.075  67.579  1.00  0.00    -0.081 A  
HETATM   16  C   UNL     1      -8.683   1.733  68.883  1.00  0.00    -0.112 A  
HETATM   17  C   UNL     1      -9.274   2.677  69.754  1.00  0.00    -0.199 A  
HETATM   18  C   UNL     1      -9.625   2.199  71.140  1.00  0.00    -0.212 C  
ENDBRANCH  10  12
ENDBRANCH   6   8
ENDBRANCH   4   6
ENDBRANCH   3   4
ENDBRANCH   2   3
TORSDOF 5
ENDMDL
MODEL      203
REMARK 921   NORMALIZED FREE ENERGY PREDICTED BY IDOCK:   -3.39 KCAL/MOL
REMARK 922        TOTAL FREE ENERGY PREDICTED BY IDOCK:   -4.72 KCAL/MOL
REMARK 923 INTER-LIGAND FREE ENERGY PREDICTED BY IDOCK:   -4.48 KCAL/MOL
REMARK 924 INTRA-LIGAND FREE ENERGY PREDICTED BY IDOCK:   -0.23 KCAL/MOL
REMARK 927      BINDING AFFINITY PREDICTED BY RF-SCORE:    0.00 PKD
ROOT
HETATM    1  C   UNL     1     -12.652  10.308  70.479  1.00  0.00    -0.338 C  
HETATM    2  C   UNL     1     -12.913   9.947  71.934  1.00  0.00    -0.545 C  
ENDROOT
BRANCH   2   3
HETATM    3  C   UNL     1     -13.694   8.639  72.051  1.00  0.00    -0.426 C  
BRANCH   3   4
HETATM    4  N   UNL     1     -13.198   7.675  71.060  1.00  0.00    -0.577 NA 
HETATM    5  H   UNL     1     -13.281   8.040  70.111  1.00  0.00     0.000 HD 
BRANCH   4   6
HETATM    6  C   UNL     1     -11.807   7.254  71.361  1.00  0.00    -0.305 C  
HETATM    7  C   UNL     1     -11.738   6.059  72.310  1.00  0.00    -0.338 C  
BRANCH   6   8
HETATM    8  C   UNL     1     -11.064   6.899  70.052  1.00  0.00    -0.299 C  
HETATM    9  O   UNL     1     -11.248   5.797  69.538  1.00  0.00    -0.343 OA 
HETATM   10  N   UNL     1     -10.293   7.930  69.531  1.00  0.00    -0.213 N  
HETATM   11  H   UNL     1     -10.320   8.821  70.028  1.00  0.00     0.000 HD 
BRANCH  10  12
HETATM   12  C   UNL     1      -9.472   7.870  68.376  1.00  0.00    -0.148 A  
HETATM   13  C   UNL     1      -9.923   8.359  67.139  1.00  0.00    -0.304 A  
HETATM   14  C   UNL     1      -9.126   8.310  65.993  1.00  0.00    -0.228 A  
HETATM   15  C   UNL     1      -7.857   7.755  66.057  1.00  0.00    -0.100 A  
HETATM   16  C   UNL     1      -7.393   7.244  67.267  1.00  0.00    -0.098 A  
HETATM   17  C   UNL     1      -8.186   7.296  68.435  1.00  0.00    -0.125 A  
HETATM   18  C   UNL     1      -7.593   6.705  69.689  1.00  0.00    -0.098 C  
ENDBRANCH  10  12
ENDBRANCH   6   8
ENDBRANCH   4   6
ENDBRANCH   3   4
ENDBRANCH   2   3
TORSDOF 5
ENDMDL
MODEL      204
REMARK 921   NORMALIZED FREE ENERGY PREDICTED BY IDOCK:   -3.38 KCAL/MOL
REMARK 922        TOTAL FREE ENERGY PREDICTED BY IDOCK:   -4.70 KCAL/MOL
REMARK 923 INTER-LIGAND FREE ENERGY PREDICTED BY IDOCK:   -4.22 KCAL/MOL
REMARK 924 INTRA-LIGAND FREE ENERGY PREDICTED BY IDOCK:   -0.49 KCAL/MOL
REMARK 927      BINDING AFFINITY PREDICTED BY RF-SCORE:    0.00 PKD
ROOT
HETATM    1  C   UNL     1     -10.487   7.700  68.724  1.00  0.00    -0.208 C  
HETATM    2  C   UNL     1      -9.270   7.082  68.052  1.00  0.00    -0.129 C  
ENDROOT
BRANCH   2   3
HETATM    3  C   UNL     1      -9.405   7.102  66.529  1.00  0.00    -0.164 C  
BRANCH   3   4
HETATM    4  N   UNL     1     -10.162   8.290  66.115  1.00  0.00    -0.384 NA 
HETATM    5  H   UNL     1     -10.868   8.543  66.807  1.00  0.00     0.000 HD 
BRANCH   4   6
HETATM    6  C   UNL     1      -9.262   9.431  65.814  1.00  0.00    -0.219 C  
HETATM    7  C   UNL     1      -8.794   9.455  64.360  1.00  0.00    -0.225 C  
BRANCH   6   8
HETATM    8  C   UNL     1      -9.971  10.767  66.135  1.00  0.00    -0.232 C  
HETATM    9  O   UNL     1     -10.998  10.754  66.810  1.00  0.00    -0.234 OA 
HETATM   10  N   UNL     1      -9.305  11.897  65.674  1.00  0.00    -0.387 N  
HETATM   11  H   UNL     1      -8.409  11.745  65.211  1.00  0.00     0.000 HD 
BRANCH  10  12
HETATM   12  C   UNL     1      -9.747  13.240  65.783  1.00  0.00    -0.133 A  
HETATM   13  C   UNL     1     -10.572  13.814  64.802  1.00  0.00    -0.444 A  
HETATM   14  C   UNL     1     -11.018  15.134  64.895  1.00  0.00    -0.434 A  
HETATM   15  C   UNL     1     -10.638  15.917  65.974  1.00  0.00    -0.331 A  
HETATM   16  C   UNL     1      -9.805  15.379  66.952  1.00  0.00    -0.251 A  
HETATM   17  C   UNL     1      -9.353  14.042  66.872  1.00  0.00    -0.266 A  
HETATM   18  C   UNL     1      -8.446  13.562  67.977  1.00  0.00    -0.176 C  
ENDBRANCH  10  12
ENDBRANCH   6   8
ENDBRANCH   4   6
ENDBRANCH   3   4
ENDBRANCH   2   3
TORSDOF 5
ENDMDL
MODEL      205
REMARK 921   NORMALIZED FREE ENERGY PREDICTED BY IDOCK:   -3.37 KCAL/MOL
REMARK 922        TOTAL FREE ENERGY PREDICTED BY IDOCK:   -4.70 KCAL/MOL
REMARK 923 INTER-LIGAND FREE ENERGY PREDICTED BY IDOCK:   -4.18 KCAL/MOL
REMARK 924 INTRA-LIGAND FREE ENERGY PREDICTED BY IDOCK:   -0.52 KCAL/MOL
REMARK 927      BINDING AFFINITY PREDICTED BY RF-SCORE:    0.00 PKD
ROOT
HETATM    1  C   UNL     1      -7.264  12.277  67.145  1.00  0.00    -0.100 C  
HETATM    2  C   UNL     1      -8.562  12.907  67.630  1.00  0.00    -0.182 C  
ENDROOT
BRANCH   2   3
HETATM    3  C   UNL     1      -9.730  12.552  66.711  1.00  0.00    -0.234 C  
BRANCH   3   4
HETATM    4  N   UNL     1      -9.222  12.186  65.383  1.00  0.00    -0.428 NA 
HETATM    5  H   UNL     1      -8.212  12.043  65.396  1.00  0.00     0.000 HD 
BRANCH   4   6
HETATM    6  C   UNL     1      -9.931  11.001  64.837  1.00  0.00    -0.288 C  
HETATM    7  C   UNL     1      -9.570  10.708  63.382  1.00  0.00    -0.373 C  
BRANCH   6   8
HETATM    8  C   UNL     1      -9.618   9.752  65.694  1.00  0.00    -0.263 C  
HETATM    9  O   UNL     1      -8.540   9.180  65.548  1.00  0.00    -0.150 OA 
HETATM   10  N   UNL     1     -10.595   9.438  66.630  1.00  0.00    -0.157 N  
HETATM   11  H   UNL     1     -11.393  10.070  66.692  1.00  0.00     0.000 HD 
BRANCH  10  12
HETATM   12  C   UNL     1     -10.594   8.325  67.510  1.00  0.00    -0.221 A  
HETATM   13  C   UNL     1     -10.889   7.033  67.045  1.00  0.00    -0.413 A  
HETATM   14  C   UNL     1     -10.889   5.927  67.897  1.00  0.00    -0.323 A  
HETATM   15  C   UNL     1     -10.603   6.091  69.244  1.00  0.00    -0.366 A  
HETATM   16  C   UNL     1     -10.326   7.365  69.735  1.00  0.00    -0.226 A  
HETATM   17  C   UNL     1     -10.315   8.491  68.881  1.00  0.00    -0.226 A  
HETATM   18  C   UNL     1     -10.014   9.825  69.516  1.00  0.00    -0.230 C  
ENDBRANCH  10  12
ENDBRANCH   6   8
ENDBRANCH   4   6
ENDBRANCH   3   4
ENDBRANCH   2   3
TORSDOF 5
ENDMDL
MODEL      206
REMARK 921   NORMALIZED FREE ENERGY PREDICTED BY IDOCK:   -3.37 KCAL/MOL
REMARK 922        TOTAL FREE ENERGY PREDICTED BY IDOCK:   -4.69 KCAL/MOL
REMARK 923 INTER-LIGAND FREE ENERGY PREDICTED BY IDOCK:   -4.21 KCAL/MOL
REMARK 924 INTRA-LIGAND FREE ENERGY PREDICTED BY IDOCK:   -0.48 KCAL/MOL
REMARK 927      BINDING AFFINITY PREDICTED BY RF-SCORE:    0.00 PKD
ROOT
HETATM    1  C   UNL     1     -10.291   4.868  65.974  1.00  0.00    -0.307 C  
HETATM    2  C   UNL     1      -8.786   5.069  66.076  1.00  0.00    -0.127 C  
ENDROOT
BRANCH   2   3
HETATM    3  C   UNL     1      -8.345   6.342  65.356  1.00  0.00    -0.141 C  
BRANCH   3   4
HETATM    4  N   UNL     1      -7.613   7.210  66.288  1.00  0.00    -0.089 NA 
HETATM    5  H   UNL     1      -7.125   7.959  65.797  1.00  0.00     0.000 HD 
BRANCH   4   6
HETATM    6  C   UNL     1      -8.507   7.747  67.346  1.00  0.00    -0.119 C  
HETATM    7  C   UNL     1      -7.769   8.610  68.368  1.00  0.00    -0.100 C  
BRANCH   6   8
HETATM    8  C   UNL     1      -9.642   8.582  66.710  1.00  0.00    -0.210 C  
HETATM    9  O   UNL     1     -10.806   8.205  66.834  1.00  0.00    -0.250 OA 
HETATM   10  N   UNL     1      -9.221   9.759  66.105  1.00  0.00    -0.166 N  
HETATM   11  H   UNL     1      -8.227   9.979  66.169  1.00  0.00     0.000 HD 
BRANCH  10  12
HETATM   12  C   UNL     1     -10.034  10.687  65.405  1.00  0.00    -0.281 A  
HETATM   13  C   UNL     1     -10.982  11.473  66.081  1.00  0.00    -0.320 A  
HETATM   14  C   UNL     1     -11.788  12.394  65.408  1.00  0.00    -0.460 A  
HETATM   15  C   UNL     1     -11.673  12.540  64.034  1.00  0.00    -0.499 A  
HETATM   16  C   UNL     1     -10.754  11.758  63.337  1.00  0.00    -0.468 A  
HETATM   17  C   UNL     1      -9.927  10.829  64.008  1.00  0.00    -0.403 A  
HETATM   18  C   UNL     1      -8.976  10.025  63.158  1.00  0.00    -0.273 C  
ENDBRANCH  10  12
ENDBRANCH   6   8
ENDBRANCH   4   6
ENDBRANCH   3   4
ENDBRANCH   2   3
TORSDOF 5
ENDMDL
MODEL      207
REMARK 921   NORMALIZED FREE ENERGY PREDICTED BY IDOCK:   -3.36 KCAL/MOL
REMARK 922        TOTAL FREE ENERGY PREDICTED BY IDOCK:   -4.69 KCAL/MOL
REMARK 923 INTER-LIGAND FREE ENERGY PREDICTED BY IDOCK:   -4.28 KCAL/MOL
REMARK 924 INTRA-LIGAND FREE ENERGY PREDICTED BY IDOCK:   -0.41 KCAL/MOL
REMARK 927      BINDING AFFINITY PREDICTED BY RF-SCORE:    0.00 PKD
ROOT
HETATM    1  C   UNL     1      -6.827  11.678  68.819  1.00  0.00    -0.090 C  
HETATM    2  C   UNL     1      -6.916  10.763  70.031  1.00  0.00    -0.091 C  
ENDROOT
BRANCH   2   3
HETATM    3  C   UNL     1      -7.821   9.562  69.757  1.00  0.00    -0.128 C  
BRANCH   3   4
HETATM    4  N   UNL     1      -9.162   9.818  70.298  1.00  0.00    -0.348 NA 
HETATM    5  H   UNL     1      -9.244  10.769  70.658  1.00  0.00     0.000 HD 
BRANCH   4   6
HETATM    6  C   UNL     1     -10.218   9.523  69.297  1.00  0.00    -0.203 C  
HETATM    7  C   UNL     1     -11.141   8.382  69.724  1.00  0.00    -0.062 C  
BRANCH   6   8
HETATM    8  C   UNL     1     -11.069  10.786  69.033  1.00  0.00    -0.253 C  
HETATM    9  O   UNL     1     -11.724  10.861  67.996  1.00  0.00    -0.540 OA 
HETATM   10  N   UNL     1     -11.066  11.709  70.071  1.00  0.00    -0.461 N  
HETATM   11  H   UNL     1     -10.545  11.455  70.911  1.00  0.00     0.000 HD 
BRANCH  10  12
HETATM   12  C   UNL     1     -11.715  12.970  70.081  1.00  0.00    -0.170 A  
HETATM   13  C   UNL     1     -11.325  13.993  69.201  1.00  0.00    -0.323 A  
HETATM   14  C   UNL     1     -11.956  15.239  69.195  1.00  0.00    -0.308 A  
HETATM   15  C   UNL     1     -12.988  15.495  70.084  1.00  0.00    -0.035 A  
HETATM   16  C   UNL     1     -13.382  14.505  70.981  1.00  0.00    -0.384 A  
HETATM   17  C   UNL     1     -12.757  13.237  70.991  1.00  0.00    -0.374 A  
HETATM   18  C   UNL     1     -13.251  12.241  72.009  1.00  0.00    -0.508 C  
ENDBRANCH  10  12
ENDBRANCH   6   8
ENDBRANCH   4   6
ENDBRANCH   3   4
ENDBRANCH   2   3
TORSDOF 5
ENDMDL
MODEL      208
REMARK 921   NORMALIZED FREE ENERGY PREDICTED BY IDOCK:   -3.36 KCAL/MOL
REMARK 922        TOTAL FREE ENERGY PREDICTED BY IDOCK:   -4.68 KCAL/MOL
REMARK 923 INTER-LIGAND FREE ENERGY PREDICTED BY IDOCK:   -4.27 KCAL/MOL
REMARK 924 INTRA-LIGAND FREE ENERGY PREDICTED BY IDOCK:   -0.41 KCAL/MOL
REMARK 927      BINDING AFFINITY PREDICTED BY RF-SCORE:    0.00 PKD
ROOT
HETATM    1  C   UNL     1      -6.277   8.443  67.468  1.00  0.00    -0.053 C  
HETATM    2  C   UNL     1      -5.913   9.650  66.617  1.00  0.00    -0.059 C  
ENDROOT
BRANCH   2   3
HETATM    3  C   UNL     1      -6.488  10.939  67.204  1.00  0.00    -0.078 C  
BRANCH   3   4
HETATM    4  N   UNL     1      -7.667  11.352  66.433  1.00  0.00    -0.325 NA 
HETATM    5  H   UNL     1      -8.081  10.565  65.933  1.00  0.00     0.000 HD 
BRANCH   4   6
HETATM    6  C   UNL     1      -8.666  12.036  67.292  1.00  0.00    -0.175 C  
HETATM    7  C   UNL     1      -9.454  13.113  66.548  1.00  0.00    -0.246 C  
BRANCH   6   8
HETATM    8  C   UNL     1      -9.657  11.005  67.880  1.00  0.00    -0.172 C  
HETATM    9  O   UNL     1     -10.160  10.165  67.137  1.00  0.00    -0.189 OA 
HETATM   10  N   UNL     1      -9.825  11.090  69.257  1.00  0.00    -0.414 N  
HETATM   11  H   UNL     1      -9.261  11.784  69.747  1.00  0.00     0.000 HD 
BRANCH  10  12
HETATM   12  C   UNL     1     -10.704  10.308  70.049  1.00  0.00    -0.292 A  
HETATM   13  C   UNL     1     -10.450   8.946  70.283  1.00  0.00    -0.239 A  
HETATM   14  C   UNL     1     -11.303   8.163  71.064  1.00  0.00    -0.293 A  
HETATM   15  C   UNL     1     -12.442   8.724  71.621  1.00  0.00    -0.392 A  
HETATM   16  C   UNL     1     -12.727  10.068  71.388  1.00  0.00    -0.518 A  
HETATM   17  C   UNL     1     -11.867  10.874  70.607  1.00  0.00    -0.453 A  
HETATM   18  C   UNL     1     -12.274  12.311  70.408  1.00  0.00    -0.371 C  
ENDBRANCH  10  12
ENDBRANCH   6   8
ENDBRANCH   4   6
ENDBRANCH   3   4
ENDBRANCH   2   3
TORSDOF 5
ENDMDL
MODEL      209
REMARK 921   NORMALIZED FREE ENERGY PREDICTED BY IDOCK:   -3.36 KCAL/MOL
REMARK 922        TOTAL FREE ENERGY PREDICTED BY IDOCK:   -4.68 KCAL/MOL
REMARK 923 INTER-LIGAND FREE ENERGY PREDICTED BY IDOCK:   -4.18 KCAL/MOL
REMARK 924 INTRA-LIGAND FREE ENERGY PREDICTED BY IDOCK:   -0.50 KCAL/MOL
REMARK 927      BINDING AFFINITY PREDICTED BY RF-SCORE:    0.00 PKD
ROOT
HETATM    1  C   UNL     1      -8.098  15.484  68.907  1.00  0.00    -0.194 C  
HETATM    2  C   UNL     1      -9.488  15.618  68.303  1.00  0.00    -0.200 C  
ENDROOT
BRANCH   2   3
HETATM    3  C   UNL     1      -9.429  16.210  66.896  1.00  0.00    -0.230 C  
BRANCH   3   4
HETATM    4  N   UNL     1      -9.501  15.132  65.901  1.00  0.00    -0.394 NA 
HETATM    5  H   UNL     1      -8.761  14.444  66.041  1.00  0.00     0.000 HD 
BRANCH   4   6
HETATM    6  C   UNL     1     -10.841  14.492  65.889  1.00  0.00    -0.308 C  
HETATM    7  C   UNL     1     -11.687  14.903  64.684  1.00  0.00    -0.406 C  
BRANCH   6   8
HETATM    8  C   UNL     1     -10.697  12.953  65.899  1.00  0.00    -0.271 C  
HETATM    9  O   UNL     1     -11.661  12.263  66.222  1.00  0.00    -0.366 OA 
HETATM   10  N   UNL     1      -9.466  12.488  65.452  1.00  0.00    -0.453 N  
HETATM   11  H   UNL     1      -8.800  13.189  65.128  1.00  0.00     0.000 HD 
BRANCH  10  12
HETATM   12  C   UNL     1      -9.043  11.135  65.402  1.00  0.00    -0.177 A  
HETATM   13  C   UNL     1      -8.425  10.528  66.508  1.00  0.00    -0.139 A  
HETATM   14  C   UNL     1      -8.005   9.196  66.476  1.00  0.00    -0.100 A  
HETATM   15  C   UNL     1      -8.184   8.442  65.327  1.00  0.00    -0.151 A  
HETATM   16  C   UNL     1      -8.777   9.026  64.209  1.00  0.00    -0.140 A  
HETATM   17  C   UNL     1      -9.213  10.370  64.232  1.00  0.00    -0.295 A  
HETATM   18  C   UNL     1      -9.831  10.908  62.966  1.00  0.00    -0.358 C  
ENDBRANCH  10  12
ENDBRANCH   6   8
ENDBRANCH   4   6
ENDBRANCH   3   4
ENDBRANCH   2   3
TORSDOF 5
ENDMDL
MODEL      210
REMARK 921   NORMALIZED FREE ENERGY PREDICTED BY IDOCK:   -3.35 KCAL/MOL
REMARK 922        TOTAL FREE ENERGY PREDICTED BY IDOCK:   -4.67 KCAL/MOL
REMARK 923 INTER-LIGAND FREE ENERGY PREDICTED BY IDOCK:   -4.23 KCAL/MOL
REMARK 924 INTRA-LIGAND FREE ENERGY PREDICTED BY IDOCK:   -0.45 KCAL/MOL
REMARK 927      BINDING AFFINITY PREDICTED BY RF-SCORE:    0.00 PKD
ROOT
HETATM    1  C   UNL     1      -9.589   2.483  70.920  1.00  0.00    -0.192 C  
HETATM    2  C   UNL     1      -9.145   2.415  69.466  1.00  0.00    -0.182 C  
ENDROOT
BRANCH   2   3
HETATM    3  C   UNL     1      -8.296   3.627  69.085  1.00  0.00    -0.064 C  
BRANCH   3   4
HETATM    4  N   UNL     1      -8.679   4.779  69.911  1.00  0.00    -0.084 NA 
HETATM    5  H   UNL     1      -7.976   4.980  70.622  1.00  0.00     0.000 HD 
BRANCH   4   6
HETATM    6  C   UNL     1      -8.964   5.974  69.077  1.00  0.00    -0.124 C  
HETATM    7  C   UNL     1      -9.042   5.655  67.585  1.00  0.00    -0.106 C  
BRANCH   6   8
HETATM    8  C   UNL     1     -10.294   6.628  69.521  1.00  0.00    -0.202 C  
HETATM    9  O   UNL     1     -11.357   6.140  69.144  1.00  0.00    -0.399 OA 
HETATM   10  N   UNL     1     -10.145   7.696  70.397  1.00  0.00    -0.189 N  
HETATM   11  H   UNL     1      -9.194   7.921  70.691  1.00  0.00     0.000 HD 
BRANCH  10  12
HETATM   12  C   UNL     1     -11.183   8.507  70.923  1.00  0.00    -0.266 A  
HETATM   13  C   UNL     1     -11.928   8.096  72.040  1.00  0.00    -0.390 A  
HETATM   14  C   UNL     1     -12.951   8.884  72.573  1.00  0.00    -0.415 A  
HETATM   15  C   UNL     1     -13.261  10.102  71.988  1.00  0.00    -0.534 A  
HETATM   16  C   UNL     1     -12.551  10.524  70.867  1.00  0.00    -0.493 A  
HETATM   17  C   UNL     1     -11.508   9.740  70.323  1.00  0.00    -0.317 A  
HETATM   18  C   UNL     1     -10.811  10.284  69.102  1.00  0.00    -0.270 C  
ENDBRANCH  10  12
ENDBRANCH   6   8
ENDBRANCH   4   6
ENDBRANCH   3   4
ENDBRANCH   2   3
TORSDOF 5
ENDMDL
MODEL      211
REMARK 921   NORMALIZED FREE ENERGY PREDICTED BY IDOCK:   -3.35 KCAL/MOL
REMARK 922        TOTAL FREE ENERGY PREDICTED BY IDOCK:   -4.67 KCAL/MOL
REMARK 923 INTER-LIGAND FREE ENERGY PREDICTED BY IDOCK:   -4.28 KCAL/MOL
REMARK 924 INTRA-LIGAND FREE ENERGY PREDICTED BY IDOCK:   -0.39 KCAL/MOL
REMARK 927      BINDING AFFINITY PREDICTED BY RF-SCORE:    0.00 PKD
ROOT
HETATM    1  C   UNL     1      -6.572   6.973  64.069  1.00  0.00    -0.043 C  
HETATM    2  C   UNL     1      -7.390   8.244  63.891  1.00  0.00    -0.100 C  
ENDROOT
BRANCH   2   3
HETATM    3  C   UNL     1      -8.109   8.629  65.183  1.00  0.00    -0.143 C  
BRANCH   3   4
HETATM    4  N   UNL     1      -9.086   9.691  64.909  1.00  0.00    -0.220 NA 
HETATM    5  H   UNL     1      -9.426   9.646  63.948  1.00  0.00     0.000 HD 
BRANCH   4   6
HETATM    6  C   UNL     1     -10.206   9.663  65.883  1.00  0.00    -0.149 C  
HETATM    7  C   UNL     1     -10.226   8.394  66.733  1.00  0.00    -0.376 C  
BRANCH   6   8
HETATM    8  C   UNL     1     -10.129  10.892  66.818  1.00  0.00    -0.216 C  
HETATM    9  O   UNL     1      -9.029  11.289  67.197  1.00  0.00    -0.151 OA 
HETATM   10  N   UNL     1     -11.354  11.492  67.082  1.00  0.00    -0.302 N  
HETATM   11  H   UNL     1     -12.170  11.098  66.612  1.00  0.00     0.000 HD 
BRANCH  10  12
HETATM   12  C   UNL     1     -11.585  12.598  67.940  1.00  0.00    -0.349 A  
HETATM   13  C   UNL     1     -11.591  13.912  67.443  1.00  0.00    -0.398 A  
HETATM   14  C   UNL     1     -11.820  15.011  68.273  1.00  0.00    -0.295 A  
HETATM   15  C   UNL     1     -12.037  14.820  69.629  1.00  0.00    -0.346 A  
HETATM   16  C   UNL     1     -12.017  13.529  70.151  1.00  0.00    -0.399 A  
HETATM   17  C   UNL     1     -11.795  12.407  69.319  1.00  0.00    -0.361 A  
HETATM   18  C   UNL     1     -11.782  11.056  69.987  1.00  0.00    -0.437 C  
ENDBRANCH  10  12
ENDBRANCH   6   8
ENDBRANCH   4   6
ENDBRANCH   3   4
ENDBRANCH   2   3
TORSDOF 5
ENDMDL
MODEL      212
REMARK 921   NORMALIZED FREE ENERGY PREDICTED BY IDOCK:   -3.35 KCAL/MOL
REMARK 922        TOTAL FREE ENERGY PREDICTED BY IDOCK:   -4.67 KCAL/MOL
REMARK 923 INTER-LIGAND FREE ENERGY PREDICTED BY IDOCK:   -4.24 KCAL/MOL
REMARK 924 INTRA-LIGAND FREE ENERGY PREDICTED BY IDOCK:   -0.43 KCAL/MOL
REMARK 927      BINDING AFFINITY PREDICTED BY RF-SCORE:    0.00 PKD
ROOT
HETATM    1  C   UNL     1     -12.311  13.936  66.361  1.00  0.00    -0.468 C  
HETATM    2  C   UNL     1     -11.279  14.372  67.391  1.00  0.00    -0.337 C  
ENDROOT
BRANCH   2   3
HETATM    3  C   UNL     1     -11.320  13.480  68.632  1.00  0.00    -0.288 C  
BRANCH   3   4
HETATM    4  N   UNL     1     -10.351  12.386  68.487  1.00  0.00    -0.247 NA 
HETATM    5  H   UNL     1      -9.829  12.232  69.350  1.00  0.00     0.000 HD 
BRANCH   4   6
HETATM    6  C   UNL     1     -11.006  11.138  68.019  1.00  0.00    -0.252 C  
HETATM    7  C   UNL     1     -10.638  10.775  66.581  1.00  0.00    -0.291 C  
BRANCH   6   8
HETATM    8  C   UNL     1     -10.631   9.959  68.946  1.00  0.00    -0.218 C  
HETATM    9  O   UNL     1     -10.500  10.163  70.151  1.00  0.00    -0.271 OA 
HETATM   10  N   UNL     1     -10.551   8.728  68.307  1.00  0.00    -0.386 N  
HETATM   11  H   UNL     1     -10.781   8.710  67.314  1.00  0.00     0.000 HD 
BRANCH  10  12
HETATM   12  C   UNL     1     -10.180   7.493  68.898  1.00  0.00    -0.208 A  
HETATM   13  C   UNL     1     -11.100   6.746  69.653  1.00  0.00    -0.343 A  
HETATM   14  C   UNL     1     -10.752   5.527  70.239  1.00  0.00    -0.333 A  
HETATM   15  C   UNL     1      -9.466   5.031  70.092  1.00  0.00    -0.234 A  
HETATM   16  C   UNL     1      -8.529   5.762  69.365  1.00  0.00    -0.112 A  
HETATM   17  C   UNL     1      -8.871   6.993  68.760  1.00  0.00    -0.129 A  
HETATM   18  C   UNL     1      -7.779   7.708  68.006  1.00  0.00    -0.119 C  
ENDBRANCH  10  12
ENDBRANCH   6   8
ENDBRANCH   4   6
ENDBRANCH   3   4
ENDBRANCH   2   3
TORSDOF 5
ENDMDL
MODEL      213
REMARK 921   NORMALIZED FREE ENERGY PREDICTED BY IDOCK:   -3.35 KCAL/MOL
REMARK 922        TOTAL FREE ENERGY PREDICTED BY IDOCK:   -4.67 KCAL/MOL
REMARK 923 INTER-LIGAND FREE ENERGY PREDICTED BY IDOCK:   -4.34 KCAL/MOL
REMARK 924 INTRA-LIGAND FREE ENERGY PREDICTED BY IDOCK:   -0.33 KCAL/MOL
REMARK 927      BINDING AFFINITY PREDICTED BY RF-SCORE:    0.00 PKD
ROOT
HETATM    1  C   UNL     1     -11.342   7.349  72.352  1.00  0.00    -0.341 C  
HETATM    2  C   UNL     1     -10.855   6.143  71.562  1.00  0.00    -0.313 C  
ENDROOT
BRANCH   2   3
HETATM    3  C   UNL     1     -11.098   6.324  70.064  1.00  0.00    -0.388 C  
BRANCH   3   4
HETATM    4  N   UNL     1     -10.849   7.722  69.687  1.00  0.00    -0.361 NA 
HETATM    5  H   UNL     1     -10.780   8.323  70.508  1.00  0.00     0.000 HD 
BRANCH   4   6
HETATM    6  C   UNL     1      -9.649   7.845  68.821  1.00  0.00    -0.152 C  
HETATM    7  C   UNL     1      -8.800   6.575  68.794  1.00  0.00    -0.125 C  
BRANCH   6   8
HETATM    8  C   UNL     1     -10.069   8.200  67.376  1.00  0.00    -0.233 C  
HETATM    9  O   UNL     1     -10.904   7.502  66.806  1.00  0.00    -0.292 OA 
HETATM   10  N   UNL     1      -9.492   9.363  66.879  1.00  0.00    -0.149 N  
HETATM   11  H   UNL     1      -8.889   9.885  67.514  1.00  0.00     0.000 HD 
BRANCH  10  12
HETATM   12  C   UNL     1      -9.659   9.896  65.575  1.00  0.00    -0.277 A  
HETATM   13  C   UNL     1     -10.636  10.870  65.310  1.00  0.00    -0.259 A  
HETATM   14  C   UNL     1     -10.811  11.408  64.034  1.00  0.00    -0.450 A  
HETATM   15  C   UNL     1     -10.016  10.973  62.985  1.00  0.00    -0.333 A  
HETATM   16  C   UNL     1      -9.052   9.994  63.217  1.00  0.00    -0.300 A  
HETATM   17  C   UNL     1      -8.860   9.447  64.506  1.00  0.00    -0.235 A  
HETATM   18  C   UNL     1      -7.798   8.386  64.645  1.00  0.00    -0.127 C  
ENDBRANCH  10  12
ENDBRANCH   6   8
ENDBRANCH   4   6
ENDBRANCH   3   4
ENDBRANCH   2   3
TORSDOF 5
ENDMDL
MODEL      214
REMARK 921   NORMALIZED FREE ENERGY PREDICTED BY IDOCK:   -3.35 KCAL/MOL
REMARK 922        TOTAL FREE ENERGY PREDICTED BY IDOCK:   -4.67 KCAL/MOL
REMARK 923 INTER-LIGAND FREE ENERGY PREDICTED BY IDOCK:   -4.30 KCAL/MOL
REMARK 924 INTRA-LIGAND FREE ENERGY PREDICTED BY IDOCK:   -0.37 KCAL/MOL
REMARK 927      BINDING AFFINITY PREDICTED BY RF-SCORE:    0.00 PKD
ROOT
HETATM    1  C   UNL     1      -8.230   4.007  65.959  1.00  0.00    -0.105 C  
HETATM    2  C   UNL     1      -9.184   5.065  65.424  1.00  0.00    -0.144 C  
ENDROOT
BRANCH   2   3
HETATM    3  C   UNL     1     -10.547   4.984  66.111  1.00  0.00    -0.265 C  
BRANCH   3   4
HETATM    4  N   UNL     1     -11.038   6.338  66.396  1.00  0.00    -0.651 NA 
HETATM    5  H   UNL     1     -11.831   6.320  67.038  1.00  0.00     0.000 HD 
BRANCH   4   6
HETATM    6  C   UNL     1      -9.952   7.216  66.900  1.00  0.00    -0.224 C  
HETATM    7  C   UNL     1     -10.189   8.694  66.593  1.00  0.00    -0.343 C  
BRANCH   6   8
HETATM    8  C   UNL     1      -9.791   7.040  68.428  1.00  0.00    -0.146 C  
HETATM    9  O   UNL     1      -8.838   7.570  68.995  1.00  0.00    -0.133 OA 
HETATM   10  N   UNL     1     -10.823   6.338  69.038  1.00  0.00    -0.302 N  
HETATM   11  H   UNL     1     -11.595   6.043  68.440  1.00  0.00     0.000 HD 
BRANCH  10  12
HETATM   12  C   UNL     1     -10.911   5.988  70.410  1.00  0.00    -0.318 A  
HETATM   13  C   UNL     1     -11.632   6.783  71.315  1.00  0.00    -0.366 A  
HETATM   14  C   UNL     1     -11.731   6.452  72.669  1.00  0.00    -0.141 A  
HETATM   15  C   UNL     1     -11.096   5.317  73.151  1.00  0.00    -0.384 A  
HETATM   16  C   UNL     1     -10.358   4.522  72.277  1.00  0.00    -0.243 A  
HETATM   17  C   UNL     1     -10.257   4.842  70.904  1.00  0.00    -0.272 A  
HETATM   18  C   UNL     1      -9.424   3.922  70.048  1.00  0.00    -0.263 C  
ENDBRANCH  10  12
ENDBRANCH   6   8
ENDBRANCH   4   6
ENDBRANCH   3   4
ENDBRANCH   2   3
TORSDOF 5
ENDMDL
MODEL      215
REMARK 921   NORMALIZED FREE ENERGY PREDICTED BY IDOCK:   -3.33 KCAL/MOL
REMARK 922        TOTAL FREE ENERGY PREDICTED BY IDOCK:   -4.64 KCAL/MOL
REMARK 923 INTER-LIGAND FREE ENERGY PREDICTED BY IDOCK:   -4.17 KCAL/MOL
REMARK 924 INTRA-LIGAND FREE ENERGY PREDICTED BY IDOCK:   -0.47 KCAL/MOL
REMARK 927      BINDING AFFINITY PREDICTED BY RF-SCORE:    0.00 PKD
ROOT
HETATM    1  C   UNL     1      -7.797   6.864  68.813  1.00  0.00    -0.118 C  
HETATM    2  C   UNL     1      -7.251   6.814  67.394  1.00  0.00    -0.090 C  
ENDROOT
BRANCH   2   3
HETATM    3  C   UNL     1      -8.030   7.743  66.464  1.00  0.00    -0.106 C  
BRANCH   3   4
HETATM    4  N   UNL     1      -8.440   8.948  67.197  1.00  0.00    -0.107 NA 
HETATM    5  H   UNL     1      -7.747   9.692  67.109  1.00  0.00     0.000 HD 
BRANCH   4   6
HETATM    6  C   UNL     1      -9.787   9.408  66.776  1.00  0.00    -0.218 C  
HETATM    7  C   UNL     1     -10.773   9.507  67.939  1.00  0.00    -0.285 C  
BRANCH   6   8
HETATM    8  C   UNL     1      -9.687  10.787  66.084  1.00  0.00    -0.207 C  
HETATM    9  O   UNL     1      -8.664  11.074  65.466  1.00  0.00    -0.187 OA 
HETATM   10  N   UNL     1     -10.838  11.560  66.172  1.00  0.00    -0.282 N  
HETATM   11  H   UNL     1     -11.640  11.138  66.641  1.00  0.00     0.000 HD 
BRANCH  10  12
HETATM   12  C   UNL     1     -11.011  12.877  65.675  1.00  0.00    -0.271 A  
HETATM   13  C   UNL     1     -10.407  13.976  66.308  1.00  0.00    -0.294 A  
HETATM   14  C   UNL     1     -10.564  15.278  65.829  1.00  0.00    -0.359 A  
HETATM   15  C   UNL     1     -11.343  15.513  64.707  1.00  0.00    -0.362 A  
HETATM   16  C   UNL     1     -11.969  14.443  64.071  1.00  0.00    -0.288 A  
HETATM   17  C   UNL     1     -11.811  13.119  64.541  1.00  0.00    -0.427 A  
HETATM   18  C   UNL     1     -12.541  12.036  63.788  1.00  0.00    -0.567 C  
ENDBRANCH  10  12
ENDBRANCH   6   8
ENDBRANCH   4   6
ENDBRANCH   3   4
ENDBRANCH   2   3
TORSDOF 5
ENDMDL
MODEL      216
REMARK 921   NORMALIZED FREE ENERGY PREDICTED BY IDOCK:   -3.32 KCAL/MOL
REMARK 922        TOTAL FREE ENERGY PREDICTED BY IDOCK:   -4.63 KCAL/MOL
REMARK 923 INTER-LIGAND FREE ENERGY PREDICTED BY IDOCK:   -4.78 KCAL/MOL
REMARK 924 INTRA-LIGAND FREE ENERGY PREDICTED BY IDOCK:    0.15 KCAL/MOL
REMARK 927      BINDING AFFINITY PREDICTED BY RF-SCORE:    0.00 PKD
ROOT
HETATM    1  C   UNL     1     -12.594  15.930  71.545  1.00  0.00    -0.456 C  
HETATM    2  C   UNL     1     -12.108  14.515  71.824  1.00  0.00    -0.354 C  
ENDROOT
BRANCH   2   3
HETATM    3  C   UNL     1     -11.566  13.853  70.558  1.00  0.00    -0.062 C  
BRANCH   3   4
HETATM    4  N   UNL     1     -12.088  12.485  70.452  1.00  0.00    -0.460 NA 
HETATM    5  H   UNL     1     -13.080  12.481  70.212  1.00  0.00     0.000 HD 
BRANCH   4   6
HETATM    6  C   UNL     1     -11.294  11.673  69.496  1.00  0.00    -0.260 C  
HETATM    7  C   UNL     1     -12.100  10.538  68.865  1.00  0.00     0.094 C  
BRANCH   6   8
HETATM    8  C   UNL     1     -10.730  12.573  68.373  1.00  0.00    -0.240 C  
HETATM    9  O   UNL     1      -9.555  12.445  68.035  1.00  0.00    -0.198 OA 
HETATM   10  N   UNL     1     -11.667  13.416  67.787  1.00  0.00    -0.339 N  
HETATM   11  H   UNL     1     -12.628  13.335  68.117  1.00  0.00     0.000 HD 
BRANCH  10  12
HETATM   12  C   UNL     1     -11.419  14.377  66.774  1.00  0.00    -0.370 A  
HETATM   13  C   UNL     1     -10.781  15.593  67.069  1.00  0.00    -0.314 A  
HETATM   14  C   UNL     1     -10.527  16.549  66.083  1.00  0.00    -0.301 A  
HETATM   15  C   UNL     1     -10.919  16.313  64.774  1.00  0.00    -0.288 A  
HETATM   16  C   UNL     1     -11.571  15.124  64.458  1.00  0.00    -0.330 A  
HETATM   17  C   UNL     1     -11.827  14.145  65.445  1.00  0.00    -0.362 A  
HETATM   18  C   UNL     1     -12.549  12.899  65.000  1.00  0.00    -0.538 C  
ENDBRANCH  10  12
ENDBRANCH   6   8
ENDBRANCH   4   6
ENDBRANCH   3   4
ENDBRANCH   2   3
TORSDOF 5
ENDMDL
MODEL      217
REMARK 921   NORMALIZED FREE ENERGY PREDICTED BY IDOCK:   -3.32 KCAL/MOL
REMARK 922        TOTAL FREE ENERGY PREDICTED BY IDOCK:   -4.62 KCAL/MOL
REMARK 923 INTER-LIGAND FREE ENERGY PREDICTED BY IDOCK:   -4.25 KCAL/MOL
REMARK 924 INTRA-LIGAND FREE ENERGY PREDICTED BY IDOCK:   -0.37 KCAL/MOL
REMARK 927      BINDING AFFINITY PREDICTED BY RF-SCORE:    0.00 PKD
ROOT
HETATM    1  C   UNL     1     -10.423  11.389  64.451  1.00  0.00    -0.388 C  
HETATM    2  C   UNL     1     -10.251  10.388  65.584  1.00  0.00    -0.308 C  
ENDROOT
BRANCH   2   3
HETATM    3  C   UNL     1     -10.972  10.851  66.850  1.00  0.00    -0.223 C  
BRANCH   3   4
HETATM    4  N   UNL     1     -11.245   9.696  67.714  1.00  0.00    -0.471 NA 
HETATM    5  H   UNL     1     -11.886   9.039  67.268  1.00  0.00     0.000 HD 
BRANCH   4   6
HETATM    6  C   UNL     1      -9.990   9.027  68.140  1.00  0.00    -0.175 C  
HETATM    7  C   UNL     1      -9.175   9.861  69.127  1.00  0.00    -0.184 C  
BRANCH   6   8
HETATM    8  C   UNL     1     -10.309   7.657  68.783  1.00  0.00    -0.204 C  
HETATM    9  O   UNL     1     -10.773   6.760  68.083  1.00  0.00    -0.212 OA 
HETATM   10  N   UNL     1      -9.951   7.553  70.122  1.00  0.00    -0.191 N  
HETATM   11  H   UNL     1      -9.485   8.360  70.537  1.00  0.00     0.000 HD 
BRANCH  10  12
HETATM   12  C   UNL     1     -10.170   6.437  70.969  1.00  0.00    -0.192 A  
HETATM   13  C   UNL     1      -9.503   5.220  70.752  1.00  0.00    -0.221 A  
HETATM   14  C   UNL     1      -9.705   4.113  71.579  1.00  0.00    -0.243 A  
HETATM   15  C   UNL     1     -10.592   4.195  72.641  1.00  0.00    -0.200 A  
HETATM   16  C   UNL     1     -11.281   5.385  72.867  1.00  0.00    -0.372 A  
HETATM   17  C   UNL     1     -11.080   6.515  72.042  1.00  0.00    -0.296 A  
HETATM   18  C   UNL     1     -11.884   7.748  72.367  1.00  0.00    -0.371 C  
ENDBRANCH  10  12
ENDBRANCH   6   8
ENDBRANCH   4   6
ENDBRANCH   3   4
ENDBRANCH   2   3
TORSDOF 5
ENDMDL
MODEL      218
REMARK 921   NORMALIZED FREE ENERGY PREDICTED BY IDOCK:   -3.31 KCAL/MOL
REMARK 922        TOTAL FREE ENERGY PREDICTED BY IDOCK:   -4.61 KCAL/MOL
REMARK 923 INTER-LIGAND FREE ENERGY PREDICTED BY IDOCK:   -4.17 KCAL/MOL
REMARK 924 INTRA-LIGAND FREE ENERGY PREDICTED BY IDOCK:   -0.44 KCAL/MOL
REMARK 927      BINDING AFFINITY PREDICTED BY RF-SCORE:    0.00 PKD
ROOT
HETATM    1  C   UNL     1     -12.026  14.315  68.307  1.00  0.00    -0.346 C  
HETATM    2  C   UNL     1     -11.739  13.305  69.408  1.00  0.00    -0.383 C  
ENDROOT
BRANCH   2   3
HETATM    3  C   UNL     1     -10.839  12.176  68.907  1.00  0.00    -0.200 C  
BRANCH   3   4
HETATM    4  N   UNL     1     -11.503  10.883  69.118  1.00  0.00    -0.277 NA 
HETATM    5  H   UNL     1     -12.507  10.997  69.257  1.00  0.00     0.000 HD 
BRANCH   4   6
HETATM    6  C   UNL     1     -11.213   9.936  68.011  1.00  0.00    -0.061 C  
HETATM    7  C   UNL     1     -10.495  10.596  66.835  1.00  0.00    -0.304 C  
BRANCH   6   8
HETATM    8  C   UNL     1     -10.352   8.761  68.529  1.00  0.00    -0.199 C  
HETATM    9  O   UNL     1      -9.176   8.962  68.823  1.00  0.00    -0.140 OA 
HETATM   10  N   UNL     1     -11.045   7.567  68.687  1.00  0.00    -0.424 N  
HETATM   11  H   UNL     1     -12.046   7.586  68.489  1.00  0.00     0.000 HD 
BRANCH  10  12
HETATM   12  C   UNL     1     -10.501   6.323  69.096  1.00  0.00    -0.239 A  
HETATM   13  C   UNL     1      -9.910   5.449  68.168  1.00  0.00    -0.188 A  
HETATM   14  C   UNL     1      -9.367   4.222  68.555  1.00  0.00    -0.209 A  
HETATM   15  C   UNL     1      -9.413   3.834  69.885  1.00  0.00    -0.267 A  
HETATM   16  C   UNL     1     -10.010   4.674  70.823  1.00  0.00    -0.284 A  
HETATM   17  C   UNL     1     -10.557   5.921  70.445  1.00  0.00    -0.353 A  
HETATM   18  C   UNL     1     -11.190   6.747  71.536  1.00  0.00    -0.300 C  
ENDBRANCH  10  12
ENDBRANCH   6   8
ENDBRANCH   4   6
ENDBRANCH   3   4
ENDBRANCH   2   3
TORSDOF 5
ENDMDL
MODEL      219
REMARK 921   NORMALIZED FREE ENERGY PREDICTED BY IDOCK:   -3.30 KCAL/MOL
REMARK 922        TOTAL FREE ENERGY PREDICTED BY IDOCK:   -4.60 KCAL/MOL
REMARK 923 INTER-LIGAND FREE ENERGY PREDICTED BY IDOCK:   -4.05 KCAL/MOL
REMARK 924 INTRA-LIGAND FREE ENERGY PREDICTED BY IDOCK:   -0.55 KCAL/MOL
REMARK 927      BINDING AFFINITY PREDICTED BY RF-SCORE:    0.00 PKD
ROOT
HETATM    1  C   UNL     1      -7.497  12.140  67.357  1.00  0.00    -0.156 C  
HETATM    2  C   UNL     1      -8.943  12.568  67.563  1.00  0.00    -0.185 C  
ENDROOT
BRANCH   2   3
HETATM    3  C   UNL     1      -9.911  11.602  66.882  1.00  0.00    -0.202 C  
BRANCH   3   4
HETATM    4  N   UNL     1      -9.156  10.561  66.173  1.00  0.00    -0.158 NA 
HETATM    5  H   UNL     1      -8.162  10.602  66.398  1.00  0.00     0.000 HD 
BRANCH   4   6
HETATM    6  C   UNL     1      -9.716   9.211  66.433  1.00  0.00    -0.262 C  
HETATM    7  C   UNL     1      -9.040   8.116  65.609  1.00  0.00    -0.092 C  
BRANCH   6   8
HETATM    8  C   UNL     1      -9.587   8.861  67.934  1.00  0.00    -0.148 C  
HETATM    9  O   UNL     1      -8.488   8.946  68.477  1.00  0.00    -0.126 OA 
HETATM   10  N   UNL     1     -10.790   8.549  68.557  1.00  0.00    -0.437 N  
HETATM   11  H   UNL     1     -11.633   8.617  67.987  1.00  0.00     0.000 HD 
BRANCH  10  12
HETATM   12  C   UNL     1     -10.962   8.146  69.906  1.00  0.00    -0.168 A  
HETATM   13  C   UNL     1     -11.148   9.091  70.927  1.00  0.00    -0.343 A  
HETATM   14  C   UNL     1     -11.322   8.711  72.259  1.00  0.00    -0.411 A  
HETATM   15  C   UNL     1     -11.301   7.368  72.603  1.00  0.00    -0.360 A  
HETATM   16  C   UNL     1     -11.098   6.410  71.612  1.00  0.00    -0.314 A  
HETATM   17  C   UNL     1     -10.929   6.782  70.259  1.00  0.00    -0.339 A  
HETATM   18  C   UNL     1     -10.705   5.668  69.268  1.00  0.00    -0.350 C  
ENDBRANCH  10  12
ENDBRANCH   6   8
ENDBRANCH   4   6
ENDBRANCH   3   4
ENDBRANCH   2   3
TORSDOF 5
ENDMDL
MODEL      220
REMARK 921   NORMALIZED FREE ENERGY PREDICTED BY IDOCK:   -3.26 KCAL/MOL
REMARK 922        TOTAL FREE ENERGY PREDICTED BY IDOCK:   -4.55 KCAL/MOL
REMARK 923 INTER-LIGAND FREE ENERGY PREDICTED BY IDOCK:   -4.17 KCAL/MOL
REMARK 924 INTRA-LIGAND FREE ENERGY PREDICTED BY IDOCK:   -0.38 KCAL/MOL
REMARK 927      BINDING AFFINITY PREDICTED BY RF-SCORE:    0.00 PKD
ROOT
HETATM    1  C   UNL     1      -7.518  15.437  68.979  1.00  0.00    -0.165 C  
HETATM    2  C   UNL     1      -6.627  14.587  69.873  1.00  0.00    -0.151 C  
ENDROOT
BRANCH   2   3
HETATM    3  C   UNL     1      -6.394  13.202  69.272  1.00  0.00    -0.106 C  
BRANCH   3   4
HETATM    4  N   UNL     1      -7.655  12.450  69.258  1.00  0.00    -0.310 NA 
HETATM    5  H   UNL     1      -8.462  13.072  69.315  1.00  0.00     0.000 HD 
BRANCH   4   6
HETATM    6  C   UNL     1      -7.742  11.555  68.076  1.00  0.00    -0.119 C  
HETATM    7  C   UNL     1      -8.267  10.162  68.419  1.00  0.00    -0.112 C  
BRANCH   6   8
HETATM    8  C   UNL     1      -8.655  12.185  66.998  1.00  0.00    -0.191 C  
HETATM    9  O   UNL     1      -8.442  13.338  66.631  1.00  0.00    -0.038 OA 
HETATM   10  N   UNL     1      -9.613  11.322  66.480  1.00  0.00    -0.187 N  
HETATM   11  H   UNL     1      -9.600  10.361  66.824  1.00  0.00     0.000 HD 
BRANCH  10  12
HETATM   12  C   UNL     1     -10.608  11.642  65.522  1.00  0.00    -0.279 A  
HETATM   13  C   UNL     1     -11.733  12.406  65.873  1.00  0.00    -0.476 A  
HETATM   14  C   UNL     1     -12.720  12.734  64.941  1.00  0.00    -0.479 A  
HETATM   15  C   UNL     1     -12.609  12.291  63.632  1.00  0.00    -0.599 A  
HETATM   16  C   UNL     1     -11.513  11.515  63.262  1.00  0.00    -0.180 A  
HETATM   17  C   UNL     1     -10.503  11.184  64.194  1.00  0.00    -0.442 A  
HETATM   18  C   UNL     1      -9.366  10.330  63.693  1.00  0.00    -0.338 C  
ENDBRANCH  10  12
ENDBRANCH   6   8
ENDBRANCH   4   6
ENDBRANCH   3   4
ENDBRANCH   2   3
TORSDOF 5
ENDMDL
MODEL      221
REMARK 921   NORMALIZED FREE ENERGY PREDICTED BY IDOCK:   -3.25 KCAL/MOL
REMARK 922        TOTAL FREE ENERGY PREDICTED BY IDOCK:   -4.55 KCAL/MOL
REMARK 923 INTER-LIGAND FREE ENERGY PREDICTED BY IDOCK:   -4.20 KCAL/MOL
REMARK 924 INTRA-LIGAND FREE ENERGY PREDICTED BY IDOCK:   -0.35 KCAL/MOL
REMARK 927      BINDING AFFINITY PREDICTED BY RF-SCORE:    0.00 PKD
ROOT
HETATM    1  C   UNL     1      -6.083   9.845  67.583  1.00  0.00    -0.054 C  
HETATM    2  C   UNL     1      -7.375  10.060  66.809  1.00  0.00    -0.095 C  
ENDROOT
BRANCH   2   3
HETATM    3  C   UNL     1      -7.879   8.755  66.193  1.00  0.00    -0.102 C  
BRANCH   3   4
HETATM    4  N   UNL     1      -8.971   9.040  65.254  1.00  0.00    -0.271 NA 
HETATM    5  H   UNL     1      -9.662   9.668  65.664  1.00  0.00     0.000 HD 
BRANCH   4   6
HETATM    6  C   UNL     1      -8.456   9.565  63.964  1.00  0.00    -0.185 C  
HETATM    7  C   UNL     1      -8.711   8.621  62.791  1.00  0.00    -0.014 C  
BRANCH   6   8
HETATM    8  C   UNL     1      -9.098  10.937  63.654  1.00  0.00    -0.186 C  
HETATM    9  O   UNL     1      -9.029  11.387  62.512  1.00  0.00    -0.321 OA 
HETATM   10  N   UNL     1      -9.781  11.507  64.722  1.00  0.00    -0.291 N  
HETATM   11  H   UNL     1      -9.827  10.961  65.582  1.00  0.00     0.000 HD 
BRANCH  10  12
HETATM   12  C   UNL     1     -10.419  12.774  64.735  1.00  0.00    -0.335 A  
HETATM   13  C   UNL     1      -9.838  13.872  65.389  1.00  0.00    -0.193 A  
HETATM   14  C   UNL     1     -10.451  15.126  65.410  1.00  0.00    -0.416 A  
HETATM   15  C   UNL     1     -11.674  15.307  64.782  1.00  0.00    -0.276 A  
HETATM   16  C   UNL     1     -12.283  14.229  64.143  1.00  0.00    -0.410 A  
HETATM   17  C   UNL     1     -11.668  12.957  64.108  1.00  0.00    -0.468 A  
HETATM   18  C   UNL     1     -12.416  11.857  63.400  1.00  0.00    -0.582 C  
ENDBRANCH  10  12
ENDBRANCH   6   8
ENDBRANCH   4   6
ENDBRANCH   3   4
ENDBRANCH   2   3
TORSDOF 5
ENDMDL
MODEL      222
REMARK 921   NORMALIZED FREE ENERGY PREDICTED BY IDOCK:   -3.24 KCAL/MOL
REMARK 922        TOTAL FREE ENERGY PREDICTED BY IDOCK:   -4.53 KCAL/MOL
REMARK 923 INTER-LIGAND FREE ENERGY PREDICTED BY IDOCK:   -4.12 KCAL/MOL
REMARK 924 INTRA-LIGAND FREE ENERGY PREDICTED BY IDOCK:   -0.41 KCAL/MOL
REMARK 927      BINDING AFFINITY PREDICTED BY RF-SCORE:    0.00 PKD
ROOT
HETATM    1  C   UNL     1      -7.869  13.241  67.436  1.00  0.00    -0.159 C  
HETATM    2  C   UNL     1      -6.593  12.416  67.523  1.00  0.00    -0.147 C  
ENDROOT
BRANCH   2   3
HETATM    3  C   UNL     1      -6.829  10.977  67.066  1.00  0.00    -0.109 C  
BRANCH   3   4
HETATM    4  N   UNL     1      -8.128  10.506  67.562  1.00  0.00    -0.107 NA 
HETATM    5  H   UNL     1      -8.788  10.356  66.798  1.00  0.00     0.000 HD 
BRANCH   4   6
HETATM    6  C   UNL     1      -7.982   9.288  68.399  1.00  0.00    -0.102 C  
HETATM    7  C   UNL     1      -6.541   9.039  68.841  1.00  0.00    -0.052 C  
BRANCH   6   8
HETATM    8  C   UNL     1      -8.881   9.392  69.652  1.00  0.00    -0.172 C  
HETATM    9  O   UNL     1      -8.370   9.660  70.737  1.00  0.00    -0.264 OA 
HETATM   10  N   UNL     1     -10.239   9.241  69.399  1.00  0.00    -0.202 N  
HETATM   11  H   UNL     1     -10.514   9.118  68.425  1.00  0.00     0.000 HD 
BRANCH  10  12
HETATM   12  C   UNL     1     -11.282   9.241  70.361  1.00  0.00    -0.247 A  
HETATM   13  C   UNL     1     -11.895  10.438  70.765  1.00  0.00    -0.466 A  
HETATM   14  C   UNL     1     -12.925  10.455  71.709  1.00  0.00    -0.580 A  
HETATM   15  C   UNL     1     -13.358   9.269  72.281  1.00  0.00    -0.547 A  
HETATM   16  C   UNL     1     -12.754   8.069  71.911  1.00  0.00    -0.354 A  
HETATM   17  C   UNL     1     -11.716   8.038  70.952  1.00  0.00    -0.265 A  
HETATM   18  C   UNL     1     -11.123   6.689  70.633  1.00  0.00    -0.349 C  
ENDBRANCH  10  12
ENDBRANCH   6   8
ENDBRANCH   4   6
ENDBRANCH   3   4
ENDBRANCH   2   3
TORSDOF 5
ENDMDL
MODEL      223
REMARK 921   NORMALIZED FREE ENERGY PREDICTED BY IDOCK:   -3.24 KCAL/MOL
REMARK 922        TOTAL FREE ENERGY PREDICTED BY IDOCK:   -4.52 KCAL/MOL
REMARK 923 INTER-LIGAND FREE ENERGY PREDICTED BY IDOCK:   -4.16 KCAL/MOL
REMARK 924 INTRA-LIGAND FREE ENERGY PREDICTED BY IDOCK:   -0.36 KCAL/MOL
REMARK 927      BINDING AFFINITY PREDICTED BY RF-SCORE:    0.00 PKD
ROOT
HETATM    1  C   UNL     1     -10.041   7.824  72.687  1.00  0.00    -0.320 C  
HETATM    2  C   UNL     1     -10.092   8.846  71.561  1.00  0.00    -0.394 C  
ENDROOT
BRANCH   2   3
HETATM    3  C   UNL     1     -10.958   8.355  70.402  1.00  0.00    -0.239 C  
BRANCH   3   4
HETATM    4  N   UNL     1     -10.868   6.892  70.302  1.00  0.00    -0.244 NA 
HETATM    5  H   UNL     1     -11.769   6.479  70.061  1.00  0.00     0.000 HD 
BRANCH   4   6
HETATM    6  C   UNL     1      -9.808   6.476  69.350  1.00  0.00    -0.146 C  
HETATM    7  C   UNL     1      -9.661   4.959  69.247  1.00  0.00    -0.241 C  
BRANCH   6   8
HETATM    8  C   UNL     1     -10.100   7.049  67.944  1.00  0.00    -0.169 C  
HETATM    9  O   UNL     1     -11.016   6.568  67.279  1.00  0.00    -0.344 OA 
HETATM   10  N   UNL     1      -9.316   8.141  67.593  1.00  0.00    -0.139 N  
HETATM   11  H   UNL     1      -8.662   8.482  68.297  1.00  0.00     0.000 HD 
BRANCH  10  12
HETATM   12  C   UNL     1      -9.336   8.831  66.354  1.00  0.00    -0.204 A  
HETATM   13  C   UNL     1      -8.544   8.404  65.275  1.00  0.00    -0.177 A  
HETATM   14  C   UNL     1      -8.554   9.070  64.047  1.00  0.00    -0.161 A  
HETATM   15  C   UNL     1      -9.351  10.191  63.874  1.00  0.00    -0.336 A  
HETATM   16  C   UNL     1     -10.132  10.646  64.935  1.00  0.00    -0.402 A  
HETATM   17  C   UNL     1     -10.137   9.977  66.180  1.00  0.00    -0.317 A  
HETATM   18  C   UNL     1     -11.007  10.559  67.264  1.00  0.00    -0.325 C  
ENDBRANCH  10  12
ENDBRANCH   6   8
ENDBRANCH   4   6
ENDBRANCH   3   4
ENDBRANCH   2   3
TORSDOF 5
ENDMDL
MODEL      224
REMARK 921   NORMALIZED FREE ENERGY PREDICTED BY IDOCK:   -3.23 KCAL/MOL
REMARK 922        TOTAL FREE ENERGY PREDICTED BY IDOCK:   -4.51 KCAL/MOL
REMARK 923 INTER-LIGAND FREE ENERGY PREDICTED BY IDOCK:   -3.96 KCAL/MOL
REMARK 924 INTRA-LIGAND FREE ENERGY PREDICTED BY IDOCK:   -0.55 KCAL/MOL
REMARK 927      BINDING AFFINITY PREDICTED BY RF-SCORE:    0.00 PKD
ROOT
HETATM    1  C   UNL     1      -7.265  19.686  70.283  1.00  0.00     0.379 C  
HETATM    2  C   UNL     1      -5.897  20.133  69.791  1.00  0.00    -0.366 C  
ENDROOT
BRANCH   2   3
HETATM    3  C   UNL     1      -5.957  20.616  68.342  1.00  0.00    -0.333 C  
BRANCH   3   4
HETATM    4  N   UNL     1      -6.419  19.525  67.475  1.00  0.00    -0.203 NA 
HETATM    5  H   UNL     1      -6.701  18.709  68.019  1.00  0.00     0.000 HD 
BRANCH   4   6
HETATM    6  C   UNL     1      -7.506  19.974  66.568  1.00  0.00    -0.276 C  
HETATM    7  C   UNL     1      -7.140  19.846  65.090  1.00  0.00    -0.133 C  
BRANCH   6   8
HETATM    8  C   UNL     1      -8.794  19.163  66.839  1.00  0.00    -0.305 C  
HETATM    9  O   UNL     1      -9.854  19.539  66.343  1.00  0.00    -0.359 OA 
HETATM   10  N   UNL     1      -8.599  18.005  67.581  1.00  0.00    -0.244 N  
HETATM   11  H   UNL     1      -7.638  17.781  67.839  1.00  0.00     0.000 HD 
BRANCH  10  12
HETATM   12  C   UNL     1      -9.603  17.102  68.016  1.00  0.00    -0.267 A  
HETATM   13  C   UNL     1     -10.162  17.204  69.301  1.00  0.00    -0.231 A  
HETATM   14  C   UNL     1     -11.154  16.326  69.743  1.00  0.00    -0.337 A  
HETATM   15  C   UNL     1     -11.602  15.313  68.910  1.00  0.00    -0.365 A  
HETATM   16  C   UNL     1     -11.051  15.178  67.637  1.00  0.00    -0.318 A  
HETATM   17  C   UNL     1     -10.053  16.066  67.175  1.00  0.00    -0.270 A  
HETATM   18  C   UNL     1      -9.515  15.824  65.787  1.00  0.00    -0.334 C  
ENDBRANCH  10  12
ENDBRANCH   6   8
ENDBRANCH   4   6
ENDBRANCH   3   4
ENDBRANCH   2   3
TORSDOF 5
ENDMDL
MODEL      225
REMARK 921   NORMALIZED FREE ENERGY PREDICTED BY IDOCK:   -3.23 KCAL/MOL
REMARK 922        TOTAL FREE ENERGY PREDICTED BY IDOCK:   -4.51 KCAL/MOL
REMARK 923 INTER-LIGAND FREE ENERGY PREDICTED BY IDOCK:   -4.03 KCAL/MOL
REMARK 924 INTRA-LIGAND FREE ENERGY PREDICTED BY IDOCK:   -0.49 KCAL/MOL
REMARK 927      BINDING AFFINITY PREDICTED BY RF-SCORE:    0.00 PKD
ROOT
HETATM    1  C   UNL     1     -11.262  16.229  69.348  1.00  0.00    -0.311 C  
HETATM    2  C   UNL     1     -11.882  15.285  68.329  1.00  0.00    -0.251 C  
ENDROOT
BRANCH   2   3
HETATM    3  C   UNL     1     -11.960  13.857  68.868  1.00  0.00    -0.358 C  
BRANCH   3   4
HETATM    4  N   UNL     1     -10.628  13.421  69.307  1.00  0.00    -0.444 NA 
HETATM    5  H   UNL     1     -10.690  12.737  70.062  1.00  0.00     0.000 HD 
BRANCH   4   6
HETATM    6  C   UNL     1      -9.823  12.905  68.172  1.00  0.00    -0.227 C  
HETATM    7  C   UNL     1      -8.511  13.664  67.978  1.00  0.00    -0.174 C  
BRANCH   6   8
HETATM    8  C   UNL     1      -9.509  11.405  68.380  1.00  0.00    -0.194 C  
HETATM    9  O   UNL     1      -8.441  11.082  68.895  1.00  0.00    -0.157 OA 
HETATM   10  N   UNL     1     -10.540  10.546  68.019  1.00  0.00    -0.197 N  
HETATM   11  H   UNL     1     -11.406  10.978  67.694  1.00  0.00     0.000 HD 
BRANCH  10  12
HETATM   12  C   UNL     1     -10.510   9.129  68.057  1.00  0.00    -0.224 A  
HETATM   13  C   UNL     1     -10.897   8.426  69.209  1.00  0.00    -0.069 A  
HETATM   14  C   UNL     1     -10.877   7.031  69.262  1.00  0.00    -0.241 A  
HETATM   15  C   UNL     1     -10.454   6.303  68.160  1.00  0.00    -0.278 A  
HETATM   16  C   UNL     1     -10.047   6.977  67.010  1.00  0.00    -0.298 A  
HETATM   17  C   UNL     1     -10.071   8.388  66.942  1.00  0.00    -0.364 A  
HETATM   18  C   UNL     1      -9.598   9.017  65.656  1.00  0.00    -0.237 C  
ENDBRANCH  10  12
ENDBRANCH   6   8
ENDBRANCH   4   6
ENDBRANCH   3   4
ENDBRANCH   2   3
TORSDOF 5
ENDMDL
MODEL      226
REMARK 921   NORMALIZED FREE ENERGY PREDICTED BY IDOCK:   -3.22 KCAL/MOL
REMARK 922        TOTAL FREE ENERGY PREDICTED BY IDOCK:   -4.51 KCAL/MOL
REMARK 923 INTER-LIGAND FREE ENERGY PREDICTED BY IDOCK:   -4.55 KCAL/MOL
REMARK 924 INTRA-LIGAND FREE ENERGY PREDICTED BY IDOCK:    0.04 KCAL/MOL
REMARK 927      BINDING AFFINITY PREDICTED BY RF-SCORE:    0.00 PKD
ROOT
HETATM    1  C   UNL     1      -6.210  18.207  65.727  1.00  0.00    -0.289 C  
HETATM    2  C   UNL     1      -6.239  19.647  66.218  1.00  0.00    -0.182 C  
ENDROOT
BRANCH   2   3
HETATM    3  C   UNL     1      -7.495  19.928  67.043  1.00  0.00    -0.249 C  
BRANCH   3   4
HETATM    4  N   UNL     1      -8.554  20.450  66.170  1.00  0.00    -0.560 NA 
HETATM    5  H   UNL     1      -8.401  20.185  65.197  1.00  0.00     0.000 HD 
BRANCH   4   6
HETATM    6  C   UNL     1      -9.900  20.035  66.641  1.00  0.00    -0.450 C  
HETATM    7  C   UNL     1     -10.874  19.762  65.497  1.00  0.00    -0.254 C  
BRANCH   6   8
HETATM    8  C   UNL     1      -9.789  18.768  67.520  1.00  0.00    -0.320 C  
HETATM    9  O   UNL     1     -10.045  18.845  68.719  1.00  0.00    -0.388 OA 
HETATM   10  N   UNL     1      -9.471  17.610  66.821  1.00  0.00    -0.270 N  
HETATM   11  H   UNL     1      -9.382  17.694  65.808  1.00  0.00     0.000 HD 
BRANCH  10  12
HETATM   12  C   UNL     1      -9.258  16.321  67.374  1.00  0.00    -0.211 A  
HETATM   13  C   UNL     1      -8.538  16.155  68.568  1.00  0.00    -0.202 A  
HETATM   14  C   UNL     1      -8.322  14.894  69.129  1.00  0.00    -0.150 A  
HETATM   15  C   UNL     1      -8.816  13.763  68.496  1.00  0.00    -0.116 A  
HETATM   16  C   UNL     1      -9.518  13.898  67.300  1.00  0.00    -0.239 A  
HETATM   17  C   UNL     1      -9.749  15.170  66.728  1.00  0.00    -0.255 A  
HETATM   18  C   UNL     1     -10.510  15.203  65.426  1.00  0.00    -0.416 C  
ENDBRANCH  10  12
ENDBRANCH   6   8
ENDBRANCH   4   6
ENDBRANCH   3   4
ENDBRANCH   2   3
TORSDOF 5
ENDMDL
MODEL      227
REMARK 921   NORMALIZED FREE ENERGY PREDICTED BY IDOCK:   -3.21 KCAL/MOL
REMARK 922        TOTAL FREE ENERGY PREDICTED BY IDOCK:   -4.49 KCAL/MOL
REMARK 923 INTER-LIGAND FREE ENERGY PREDICTED BY IDOCK:   -4.04 KCAL/MOL
REMARK 924 INTRA-LIGAND FREE ENERGY PREDICTED BY IDOCK:   -0.45 KCAL/MOL
REMARK 927      BINDING AFFINITY PREDICTED BY RF-SCORE:    0.00 PKD
ROOT
HETATM    1  C   UNL     1      -9.573   8.563  70.157  1.00  0.00    -0.174 C  
HETATM    2  C   UNL     1     -10.667   8.205  69.162  1.00  0.00    -0.117 C  
ENDROOT
BRANCH   2   3
HETATM    3  C   UNL     1     -10.204   8.428  67.723  1.00  0.00    -0.224 C  
BRANCH   3   4
HETATM    4  N   UNL     1     -10.539   9.794  67.300  1.00  0.00    -0.264 NA 
HETATM    5  H   UNL     1     -11.162  10.249  67.968  1.00  0.00     0.000 HD 
BRANCH   4   6
HETATM    6  C   UNL     1      -9.318  10.603  67.058  1.00  0.00    -0.155 C  
HETATM    7  C   UNL     1      -8.737  10.401  65.660  1.00  0.00    -0.184 C  
BRANCH   6   8
HETATM    8  C   UNL     1      -9.625  12.104  67.263  1.00  0.00    -0.185 C  
HETATM    9  O   UNL     1     -10.029  12.490  68.358  1.00  0.00    -0.224 OA 
HETATM   10  N   UNL     1      -9.328  12.906  66.168  1.00  0.00    -0.441 N  
HETATM   11  H   UNL     1      -8.907  12.446  65.361  1.00  0.00     0.000 HD 
BRANCH  10  12
HETATM   12  C   UNL     1      -9.553  14.303  66.059  1.00  0.00    -0.243 A  
HETATM   13  C   UNL     1      -8.609  15.228  66.534  1.00  0.00    -0.264 A  
HETATM   14  C   UNL     1      -8.812  16.606  66.432  1.00  0.00    -0.337 A  
HETATM   15  C   UNL     1      -9.978  17.091  65.860  1.00  0.00    -0.239 A  
HETATM   16  C   UNL     1     -10.940  16.195  65.398  1.00  0.00    -0.235 A  
HETATM   17  C   UNL     1     -10.741  14.798  65.488  1.00  0.00    -0.369 A  
HETATM   18  C   UNL     1     -11.849  13.917  64.970  1.00  0.00    -0.383 C  
ENDBRANCH  10  12
ENDBRANCH   6   8
ENDBRANCH   4   6
ENDBRANCH   3   4
ENDBRANCH   2   3
TORSDOF 5
ENDMDL
MODEL      228
REMARK 921   NORMALIZED FREE ENERGY PREDICTED BY IDOCK:   -3.21 KCAL/MOL
REMARK 922        TOTAL FREE ENERGY PREDICTED BY IDOCK:   -4.49 KCAL/MOL
REMARK 923 INTER-LIGAND FREE ENERGY PREDICTED BY IDOCK:   -3.98 KCAL/MOL
REMARK 924 INTRA-LIGAND FREE ENERGY PREDICTED BY IDOCK:   -0.51 KCAL/MOL
REMARK 927      BINDING AFFINITY PREDICTED BY RF-SCORE:    0.00 PKD
ROOT
HETATM    1  C   UNL     1      -8.197   3.956  64.859  1.00  0.00    -0.093 C  
HETATM    2  C   UNL     1      -8.352   4.753  66.146  1.00  0.00    -0.111 C  
ENDROOT
BRANCH   2   3
HETATM    3  C   UNL     1      -9.818   5.088  66.420  1.00  0.00    -0.201 C  
BRANCH   3   4
HETATM    4  N   UNL     1     -10.073   6.498  66.097  1.00  0.00    -0.408 NA 
HETATM    5  H   UNL     1     -10.963   6.814  66.482  1.00  0.00     0.000 HD 
BRANCH   4   6
HETATM    6  C   UNL     1      -8.952   7.367  66.535  1.00  0.00    -0.159 C  
HETATM    7  C   UNL     1      -8.722   8.557  65.605  1.00  0.00    -0.213 C  
BRANCH   6   8
HETATM    8  C   UNL     1      -9.213   7.891  67.966  1.00  0.00    -0.131 C  
HETATM    9  O   UNL     1      -8.260   8.076  68.720  1.00  0.00    -0.123 OA 
HETATM   10  N   UNL     1     -10.544   8.184  68.238  1.00  0.00    -0.381 N  
HETATM   11  H   UNL     1     -11.206   8.066  67.471  1.00  0.00     0.000 HD 
BRANCH  10  12
HETATM   12  C   UNL     1     -11.075   8.630  69.475  1.00  0.00     0.033 A  
HETATM   13  C   UNL     1     -11.252   9.999  69.736  1.00  0.00    -0.307 A  
HETATM   14  C   UNL     1     -11.776  10.455  70.948  1.00  0.00    -0.455 A  
HETATM   15  C   UNL     1     -12.125   9.547  71.936  1.00  0.00    -0.409 A  
HETATM   16  C   UNL     1     -11.941   8.184  71.710  1.00  0.00    -0.348 A  
HETATM   17  C   UNL     1     -11.419   7.710  70.485  1.00  0.00    -0.236 A  
HETATM   18  C   UNL     1     -11.249   6.218  70.348  1.00  0.00    -0.439 C  
ENDBRANCH  10  12
ENDBRANCH   6   8
ENDBRANCH   4   6
ENDBRANCH   3   4
ENDBRANCH   2   3
TORSDOF 5
ENDMDL
MODEL      229
REMARK 921   NORMALIZED FREE ENERGY PREDICTED BY IDOCK:   -3.21 KCAL/MOL
REMARK 922        TOTAL FREE ENERGY PREDICTED BY IDOCK:   -4.48 KCAL/MOL
REMARK 923 INTER-LIGAND FREE ENERGY PREDICTED BY IDOCK:   -4.14 KCAL/MOL
REMARK 924 INTRA-LIGAND FREE ENERGY PREDICTED BY IDOCK:   -0.34 KCAL/MOL
REMARK 927      BINDING AFFINITY PREDICTED BY RF-SCORE:    0.00 PKD
ROOT
HETATM    1  C   UNL     1      -9.965   3.100  72.076  1.00  0.00    -0.223 C  
HETATM    2  C   UNL     1     -10.158   3.816  73.405  1.00  0.00    -0.200 C  
ENDROOT
BRANCH   2   3
HETATM    3  C   UNL     1     -10.963   5.103  73.232  1.00  0.00    -0.314 C  
BRANCH   3   4
HETATM    4  N   UNL     1     -10.288   5.985  72.271  1.00  0.00    -0.188 NA 
HETATM    5  H   UNL     1      -9.423   5.568  71.925  1.00  0.00     0.000 HD 
BRANCH   4   6
HETATM    6  C   UNL     1     -11.191   6.366  71.156  1.00  0.00    -0.302 C  
HETATM    7  C   UNL     1     -12.400   7.176  71.618  1.00  0.00    -0.398 C  
BRANCH   6   8
HETATM    8  C   UNL     1     -10.414   7.183  70.097  1.00  0.00    -0.216 C  
HETATM    9  O   UNL     1      -9.200   7.026  69.992  1.00  0.00    -0.148 OA 
HETATM   10  N   UNL     1     -11.212   7.985  69.291  1.00  0.00    -0.418 N  
HETATM   11  H   UNL     1     -12.219   7.931  69.442  1.00  0.00     0.000 HD 
BRANCH  10  12
HETATM   12  C   UNL     1     -10.766   8.871  68.277  1.00  0.00    -0.082 A  
HETATM   13  C   UNL     1     -10.665  10.251  68.514  1.00  0.00    -0.262 A  
HETATM   14  C   UNL     1     -10.224  11.137  67.528  1.00  0.00    -0.216 A  
HETATM   15  C   UNL     1      -9.884  10.660  66.272  1.00  0.00    -0.263 A  
HETATM   16  C   UNL     1      -9.994   9.297  66.004  1.00  0.00    -0.325 A  
HETATM   17  C   UNL     1     -10.431   8.389  66.996  1.00  0.00    -0.375 A  
HETATM   18  C   UNL     1     -10.525   6.938  66.599  1.00  0.00    -0.213 C  
ENDBRANCH  10  12
ENDBRANCH   6   8
ENDBRANCH   4   6
ENDBRANCH   3   4
ENDBRANCH   2   3
TORSDOF 5
ENDMDL
MODEL      230
REMARK 921   NORMALIZED FREE ENERGY PREDICTED BY IDOCK:   -3.19 KCAL/MOL
REMARK 922        TOTAL FREE ENERGY PREDICTED BY IDOCK:   -4.46 KCAL/MOL
REMARK 923 INTER-LIGAND FREE ENERGY PREDICTED BY IDOCK:   -4.35 KCAL/MOL
REMARK 924 INTRA-LIGAND FREE ENERGY PREDICTED BY IDOCK:   -0.10 KCAL/MOL
REMARK 927      BINDING AFFINITY PREDICTED BY RF-SCORE:    0.00 PKD
ROOT
HETATM    1  C   UNL     1      -6.550  10.351  66.972  1.00  0.00    -0.075 C  
HETATM    2  C   UNL     1      -6.839  10.702  68.425  1.00  0.00    -0.064 C  
ENDROOT
BRANCH   2   3
HETATM    3  C   UNL     1      -7.970   9.845  68.990  1.00  0.00    -0.101 C  
BRANCH   3   4
HETATM    4  N   UNL     1      -8.327   8.796  68.026  1.00  0.00    -0.118 NA 
HETATM    5  H   UNL     1      -7.937   7.893  68.295  1.00  0.00     0.000 HD 
BRANCH   4   6
HETATM    6  C   UNL     1      -9.796   8.716  67.828  1.00  0.00    -0.175 C  
HETATM    7  C   UNL     1     -10.585   8.968  69.112  1.00  0.00    -0.219 C  
BRANCH   6   8
HETATM    8  C   UNL     1     -10.245   9.734  66.755  1.00  0.00    -0.233 C  
HETATM    9  O   UNL     1     -10.034   9.488  65.570  1.00  0.00    -0.304 OA 
HETATM   10  N   UNL     1     -10.937  10.831  67.256  1.00  0.00    -0.303 N  
HETATM   11  H   UNL     1     -11.115  10.842  68.260  1.00  0.00     0.000 HD 
BRANCH  10  12
HETATM   12  C   UNL     1     -11.420  11.936  66.511  1.00  0.00    -0.314 A  
HETATM   13  C   UNL     1     -11.526  11.876  65.112  1.00  0.00    -0.304 A  
HETATM   14  C   UNL     1     -12.003  12.954  64.363  1.00  0.00    -0.456 A  
HETATM   15  C   UNL     1     -12.375  14.128  65.000  1.00  0.00    -0.452 A  
HETATM   16  C   UNL     1     -12.261  14.221  66.386  1.00  0.00    -0.426 A  
HETATM   17  C   UNL     1     -11.788  13.134  67.155  1.00  0.00    -0.424 A  
HETATM   18  C   UNL     1     -11.692  13.343  68.645  1.00  0.00    -0.384 C  
ENDBRANCH  10  12
ENDBRANCH   6   8
ENDBRANCH   4   6
ENDBRANCH   3   4
ENDBRANCH   2   3
TORSDOF 5
ENDMDL
MODEL      231
REMARK 921   NORMALIZED FREE ENERGY PREDICTED BY IDOCK:   -3.18 KCAL/MOL
REMARK 922        TOTAL FREE ENERGY PREDICTED BY IDOCK:   -4.46 KCAL/MOL
REMARK 923 INTER-LIGAND FREE ENERGY PREDICTED BY IDOCK:   -4.05 KCAL/MOL
REMARK 924 INTRA-LIGAND FREE ENERGY PREDICTED BY IDOCK:   -0.40 KCAL/MOL
REMARK 927      BINDING AFFINITY PREDICTED BY RF-SCORE:    0.00 PKD
ROOT
HETATM    1  C   UNL     1     -13.501  13.561  72.273  1.00  0.00    -0.669 C  
HETATM    2  C   UNL     1     -12.941  13.446  70.863  1.00  0.00    -0.195 C  
ENDROOT
BRANCH   2   3
HETATM    3  C   UNL     1     -12.219  12.115  70.657  1.00  0.00    -0.300 C  
BRANCH   3   4
HETATM    4  N   UNL     1     -12.001  11.887  69.223  1.00  0.00    -0.302 NA 
HETATM    5  H   UNL     1     -12.374  12.653  68.662  1.00  0.00     0.000 HD 
BRANCH   4   6
HETATM    6  C   UNL     1     -10.567  11.643  68.924  1.00  0.00    -0.193 C  
HETATM    7  C   UNL     1     -10.321  10.304  68.231  1.00  0.00    -0.209 C  
BRANCH   6   8
HETATM    8  C   UNL     1     -10.008  12.778  68.034  1.00  0.00    -0.225 C  
HETATM    9  O   UNL     1     -10.221  12.751  66.824  1.00  0.00    -0.234 OA 
HETATM   10  N   UNL     1      -9.362  13.791  68.733  1.00  0.00    -0.395 N  
HETATM   11  H   UNL     1      -9.352  13.714  69.750  1.00  0.00     0.000 HD 
BRANCH  10  12
HETATM   12  C   UNL     1      -8.716  14.923  68.172  1.00  0.00    -0.164 A  
HETATM   13  C   UNL     1      -9.436  16.086  67.856  1.00  0.00    -0.210 A  
HETATM   14  C   UNL     1      -8.815  17.210  67.308  1.00  0.00    -0.226 A  
HETATM   15  C   UNL     1      -7.453  17.190  67.050  1.00  0.00    -0.223 A  
HETATM   16  C   UNL     1      -6.718  16.041  67.336  1.00  0.00    -0.224 A  
HETATM   17  C   UNL     1      -7.334  14.901  67.899  1.00  0.00    -0.159 A  
HETATM   18  C   UNL     1      -6.451  13.707  68.159  1.00  0.00    -0.125 C  
ENDBRANCH  10  12
ENDBRANCH   6   8
ENDBRANCH   4   6
ENDBRANCH   3   4
ENDBRANCH   2   3
TORSDOF 5
ENDMDL
MODEL      232
REMARK 921   NORMALIZED FREE ENERGY PREDICTED BY IDOCK:   -3.18 KCAL/MOL
REMARK 922        TOTAL FREE ENERGY PREDICTED BY IDOCK:   -4.44 KCAL/MOL
REMARK 923 INTER-LIGAND FREE ENERGY PREDICTED BY IDOCK:   -4.12 KCAL/MOL
REMARK 924 INTRA-LIGAND FREE ENERGY PREDICTED BY IDOCK:   -0.32 KCAL/MOL
REMARK 927      BINDING AFFINITY PREDICTED BY RF-SCORE:    0.00 PKD
ROOT
HETATM    1  C   UNL     1      -6.230  11.614  69.165  1.00  0.00    -0.077 C  
HETATM    2  C   UNL     1      -6.870  10.610  70.112  1.00  0.00    -0.119 C  
ENDROOT
BRANCH   2   3
HETATM    3  C   UNL     1      -7.949   9.789  69.407  1.00  0.00    -0.125 C  
BRANCH   3   4
HETATM    4  N   UNL     1      -9.149  10.612  69.209  1.00  0.00    -0.355 NA 
HETATM    5  H   UNL     1      -9.099  11.479  69.745  1.00  0.00     0.000 HD 
BRANCH   4   6
HETATM    6  C   UNL     1      -9.395  10.877  67.769  1.00  0.00    -0.157 C  
HETATM    7  C   UNL     1     -10.352   9.870  67.133  1.00  0.00    -0.304 C  
BRANCH   6   8
HETATM    8  C   UNL     1      -9.966  12.301  67.580  1.00  0.00    -0.199 C  
HETATM    9  O   UNL     1     -10.552  12.842  68.515  1.00  0.00    -0.244 OA 
HETATM   10  N   UNL     1      -9.680  12.876  66.347  1.00  0.00    -0.260 N  
HETATM   11  H   UNL     1      -9.098  12.332  65.710  1.00  0.00     0.000 HD 
BRANCH  10  12
HETATM   12  C   UNL     1     -10.117  14.145  65.887  1.00  0.00    -0.321 A  
HETATM   13  C   UNL     1      -9.634  15.331  66.463  1.00  0.00    -0.294 A  
HETATM   14  C   UNL     1     -10.051  16.588  66.019  1.00  0.00    -0.368 A  
HETATM   15  C   UNL     1     -10.975  16.686  64.990  1.00  0.00    -0.172 A  
HETATM   16  C   UNL     1     -11.484  15.524  64.414  1.00  0.00    -0.264 A  
HETATM   17  C   UNL     1     -11.064  14.247  64.849  1.00  0.00    -0.396 A  
HETATM   18  C   UNL     1     -11.686  13.055  64.166  1.00  0.00    -0.470 C  
ENDBRANCH  10  12
ENDBRANCH   6   8
ENDBRANCH   4   6
ENDBRANCH   3   4
ENDBRANCH   2   3
TORSDOF 5
ENDMDL
MODEL      233
REMARK 921   NORMALIZED FREE ENERGY PREDICTED BY IDOCK:   -3.17 KCAL/MOL
REMARK 922        TOTAL FREE ENERGY PREDICTED BY IDOCK:   -4.44 KCAL/MOL
REMARK 923 INTER-LIGAND FREE ENERGY PREDICTED BY IDOCK:   -4.08 KCAL/MOL
REMARK 924 INTRA-LIGAND FREE ENERGY PREDICTED BY IDOCK:   -0.36 KCAL/MOL
REMARK 927      BINDING AFFINITY PREDICTED BY RF-SCORE:    0.00 PKD
ROOT
HETATM    1  C   UNL     1     -13.501  12.828  72.300  1.00  0.00    -0.591 C  
HETATM    2  C   UNL     1     -13.068  11.788  71.277  1.00  0.00    -0.237 C  
ENDROOT
BRANCH   2   3
HETATM    3  C   UNL     1     -12.851  10.423  71.929  1.00  0.00    -0.415 C  
BRANCH   3   4
HETATM    4  N   UNL     1     -12.870   9.374  70.900  1.00  0.00    -0.523 NA 
HETATM    5  H   UNL     1     -13.018   9.766  69.970  1.00  0.00     0.000 HD 
BRANCH   4   6
HETATM    6  C   UNL     1     -11.641   8.542  70.950  1.00  0.00    -0.263 C  
HETATM    7  C   UNL     1     -11.930   7.046  70.847  1.00  0.00    -0.409 C  
BRANCH   6   8
HETATM    8  C   UNL     1     -10.678   8.948  69.810  1.00  0.00    -0.225 C  
HETATM    9  O   UNL     1     -10.762   8.379  68.724  1.00  0.00    -0.168 OA 
HETATM   10  N   UNL     1      -9.834  10.007  70.120  1.00  0.00    -0.386 N  
HETATM   11  H   UNL     1      -9.953  10.437  71.037  1.00  0.00     0.000 HD 
BRANCH  10  12
HETATM   12  C   UNL     1      -8.823  10.552  69.288  1.00  0.00    -0.122 A  
HETATM   13  C   UNL     1      -9.150  11.288  68.137  1.00  0.00    -0.166 A  
HETATM   14  C   UNL     1      -8.167  11.834  67.309  1.00  0.00    -0.163 A  
HETATM   15  C   UNL     1      -6.826  11.644  67.608  1.00  0.00    -0.094 A  
HETATM   16  C   UNL     1      -6.475  10.901  68.733  1.00  0.00    -0.053 A  
HETATM   17  C   UNL     1      -7.460  10.350  69.584  1.00  0.00    -0.160 A  
HETATM   18  C   UNL     1      -6.972   9.553  70.767  1.00  0.00    -0.108 C  
ENDBRANCH  10  12
ENDBRANCH   6   8
ENDBRANCH   4   6
ENDBRANCH   3   4
ENDBRANCH   2   3
TORSDOF 5
ENDMDL
MODEL      234
REMARK 921   NORMALIZED FREE ENERGY PREDICTED BY IDOCK:   -3.17 KCAL/MOL
REMARK 922        TOTAL FREE ENERGY PREDICTED BY IDOCK:   -4.44 KCAL/MOL
REMARK 923 INTER-LIGAND FREE ENERGY PREDICTED BY IDOCK:   -4.09 KCAL/MOL
REMARK 924 INTRA-LIGAND FREE ENERGY PREDICTED BY IDOCK:   -0.35 KCAL/MOL
REMARK 927      BINDING AFFINITY PREDICTED BY RF-SCORE:    0.00 PKD
ROOT
HETATM    1  C   UNL     1      -8.936   5.823  68.836  1.00  0.00    -0.113 C  
HETATM    2  C   UNL     1      -9.727   5.020  69.859  1.00  0.00    -0.266 C  
ENDROOT
BRANCH   2   3
HETATM    3  C   UNL     1     -10.856   5.851  70.466  1.00  0.00    -0.296 C  
BRANCH   3   4
HETATM    4  N   UNL     1     -10.403   7.234  70.665  1.00  0.00    -0.203 NA 
HETATM    5  H   UNL     1      -9.532   7.416  70.165  1.00  0.00     0.000 HD 
BRANCH   4   6
HETATM    6  C   UNL     1     -11.457   8.211  70.293  1.00  0.00    -0.065 C  
HETATM    7  C   UNL     1     -12.444   8.483  71.427  1.00  0.00    -0.327 C  
BRANCH   6   8
HETATM    8  C   UNL     1     -10.815   9.547  69.855  1.00  0.00    -0.246 C  
HETATM    9  O   UNL     1      -9.752   9.896  70.364  1.00  0.00    -0.234 OA 
HETATM   10  N   UNL     1     -11.493  10.205  68.836  1.00  0.00    -0.482 N  
HETATM   11  H   UNL     1     -12.313   9.735  68.452  1.00  0.00     0.000 HD 
BRANCH  10  12
HETATM   12  C   UNL     1     -11.159  11.464  68.276  1.00  0.00    -0.244 A  
HETATM   13  C   UNL     1     -11.825  12.634  68.676  1.00  0.00    -0.342 A  
HETATM   14  C   UNL     1     -11.506  13.883  68.137  1.00  0.00    -0.346 A  
HETATM   15  C   UNL     1     -10.517  13.987  67.172  1.00  0.00    -0.270 A  
HETATM   16  C   UNL     1      -9.854  12.839  66.743  1.00  0.00    -0.242 A  
HETATM   17  C   UNL     1     -10.162  11.571  67.287  1.00  0.00    -0.229 A  
HETATM   18  C   UNL     1      -9.394  10.392  66.745  1.00  0.00    -0.181 C  
ENDBRANCH  10  12
ENDBRANCH   6   8
ENDBRANCH   4   6
ENDBRANCH   3   4
ENDBRANCH   2   3
TORSDOF 5
ENDMDL
MODEL      235
REMARK 921   NORMALIZED FREE ENERGY PREDICTED BY IDOCK:   -3.16 KCAL/MOL
REMARK 922        TOTAL FREE ENERGY PREDICTED BY IDOCK:   -4.42 KCAL/MOL
REMARK 923 INTER-LIGAND FREE ENERGY PREDICTED BY IDOCK:   -4.00 KCAL/MOL
REMARK 924 INTRA-LIGAND FREE ENERGY PREDICTED BY IDOCK:   -0.42 KCAL/MOL
REMARK 927      BINDING AFFINITY PREDICTED BY RF-SCORE:    0.00 PKD
ROOT
HETATM    1  C   UNL     1     -11.305   7.421  71.131  1.00  0.00    -0.291 C  
HETATM    2  C   UNL     1     -11.220   8.580  72.113  1.00  0.00    -0.432 C  
ENDROOT
BRANCH   2   3
HETATM    3  C   UNL     1     -12.018   9.787  71.620  1.00  0.00    -0.375 C  
BRANCH   3   4
HETATM    4  N   UNL     1     -11.543  10.183  70.288  1.00  0.00    -0.284 NA 
HETATM    5  H   UNL     1     -11.807   9.499  69.579  1.00  0.00     0.000 HD 
BRANCH   4   6
HETATM    6  C   UNL     1     -12.010  11.546  69.927  1.00  0.00    -0.351 C  
HETATM    7  C   UNL     1     -12.177  12.459  71.141  1.00  0.00    -0.092 C  
BRANCH   6   8
HETATM    8  C   UNL     1     -11.022  12.202  68.936  1.00  0.00    -0.224 C  
HETATM    9  O   UNL     1     -10.823  11.670  67.846  1.00  0.00    -0.191 OA 
HETATM   10  N   UNL     1     -10.497  13.415  69.366  1.00  0.00    -0.411 N  
HETATM   11  H   UNL     1     -10.836  13.772  70.259  1.00  0.00     0.000 HD 
BRANCH  10  12
HETATM   12  C   UNL     1      -9.537  14.207  68.686  1.00  0.00    -0.179 A  
HETATM   13  C   UNL     1      -8.190  13.815  68.619  1.00  0.00    -0.077 A  
HETATM   14  C   UNL     1      -7.233  14.581  67.951  1.00  0.00    -0.169 A  
HETATM   15  C   UNL     1      -7.602  15.771  67.341  1.00  0.00    -0.220 A  
HETATM   16  C   UNL     1      -8.928  16.193  67.409  1.00  0.00    -0.201 A  
HETATM   17  C   UNL     1      -9.907  15.422  68.076  1.00  0.00    -0.216 A  
HETATM   18  C   UNL     1     -11.310  15.975  68.100  1.00  0.00    -0.289 C  
ENDBRANCH  10  12
ENDBRANCH   6   8
ENDBRANCH   4   6
ENDBRANCH   3   4
ENDBRANCH   2   3
TORSDOF 5
ENDMDL
MODEL      236
REMARK 921   NORMALIZED FREE ENERGY PREDICTED BY IDOCK:   -3.15 KCAL/MOL
REMARK 922        TOTAL FREE ENERGY PREDICTED BY IDOCK:   -4.41 KCAL/MOL
REMARK 923 INTER-LIGAND FREE ENERGY PREDICTED BY IDOCK:   -3.91 KCAL/MOL
REMARK 924 INTRA-LIGAND FREE ENERGY PREDICTED BY IDOCK:   -0.50 KCAL/MOL
REMARK 927      BINDING AFFINITY PREDICTED BY RF-SCORE:    0.00 PKD
ROOT
HETATM    1  C   UNL     1      -5.686   8.817  64.754  1.00  0.00    -0.062 C  
HETATM    2  C   UNL     1      -5.797  10.190  65.400  1.00  0.00    -0.098 C  
ENDROOT
BRANCH   2   3
HETATM    3  C   UNL     1      -6.176  10.082  66.876  1.00  0.00    -0.064 C  
BRANCH   3   4
HETATM    4  N   UNL     1      -7.251   9.095  67.040  1.00  0.00    -0.089 NA 
HETATM    5  H   UNL     1      -6.887   8.194  67.351  1.00  0.00     0.000 HD 
BRANCH   4   6
HETATM    6  C   UNL     1      -8.314   9.594  67.949  1.00  0.00    -0.117 C  
HETATM    7  C   UNL     1      -7.852  10.761  68.821  1.00  0.00    -0.129 C  
BRANCH   6   8
HETATM    8  C   UNL     1      -9.550  10.036  67.132  1.00  0.00    -0.165 C  
HETATM    9  O   UNL     1     -10.468   9.238  66.955  1.00  0.00    -0.253 OA 
HETATM   10  N   UNL     1      -9.528  11.366  66.731  1.00  0.00    -0.179 N  
HETATM   11  H   UNL     1      -8.734  11.927  67.040  1.00  0.00     0.000 HD 
BRANCH  10  12
HETATM   12  C   UNL     1     -10.500  12.022  65.933  1.00  0.00    -0.255 A  
HETATM   13  C   UNL     1     -11.449  12.882  66.510  1.00  0.00    -0.390 A  
HETATM   14  C   UNL     1     -12.411  13.539  65.739  1.00  0.00    -0.514 A  
HETATM   15  C   UNL     1     -12.452  13.339  64.367  1.00  0.00    -0.356 A  
HETATM   16  C   UNL     1     -11.534  12.476  63.773  1.00  0.00    -0.542 A  
HETATM   17  C   UNL     1     -10.551  11.812  64.541  1.00  0.00    -0.364 A  
HETATM   18  C   UNL     1      -9.614  10.891  63.801  1.00  0.00    -0.331 C  
ENDBRANCH  10  12
ENDBRANCH   6   8
ENDBRANCH   4   6
ENDBRANCH   3   4
ENDBRANCH   2   3
TORSDOF 5
ENDMDL
MODEL      237
REMARK 921   NORMALIZED FREE ENERGY PREDICTED BY IDOCK:   -3.15 KCAL/MOL
REMARK 922        TOTAL FREE ENERGY PREDICTED BY IDOCK:   -4.41 KCAL/MOL
REMARK 923 INTER-LIGAND FREE ENERGY PREDICTED BY IDOCK:   -3.92 KCAL/MOL
REMARK 924 INTRA-LIGAND FREE ENERGY PREDICTED BY IDOCK:   -0.49 KCAL/MOL
REMARK 927      BINDING AFFINITY PREDICTED BY RF-SCORE:    0.00 PKD
ROOT
HETATM    1  C   UNL     1      -6.346   7.262  65.502  1.00  0.00    -0.038 C  
HETATM    2  C   UNL     1      -7.721   7.568  66.077  1.00  0.00    -0.094 C  
ENDROOT
BRANCH   2   3
HETATM    3  C   UNL     1      -8.128   9.017  65.809  1.00  0.00    -0.109 C  
BRANCH   3   4
HETATM    4  N   UNL     1      -8.148   9.768  67.070  1.00  0.00    -0.113 NA 
HETATM    5  H   UNL     1      -7.275  10.273  67.218  1.00  0.00     0.000 HD 
BRANCH   4   6
HETATM    6  C   UNL     1      -9.321  10.676  67.143  1.00  0.00    -0.155 C  
HETATM    7  C   UNL     1     -10.045  10.822  65.806  1.00  0.00    -0.320 C  
BRANCH   6   8
HETATM    8  C   UNL     1     -10.323  10.167  68.204  1.00  0.00    -0.185 C  
HETATM    9  O   UNL     1     -11.447  10.662  68.254  1.00  0.00    -0.306 OA 
HETATM   10  N   UNL     1      -9.858   9.108  68.974  1.00  0.00    -0.170 N  
HETATM   11  H   UNL     1      -8.932   8.745  68.745  1.00  0.00     0.000 HD 
BRANCH  10  12
HETATM   12  C   UNL     1     -10.541   8.479  70.046  1.00  0.00    -0.227 A  
HETATM   13  C   UNL     1     -10.773   9.157  71.254  1.00  0.00    -0.401 A  
HETATM   14  C   UNL     1     -11.448   8.554  72.318  1.00  0.00    -0.445 A  
HETATM   15  C   UNL     1     -11.897   7.247  72.201  1.00  0.00    -0.324 A  
HETATM   16  C   UNL     1     -11.662   6.546  71.020  1.00  0.00    -0.402 A  
HETATM   17  C   UNL     1     -10.988   7.148  69.933  1.00  0.00    -0.278 A  
HETATM   18  C   UNL     1     -10.776   6.297  68.707  1.00  0.00    -0.352 C  
ENDBRANCH  10  12
ENDBRANCH   6   8
ENDBRANCH   4   6
ENDBRANCH   3   4
ENDBRANCH   2   3
TORSDOF 5
ENDMDL
MODEL      238
REMARK 921   NORMALIZED FREE ENERGY PREDICTED BY IDOCK:   -3.14 KCAL/MOL
REMARK 922        TOTAL FREE ENERGY PREDICTED BY IDOCK:   -4.40 KCAL/MOL
REMARK 923 INTER-LIGAND FREE ENERGY PREDICTED BY IDOCK:   -3.85 KCAL/MOL
REMARK 924 INTRA-LIGAND FREE ENERGY PREDICTED BY IDOCK:   -0.55 KCAL/MOL
REMARK 927      BINDING AFFINITY PREDICTED BY RF-SCORE:    0.00 PKD
ROOT
HETATM    1  C   UNL     1      -6.111   9.027  71.764  1.00  0.00    -0.075 C  
HETATM    2  C   UNL     1      -6.759   7.838  72.457  1.00  0.00    -0.067 C  
ENDROOT
BRANCH   2   3
HETATM    3  C   UNL     1      -7.611   8.283  73.646  1.00  0.00    -0.139 C  
BRANCH   3   4
HETATM    4  N   UNL     1      -8.904   8.789  73.167  1.00  0.00    -0.226 NA 
HETATM    5  H   UNL     1      -8.784   9.583  72.538  1.00  0.00     0.000 HD 
BRANCH   4   6
HETATM    6  C   UNL     1      -9.708   7.712  72.535  1.00  0.00    -0.184 C  
HETATM    7  C   UNL     1     -10.717   7.082  73.494  1.00  0.00    -0.368 C  
BRANCH   6   8
HETATM    8  C   UNL     1     -10.462   8.264  71.304  1.00  0.00    -0.211 C  
HETATM    9  O   UNL     1     -11.432   7.648  70.869  1.00  0.00    -0.277 OA 
HETATM   10  N   UNL     1      -9.993   9.489  70.844  1.00  0.00    -0.276 N  
HETATM   11  H   UNL     1      -9.237   9.920  71.375  1.00  0.00     0.000 HD 
BRANCH  10  12
HETATM   12  C   UNL     1     -10.462  10.200  69.709  1.00  0.00    -0.263 A  
HETATM   13  C   UNL     1      -9.895   9.996  68.441  1.00  0.00    -0.169 A  
HETATM   14  C   UNL     1     -10.346  10.684  67.313  1.00  0.00    -0.265 A  
HETATM   15  C   UNL     1     -11.374  11.607  67.432  1.00  0.00    -0.367 A  
HETATM   16  C   UNL     1     -11.941  11.843  68.683  1.00  0.00    -0.291 A  
HETATM   17  C   UNL     1     -11.498  11.146  69.830  1.00  0.00    -0.386 A  
HETATM   18  C   UNL     1     -12.171  11.485  71.136  1.00  0.00    -0.287 C  
ENDBRANCH  10  12
ENDBRANCH   6   8
ENDBRANCH   4   6
ENDBRANCH   3   4
ENDBRANCH   2   3
TORSDOF 5
ENDMDL
MODEL      239
REMARK 921   NORMALIZED FREE ENERGY PREDICTED BY IDOCK:   -3.14 KCAL/MOL
REMARK 922        TOTAL FREE ENERGY PREDICTED BY IDOCK:   -4.39 KCAL/MOL
REMARK 923 INTER-LIGAND FREE ENERGY PREDICTED BY IDOCK:   -3.99 KCAL/MOL
REMARK 924 INTRA-LIGAND FREE ENERGY PREDICTED BY IDOCK:   -0.41 KCAL/MOL
REMARK 927      BINDING AFFINITY PREDICTED BY RF-SCORE:    0.00 PKD
ROOT
HETATM    1  C   UNL     1      -5.889  15.129  69.645  1.00  0.00    -0.112 C  
HETATM    2  C   UNL     1      -6.488  14.797  68.286  1.00  0.00    -0.121 C  
ENDROOT
BRANCH   2   3
HETATM    3  C   UNL     1      -7.343  15.949  67.759  1.00  0.00    -0.144 C  
BRANCH   3   4
HETATM    4  N   UNL     1      -7.992  15.549  66.504  1.00  0.00    -0.300 NA 
HETATM    5  H   UNL     1      -7.619  14.666  66.155  1.00  0.00     0.000 HD 
BRANCH   4   6
HETATM    6  C   UNL     1      -9.469  15.495  66.649  1.00  0.00    -0.259 C  
HETATM    7  C   UNL     1     -10.192  16.515  65.771  1.00  0.00    -0.350 C  
BRANCH   6   8
HETATM    8  C   UNL     1      -9.986  14.080  66.304  1.00  0.00    -0.307 C  
HETATM    9  O   UNL     1     -10.824  13.947  65.415  1.00  0.00    -0.298 OA 
HETATM   10  N   UNL     1      -9.371  13.054  67.012  1.00  0.00    -0.229 N  
HETATM   11  H   UNL     1      -8.622  13.322  67.651  1.00  0.00     0.000 HD 
BRANCH  10  12
HETATM   12  C   UNL     1      -9.679  11.672  66.934  1.00  0.00    -0.195 A  
HETATM   13  C   UNL     1      -9.003  10.828  66.039  1.00  0.00    -0.196 A  
HETATM   14  C   UNL     1      -9.292   9.464  65.952  1.00  0.00    -0.290 A  
HETATM   15  C   UNL     1     -10.278   8.914  66.756  1.00  0.00    -0.348 A  
HETATM   16  C   UNL     1     -10.978   9.733  67.640  1.00  0.00    -0.226 A  
HETATM   17  C   UNL     1     -10.689  11.113  67.742  1.00  0.00    -0.267 A  
HETATM   18  C   UNL     1     -11.512  11.911  68.721  1.00  0.00    -0.347 C  
ENDBRANCH  10  12
ENDBRANCH   6   8
ENDBRANCH   4   6
ENDBRANCH   3   4
ENDBRANCH   2   3
TORSDOF 5
ENDMDL
MODEL      240
REMARK 921   NORMALIZED FREE ENERGY PREDICTED BY IDOCK:   -3.13 KCAL/MOL
REMARK 922        TOTAL FREE ENERGY PREDICTED BY IDOCK:   -4.38 KCAL/MOL
REMARK 923 INTER-LIGAND FREE ENERGY PREDICTED BY IDOCK:   -3.87 KCAL/MOL
REMARK 924 INTRA-LIGAND FREE ENERGY PREDICTED BY IDOCK:   -0.51 KCAL/MOL
REMARK 927      BINDING AFFINITY PREDICTED BY RF-SCORE:    0.00 PKD
ROOT
HETATM    1  C   UNL     1      -7.102   9.886  70.261  1.00  0.00    -0.155 C  
HETATM    2  C   UNL     1      -7.986   8.851  70.941  1.00  0.00    -0.173 C  
ENDROOT
BRANCH   2   3
HETATM    3  C   UNL     1      -9.467   9.203  70.795  1.00  0.00    -0.272 C  
BRANCH   3   4
HETATM    4  N   UNL     1      -9.628  10.256  69.784  1.00  0.00    -0.387 NA 
HETATM    5  H   UNL     1      -8.797  10.343  69.199  1.00  0.00     0.000 HD 
BRANCH   4   6
HETATM    6  C   UNL     1     -10.849  10.042  68.967  1.00  0.00    -0.222 C  
HETATM    7  C   UNL     1     -11.755  11.271  68.915  1.00  0.00    -0.409 C  
BRANCH   6   8
HETATM    8  C   UNL     1     -10.460   9.643  67.524  1.00  0.00    -0.262 C  
HETATM    9  O   UNL     1     -10.673   8.495  67.142  1.00  0.00    -0.280 OA 
HETATM   10  N   UNL     1      -9.960  10.687  66.754  1.00  0.00    -0.201 N  
HETATM   11  H   UNL     1      -9.934  11.608  67.191  1.00  0.00     0.000 HD 
BRANCH  10  12
HETATM   12  C   UNL     1      -9.483  10.598  65.422  1.00  0.00    -0.215 A  
HETATM   13  C   UNL     1     -10.352  10.747  64.329  1.00  0.00    -0.401 A  
HETATM   14  C   UNL     1      -9.897  10.666  63.011  1.00  0.00    -0.318 A  
HETATM   15  C   UNL     1      -8.557  10.421  62.756  1.00  0.00    -0.208 A  
HETATM   16  C   UNL     1      -7.677  10.250  63.822  1.00  0.00    -0.100 A  
HETATM   17  C   UNL     1      -8.123  10.337  65.160  1.00  0.00    -0.151 A  
HETATM   18  C   UNL     1      -7.091  10.125  66.238  1.00  0.00    -0.110 C  
ENDBRANCH  10  12
ENDBRANCH   6   8
ENDBRANCH   4   6
ENDBRANCH   3   4
ENDBRANCH   2   3
TORSDOF 5
ENDMDL
MODEL      241
REMARK 921   NORMALIZED FREE ENERGY PREDICTED BY IDOCK:   -3.12 KCAL/MOL
REMARK 922        TOTAL FREE ENERGY PREDICTED BY IDOCK:   -4.37 KCAL/MOL
REMARK 923 INTER-LIGAND FREE ENERGY PREDICTED BY IDOCK:   -3.79 KCAL/MOL
REMARK 924 INTRA-LIGAND FREE ENERGY PREDICTED BY IDOCK:   -0.57 KCAL/MOL
REMARK 927      BINDING AFFINITY PREDICTED BY RF-SCORE:    0.00 PKD
ROOT
HETATM    1  C   UNL     1      -5.481   9.396  65.206  1.00  0.00    -0.045 C  
HETATM    2  C   UNL     1      -5.473  10.914  65.302  1.00  0.00    -0.069 C  
ENDROOT
BRANCH   2   3
HETATM    3  C   UNL     1      -5.692  11.382  66.741  1.00  0.00    -0.131 C  
BRANCH   3   4
HETATM    4  N   UNL     1      -6.519  10.404  67.459  1.00  0.00    -0.058 NA 
HETATM    5  H   UNL     1      -5.954   9.812  68.067  1.00  0.00     0.000 HD 
BRANCH   4   6
HETATM    6  C   UNL     1      -7.614  11.067  68.211  1.00  0.00    -0.106 C  
HETATM    7  C   UNL     1      -7.287  12.510  68.591  1.00  0.00    -0.099 C  
BRANCH   6   8
HETATM    8  C   UNL     1      -8.918  11.049  67.381  1.00  0.00    -0.141 C  
HETATM    9  O   UNL     1      -9.621  10.041  67.390  1.00  0.00    -0.150 OA 
HETATM   10  N   UNL     1      -9.210  12.249  66.744  1.00  0.00    -0.206 N  
HETATM   11  H   UNL     1      -8.572  13.027  66.913  1.00  0.00     0.000 HD 
BRANCH  10  12
HETATM   12  C   UNL     1     -10.309  12.502  65.883  1.00  0.00    -0.263 A  
HETATM   13  C   UNL     1     -10.194  12.333  64.493  1.00  0.00    -0.322 A  
HETATM   14  C   UNL     1     -11.266  12.574  63.632  1.00  0.00    -0.545 A  
HETATM   15  C   UNL     1     -12.481  13.003  64.143  1.00  0.00    -0.374 A  
HETATM   16  C   UNL     1     -12.617  13.196  65.517  1.00  0.00    -0.468 A  
HETATM   17  C   UNL     1     -11.541  12.948  66.399  1.00  0.00    -0.425 A  
HETATM   18  C   UNL     1     -11.790  13.200  67.865  1.00  0.00    -0.390 C  
ENDBRANCH  10  12
ENDBRANCH   6   8
ENDBRANCH   4   6
ENDBRANCH   3   4
ENDBRANCH   2   3
TORSDOF 5
ENDMDL
MODEL      242
REMARK 921   NORMALIZED FREE ENERGY PREDICTED BY IDOCK:   -3.12 KCAL/MOL
REMARK 922        TOTAL FREE ENERGY PREDICTED BY IDOCK:   -4.37 KCAL/MOL
REMARK 923 INTER-LIGAND FREE ENERGY PREDICTED BY IDOCK:   -3.95 KCAL/MOL
REMARK 924 INTRA-LIGAND FREE ENERGY PREDICTED BY IDOCK:   -0.42 KCAL/MOL
REMARK 927      BINDING AFFINITY PREDICTED BY RF-SCORE:    0.00 PKD
ROOT
HETATM    1  C   UNL     1     -13.969  13.795  72.304  1.00  0.00    -0.672 C  
HETATM    2  C   UNL     1     -12.972  12.869  71.623  1.00  0.00    -0.410 C  
ENDROOT
BRANCH   2   3
HETATM    3  C   UNL     1     -13.299  11.401  71.895  1.00  0.00    -0.304 C  
BRANCH   3   4
HETATM    4  N   UNL     1     -12.835  10.574  70.774  1.00  0.00    -0.374 NA 
HETATM    5  H   UNL     1     -12.779  11.113  69.910  1.00  0.00     0.000 HD 
BRANCH   4   6
HETATM    6  C   UNL     1     -11.542   9.913  71.086  1.00  0.00    -0.389 C  
HETATM    7  C   UNL     1     -11.711   8.475  71.574  1.00  0.00    -0.354 C  
BRANCH   6   8
HETATM    8  C   UNL     1     -10.628   9.916  69.839  1.00  0.00    -0.273 C  
HETATM    9  O   UNL     1     -10.544  10.937  69.160  1.00  0.00    -0.203 OA 
HETATM   10  N   UNL     1      -9.909   8.742  69.650  1.00  0.00    -0.179 N  
HETATM   11  H   UNL     1     -10.018   8.017  70.359  1.00  0.00     0.000 HD 
BRANCH  10  12
HETATM   12  C   UNL     1      -9.038   8.451  68.570  1.00  0.00    -0.136 A  
HETATM   13  C   UNL     1      -9.500   7.779  67.427  1.00  0.00    -0.177 A  
HETATM   14  C   UNL     1      -8.656   7.487  66.353  1.00  0.00    -0.145 A  
HETATM   15  C   UNL     1      -7.320   7.854  66.404  1.00  0.00    -0.086 A  
HETATM   16  C   UNL     1      -6.831   8.505  67.535  1.00  0.00    -0.071 A  
HETATM   17  C   UNL     1      -7.677   8.813  68.625  1.00  0.00    -0.098 A  
HETATM   18  C   UNL     1      -7.045   9.509  69.803  1.00  0.00    -0.075 C  
ENDBRANCH  10  12
ENDBRANCH   6   8
ENDBRANCH   4   6
ENDBRANCH   3   4
ENDBRANCH   2   3
TORSDOF 5
ENDMDL
MODEL      243
REMARK 921   NORMALIZED FREE ENERGY PREDICTED BY IDOCK:   -3.11 KCAL/MOL
REMARK 922        TOTAL FREE ENERGY PREDICTED BY IDOCK:   -4.36 KCAL/MOL
REMARK 923 INTER-LIGAND FREE ENERGY PREDICTED BY IDOCK:   -3.73 KCAL/MOL
REMARK 924 INTRA-LIGAND FREE ENERGY PREDICTED BY IDOCK:   -0.64 KCAL/MOL
REMARK 927      BINDING AFFINITY PREDICTED BY RF-SCORE:    0.00 PKD
ROOT
HETATM    1  C   UNL     1      -6.326  11.802  68.333  1.00  0.00    -0.051 C  
HETATM    2  C   UNL     1      -6.846  10.403  68.037  1.00  0.00    -0.069 C  
ENDROOT
BRANCH   2   3
HETATM    3  C   UNL     1      -6.946  10.153  66.533  1.00  0.00    -0.102 C  
BRANCH   3   4
HETATM    4  N   UNL     1      -8.322   9.776  66.184  1.00  0.00    -0.119 NA 
HETATM    5  H   UNL     1      -8.874   9.566  67.016  1.00  0.00     0.000 HD 
BRANCH   4   6
HETATM    6  C   UNL     1      -8.974  10.815  65.347  1.00  0.00    -0.194 C  
HETATM    7  C   UNL     1      -9.982  10.235  64.356  1.00  0.00    -0.331 C  
BRANCH   6   8
HETATM    8  C   UNL     1      -9.691  11.849  66.245  1.00  0.00    -0.229 C  
HETATM    9  O   UNL     1     -10.685  11.505  66.880  1.00  0.00    -0.238 OA 
HETATM   10  N   UNL     1      -9.068  13.090  66.303  1.00  0.00    -0.454 N  
HETATM   11  H   UNL     1      -8.192  13.189  65.790  1.00  0.00     0.000 HD 
BRANCH  10  12
HETATM   12  C   UNL     1      -9.529  14.234  67.004  1.00  0.00    -0.254 A  
HETATM   13  C   UNL     1      -9.243  14.411  68.368  1.00  0.00    -0.195 A  
HETATM   14  C   UNL     1      -9.686  15.533  69.072  1.00  0.00    -0.237 A  
HETATM   15  C   UNL     1     -10.440  16.501  68.427  1.00  0.00    -0.307 A  
HETATM   16  C   UNL     1     -10.753  16.340  67.079  1.00  0.00    -0.233 A  
HETATM   17  C   UNL     1     -10.304  15.214  66.353  1.00  0.00    -0.292 A  
HETATM   18  C   UNL     1     -10.709  15.131  64.904  1.00  0.00    -0.421 C  
ENDBRANCH  10  12
ENDBRANCH   6   8
ENDBRANCH   4   6
ENDBRANCH   3   4
ENDBRANCH   2   3
TORSDOF 5
ENDMDL
MODEL      244
REMARK 921   NORMALIZED FREE ENERGY PREDICTED BY IDOCK:   -3.10 KCAL/MOL
REMARK 922        TOTAL FREE ENERGY PREDICTED BY IDOCK:   -4.34 KCAL/MOL
REMARK 923 INTER-LIGAND FREE ENERGY PREDICTED BY IDOCK:   -3.99 KCAL/MOL
REMARK 924 INTRA-LIGAND FREE ENERGY PREDICTED BY IDOCK:   -0.35 KCAL/MOL
REMARK 927      BINDING AFFINITY PREDICTED BY RF-SCORE:    0.00 PKD
ROOT
HETATM    1  C   UNL     1      -8.990  17.194  66.434  1.00  0.00    -0.291 C  
HETATM    2  C   UNL     1     -10.468  16.912  66.204  1.00  0.00    -0.276 C  
ENDROOT
BRANCH   2   3
HETATM    3  C   UNL     1     -10.673  15.896  65.081  1.00  0.00    -0.429 C  
BRANCH   3   4
HETATM    4  N   UNL     1     -11.555  14.817  65.543  1.00  0.00    -0.330 NA 
HETATM    5  H   UNL     1     -11.666  14.094  64.832  1.00  0.00     0.000 HD 
BRANCH   4   6
HETATM    6  C   UNL     1     -11.086  14.246  66.831  1.00  0.00    -0.312 C  
HETATM    7  C   UNL     1     -12.129  14.344  67.943  1.00  0.00    -0.280 C  
BRANCH   6   8
HETATM    8  C   UNL     1     -10.691  12.762  66.642  1.00  0.00    -0.261 C  
HETATM    9  O   UNL     1     -11.418  11.885  67.104  1.00  0.00    -0.338 OA 
HETATM   10  N   UNL     1      -9.551  12.564  65.874  1.00  0.00    -0.383 N  
HETATM   11  H   UNL     1      -9.111  13.396  65.480  1.00  0.00     0.000 HD 
BRANCH  10  12
HETATM   12  C   UNL     1      -8.936  11.319  65.581  1.00  0.00    -0.163 A  
HETATM   13  C   UNL     1      -9.517  10.420  64.672  1.00  0.00    -0.336 A  
HETATM   14  C   UNL     1      -8.923   9.192  64.371  1.00  0.00    -0.104 A  
HETATM   15  C   UNL     1      -7.735   8.830  64.986  1.00  0.00    -0.105 A  
HETATM   16  C   UNL     1      -7.148   9.695  65.906  1.00  0.00    -0.098 A  
HETATM   17  C   UNL     1      -7.734  10.944  66.213  1.00  0.00    -0.147 A  
HETATM   18  C   UNL     1      -7.024  11.799  67.231  1.00  0.00    -0.138 C  
ENDBRANCH  10  12
ENDBRANCH   6   8
ENDBRANCH   4   6
ENDBRANCH   3   4
ENDBRANCH   2   3
TORSDOF 5
ENDMDL
MODEL      245
REMARK 921   NORMALIZED FREE ENERGY PREDICTED BY IDOCK:   -3.09 KCAL/MOL
REMARK 922        TOTAL FREE ENERGY PREDICTED BY IDOCK:   -4.33 KCAL/MOL
REMARK 923 INTER-LIGAND FREE ENERGY PREDICTED BY IDOCK:   -3.98 KCAL/MOL
REMARK 924 INTRA-LIGAND FREE ENERGY PREDICTED BY IDOCK:   -0.35 KCAL/MOL
REMARK 927      BINDING AFFINITY PREDICTED BY RF-SCORE:    0.00 PKD
ROOT
HETATM    1  C   UNL     1      -9.237   7.723  71.287  1.00  0.00    -0.158 C  
HETATM    2  C   UNL     1      -8.883   7.432  69.835  1.00  0.00    -0.141 C  
ENDROOT
BRANCH   2   3
HETATM    3  C   UNL     1      -7.758   8.342  69.344  1.00  0.00    -0.097 C  
BRANCH   3   4
HETATM    4  N   UNL     1      -8.202   9.081  68.155  1.00  0.00    -0.112 NA 
HETATM    5  H   UNL     1      -8.806   8.510  67.565  1.00  0.00     0.000 HD 
BRANCH   4   6
HETATM    6  C   UNL     1      -8.856  10.362  68.524  1.00  0.00    -0.142 C  
HETATM    7  C   UNL     1      -7.890  11.545  68.530  1.00  0.00    -0.140 C  
BRANCH   6   8
HETATM    8  C   UNL     1     -10.017  10.666  67.550  1.00  0.00    -0.171 C  
HETATM    9  O   UNL     1     -11.053  10.009  67.627  1.00  0.00    -0.285 OA 
HETATM   10  N   UNL     1      -9.790  11.744  66.703  1.00  0.00    -0.199 N  
HETATM   11  H   UNL     1      -8.913  12.250  66.828  1.00  0.00     0.000 HD 
BRANCH  10  12
HETATM   12  C   UNL     1     -10.656  12.213  65.682  1.00  0.00    -0.262 A  
HETATM   13  C   UNL     1     -11.138  11.348  64.687  1.00  0.00    -0.277 A  
HETATM   14  C   UNL     1     -11.994  11.793  63.677  1.00  0.00    -0.490 A  
HETATM   15  C   UNL     1     -12.380  13.124  63.634  1.00  0.00    -0.482 A  
HETATM   16  C   UNL     1     -11.900  14.007  64.598  1.00  0.00    -0.433 A  
HETATM   17  C   UNL     1     -11.040  13.568  65.630  1.00  0.00    -0.299 A  
HETATM   18  C   UNL     1     -10.570  14.607  66.615  1.00  0.00    -0.289 C  
ENDBRANCH  10  12
ENDBRANCH   6   8
ENDBRANCH   4   6
ENDBRANCH   3   4
ENDBRANCH   2   3
TORSDOF 5
ENDMDL
MODEL      246
REMARK 921   NORMALIZED FREE ENERGY PREDICTED BY IDOCK:   -3.08 KCAL/MOL
REMARK 922        TOTAL FREE ENERGY PREDICTED BY IDOCK:   -4.32 KCAL/MOL
REMARK 923 INTER-LIGAND FREE ENERGY PREDICTED BY IDOCK:   -3.88 KCAL/MOL
REMARK 924 INTRA-LIGAND FREE ENERGY PREDICTED BY IDOCK:   -0.44 KCAL/MOL
REMARK 927      BINDING AFFINITY PREDICTED BY RF-SCORE:    0.00 PKD
ROOT
HETATM    1  C   UNL     1     -11.905  11.009  69.367  1.00  0.00    -0.407 C  
HETATM    2  C   UNL     1     -12.525  10.975  70.756  1.00  0.00    -0.491 C  
ENDROOT
BRANCH   2   3
HETATM    3  C   UNL     1     -11.962   9.824  71.589  1.00  0.00    -0.375 C  
BRANCH   3   4
HETATM    4  N   UNL     1     -10.649   9.428  71.065  1.00  0.00    -0.308 NA 
HETATM    5  H   UNL     1      -9.942  10.140  71.253  1.00  0.00     0.000 HD 
BRANCH   4   6
HETATM    6  C   UNL     1     -10.234   8.100  71.582  1.00  0.00    -0.206 C  
HETATM    7  C   UNL     1     -11.052   7.650  72.792  1.00  0.00    -0.437 C  
BRANCH   6   8
HETATM    8  C   UNL     1     -10.356   7.033  70.469  1.00  0.00    -0.201 C  
HETATM    9  O   UNL     1     -11.355   7.025  69.753  1.00  0.00    -0.249 OA 
HETATM   10  N   UNL     1      -9.245   6.209  70.339  1.00  0.00    -0.153 N  
HETATM   11  H   UNL     1      -8.453   6.405  70.951  1.00  0.00     0.000 HD 
BRANCH  10  12
HETATM   12  C   UNL     1      -9.103   5.121  69.441  1.00  0.00    -0.108 A  
HETATM   13  C   UNL     1      -9.540   3.832  69.788  1.00  0.00    -0.253 A  
HETATM   14  C   UNL     1      -9.410   2.751  68.914  1.00  0.00    -0.220 A  
HETATM   15  C   UNL     1      -8.825   2.933  67.670  1.00  0.00    -0.163 A  
HETATM   16  C   UNL     1      -8.365   4.198  67.309  1.00  0.00    -0.099 A  
HETATM   17  C   UNL     1      -8.498   5.302  68.181  1.00  0.00    -0.096 A  
HETATM   18  C   UNL     1      -7.956   6.623  67.697  1.00  0.00    -0.115 C  
ENDBRANCH  10  12
ENDBRANCH   6   8
ENDBRANCH   4   6
ENDBRANCH   3   4
ENDBRANCH   2   3
TORSDOF 5
ENDMDL
MODEL      247
REMARK 921   NORMALIZED FREE ENERGY PREDICTED BY IDOCK:   -3.07 KCAL/MOL
REMARK 922        TOTAL FREE ENERGY PREDICTED BY IDOCK:   -4.31 KCAL/MOL
REMARK 923 INTER-LIGAND FREE ENERGY PREDICTED BY IDOCK:   -3.93 KCAL/MOL
REMARK 924 INTRA-LIGAND FREE ENERGY PREDICTED BY IDOCK:   -0.39 KCAL/MOL
REMARK 927      BINDING AFFINITY PREDICTED BY RF-SCORE:    0.00 PKD
ROOT
HETATM    1  C   UNL     1      -9.839   3.365  72.186  1.00  0.00    -0.236 C  
HETATM    2  C   UNL     1     -10.320   4.061  73.450  1.00  0.00    -0.232 C  
ENDROOT
BRANCH   2   3
HETATM    3  C   UNL     1     -11.284   5.201  73.125  1.00  0.00    -0.330 C  
BRANCH   3   4
HETATM    4  N   UNL     1     -10.706   6.055  72.080  1.00  0.00    -0.226 NA 
HETATM    5  H   UNL     1      -9.859   5.644  71.688  1.00  0.00     0.000 HD 
BRANCH   4   6
HETATM    6  C   UNL     1     -11.699   6.365  71.021  1.00  0.00    -0.296 C  
HETATM    7  C   UNL     1     -12.969   7.018  71.567  1.00  0.00    -0.411 C  
BRANCH   6   8
HETATM    8  C   UNL     1     -11.072   7.298  69.959  1.00  0.00    -0.240 C  
HETATM    9  O   UNL     1     -10.745   6.832  68.870  1.00  0.00    -0.215 OA 
HETATM   10  N   UNL     1     -11.010   8.635  70.332  1.00  0.00    -0.235 N  
HETATM   11  H   UNL     1     -11.413   8.879  71.237  1.00  0.00     0.000 HD 
BRANCH  10  12
HETATM   12  C   UNL     1     -10.444   9.696  69.580  1.00  0.00    -0.229 A  
HETATM   13  C   UNL     1     -11.234  10.484  68.728  1.00  0.00    -0.317 A  
HETATM   14  C   UNL     1     -10.693  11.534  67.984  1.00  0.00    -0.241 A  
HETATM   15  C   UNL     1      -9.337  11.813  68.067  1.00  0.00    -0.184 A  
HETATM   16  C   UNL     1      -8.527  11.034  68.890  1.00  0.00    -0.124 A  
HETATM   17  C   UNL     1      -9.064   9.974  69.654  1.00  0.00    -0.230 A  
HETATM   18  C   UNL     1      -8.098   9.187  70.503  1.00  0.00    -0.182 C  
ENDBRANCH  10  12
ENDBRANCH   6   8
ENDBRANCH   4   6
ENDBRANCH   3   4
ENDBRANCH   2   3
TORSDOF 5
ENDMDL
MODEL      248
REMARK 921   NORMALIZED FREE ENERGY PREDICTED BY IDOCK:   -3.07 KCAL/MOL
REMARK 922        TOTAL FREE ENERGY PREDICTED BY IDOCK:   -4.30 KCAL/MOL
REMARK 923 INTER-LIGAND FREE ENERGY PREDICTED BY IDOCK:   -4.68 KCAL/MOL
REMARK 924 INTRA-LIGAND FREE ENERGY PREDICTED BY IDOCK:    0.38 KCAL/MOL
REMARK 927      BINDING AFFINITY PREDICTED BY RF-SCORE:    0.00 PKD
ROOT
HETATM    1  C   UNL     1      -9.516  16.712  65.815  1.00  0.00    -0.104 C  
HETATM    2  C   UNL     1     -10.509  15.772  65.148  1.00  0.00    -0.394 C  
ENDROOT
BRANCH   2   3
HETATM    3  C   UNL     1     -10.424  14.364  65.735  1.00  0.00    -0.318 C  
BRANCH   3   4
HETATM    4  N   UNL     1     -11.547  14.142  66.655  1.00  0.00    -0.366 NA 
HETATM    5  H   UNL     1     -12.220  14.907  66.613  1.00  0.00     0.000 HD 
BRANCH   4   6
HETATM    6  C   UNL     1     -12.198  12.831  66.412  1.00  0.00    -0.172 C  
HETATM    7  C   UNL     1     -12.358  12.511  64.927  1.00  0.00    -0.539 C  
BRANCH   6   8
HETATM    8  C   UNL     1     -11.386  11.700  67.085  1.00  0.00    -0.306 C  
HETATM    9  O   UNL     1     -10.784  10.893  66.380  1.00  0.00    -0.249 OA 
HETATM   10  N   UNL     1     -11.357  11.760  68.473  1.00  0.00    -0.247 N  
HETATM   11  H   UNL     1     -11.831  12.551  68.909  1.00  0.00     0.000 HD 
BRANCH  10  12
HETATM   12  C   UNL     1     -10.733  10.831  69.345  1.00  0.00    -0.233 A  
HETATM   13  C   UNL     1     -11.463  10.182  70.354  1.00  0.00    -0.400 A  
HETATM   14  C   UNL     1     -10.865   9.263  71.219  1.00  0.00    -0.417 A  
HETATM   15  C   UNL     1      -9.513   8.980  71.100  1.00  0.00    -0.348 A  
HETATM   16  C   UNL     1      -8.762   9.624  70.119  1.00  0.00    -0.263 A  
HETATM   17  C   UNL     1      -9.357  10.551  69.233  1.00  0.00    -0.177 A  
HETATM   18  C   UNL     1      -8.453  11.200  68.217  1.00  0.00    -0.145 C  
ENDBRANCH  10  12
ENDBRANCH   6   8
ENDBRANCH   4   6
ENDBRANCH   3   4
ENDBRANCH   2   3
TORSDOF 5
ENDMDL
MODEL      249
REMARK 921   NORMALIZED FREE ENERGY PREDICTED BY IDOCK:   -3.05 KCAL/MOL
REMARK 922        TOTAL FREE ENERGY PREDICTED BY IDOCK:   -4.28 KCAL/MOL
REMARK 923 INTER-LIGAND FREE ENERGY PREDICTED BY IDOCK:   -4.03 KCAL/MOL
REMARK 924 INTRA-LIGAND FREE ENERGY PREDICTED BY IDOCK:   -0.25 KCAL/MOL
REMARK 927      BINDING AFFINITY PREDICTED BY RF-SCORE:    0.00 PKD
ROOT
HETATM    1  C   UNL     1      -8.756   8.348  65.582  1.00  0.00    -0.204 C  
HETATM    2  C   UNL     1      -7.736   9.462  65.769  1.00  0.00    -0.099 C  
ENDROOT
BRANCH   2   3
HETATM    3  C   UNL     1      -7.645   9.893  67.233  1.00  0.00    -0.088 C  
BRANCH   3   4
HETATM    4  N   UNL     1      -6.942  11.179  67.327  1.00  0.00    -0.089 NA 
HETATM    5  H   UNL     1      -6.805  11.598  66.407  1.00  0.00     0.000 HD 
BRANCH   4   6
HETATM    6  C   UNL     1      -7.637  12.111  68.251  1.00  0.00    -0.132 C  
HETATM    7  C   UNL     1      -6.833  13.380  68.533  1.00  0.00    -0.099 C  
BRANCH   6   8
HETATM    8  C   UNL     1      -9.014  12.508  67.670  1.00  0.00    -0.185 C  
HETATM    9  O   UNL     1     -10.025  12.321  68.344  1.00  0.00    -0.215 OA 
HETATM   10  N   UNL     1      -8.957  13.131  66.429  1.00  0.00    -0.452 N  
HETATM   11  H   UNL     1      -8.029  13.301  66.042  1.00  0.00     0.000 HD 
BRANCH  10  12
HETATM   12  C   UNL     1     -10.062  13.554  65.646  1.00  0.00    -0.278 A  
HETATM   13  C   UNL     1     -10.319  14.918  65.433  1.00  0.00    -0.413 A  
HETATM   14  C   UNL     1     -11.400  15.351  64.663  1.00  0.00    -0.361 A  
HETATM   15  C   UNL     1     -12.260  14.424  64.094  1.00  0.00    -0.393 A  
HETATM   16  C   UNL     1     -12.038  13.065  64.306  1.00  0.00    -0.480 A  
HETATM   17  C   UNL     1     -10.943  12.614  65.077  1.00  0.00    -0.323 A  
HETATM   18  C   UNL     1     -10.801  11.123  65.254  1.00  0.00    -0.222 C  
ENDBRANCH  10  12
ENDBRANCH   6   8
ENDBRANCH   4   6
ENDBRANCH   3   4
ENDBRANCH   2   3
TORSDOF 5
ENDMDL
MODEL      250
REMARK 921   NORMALIZED FREE ENERGY PREDICTED BY IDOCK:   -3.04 KCAL/MOL
REMARK 922        TOTAL FREE ENERGY PREDICTED BY IDOCK:   -4.27 KCAL/MOL
REMARK 923 INTER-LIGAND FREE ENERGY PREDICTED BY IDOCK:   -3.74 KCAL/MOL
REMARK 924 INTRA-LIGAND FREE ENERGY PREDICTED BY IDOCK:   -0.52 KCAL/MOL
REMARK 927      BINDING AFFINITY PREDICTED BY RF-SCORE:    0.00 PKD
ROOT
HETATM    1  C   UNL     1     -10.645  16.743  69.216  1.00  0.00    -0.336 C  
HETATM    2  C   UNL     1     -11.320  15.590  68.487  1.00  0.00    -0.356 C  
ENDROOT
BRANCH   2   3
HETATM    3  C   UNL     1     -10.999  14.250  69.147  1.00  0.00    -0.261 C  
BRANCH   3   4
HETATM    4  N   UNL     1      -9.556  13.989  69.060  1.00  0.00    -0.408 NA 
HETATM    5  H   UNL     1      -9.311  13.098  69.492  1.00  0.00     0.000 HD 
BRANCH   4   6
HETATM    6  C   UNL     1      -9.074  14.063  67.658  1.00  0.00    -0.192 C  
HETATM    7  C   UNL     1      -7.574  14.338  67.557  1.00  0.00    -0.202 C  
BRANCH   6   8
HETATM    8  C   UNL     1      -9.394  12.745  66.914  1.00  0.00    -0.234 C  
HETATM    9  O   UNL     1     -10.002  12.792  65.847  1.00  0.00    -0.267 OA 
HETATM   10  N   UNL     1      -8.874  11.605  67.515  1.00  0.00    -0.154 N  
HETATM   11  H   UNL     1      -8.307  11.744  68.352  1.00  0.00     0.000 HD 
BRANCH  10  12
HETATM   12  C   UNL     1      -9.052  10.267  67.081  1.00  0.00    -0.142 A  
HETATM   13  C   UNL     1     -10.218   9.551  67.398  1.00  0.00    -0.285 A  
HETATM   14  C   UNL     1     -10.411   8.234  66.976  1.00  0.00    -0.384 A  
HETATM   15  C   UNL     1      -9.430   7.596  66.233  1.00  0.00    -0.176 A  
HETATM   16  C   UNL     1      -8.256   8.277  65.921  1.00  0.00    -0.119 A  
HETATM   17  C   UNL     1      -8.052   9.613  66.335  1.00  0.00    -0.112 A  
HETATM   18  C   UNL     1      -6.742  10.253  65.955  1.00  0.00    -0.117 C  
ENDBRANCH  10  12
ENDBRANCH   6   8
ENDBRANCH   4   6
ENDBRANCH   3   4
ENDBRANCH   2   3
TORSDOF 5
ENDMDL
MODEL      251
REMARK 921   NORMALIZED FREE ENERGY PREDICTED BY IDOCK:   -3.04 KCAL/MOL
REMARK 922        TOTAL FREE ENERGY PREDICTED BY IDOCK:   -4.27 KCAL/MOL
REMARK 923 INTER-LIGAND FREE ENERGY PREDICTED BY IDOCK:   -4.09 KCAL/MOL
REMARK 924 INTRA-LIGAND FREE ENERGY PREDICTED BY IDOCK:   -0.17 KCAL/MOL
REMARK 927      BINDING AFFINITY PREDICTED BY RF-SCORE:    0.00 PKD
ROOT
HETATM    1  C   UNL     1     -11.496  12.038  69.309  1.00  0.00    -0.361 C  
HETATM    2  C   UNL     1     -12.226  11.552  70.552  1.00  0.00    -0.469 C  
ENDROOT
BRANCH   2   3
HETATM    3  C   UNL     1     -11.792  10.137  70.935  1.00  0.00    -0.374 C  
BRANCH   3   4
HETATM    4  N   UNL     1     -10.407   9.910  70.505  1.00  0.00    -0.354 NA 
HETATM    5  H   UNL     1      -9.842  10.754  70.604  1.00  0.00     0.000 HD 
BRANCH   4   6
HETATM    6  C   UNL     1      -9.796   8.762  71.221  1.00  0.00    -0.266 C  
HETATM    7  C   UNL     1     -10.716   8.166  72.286  1.00  0.00    -0.381 C  
BRANCH   6   8
HETATM    8  C   UNL     1      -9.408   7.653  70.216  1.00  0.00    -0.157 C  
HETATM    9  O   UNL     1      -8.618   7.915  69.311  1.00  0.00    -0.135 OA 
HETATM   10  N   UNL     1      -9.954   6.406  70.495  1.00  0.00    -0.183 N  
HETATM   11  H   UNL     1     -10.517   6.330  71.342  1.00  0.00     0.000 HD 
BRANCH  10  12
HETATM   12  C   UNL     1      -9.807   5.228  69.719  1.00  0.00    -0.211 A  
HETATM   13  C   UNL     1      -9.802   5.280  68.316  1.00  0.00    -0.206 A  
HETATM   14  C   UNL     1      -9.655   4.130  67.537  1.00  0.00    -0.219 A  
HETATM   15  C   UNL     1      -9.521   2.893  68.150  1.00  0.00    -0.220 A  
HETATM   16  C   UNL     1      -9.542   2.811  69.541  1.00  0.00    -0.055 A  
HETATM   17  C   UNL     1      -9.682   3.969  70.339  1.00  0.00    -0.263 A  
HETATM   18  C   UNL     1      -9.705   3.768  71.833  1.00  0.00    -0.237 C  
ENDBRANCH  10  12
ENDBRANCH   6   8
ENDBRANCH   4   6
ENDBRANCH   3   4
ENDBRANCH   2   3
TORSDOF 5
ENDMDL
MODEL      252
REMARK 921   NORMALIZED FREE ENERGY PREDICTED BY IDOCK:   -3.03 KCAL/MOL
REMARK 922        TOTAL FREE ENERGY PREDICTED BY IDOCK:   -4.26 KCAL/MOL
REMARK 923 INTER-LIGAND FREE ENERGY PREDICTED BY IDOCK:   -3.77 KCAL/MOL
REMARK 924 INTRA-LIGAND FREE ENERGY PREDICTED BY IDOCK:   -0.49 KCAL/MOL
REMARK 927      BINDING AFFINITY PREDICTED BY RF-SCORE:    0.00 PKD
ROOT
HETATM    1  C   UNL     1     -12.999  10.266  71.032  1.00  0.00    -0.488 C  
HETATM    2  C   UNL     1     -13.282   9.322  72.192  1.00  0.00    -0.535 C  
ENDROOT
BRANCH   2   3
HETATM    3  C   UNL     1     -14.066   8.094  71.732  1.00  0.00    -0.439 C  
BRANCH   3   4
HETATM    4  N   UNL     1     -13.194   7.217  70.940  1.00  0.00    -0.583 NA 
HETATM    5  H   UNL     1     -13.096   7.555  69.982  1.00  0.00     0.000 HD 
BRANCH   4   6
HETATM    6  C   UNL     1     -11.871   7.035  71.590  1.00  0.00    -0.313 C  
HETATM    7  C   UNL     1     -11.825   5.823  72.518  1.00  0.00    -0.222 C  
BRANCH   6   8
HETATM    8  C   UNL     1     -10.767   6.890  70.517  1.00  0.00    -0.235 C  
HETATM    9  O   UNL     1     -10.995   7.259  69.368  1.00  0.00    -0.217 OA 
HETATM   10  N   UNL     1      -9.556   6.408  71.001  1.00  0.00    -0.175 N  
HETATM   11  H   UNL     1      -9.498   6.236  72.004  1.00  0.00     0.000 HD 
BRANCH  10  12
HETATM   12  C   UNL     1      -8.394   6.130  70.237  1.00  0.00    -0.125 A  
HETATM   13  C   UNL     1      -7.520   7.159  69.848  1.00  0.00    -0.086 A  
HETATM   14  C   UNL     1      -6.369   6.903  69.099  1.00  0.00    -0.028 A  
HETATM   15  C   UNL     1      -6.072   5.605  68.711  1.00  0.00    -0.025 A  
HETATM   16  C   UNL     1      -6.932   4.569  69.068  1.00  0.00    -0.051 A  
HETATM   17  C   UNL     1      -8.095   4.814  69.833  1.00  0.00    -0.069 A  
HETATM   18  C   UNL     1      -8.963   3.625  70.155  1.00  0.00    -0.178 C  
ENDBRANCH  10  12
ENDBRANCH   6   8
ENDBRANCH   4   6
ENDBRANCH   3   4
ENDBRANCH   2   3
TORSDOF 5
ENDMDL
MODEL      253
REMARK 921   NORMALIZED FREE ENERGY PREDICTED BY IDOCK:   -3.01 KCAL/MOL
REMARK 922        TOTAL FREE ENERGY PREDICTED BY IDOCK:   -4.23 KCAL/MOL
REMARK 923 INTER-LIGAND FREE ENERGY PREDICTED BY IDOCK:   -3.76 KCAL/MOL
REMARK 924 INTRA-LIGAND FREE ENERGY PREDICTED BY IDOCK:   -0.47 KCAL/MOL
REMARK 927      BINDING AFFINITY PREDICTED BY RF-SCORE:    0.00 PKD
ROOT
HETATM    1  C   UNL     1      -9.863  10.429  63.982  1.00  0.00    -0.355 C  
HETATM    2  C   UNL     1      -9.824  10.324  65.500  1.00  0.00    -0.347 C  
ENDROOT
BRANCH   2   3
HETATM    3  C   UNL     1      -8.458  10.732  66.051  1.00  0.00    -0.169 C  
BRANCH   3   4
HETATM    4  N   UNL     1      -8.018   9.756  67.057  1.00  0.00    -0.105 NA 
HETATM    5  H   UNL     1      -7.128   9.330  66.799  1.00  0.00     0.000 HD 
BRANCH   4   6
HETATM    6  C   UNL     1      -7.958  10.362  68.411  1.00  0.00    -0.110 C  
HETATM    7  C   UNL     1      -7.939  11.889  68.381  1.00  0.00    -0.154 C  
BRANCH   6   8
HETATM    8  C   UNL     1      -9.163   9.891  69.259  1.00  0.00    -0.200 C  
HETATM    9  O   UNL     1     -10.119  10.648  69.414  1.00  0.00    -0.218 OA 
HETATM   10  N   UNL     1      -9.070   8.581  69.712  1.00  0.00    -0.151 N  
HETATM   11  H   UNL     1      -8.252   8.049  69.416  1.00  0.00     0.000 HD 
BRANCH  10  12
HETATM   12  C   UNL     1     -10.001   7.908  70.545  1.00  0.00    -0.191 A  
HETATM   13  C   UNL     1     -11.159   7.320  70.011  1.00  0.00    -0.262 A  
HETATM   14  C   UNL     1     -12.083   6.651  70.816  1.00  0.00    -0.364 A  
HETATM   15  C   UNL     1     -11.874   6.566  72.184  1.00  0.00    -0.348 A  
HETATM   16  C   UNL     1     -10.743   7.158  72.742  1.00  0.00    -0.325 A  
HETATM   17  C   UNL     1      -9.796   7.830  71.936  1.00  0.00    -0.217 A  
HETATM   18  C   UNL     1      -8.614   8.445  72.642  1.00  0.00    -0.241 C  
ENDBRANCH  10  12
ENDBRANCH   6   8
ENDBRANCH   4   6
ENDBRANCH   3   4
ENDBRANCH   2   3
TORSDOF 5
ENDMDL
MODEL      254
REMARK 921   NORMALIZED FREE ENERGY PREDICTED BY IDOCK:   -3.00 KCAL/MOL
REMARK 922        TOTAL FREE ENERGY PREDICTED BY IDOCK:   -4.22 KCAL/MOL
REMARK 923 INTER-LIGAND FREE ENERGY PREDICTED BY IDOCK:   -3.79 KCAL/MOL
REMARK 924 INTRA-LIGAND FREE ENERGY PREDICTED BY IDOCK:   -0.43 KCAL/MOL
REMARK 927      BINDING AFFINITY PREDICTED BY RF-SCORE:    0.00 PKD
ROOT
HETATM    1  C   UNL     1      -5.143  10.631  70.050  1.00  0.00    -0.040 C  
HETATM    2  C   UNL     1      -6.294  10.078  69.223  1.00  0.00    -0.045 C  
ENDROOT
BRANCH   2   3
HETATM    3  C   UNL     1      -7.296   9.325  70.097  1.00  0.00    -0.096 C  
BRANCH   3   4
HETATM    4  N   UNL     1      -8.411  10.212  70.449  1.00  0.00    -0.357 NA 
HETATM    5  H   UNL     1      -8.117  11.189  70.476  1.00  0.00     0.000 HD 
BRANCH   4   6
HETATM    6  C   UNL     1      -9.568  10.019  69.539  1.00  0.00    -0.230 C  
HETATM    7  C   UNL     1     -10.915  10.157  70.248  1.00  0.00    -0.380 C  
BRANCH   6   8
HETATM    8  C   UNL     1      -9.507  11.036  68.376  1.00  0.00    -0.182 C  
HETATM    9  O   UNL     1      -9.251  10.636  67.242  1.00  0.00    -0.143 OA 
HETATM   10  N   UNL     1      -9.835  12.338  68.733  1.00  0.00    -0.414 N  
HETATM   11  H   UNL     1     -10.120  12.492  69.701  1.00  0.00     0.000 HD 
BRANCH  10  12
HETATM   12  C   UNL     1      -9.815  13.476  67.887  1.00  0.00    -0.235 A  
HETATM   13  C   UNL     1      -8.664  14.271  67.768  1.00  0.00    -0.179 A  
HETATM   14  C   UNL     1      -8.626  15.393  66.937  1.00  0.00    -0.291 A  
HETATM   15  C   UNL     1      -9.751  15.753  66.210  1.00  0.00    -0.328 A  
HETATM   16  C   UNL     1     -10.913  14.992  66.324  1.00  0.00    -0.338 A  
HETATM   17  C   UNL     1     -10.960  13.850  67.156  1.00  0.00    -0.298 A  
HETATM   18  C   UNL     1     -12.270  13.105  67.217  1.00  0.00    -0.234 C  
ENDBRANCH  10  12
ENDBRANCH   6   8
ENDBRANCH   4   6
ENDBRANCH   3   4
ENDBRANCH   2   3
TORSDOF 5
ENDMDL
MODEL      255
REMARK 921   NORMALIZED FREE ENERGY PREDICTED BY IDOCK:   -2.99 KCAL/MOL
REMARK 922        TOTAL FREE ENERGY PREDICTED BY IDOCK:   -4.20 KCAL/MOL
REMARK 923 INTER-LIGAND FREE ENERGY PREDICTED BY IDOCK:   -3.73 KCAL/MOL
REMARK 924 INTRA-LIGAND FREE ENERGY PREDICTED BY IDOCK:   -0.47 KCAL/MOL
REMARK 927      BINDING AFFINITY PREDICTED BY RF-SCORE:    0.00 PKD
ROOT
HETATM    1  C   UNL     1      -9.666   3.972  69.965  1.00  0.00    -0.264 C  
HETATM    2  C   UNL     1      -9.221   4.270  68.541  1.00  0.00    -0.194 C  
ENDROOT
BRANCH   2   3
HETATM    3  C   UNL     1      -8.146   5.356  68.509  1.00  0.00    -0.095 C  
BRANCH   3   4
HETATM    4  N   UNL     1      -8.646   6.568  69.172  1.00  0.00    -0.129 NA 
HETATM    5  H   UNL     1      -8.347   6.610  70.146  1.00  0.00     0.000 HD 
BRANCH   4   6
HETATM    6  C   UNL     1      -8.255   7.793  68.430  1.00  0.00    -0.124 C  
HETATM    7  C   UNL     1      -7.686   7.494  67.044  1.00  0.00    -0.111 C  
BRANCH   6   8
HETATM    8  C   UNL     1      -9.472   8.735  68.281  1.00  0.00    -0.141 C  
HETATM    9  O   UNL     1     -10.583   8.340  68.627  1.00  0.00    -0.192 OA 
HETATM   10  N   UNL     1      -9.159  10.010  67.823  1.00  0.00    -0.131 N  
HETATM   11  H   UNL     1      -8.172  10.213  67.669  1.00  0.00     0.000 HD 
BRANCH  10  12
HETATM   12  C   UNL     1     -10.076  11.056  67.548  1.00  0.00    -0.180 A  
HETATM   13  C   UNL     1     -10.599  11.851  68.581  1.00  0.00    -0.259 A  
HETATM   14  C   UNL     1     -11.500  12.888  68.328  1.00  0.00    -0.348 A  
HETATM   15  C   UNL     1     -11.911  13.145  67.029  1.00  0.00    -0.435 A  
HETATM   16  C   UNL     1     -11.422  12.358  65.987  1.00  0.00    -0.431 A  
HETATM   17  C   UNL     1     -10.503  11.312  66.230  1.00  0.00    -0.308 A  
HETATM   18  C   UNL     1     -10.047  10.515  65.035  1.00  0.00    -0.390 C  
ENDBRANCH  10  12
ENDBRANCH   6   8
ENDBRANCH   4   6
ENDBRANCH   3   4
ENDBRANCH   2   3
TORSDOF 5
ENDMDL
MODEL      256
REMARK 921   NORMALIZED FREE ENERGY PREDICTED BY IDOCK:   -2.99 KCAL/MOL
REMARK 922        TOTAL FREE ENERGY PREDICTED BY IDOCK:   -4.20 KCAL/MOL
REMARK 923 INTER-LIGAND FREE ENERGY PREDICTED BY IDOCK:   -3.78 KCAL/MOL
REMARK 924 INTRA-LIGAND FREE ENERGY PREDICTED BY IDOCK:   -0.42 KCAL/MOL
REMARK 927      BINDING AFFINITY PREDICTED BY RF-SCORE:    0.00 PKD
ROOT
HETATM    1  C   UNL     1     -12.922  15.408  71.249  1.00  0.00    -0.541 C  
HETATM    2  C   UNL     1     -12.510  14.014  70.801  1.00  0.00    -0.442 C  
ENDROOT
BRANCH   2   3
HETATM    3  C   UNL     1     -12.080  14.004  69.335  1.00  0.00    -0.340 C  
BRANCH   3   4
HETATM    4  N   UNL     1     -12.060  12.624  68.833  1.00  0.00    -0.209 NA 
HETATM    5  H   UNL     1     -12.952  12.156  68.991  1.00  0.00     0.000 HD 
BRANCH   4   6
HETATM    6  C   UNL     1     -11.664  12.571  67.403  1.00  0.00    -0.366 C  
HETATM    7  C   UNL     1     -11.199  13.922  66.863  1.00  0.00    -0.324 C  
BRANCH   6   8
HETATM    8  C   UNL     1     -10.536  11.534  67.201  1.00  0.00    -0.224 C  
HETATM    9  O   UNL     1     -10.601  10.455  67.786  1.00  0.00    -0.212 OA 
HETATM   10  N   UNL     1      -9.563  11.913  66.284  1.00  0.00    -0.224 N  
HETATM   11  H   UNL     1      -9.703  12.805  65.809  1.00  0.00     0.000 HD 
BRANCH  10  12
HETATM   12  C   UNL     1      -8.396  11.184  65.941  1.00  0.00    -0.076 A  
HETATM   13  C   UNL     1      -7.198  11.358  66.652  1.00  0.00    -0.102 A  
HETATM   14  C   UNL     1      -6.040  10.646  66.330  1.00  0.00    -0.111 A  
HETATM   15  C   UNL     1      -6.054   9.746  65.275  1.00  0.00    -0.083 A  
HETATM   16  C   UNL     1      -7.225   9.568  64.541  1.00  0.00    -0.110 A  
HETATM   17  C   UNL     1      -8.404  10.277  64.862  1.00  0.00    -0.173 A  
HETATM   18  C   UNL     1      -9.612  10.019  63.998  1.00  0.00    -0.243 C  
ENDBRANCH  10  12
ENDBRANCH   6   8
ENDBRANCH   4   6
ENDBRANCH   3   4
ENDBRANCH   2   3
TORSDOF 5
ENDMDL
MODEL      257
REMARK 921   NORMALIZED FREE ENERGY PREDICTED BY IDOCK:   -2.98 KCAL/MOL
REMARK 922        TOTAL FREE ENERGY PREDICTED BY IDOCK:   -4.20 KCAL/MOL
REMARK 923 INTER-LIGAND FREE ENERGY PREDICTED BY IDOCK:   -3.71 KCAL/MOL
REMARK 924 INTRA-LIGAND FREE ENERGY PREDICTED BY IDOCK:   -0.49 KCAL/MOL
REMARK 927      BINDING AFFINITY PREDICTED BY RF-SCORE:    0.00 PKD
ROOT
HETATM    1  C   UNL     1      -9.937  11.141  63.324  1.00  0.00    -0.419 C  
HETATM    2  C   UNL     1     -10.253  10.602  64.711  1.00  0.00    -0.401 C  
ENDROOT
BRANCH   2   3
HETATM    3  C   UNL     1     -10.904  11.670  65.589  1.00  0.00    -0.276 C  
BRANCH   3   4
HETATM    4  N   UNL     1     -10.559  13.005  65.082  1.00  0.00    -0.302 NA 
HETATM    5  H   UNL     1     -11.062  13.218  64.220  1.00  0.00     0.000 HD 
BRANCH   4   6
HETATM    6  C   UNL     1     -10.780  14.051  66.112  1.00  0.00    -0.289 C  
HETATM    7  C   UNL     1     -12.249  14.199  66.506  1.00  0.00    -0.463 C  
BRANCH   6   8
HETATM    8  C   UNL     1      -9.949  13.736  67.377  1.00  0.00    -0.237 C  
HETATM    9  O   UNL     1     -10.531  13.524  68.439  1.00  0.00    -0.236 OA 
HETATM   10  N   UNL     1      -8.580  13.648  67.159  1.00  0.00    -0.265 N  
HETATM   11  H   UNL     1      -8.260  13.757  66.196  1.00  0.00     0.000 HD 
BRANCH  10  12
HETATM   12  C   UNL     1      -7.582  13.421  68.141  1.00  0.00    -0.138 A  
HETATM   13  C   UNL     1      -6.937  14.492  68.780  1.00  0.00    -0.104 A  
HETATM   14  C   UNL     1      -5.955  14.286  69.751  1.00  0.00    -0.120 A  
HETATM   15  C   UNL     1      -5.585  12.995  70.097  1.00  0.00    -0.134 A  
HETATM   16  C   UNL     1      -6.195  11.915  69.464  1.00  0.00    -0.117 A  
HETATM   17  C   UNL     1      -7.197  12.110  68.485  1.00  0.00    -0.102 A  
HETATM   18  C   UNL     1      -7.784  10.874  67.854  1.00  0.00    -0.104 C  
ENDBRANCH  10  12
ENDBRANCH   6   8
ENDBRANCH   4   6
ENDBRANCH   3   4
ENDBRANCH   2   3
TORSDOF 5
ENDMDL
MODEL      258
REMARK 921   NORMALIZED FREE ENERGY PREDICTED BY IDOCK:   -2.98 KCAL/MOL
REMARK 922        TOTAL FREE ENERGY PREDICTED BY IDOCK:   -4.19 KCAL/MOL
REMARK 923 INTER-LIGAND FREE ENERGY PREDICTED BY IDOCK:   -4.30 KCAL/MOL
REMARK 924 INTRA-LIGAND FREE ENERGY PREDICTED BY IDOCK:    0.11 KCAL/MOL
REMARK 927      BINDING AFFINITY PREDICTED BY RF-SCORE:    0.00 PKD
ROOT
HETATM    1  C   UNL     1     -10.354  17.152  69.688  1.00  0.00    -0.019 C  
HETATM    2  C   UNL     1     -10.739  16.025  68.740  1.00  0.00    -0.282 C  
ENDROOT
BRANCH   2   3
HETATM    3  C   UNL     1     -10.293  14.667  69.280  1.00  0.00    -0.173 C  
BRANCH   3   4
HETATM    4  N   UNL     1      -8.827  14.586  69.267  1.00  0.00    -0.395 NA 
HETATM    5  H   UNL     1      -8.494  13.768  69.778  1.00  0.00     0.000 HD 
BRANCH   4   6
HETATM    6  C   UNL     1      -8.293  14.616  67.882  1.00  0.00    -0.152 C  
HETATM    7  C   UNL     1      -6.774  14.460  67.825  1.00  0.00    -0.191 C  
BRANCH   6   8
HETATM    8  C   UNL     1      -8.945  13.498  67.036  1.00  0.00    -0.231 C  
HETATM    9  O   UNL     1      -8.760  12.324  67.349  1.00  0.00    -0.164 OA 
HETATM   10  N   UNL     1      -9.766  13.955  66.013  1.00  0.00    -0.430 N  
HETATM   11  H   UNL     1      -9.893  14.965  65.942  1.00  0.00     0.000 HD 
BRANCH  10  12
HETATM   12  C   UNL     1     -10.448  13.159  65.058  1.00  0.00    -0.342 A  
HETATM   13  C   UNL     1     -10.032  11.846  64.779  1.00  0.00    -0.262 A  
HETATM   14  C   UNL     1     -10.694  11.048  63.844  1.00  0.00    -0.310 A  
HETATM   15  C   UNL     1     -11.786  11.551  63.154  1.00  0.00     0.022 A  
HETATM   16  C   UNL     1     -12.207  12.857  63.397  1.00  0.00    -0.574 A  
HETATM   17  C   UNL     1     -11.550  13.672  64.347  1.00  0.00    -0.421 A  
HETATM   18  C   UNL     1     -12.079  15.073  64.525  1.00  0.00    -0.373 C  
ENDBRANCH  10  12
ENDBRANCH   6   8
ENDBRANCH   4   6
ENDBRANCH   3   4
ENDBRANCH   2   3
TORSDOF 5
ENDMDL
MODEL      259
REMARK 921   NORMALIZED FREE ENERGY PREDICTED BY IDOCK:   -2.95 KCAL/MOL
REMARK 922        TOTAL FREE ENERGY PREDICTED BY IDOCK:   -4.15 KCAL/MOL
REMARK 923 INTER-LIGAND FREE ENERGY PREDICTED BY IDOCK:   -3.66 KCAL/MOL
REMARK 924 INTRA-LIGAND FREE ENERGY PREDICTED BY IDOCK:   -0.49 KCAL/MOL
REMARK 927      BINDING AFFINITY PREDICTED BY RF-SCORE:    0.00 PKD
ROOT
HETATM    1  C   UNL     1      -7.404   4.840  67.104  1.00  0.00    -0.078 C  
HETATM    2  C   UNL     1      -7.869   5.570  65.853  1.00  0.00    -0.104 C  
ENDROOT
BRANCH   2   3
HETATM    3  C   UNL     1      -9.257   6.180  66.049  1.00  0.00    -0.095 C  
BRANCH   3   4
HETATM    4  N   UNL     1      -9.310   7.504  65.416  1.00  0.00    -0.173 NA 
HETATM    5  H   UNL     1     -10.253   7.729  65.099  1.00  0.00     0.000 HD 
BRANCH   4   6
HETATM    6  C   UNL     1      -8.772   8.558  66.314  1.00  0.00    -0.142 C  
HETATM    7  C   UNL     1      -7.513   9.224  65.763  1.00  0.00    -0.098 C  
BRANCH   6   8
HETATM    8  C   UNL     1      -9.846   9.642  66.564  1.00  0.00    -0.235 C  
HETATM    9  O   UNL     1     -10.910   9.322  67.090  1.00  0.00    -0.217 OA 
HETATM   10  N   UNL     1      -9.452  10.931  66.225  1.00  0.00    -0.188 N  
HETATM   11  H   UNL     1      -8.496  11.045  65.887  1.00  0.00     0.000 HD 
BRANCH  10  12
HETATM   12  C   UNL     1     -10.245  12.104  66.303  1.00  0.00    -0.223 A  
HETATM   13  C   UNL     1     -10.390  12.802  67.513  1.00  0.00    -0.219 A  
HETATM   14  C   UNL     1     -11.165  13.960  67.606  1.00  0.00    -0.316 A  
HETATM   15  C   UNL     1     -11.826  14.441  66.486  1.00  0.00    -0.406 A  
HETATM   16  C   UNL     1     -11.714  13.757  65.278  1.00  0.00    -0.349 A  
HETATM   17  C   UNL     1     -10.927  12.588  65.169  1.00  0.00    -0.332 A  
HETATM   18  C   UNL     1     -10.883  11.918  63.819  1.00  0.00    -0.481 C  
ENDBRANCH  10  12
ENDBRANCH   6   8
ENDBRANCH   4   6
ENDBRANCH   3   4
ENDBRANCH   2   3
TORSDOF 5
ENDMDL
MODEL      260
REMARK 921   NORMALIZED FREE ENERGY PREDICTED BY IDOCK:   -2.94 KCAL/MOL
REMARK 922        TOTAL FREE ENERGY PREDICTED BY IDOCK:   -4.14 KCAL/MOL
REMARK 923 INTER-LIGAND FREE ENERGY PREDICTED BY IDOCK:   -3.75 KCAL/MOL
REMARK 924 INTRA-LIGAND FREE ENERGY PREDICTED BY IDOCK:   -0.39 KCAL/MOL
REMARK 927      BINDING AFFINITY PREDICTED BY RF-SCORE:    0.00 PKD
ROOT
HETATM    1  C   UNL     1      -6.022  10.783  69.759  1.00  0.00    -0.071 C  
HETATM    2  C   UNL     1      -6.320  10.087  71.079  1.00  0.00     0.027 C  
ENDROOT
BRANCH   2   3
HETATM    3  C   UNL     1      -7.306   8.935  70.891  1.00  0.00    -0.097 C  
BRANCH   3   4
HETATM    4  N   UNL     1      -8.682   9.437  71.002  1.00  0.00    -0.296 NA 
HETATM    5  H   UNL     1      -8.722  10.448  70.871  1.00  0.00     0.000 HD 
BRANCH   4   6
HETATM    6  C   UNL     1      -9.595   8.732  70.068  1.00  0.00    -0.169 C  
HETATM    7  C   UNL     1     -10.707   7.967  70.786  1.00  0.00    -0.230 C  
BRANCH   6   8
HETATM    8  C   UNL     1     -10.234   9.740  69.085  1.00  0.00    -0.199 C  
HETATM    9  O   UNL     1     -10.845   9.317  68.106  1.00  0.00    -0.188 OA 
HETATM   10  N   UNL     1     -10.111  11.071  69.465  1.00  0.00    -0.441 N  
HETATM   11  H   UNL     1      -9.655  11.253  70.359  1.00  0.00     0.000 HD 
BRANCH  10  12
HETATM   12  C   UNL     1     -10.556  12.202  68.734  1.00  0.00    -0.201 A  
HETATM   13  C   UNL     1     -10.027  12.499  67.467  1.00  0.00    -0.201 A  
HETATM   14  C   UNL     1     -10.457  13.607  66.733  1.00  0.00    -0.270 A  
HETATM   15  C   UNL     1     -11.421  14.453  67.258  1.00  0.00    -0.377 A  
HETATM   16  C   UNL     1     -11.948  14.192  68.521  1.00  0.00    -0.367 A  
HETATM   17  C   UNL     1     -11.527  13.069  69.271  1.00  0.00    -0.348 A  
HETATM   18  C   UNL     1     -12.151  12.885  70.630  1.00  0.00    -0.321 C  
ENDBRANCH  10  12
ENDBRANCH   6   8
ENDBRANCH   4   6
ENDBRANCH   3   4
ENDBRANCH   2   3
TORSDOF 5
ENDMDL
MODEL      261
REMARK 921   NORMALIZED FREE ENERGY PREDICTED BY IDOCK:   -2.92 KCAL/MOL
REMARK 922        TOTAL FREE ENERGY PREDICTED BY IDOCK:   -4.11 KCAL/MOL
REMARK 923 INTER-LIGAND FREE ENERGY PREDICTED BY IDOCK:   -3.91 KCAL/MOL
REMARK 924 INTRA-LIGAND FREE ENERGY PREDICTED BY IDOCK:   -0.20 KCAL/MOL
REMARK 927      BINDING AFFINITY PREDICTED BY RF-SCORE:    0.00 PKD
ROOT
HETATM    1  C   UNL     1      -8.952   3.423  66.974  1.00  0.00    -0.174 C  
HETATM    2  C   UNL     1      -8.280   4.649  67.575  1.00  0.00    -0.101 C  
ENDROOT
BRANCH   2   3
HETATM    3  C   UNL     1      -9.306   5.605  68.183  1.00  0.00    -0.111 C  
BRANCH   3   4
HETATM    4  N   UNL     1      -9.042   5.767  69.619  1.00  0.00    -0.133 NA 
HETATM    5  H   UNL     1      -8.043   5.854  69.807  1.00  0.00     0.000 HD 
BRANCH   4   6
HETATM    6  C   UNL     1      -9.803   6.909  70.186  1.00  0.00    -0.177 C  
HETATM    7  C   UNL     1      -9.426   7.217  71.634  1.00  0.00    -0.159 C  
BRANCH   6   8
HETATM    8  C   UNL     1      -9.580   8.176  69.328  1.00  0.00    -0.164 C  
HETATM    9  O   UNL     1      -8.448   8.646  69.237  1.00  0.00    -0.120 OA 
HETATM   10  N   UNL     1     -10.713   8.626  68.661  1.00  0.00    -0.411 N  
HETATM   11  H   UNL     1     -11.560   8.067  68.765  1.00  0.00     0.000 HD 
BRANCH  10  12
HETATM   12  C   UNL     1     -10.809   9.785  67.849  1.00  0.00    -0.242 A  
HETATM   13  C   UNL     1     -10.214   9.831  66.578  1.00  0.00    -0.289 A  
HETATM   14  C   UNL     1     -10.302  10.963  65.765  1.00  0.00    -0.303 A  
HETATM   15  C   UNL     1     -10.982  12.085  66.213  1.00  0.00    -0.340 A  
HETATM   16  C   UNL     1     -11.566  12.072  67.478  1.00  0.00    -0.401 A  
HETATM   17  C   UNL     1     -11.490  10.930  68.307  1.00  0.00    -0.376 A  
HETATM   18  C   UNL     1     -12.145  11.026  69.661  1.00  0.00    -0.411 C  
ENDBRANCH  10  12
ENDBRANCH   6   8
ENDBRANCH   4   6
ENDBRANCH   3   4
ENDBRANCH   2   3
TORSDOF 5
ENDMDL
MODEL      262
REMARK 921   NORMALIZED FREE ENERGY PREDICTED BY IDOCK:   -2.90 KCAL/MOL
REMARK 922        TOTAL FREE ENERGY PREDICTED BY IDOCK:   -4.09 KCAL/MOL
REMARK 923 INTER-LIGAND FREE ENERGY PREDICTED BY IDOCK:   -3.61 KCAL/MOL
REMARK 924 INTRA-LIGAND FREE ENERGY PREDICTED BY IDOCK:   -0.48 KCAL/MOL
REMARK 927      BINDING AFFINITY PREDICTED BY RF-SCORE:    0.00 PKD
ROOT
HETATM    1  C   UNL     1      -6.214   8.614  66.256  1.00  0.00    -0.060 C  
HETATM    2  C   UNL     1      -6.022  10.082  65.902  1.00  0.00    -0.077 C  
ENDROOT
BRANCH   2   3
HETATM    3  C   UNL     1      -7.309  10.878  66.111  1.00  0.00    -0.103 C  
BRANCH   3   4
HETATM    4  N   UNL     1      -8.231  10.632  64.994  1.00  0.00    -0.309 NA 
HETATM    5  H   UNL     1      -8.007   9.761  64.511  1.00  0.00     0.000 HD 
BRANCH   4   6
HETATM    6  C   UNL     1      -9.646  10.657  65.442  1.00  0.00    -0.230 C  
HETATM    7  C   UNL     1      -9.964   9.577  66.475  1.00  0.00    -0.329 C  
BRANCH   6   8
HETATM    8  C   UNL     1      -9.991  12.040  66.039  1.00  0.00    -0.234 C  
HETATM    9  O   UNL     1     -10.093  13.009  65.289  1.00  0.00    -0.282 OA 
HETATM   10  N   UNL     1     -10.235  12.031  67.407  1.00  0.00    -0.199 N  
HETATM   11  H   UNL     1     -10.204  11.125  67.874  1.00  0.00     0.000 HD 
BRANCH  10  12
HETATM   12  C   UNL     1     -10.524  13.157  68.220  1.00  0.00    -0.250 A  
HETATM   13  C   UNL     1     -11.840  13.452  68.609  1.00  0.00    -0.397 A  
HETATM   14  C   UNL     1     -12.141  14.554  69.412  1.00  0.00    -0.328 A  
HETATM   15  C   UNL     1     -11.126  15.399  69.836  1.00  0.00    -0.304 A  
HETATM   16  C   UNL     1      -9.814  15.140  69.448  1.00  0.00    -0.216 A  
HETATM   17  C   UNL     1      -9.495  14.023  68.642  1.00  0.00    -0.142 A  
HETATM   18  C   UNL     1      -8.046  13.841  68.270  1.00  0.00    -0.150 C  
ENDBRANCH  10  12
ENDBRANCH   6   8
ENDBRANCH   4   6
ENDBRANCH   3   4
ENDBRANCH   2   3
TORSDOF 5
ENDMDL
MODEL      263
REMARK 921   NORMALIZED FREE ENERGY PREDICTED BY IDOCK:   -2.90 KCAL/MOL
REMARK 922        TOTAL FREE ENERGY PREDICTED BY IDOCK:   -4.09 KCAL/MOL
REMARK 923 INTER-LIGAND FREE ENERGY PREDICTED BY IDOCK:   -3.67 KCAL/MOL
REMARK 924 INTRA-LIGAND FREE ENERGY PREDICTED BY IDOCK:   -0.42 KCAL/MOL
REMARK 927      BINDING AFFINITY PREDICTED BY RF-SCORE:    0.00 PKD
ROOT
HETATM    1  C   UNL     1     -10.780  15.544  66.436  1.00  0.00    -0.303 C  
HETATM    2  C   UNL     1     -11.480  14.204  66.267  1.00  0.00    -0.358 C  
ENDROOT
BRANCH   2   3
HETATM    3  C   UNL     1     -10.632  13.059  66.820  1.00  0.00    -0.262 C  
BRANCH   3   4
HETATM    4  N   UNL     1     -11.484  12.130  67.574  1.00  0.00    -0.321 NA 
HETATM    5  H   UNL     1     -12.474  12.312  67.406  1.00  0.00     0.000 HD 
BRANCH   4   6
HETATM    6  C   UNL     1     -11.136  10.716  67.284  1.00  0.00    -0.243 C  
HETATM    7  C   UNL     1     -10.067  10.575  66.202  1.00  0.00    -0.306 C  
BRANCH   6   8
HETATM    8  C   UNL     1     -10.642  10.016  68.571  1.00  0.00    -0.215 C  
HETATM    9  O   UNL     1     -10.980  10.463  69.665  1.00  0.00    -0.239 OA 
HETATM   10  N   UNL     1      -9.901   8.861  68.350  1.00  0.00    -0.168 N  
HETATM   11  H   UNL     1      -9.787   8.568  67.380  1.00  0.00     0.000 HD 
BRANCH  10  12
HETATM   12  C   UNL     1      -9.286   8.051  69.338  1.00  0.00    -0.152 A  
HETATM   13  C   UNL     1      -8.083   8.440  69.949  1.00  0.00    -0.119 A  
HETATM   14  C   UNL     1      -7.467   7.655  70.926  1.00  0.00    -0.071 A  
HETATM   15  C   UNL     1      -8.037   6.450  71.306  1.00  0.00    -0.117 A  
HETATM   16  C   UNL     1      -9.220   6.031  70.701  1.00  0.00    -0.161 A  
HETATM   17  C   UNL     1      -9.858   6.820  69.717  1.00  0.00    -0.175 A  
HETATM   18  C   UNL     1     -11.127   6.270  69.118  1.00  0.00    -0.457 C  
ENDBRANCH  10  12
ENDBRANCH   6   8
ENDBRANCH   4   6
ENDBRANCH   3   4
ENDBRANCH   2   3
TORSDOF 5
ENDMDL
MODEL      264
REMARK 921   NORMALIZED FREE ENERGY PREDICTED BY IDOCK:   -2.88 KCAL/MOL
REMARK 922        TOTAL FREE ENERGY PREDICTED BY IDOCK:   -4.06 KCAL/MOL
REMARK 923 INTER-LIGAND FREE ENERGY PREDICTED BY IDOCK:   -3.68 KCAL/MOL
REMARK 924 INTRA-LIGAND FREE ENERGY PREDICTED BY IDOCK:   -0.38 KCAL/MOL
REMARK 927      BINDING AFFINITY PREDICTED BY RF-SCORE:    0.00 PKD
ROOT
HETATM    1  C   UNL     1     -11.741  15.338  69.878  1.00  0.00    -0.349 C  
HETATM    2  C   UNL     1     -12.315  14.199  69.047  1.00  0.00    -0.145 C  
ENDROOT
BRANCH   2   3
HETATM    3  C   UNL     1     -11.234  13.528  68.201  1.00  0.00    -0.272 C  
BRANCH   3   4
HETATM    4  N   UNL     1     -11.859  12.779  67.103  1.00  0.00    -0.374 NA 
HETATM    5  H   UNL     1     -12.838  13.041  66.982  1.00  0.00     0.000 HD 
BRANCH   4   6
HETATM    6  C   UNL     1     -11.096  12.930  65.838  1.00  0.00    -0.283 C  
HETATM    7  C   UNL     1     -10.532  14.337  65.647  1.00  0.00    -0.336 C  
BRANCH   6   8
HETATM    8  C   UNL     1      -9.933  11.912  65.793  1.00  0.00    -0.236 C  
HETATM    9  O   UNL     1      -8.806  12.274  66.123  1.00  0.00    -0.089 OA 
HETATM   10  N   UNL     1     -10.312  10.621  65.444  1.00  0.00    -0.260 N  
HETATM   11  H   UNL     1     -11.308  10.460  65.291  1.00  0.00     0.000 HD 
BRANCH  10  12
HETATM   12  C   UNL     1      -9.453   9.505  65.278  1.00  0.00    -0.258 A  
HETATM   13  C   UNL     1      -9.232   8.598  66.327  1.00  0.00    -0.257 A  
HETATM   14  C   UNL     1      -8.391   7.493  66.179  1.00  0.00    -0.138 A  
HETATM   15  C   UNL     1      -7.739   7.276  64.975  1.00  0.00    -0.115 A  
HETATM   16  C   UNL     1      -7.926   8.172  63.924  1.00  0.00    -0.138 A  
HETATM   17  C   UNL     1      -8.780   9.290  64.059  1.00  0.00    -0.198 A  
HETATM   18  C   UNL     1      -8.903  10.202  62.865  1.00  0.00    -0.231 C  
ENDBRANCH  10  12
ENDBRANCH   6   8
ENDBRANCH   4   6
ENDBRANCH   3   4
ENDBRANCH   2   3
TORSDOF 5
ENDMDL
MODEL      265
REMARK 921   NORMALIZED FREE ENERGY PREDICTED BY IDOCK:   -2.83 KCAL/MOL
REMARK 922        TOTAL FREE ENERGY PREDICTED BY IDOCK:   -4.00 KCAL/MOL
REMARK 923 INTER-LIGAND FREE ENERGY PREDICTED BY IDOCK:   -3.55 KCAL/MOL
REMARK 924 INTRA-LIGAND FREE ENERGY PREDICTED BY IDOCK:   -0.46 KCAL/MOL
REMARK 927      BINDING AFFINITY PREDICTED BY RF-SCORE:    0.00 PKD
ROOT
HETATM    1  C   UNL     1     -12.164   6.995  71.061  1.00  0.00    -0.419 C  
HETATM    2  C   UNL     1     -11.339   6.145  70.106  1.00  0.00    -0.433 C  
ENDROOT
BRANCH   2   3
HETATM    3  C   UNL     1     -10.532   7.014  69.143  1.00  0.00    -0.207 C  
BRANCH   3   4
HETATM    4  N   UNL     1     -11.250   7.141  67.868  1.00  0.00    -0.519 NA 
HETATM    5  H   UNL     1     -12.140   7.625  67.988  1.00  0.00     0.000 HD 
BRANCH   4   6
HETATM    6  C   UNL     1     -10.410   7.795  66.834  1.00  0.00    -0.326 C  
HETATM    7  C   UNL     1      -9.726   9.065  67.337  1.00  0.00    -0.217 C  
BRANCH   6   8
HETATM    8  C   UNL     1      -9.332   6.812  66.324  1.00  0.00    -0.100 C  
HETATM    9  O   UNL     1      -8.153   7.162  66.323  1.00  0.00    -0.109 OA 
HETATM   10  N   UNL     1      -9.816   5.557  65.976  1.00  0.00    -0.324 N  
HETATM   11  H   UNL     1     -10.811   5.391  66.124  1.00  0.00     0.000 HD 
BRANCH  10  12
HETATM   12  C   UNL     1      -9.064   4.483  65.435  1.00  0.00    -0.146 A  
HETATM   13  C   UNL     1      -8.566   4.534  64.123  1.00  0.00    -0.132 A  
HETATM   14  C   UNL     1      -7.822   3.487  63.577  1.00  0.00    -0.076 A  
HETATM   15  C   UNL     1      -7.568   2.352  64.332  1.00  0.00    -0.068 A  
HETATM   16  C   UNL     1      -8.067   2.267  65.630  1.00  0.00    -0.084 A  
HETATM   17  C   UNL     1      -8.814   3.324  66.197  1.00  0.00    -0.139 A  
HETATM   18  C   UNL     1      -9.318   3.125  67.604  1.00  0.00    -0.247 C  
ENDBRANCH  10  12
ENDBRANCH   6   8
ENDBRANCH   4   6
ENDBRANCH   3   4
ENDBRANCH   2   3
TORSDOF 5
ENDMDL
MODEL      266
REMARK 921   NORMALIZED FREE ENERGY PREDICTED BY IDOCK:   -2.83 KCAL/MOL
REMARK 922        TOTAL FREE ENERGY PREDICTED BY IDOCK:   -3.99 KCAL/MOL
REMARK 923 INTER-LIGAND FREE ENERGY PREDICTED BY IDOCK:   -3.52 KCAL/MOL
REMARK 924 INTRA-LIGAND FREE ENERGY PREDICTED BY IDOCK:   -0.47 KCAL/MOL
REMARK 927      BINDING AFFINITY PREDICTED BY RF-SCORE:    0.00 PKD
ROOT
HETATM    1  C   UNL     1      -8.768   5.226  67.751  1.00  0.00    -0.103 C  
HETATM    2  C   UNL     1      -9.735   4.464  68.645  1.00  0.00    -0.190 C  
ENDROOT
BRANCH   2   3
HETATM    3  C   UNL     1     -10.352   5.378  69.703  1.00  0.00    -0.291 C  
BRANCH   3   4
HETATM    4  N   UNL     1      -9.751   6.715  69.614  1.00  0.00    -0.154 NA 
HETATM    5  H   UNL     1      -9.210   6.825  68.756  1.00  0.00     0.000 HD 
BRANCH   4   6
HETATM    6  C   UNL     1     -10.775   7.781  69.750  1.00  0.00    -0.236 C  
HETATM    7  C   UNL     1     -10.833   8.377  71.156  1.00  0.00    -0.286 C  
BRANCH   6   8
HETATM    8  C   UNL     1     -10.502   8.915  68.735  1.00  0.00    -0.200 C  
HETATM    9  O   UNL     1     -10.739   8.724  67.545  1.00  0.00    -0.253 OA 
HETATM   10  N   UNL     1     -10.070  10.106  69.306  1.00  0.00    -0.209 N  
HETATM   11  H   UNL     1     -10.014  10.134  70.324  1.00  0.00     0.000 HD 
BRANCH  10  12
HETATM   12  C   UNL     1      -9.701  11.288  68.615  1.00  0.00    -0.195 A  
HETATM   13  C   UNL     1      -8.484  11.371  67.920  1.00  0.00    -0.139 A  
HETATM   14  C   UNL     1      -8.106  12.526  67.231  1.00  0.00    -0.179 A  
HETATM   15  C   UNL     1      -8.938  13.635  67.233  1.00  0.00    -0.226 A  
HETATM   16  C   UNL     1     -10.143  13.586  67.931  1.00  0.00    -0.248 A  
HETATM   17  C   UNL     1     -10.540  12.420  68.625  1.00  0.00    -0.243 A  
HETATM   18  C   UNL     1     -11.856  12.477  69.357  1.00  0.00    -0.368 C  
ENDBRANCH  10  12
ENDBRANCH   6   8
ENDBRANCH   4   6
ENDBRANCH   3   4
ENDBRANCH   2   3
TORSDOF 5
ENDMDL
MODEL      267
REMARK 921   NORMALIZED FREE ENERGY PREDICTED BY IDOCK:   -2.82 KCAL/MOL
REMARK 922        TOTAL FREE ENERGY PREDICTED BY IDOCK:   -3.98 KCAL/MOL
REMARK 923 INTER-LIGAND FREE ENERGY PREDICTED BY IDOCK:   -3.46 KCAL/MOL
REMARK 924 INTRA-LIGAND FREE ENERGY PREDICTED BY IDOCK:   -0.53 KCAL/MOL
REMARK 927      BINDING AFFINITY PREDICTED BY RF-SCORE:    0.00 PKD
ROOT
HETATM    1  C   UNL     1      -5.656   9.109  66.310  1.00  0.00    -0.049 C  
HETATM    2  C   UNL     1      -5.413  10.479  66.927  1.00  0.00    -0.044 C  
ENDROOT
BRANCH   2   3
HETATM    3  C   UNL     1      -6.596  11.417  66.683  1.00  0.00    -0.114 C  
BRANCH   3   4
HETATM    4  N   UNL     1      -7.489  10.835  65.673  1.00  0.00    -0.321 NA 
HETATM    5  H   UNL     1      -7.517   9.818  65.740  1.00  0.00     0.000 HD 
BRANCH   4   6
HETATM    6  C   UNL     1      -8.851  11.422  65.749  1.00  0.00    -0.111 C  
HETATM    7  C   UNL     1      -9.863  10.695  64.865  1.00  0.00    -0.363 C  
BRANCH   6   8
HETATM    8  C   UNL     1      -9.356  11.407  67.210  1.00  0.00    -0.167 C  
HETATM    9  O   UNL     1      -9.572  12.473  67.781  1.00  0.00    -0.191 OA 
HETATM   10  N   UNL     1      -9.596  10.137  67.722  1.00  0.00    -0.147 N  
HETATM   11  H   UNL     1      -9.457   9.352  67.087  1.00  0.00     0.000 HD 
BRANCH  10  12
HETATM   12  C   UNL     1     -10.015   9.825  69.041  1.00  0.00    -0.184 A  
HETATM   13  C   UNL     1     -11.320  10.110  69.473  1.00  0.00    -0.260 A  
HETATM   14  C   UNL     1     -11.749   9.806  70.767  1.00  0.00    -0.407 A  
HETATM   15  C   UNL     1     -10.873   9.217  71.666  1.00  0.00    -0.442 A  
HETATM   16  C   UNL     1      -9.567   8.941  71.268  1.00  0.00    -0.348 A  
HETATM   17  C   UNL     1      -9.123   9.236  69.959  1.00  0.00    -0.229 A  
HETATM   18  C   UNL     1      -7.687   8.908  69.635  1.00  0.00    -0.078 C  
ENDBRANCH  10  12
ENDBRANCH   6   8
ENDBRANCH   4   6
ENDBRANCH   3   4
ENDBRANCH   2   3
TORSDOF 5
ENDMDL
MODEL      268
REMARK 921   NORMALIZED FREE ENERGY PREDICTED BY IDOCK:   -2.82 KCAL/MOL
REMARK 922        TOTAL FREE ENERGY PREDICTED BY IDOCK:   -3.98 KCAL/MOL
REMARK 923 INTER-LIGAND FREE ENERGY PREDICTED BY IDOCK:   -3.50 KCAL/MOL
REMARK 924 INTRA-LIGAND FREE ENERGY PREDICTED BY IDOCK:   -0.48 KCAL/MOL
REMARK 927      BINDING AFFINITY PREDICTED BY RF-SCORE:    0.00 PKD
ROOT
HETATM    1  C   UNL     1      -6.033   8.853  72.162  1.00  0.00    -0.072 C  
HETATM    2  C   UNL     1      -6.935   7.627  72.159  1.00  0.00    -0.065 C  
ENDROOT
BRANCH   2   3
HETATM    3  C   UNL     1      -8.020   7.732  73.230  1.00  0.00    -0.139 C  
BRANCH   3   4
HETATM    4  N   UNL     1      -9.057   8.676  72.795  1.00  0.00    -0.336 NA 
HETATM    5  H   UNL     1      -8.656   9.456  72.274  1.00  0.00     0.000 HD 
BRANCH   4   6
HETATM    6  C   UNL     1     -10.122   7.994  72.018  1.00  0.00    -0.218 C  
HETATM    7  C   UNL     1     -11.361   7.678  72.855  1.00  0.00    -0.394 C  
BRANCH   6   8
HETATM    8  C   UNL     1     -10.540   8.863  70.810  1.00  0.00    -0.226 C  
HETATM    9  O   UNL     1     -11.684   9.310  70.761  1.00  0.00    -0.278 OA 
HETATM   10  N   UNL     1      -9.517   9.123  69.907  1.00  0.00    -0.174 N  
HETATM   11  H   UNL     1      -8.594   8.757  70.140  1.00  0.00     0.000 HD 
BRANCH  10  12
HETATM   12  C   UNL     1      -9.627   9.847  68.692  1.00  0.00    -0.156 A  
HETATM   13  C   UNL     1      -9.519  11.248  68.671  1.00  0.00    -0.179 A  
HETATM   14  C   UNL     1      -9.622  11.975  67.483  1.00  0.00    -0.177 A  
HETATM   15  C   UNL     1      -9.849  11.315  66.285  1.00  0.00    -0.248 A  
HETATM   16  C   UNL     1      -9.979   9.928  66.282  1.00  0.00    -0.322 A  
HETATM   17  C   UNL     1      -9.869   9.180  67.476  1.00  0.00    -0.227 A  
HETATM   18  C   UNL     1     -10.037   7.686  67.362  1.00  0.00    -0.287 C  
ENDBRANCH  10  12
ENDBRANCH   6   8
ENDBRANCH   4   6
ENDBRANCH   3   4
ENDBRANCH   2   3
TORSDOF 5
ENDMDL
MODEL      269
REMARK 921   NORMALIZED FREE ENERGY PREDICTED BY IDOCK:   -2.81 KCAL/MOL
REMARK 922        TOTAL FREE ENERGY PREDICTED BY IDOCK:   -3.97 KCAL/MOL
REMARK 923 INTER-LIGAND FREE ENERGY PREDICTED BY IDOCK:   -3.36 KCAL/MOL
REMARK 924 INTRA-LIGAND FREE ENERGY PREDICTED BY IDOCK:   -0.61 KCAL/MOL
REMARK 927      BINDING AFFINITY PREDICTED BY RF-SCORE:    0.00 PKD
ROOT
HETATM    1  C   UNL     1      -7.577   9.401  69.918  1.00  0.00    -0.109 C  
HETATM    2  C   UNL     1      -6.123   9.814  69.738  1.00  0.00    -0.043 C  
ENDROOT
BRANCH   2   3
HETATM    3  C   UNL     1      -5.816  11.112  70.484  1.00  0.00    -0.133 C  
BRANCH   3   4
HETATM    4  N   UNL     1      -5.431  12.155  69.525  1.00  0.00    -0.069 NA 
HETATM    5  H   UNL     1      -5.304  11.772  68.588  1.00  0.00     0.000 HD 
BRANCH   4   6
HETATM    6  C   UNL     1      -6.402  13.278  69.525  1.00  0.00    -0.104 C  
HETATM    7  C   UNL     1      -5.739  14.640  69.327  1.00  0.00    -0.096 C  
BRANCH   6   8
HETATM    8  C   UNL     1      -7.459  13.069  68.416  1.00  0.00    -0.128 C  
HETATM    9  O   UNL     1      -7.160  12.415  67.419  1.00  0.00    -0.135 OA 
HETATM   10  N   UNL     1      -8.711  13.598  68.706  1.00  0.00    -0.370 N  
HETATM   11  H   UNL     1      -8.825  14.031  69.622  1.00  0.00     0.000 HD 
BRANCH  10  12
HETATM   12  C   UNL     1      -9.846  13.595  67.856  1.00  0.00    -0.237 A  
HETATM   13  C   UNL     1     -10.129  14.689  67.022  1.00  0.00    -0.249 A  
HETATM   14  C   UNL     1     -11.241  14.701  66.177  1.00  0.00    -0.341 A  
HETATM   15  C   UNL     1     -12.106  13.617  66.156  1.00  0.00    -0.477 A  
HETATM   16  C   UNL     1     -11.858  12.527  66.988  1.00  0.00    -0.394 A  
HETATM   17  C   UNL     1     -10.732  12.500  67.842  1.00  0.00    -0.239 A  
HETATM   18  C   UNL     1     -10.564  11.278  68.709  1.00  0.00    -0.234 C  
ENDBRANCH  10  12
ENDBRANCH   6   8
ENDBRANCH   4   6
ENDBRANCH   3   4
ENDBRANCH   2   3
TORSDOF 5
ENDMDL
MODEL      270
REMARK 921   NORMALIZED FREE ENERGY PREDICTED BY IDOCK:   -2.79 KCAL/MOL
REMARK 922        TOTAL FREE ENERGY PREDICTED BY IDOCK:   -3.95 KCAL/MOL
REMARK 923 INTER-LIGAND FREE ENERGY PREDICTED BY IDOCK:   -3.69 KCAL/MOL
REMARK 924 INTRA-LIGAND FREE ENERGY PREDICTED BY IDOCK:   -0.26 KCAL/MOL
REMARK 927      BINDING AFFINITY PREDICTED BY RF-SCORE:    0.00 PKD
ROOT
HETATM    1  C   UNL     1     -10.423   3.008  72.681  1.00  0.00    -0.175 C  
HETATM    2  C   UNL     1      -9.741   4.246  73.247  1.00  0.00    -0.154 C  
ENDROOT
BRANCH   2   3
HETATM    3  C   UNL     1     -10.764   5.292  73.687  1.00  0.00    -0.294 C  
BRANCH   3   4
HETATM    4  N   UNL     1     -11.765   5.481  72.629  1.00  0.00    -0.392 NA 
HETATM    5  H   UNL     1     -12.708   5.290  72.968  1.00  0.00     0.000 HD 
BRANCH   4   6
HETATM    6  C   UNL     1     -11.669   6.835  72.025  1.00  0.00    -0.306 C  
HETATM    7  C   UNL     1     -11.312   7.917  73.043  1.00  0.00    -0.298 C  
BRANCH   6   8
HETATM    8  C   UNL     1     -10.615   6.840  70.894  1.00  0.00    -0.220 C  
HETATM    9  O   UNL     1      -9.436   7.047  71.175  1.00  0.00    -0.165 OA 
HETATM   10  N   UNL     1     -11.117   6.522  69.638  1.00  0.00    -0.344 N  
HETATM   11  H   UNL     1     -12.107   6.280  69.587  1.00  0.00     0.000 HD 
BRANCH  10  12
HETATM   12  C   UNL     1     -10.391   6.499  68.420  1.00  0.00    -0.189 A  
HETATM   13  C   UNL     1     -10.084   5.287  67.782  1.00  0.00    -0.205 A  
HETATM   14  C   UNL     1      -9.373   5.247  66.581  1.00  0.00    -0.139 A  
HETATM   15  C   UNL     1      -8.939   6.426  65.994  1.00  0.00    -0.143 A  
HETATM   16  C   UNL     1      -9.214   7.642  66.617  1.00  0.00    -0.211 A  
HETATM   17  C   UNL     1      -9.940   7.696  67.829  1.00  0.00    -0.219 A  
HETATM   18  C   UNL     1     -10.172   9.061  68.424  1.00  0.00    -0.232 C  
ENDBRANCH  10  12
ENDBRANCH   6   8
ENDBRANCH   4   6
ENDBRANCH   3   4
ENDBRANCH   2   3
TORSDOF 5
ENDMDL
MODEL      271
REMARK 921   NORMALIZED FREE ENERGY PREDICTED BY IDOCK:   -2.76 KCAL/MOL
REMARK 922        TOTAL FREE ENERGY PREDICTED BY IDOCK:   -3.90 KCAL/MOL
REMARK 923 INTER-LIGAND FREE ENERGY PREDICTED BY IDOCK:   -3.66 KCAL/MOL
REMARK 924 INTRA-LIGAND FREE ENERGY PREDICTED BY IDOCK:   -0.24 KCAL/MOL
REMARK 927      BINDING AFFINITY PREDICTED BY RF-SCORE:    0.00 PKD
ROOT
HETATM    1  C   UNL     1      -6.999   4.759  66.720  1.00  0.00    -0.067 C  
HETATM    2  C   UNL     1      -7.507   5.077  65.321  1.00  0.00    -0.077 C  
ENDROOT
BRANCH   2   3
HETATM    3  C   UNL     1      -8.882   5.743  65.365  1.00  0.00    -0.085 C  
BRANCH   3   4
HETATM    4  N   UNL     1      -8.734   7.195  65.208  1.00  0.00    -0.357 NA 
HETATM    5  H   UNL     1      -9.560   7.610  64.776  1.00  0.00     0.000 HD 
BRANCH   4   6
HETATM    6  C   UNL     1      -8.409   7.852  66.499  1.00  0.00    -0.127 C  
HETATM    7  C   UNL     1      -7.783   9.234  66.325  1.00  0.00    -0.096 C  
BRANCH   6   8
HETATM    8  C   UNL     1      -9.684   7.984  67.365  1.00  0.00    -0.166 C  
HETATM    9  O   UNL     1     -10.785   7.872  66.831  1.00  0.00    -0.333 OA 
HETATM   10  N   UNL     1      -9.441   8.145  68.724  1.00  0.00    -0.147 N  
HETATM   11  H   UNL     1      -8.467   8.122  69.023  1.00  0.00     0.000 HD 
BRANCH  10  12
HETATM   12  C   UNL     1     -10.415   8.339  69.737  1.00  0.00    -0.220 A  
HETATM   13  C   UNL     1     -10.928   7.253  70.466  1.00  0.00    -0.282 A  
HETATM   14  C   UNL     1     -11.884   7.427  71.469  1.00  0.00    -0.327 A  
HETATM   15  C   UNL     1     -12.360   8.697  71.758  1.00  0.00    -0.402 A  
HETATM   16  C   UNL     1     -11.882   9.789  71.037  1.00  0.00    -0.442 A  
HETATM   17  C   UNL     1     -10.908   9.627  70.025  1.00  0.00    -0.302 A  
HETATM   18  C   UNL     1     -10.467  10.871  69.298  1.00  0.00    -0.230 C  
ENDBRANCH  10  12
ENDBRANCH   6   8
ENDBRANCH   4   6
ENDBRANCH   3   4
ENDBRANCH   2   3
TORSDOF 5
ENDMDL
MODEL      272
REMARK 921   NORMALIZED FREE ENERGY PREDICTED BY IDOCK:   -2.72 KCAL/MOL
REMARK 922        TOTAL FREE ENERGY PREDICTED BY IDOCK:   -3.86 KCAL/MOL
REMARK 923 INTER-LIGAND FREE ENERGY PREDICTED BY IDOCK:   -3.46 KCAL/MOL
REMARK 924 INTRA-LIGAND FREE ENERGY PREDICTED BY IDOCK:   -0.40 KCAL/MOL
REMARK 927      BINDING AFFINITY PREDICTED BY RF-SCORE:    0.00 PKD
ROOT
HETATM    1  C   UNL     1      -5.941   7.968  66.382  1.00  0.00    -0.041 C  
HETATM    2  C   UNL     1      -7.000   9.052  66.525  1.00  0.00    -0.080 C  
ENDROOT
BRANCH   2   3
HETATM    3  C   UNL     1      -6.462  10.416  66.095  1.00  0.00    -0.111 C  
BRANCH   3   4
HETATM    4  N   UNL     1      -7.581  11.331  65.838  1.00  0.00    -0.366 NA 
HETATM    5  H   UNL     1      -8.311  10.882  65.285  1.00  0.00     0.000 HD 
BRANCH   4   6
HETATM    6  C   UNL     1      -8.124  11.894  67.100  1.00  0.00    -0.172 C  
HETATM    7  C   UNL     1      -7.038  12.215  68.125  1.00  0.00    -0.088 C  
BRANCH   6   8
HETATM    8  C   UNL     1      -8.932  13.179  66.805  1.00  0.00    -0.176 C  
HETATM    9  O   UNL     1      -9.907  13.116  66.060  1.00  0.00    -0.280 OA 
HETATM   10  N   UNL     1      -8.501  14.302  67.502  1.00  0.00    -0.174 N  
HETATM   11  H   UNL     1      -7.733  14.168  68.159  1.00  0.00     0.000 HD 
BRANCH  10  12
HETATM   12  C   UNL     1      -9.023  15.616  67.390  1.00  0.00    -0.194 A  
HETATM   13  C   UNL     1      -8.558  16.499  66.401  1.00  0.00    -0.347 A  
HETATM   14  C   UNL     1      -9.064  17.794  66.276  1.00  0.00    -0.198 A  
HETATM   15  C   UNL     1     -10.043  18.242  67.149  1.00  0.00    -0.367 A  
HETATM   16  C   UNL     1     -10.508  17.393  68.151  1.00  0.00    -0.389 A  
HETATM   17  C   UNL     1     -10.010  16.077  68.283  1.00  0.00    -0.220 A  
HETATM   18  C   UNL     1     -10.573  15.245  69.408  1.00  0.00    -0.257 C  
ENDBRANCH  10  12
ENDBRANCH   6   8
ENDBRANCH   4   6
ENDBRANCH   3   4
ENDBRANCH   2   3
TORSDOF 5
ENDMDL
MODEL      273
REMARK 921   NORMALIZED FREE ENERGY PREDICTED BY IDOCK:   -2.71 KCAL/MOL
REMARK 922        TOTAL FREE ENERGY PREDICTED BY IDOCK:   -3.84 KCAL/MOL
REMARK 923 INTER-LIGAND FREE ENERGY PREDICTED BY IDOCK:   -3.26 KCAL/MOL
REMARK 924 INTRA-LIGAND FREE ENERGY PREDICTED BY IDOCK:   -0.58 KCAL/MOL
REMARK 927      BINDING AFFINITY PREDICTED BY RF-SCORE:    0.00 PKD
ROOT
HETATM    1  C   UNL     1     -10.907   5.945  66.725  1.00  0.00    -0.347 C  
HETATM    2  C   UNL     1     -10.071   4.744  66.307  1.00  0.00    -0.291 C  
ENDROOT
BRANCH   2   3
HETATM    3  C   UNL     1      -8.624   4.882  66.777  1.00  0.00    -0.108 C  
BRANCH   3   4
HETATM    4  N   UNL     1      -8.258   3.723  67.601  1.00  0.00    -0.089 NA 
HETATM    5  H   UNL     1      -7.312   3.813  67.973  1.00  0.00     0.000 HD 
BRANCH   4   6
HETATM    6  C   UNL     1      -9.247   3.491  68.683  1.00  0.00    -0.165 C  
HETATM    7  C   UNL     1      -9.312   2.032  69.130  1.00  0.00    -0.184 C  
BRANCH   6   8
HETATM    8  C   UNL     1      -8.915   4.377  69.906  1.00  0.00    -0.093 C  
HETATM    9  O   UNL     1      -7.807   4.286  70.429  1.00  0.00    -0.051 OA 
HETATM   10  N   UNL     1      -9.918   5.274  70.256  1.00  0.00    -0.219 N  
HETATM   11  H   UNL     1     -10.746   5.292  69.661  1.00  0.00     0.000 HD 
BRANCH  10  12
HETATM   12  C   UNL     1      -9.904   6.167  71.358  1.00  0.00    -0.175 A  
HETATM   13  C   UNL     1      -9.348   7.451  71.243  1.00  0.00    -0.158 A  
HETATM   14  C   UNL     1      -9.329   8.343  72.317  1.00  0.00    -0.356 A  
HETATM   15  C   UNL     1      -9.860   7.964  73.541  1.00  0.00    -0.209 A  
HETATM   16  C   UNL     1     -10.401   6.689  73.687  1.00  0.00    -0.343 A  
HETATM   17  C   UNL     1     -10.433   5.779  72.605  1.00  0.00    -0.243 A  
HETATM   18  C   UNL     1     -11.029   4.421  72.873  1.00  0.00    -0.231 C  
ENDBRANCH  10  12
ENDBRANCH   6   8
ENDBRANCH   4   6
ENDBRANCH   3   4
ENDBRANCH   2   3
TORSDOF 5
ENDMDL
MODEL      274
REMARK 921   NORMALIZED FREE ENERGY PREDICTED BY IDOCK:   -2.70 KCAL/MOL
REMARK 922        TOTAL FREE ENERGY PREDICTED BY IDOCK:   -3.83 KCAL/MOL
REMARK 923 INTER-LIGAND FREE ENERGY PREDICTED BY IDOCK:   -3.95 KCAL/MOL
REMARK 924 INTRA-LIGAND FREE ENERGY PREDICTED BY IDOCK:    0.13 KCAL/MOL
REMARK 927      BINDING AFFINITY PREDICTED BY RF-SCORE:    0.00 PKD
ROOT
HETATM    1  C   UNL     1      -5.338  11.031  66.997  1.00  0.00    -0.059 C  
HETATM    2  C   UNL     1      -6.643  10.698  66.288  1.00  0.00    -0.126 C  
ENDROOT
BRANCH   2   3
HETATM    3  C   UNL     1      -6.633   9.269  65.748  1.00  0.00    -0.069 C  
BRANCH   3   4
HETATM    4  N   UNL     1      -7.939   8.956  65.153  1.00  0.00    -0.116 NA 
HETATM    5  H   UNL     1      -8.705   9.215  65.775  1.00  0.00     0.000 HD 
BRANCH   4   6
HETATM    6  C   UNL     1      -8.090   9.581  63.815  1.00  0.00    -0.152 C  
HETATM    7  C   UNL     1      -8.258   8.558  62.693  1.00  0.00    -0.185 C  
BRANCH   6   8
HETATM    8  C   UNL     1      -9.306  10.537  63.808  1.00  0.00    -0.281 C  
HETATM    9  O   UNL     1      -9.961  10.667  62.777  1.00  0.00    -0.266 OA 
HETATM   10  N   UNL     1      -9.590  11.114  65.040  1.00  0.00    -0.230 N  
HETATM   11  H   UNL     1      -9.006  10.830  65.827  1.00  0.00     0.000 HD 
BRANCH  10  12
HETATM   12  C   UNL     1     -10.610  12.061  65.313  1.00  0.00    -0.287 A  
HETATM   13  C   UNL     1     -11.765  12.131  64.518  1.00  0.00    -0.410 A  
HETATM   14  C   UNL     1     -12.781  13.054  64.775  1.00  0.00    -0.409 A  
HETATM   15  C   UNL     1     -12.657  13.942  65.833  1.00  0.00    -0.498 A  
HETATM   16  C   UNL     1     -11.512  13.906  66.626  1.00  0.00    -0.370 A  
HETATM   17  C   UNL     1     -10.481  12.971  66.381  1.00  0.00    -0.285 A  
HETATM   18  C   UNL     1      -9.280  13.025  67.291  1.00  0.00    -0.213 C  
ENDBRANCH  10  12
ENDBRANCH   6   8
ENDBRANCH   4   6
ENDBRANCH   3   4
ENDBRANCH   2   3
TORSDOF 5
ENDMDL
MODEL      275
REMARK 921   NORMALIZED FREE ENERGY PREDICTED BY IDOCK:   -2.70 KCAL/MOL
REMARK 922        TOTAL FREE ENERGY PREDICTED BY IDOCK:   -3.83 KCAL/MOL
REMARK 923 INTER-LIGAND FREE ENERGY PREDICTED BY IDOCK:   -3.54 KCAL/MOL
REMARK 924 INTRA-LIGAND FREE ENERGY PREDICTED BY IDOCK:   -0.29 KCAL/MOL
REMARK 927      BINDING AFFINITY PREDICTED BY RF-SCORE:    0.00 PKD
ROOT
HETATM    1  C   UNL     1      -6.607  13.183  67.934  1.00  0.00    -0.137 C  
HETATM    2  C   UNL     1      -8.035  13.464  68.376  1.00  0.00    -0.139 C  
ENDROOT
BRANCH   2   3
HETATM    3  C   UNL     1      -8.926  12.235  68.195  1.00  0.00    -0.192 C  
BRANCH   3   4
HETATM    4  N   UNL     1     -10.228  12.468  68.833  1.00  0.00    -0.425 NA 
HETATM    5  H   UNL     1     -10.869  12.955  68.206  1.00  0.00     0.000 HD 
BRANCH   4   6
HETATM    6  C   UNL     1     -10.818  11.204  69.340  1.00  0.00    -0.216 C  
HETATM    7  C   UNL     1     -12.239  11.382  69.872  1.00  0.00    -0.346 C  
BRANCH   6   8
HETATM    8  C   UNL     1     -10.830  10.136  68.222  1.00  0.00    -0.252 C  
HETATM    9  O   UNL     1     -11.391  10.389  67.158  1.00  0.00    -0.274 OA 
HETATM   10  N   UNL     1     -10.113   8.984  68.519  1.00  0.00    -0.184 N  
HETATM   11  H   UNL     1      -9.621   8.966  69.413  1.00  0.00     0.000 HD 
BRANCH  10  12
HETATM   12  C   UNL     1      -9.995   7.829  67.704  1.00  0.00    -0.178 A  
HETATM   13  C   UNL     1     -10.879   6.748  67.847  1.00  0.00    -0.320 A  
HETATM   14  C   UNL     1     -10.779   5.605  67.050  1.00  0.00    -0.332 A  
HETATM   15  C   UNL     1      -9.778   5.514  66.095  1.00  0.00    -0.147 A  
HETATM   16  C   UNL     1      -8.875   6.565  65.947  1.00  0.00    -0.131 A  
HETATM   17  C   UNL     1      -8.971   7.729  66.741  1.00  0.00    -0.163 A  
HETATM   18  C   UNL     1      -7.937   8.801  66.508  1.00  0.00    -0.103 C  
ENDBRANCH  10  12
ENDBRANCH   6   8
ENDBRANCH   4   6
ENDBRANCH   3   4
ENDBRANCH   2   3
TORSDOF 5
ENDMDL
MODEL      276
REMARK 921   NORMALIZED FREE ENERGY PREDICTED BY IDOCK:   -2.69 KCAL/MOL
REMARK 922        TOTAL FREE ENERGY PREDICTED BY IDOCK:   -3.82 KCAL/MOL
REMARK 923 INTER-LIGAND FREE ENERGY PREDICTED BY IDOCK:   -3.30 KCAL/MOL
REMARK 924 INTRA-LIGAND FREE ENERGY PREDICTED BY IDOCK:   -0.51 KCAL/MOL
REMARK 927      BINDING AFFINITY PREDICTED BY RF-SCORE:    0.00 PKD
ROOT
HETATM    1  C   UNL     1      -7.419   4.845  67.107  1.00  0.00    -0.086 C  
HETATM    2  C   UNL     1      -7.909   5.676  65.931  1.00  0.00    -0.101 C  
ENDROOT
BRANCH   2   3
HETATM    3  C   UNL     1      -9.317   6.217  66.180  1.00  0.00    -0.102 C  
BRANCH   3   4
HETATM    4  N   UNL     1      -9.385   7.627  65.775  1.00  0.00    -0.400 NA 
HETATM    5  H   UNL     1     -10.319   7.878  65.453  1.00  0.00     0.000 HD 
BRANCH   4   6
HETATM    6  C   UNL     1      -8.924   8.527  66.863  1.00  0.00    -0.143 C  
HETATM    7  C   UNL     1      -7.673   9.320  66.490  1.00  0.00    -0.093 C  
BRANCH   6   8
HETATM    8  C   UNL     1     -10.049   9.515  67.248  1.00  0.00    -0.215 C  
HETATM    9  O   UNL     1     -11.155   9.398  66.724  1.00  0.00     0.088 OA 
HETATM   10  N   UNL     1      -9.702  10.422  68.242  1.00  0.00    -0.148 N  
HETATM   11  H   UNL     1      -8.770  10.328  68.645  1.00  0.00     0.000 HD 
BRANCH  10  12
HETATM   12  C   UNL     1     -10.515  11.467  68.752  1.00  0.00    -0.204 A  
HETATM   13  C   UNL     1     -11.478  11.217  69.744  1.00  0.00    -0.388 A  
HETATM   14  C   UNL     1     -12.284  12.234  70.259  1.00  0.00    -0.342 A  
HETATM   15  C   UNL     1     -12.153  13.529  69.782  1.00  0.00    -0.381 A  
HETATM   16  C   UNL     1     -11.219  13.800  68.784  1.00  0.00    -0.303 A  
HETATM   17  C   UNL     1     -10.391  12.781  68.261  1.00  0.00    -0.248 A  
HETATM   18  C   UNL     1      -9.423  13.179  67.176  1.00  0.00    -0.239 C  
ENDBRANCH  10  12
ENDBRANCH   6   8
ENDBRANCH   4   6
ENDBRANCH   3   4
ENDBRANCH   2   3
TORSDOF 5
ENDMDL
MODEL      277
REMARK 921   NORMALIZED FREE ENERGY PREDICTED BY IDOCK:   -2.69 KCAL/MOL
REMARK 922        TOTAL FREE ENERGY PREDICTED BY IDOCK:   -3.81 KCAL/MOL
REMARK 923 INTER-LIGAND FREE ENERGY PREDICTED BY IDOCK:   -3.35 KCAL/MOL
REMARK 924 INTRA-LIGAND FREE ENERGY PREDICTED BY IDOCK:   -0.46 KCAL/MOL
REMARK 927      BINDING AFFINITY PREDICTED BY RF-SCORE:    0.00 PKD
ROOT
HETATM    1  C   UNL     1      -6.529   6.979  68.787  1.00  0.00    -0.032 C  
HETATM    2  C   UNL     1      -6.080   6.881  67.336  1.00  0.00    -0.036 C  
ENDROOT
BRANCH   2   3
HETATM    3  C   UNL     1      -7.144   7.430  66.386  1.00  0.00    -0.074 C  
BRANCH   3   4
HETATM    4  N   UNL     1      -8.074   8.291  67.128  1.00  0.00    -0.108 NA 
HETATM    5  H   UNL     1      -7.663   9.204  67.324  1.00  0.00     0.000 HD 
BRANCH   4   6
HETATM    6  C   UNL     1      -9.375   8.420  66.424  1.00  0.00    -0.214 C  
HETATM    7  C   UNL     1     -10.487   7.595  67.070  1.00  0.00    -0.419 C  
BRANCH   6   8
HETATM    8  C   UNL     1      -9.811   9.903  66.379  1.00  0.00    -0.227 C  
HETATM    9  O   UNL     1     -10.262  10.363  65.333  1.00  0.00    -0.292 OA 
HETATM   10  N   UNL     1      -9.713  10.568  67.595  1.00  0.00    -0.163 N  
HETATM   11  H   UNL     1      -9.408  10.017  68.397  1.00  0.00     0.000 HD 
BRANCH  10  12
HETATM   12  C   UNL     1      -9.997  11.937  67.833  1.00  0.00    -0.191 A  
HETATM   13  C   UNL     1      -9.138  12.947  67.368  1.00  0.00    -0.197 A  
HETATM   14  C   UNL     1      -9.404  14.300  67.590  1.00  0.00    -0.201 A  
HETATM   15  C   UNL     1     -10.536  14.674  68.298  1.00  0.00    -0.236 A  
HETATM   16  C   UNL     1     -11.394  13.692  68.787  1.00  0.00    -0.326 A  
HETATM   17  C   UNL     1     -11.140  12.320  68.561  1.00  0.00    -0.290 A  
HETATM   18  C   UNL     1     -12.126  11.339  69.144  1.00  0.00    -0.348 C  
ENDBRANCH  10  12
ENDBRANCH   6   8
ENDBRANCH   4   6
ENDBRANCH   3   4
ENDBRANCH   2   3
TORSDOF 5
ENDMDL
MODEL      278
REMARK 921   NORMALIZED FREE ENERGY PREDICTED BY IDOCK:   -2.68 KCAL/MOL
REMARK 922        TOTAL FREE ENERGY PREDICTED BY IDOCK:   -3.80 KCAL/MOL
REMARK 923 INTER-LIGAND FREE ENERGY PREDICTED BY IDOCK:   -3.37 KCAL/MOL
REMARK 924 INTRA-LIGAND FREE ENERGY PREDICTED BY IDOCK:   -0.43 KCAL/MOL
REMARK 927      BINDING AFFINITY PREDICTED BY RF-SCORE:    0.00 PKD
ROOT
HETATM    1  C   UNL     1      -5.596   6.375  67.853  1.00  0.00    -0.008 C  
HETATM    2  C   UNL     1      -5.609   6.123  66.353  1.00  0.00    -0.013 C  
ENDROOT
BRANCH   2   3
HETATM    3  C   UNL     1      -7.023   5.839  65.848  1.00  0.00    -0.065 C  
BRANCH   3   4
HETATM    4  N   UNL     1      -7.966   5.872  66.973  1.00  0.00    -0.102 NA 
HETATM    5  H   UNL     1      -7.876   6.734  67.510  1.00  0.00     0.000 HD 
BRANCH   4   6
HETATM    6  C   UNL     1      -9.363   5.660  66.516  1.00  0.00    -0.150 C  
HETATM    7  C   UNL     1      -9.758   4.185  66.470  1.00  0.00    -0.228 C  
BRANCH   6   8
HETATM    8  C   UNL     1     -10.346   6.415  67.442  1.00  0.00    -0.205 C  
HETATM    9  O   UNL     1     -11.463   6.705  67.021  1.00  0.00    -0.233 OA 
HETATM   10  N   UNL     1      -9.873   6.628  68.731  1.00  0.00    -0.136 N  
HETATM   11  H   UNL     1      -8.956   6.240  68.954  1.00  0.00     0.000 HD 
BRANCH  10  12
HETATM   12  C   UNL     1     -10.537   7.331  69.768  1.00  0.00    -0.235 A  
HETATM   13  C   UNL     1     -11.533   6.712  70.541  1.00  0.00    -0.432 A  
HETATM   14  C   UNL     1     -12.194   7.389  71.568  1.00  0.00    -0.368 A  
HETATM   15  C   UNL     1     -11.880   8.712  71.838  1.00  0.00    -0.420 A  
HETATM   16  C   UNL     1     -10.910   9.356  71.073  1.00  0.00    -0.406 A  
HETATM   17  C   UNL     1     -10.228   8.679  70.037  1.00  0.00    -0.201 A  
HETATM   18  C   UNL     1      -9.205   9.471  69.263  1.00  0.00    -0.169 C  
ENDBRANCH  10  12
ENDBRANCH   6   8
ENDBRANCH   4   6
ENDBRANCH   3   4
ENDBRANCH   2   3
TORSDOF 5
ENDMDL
MODEL      279
REMARK 921   NORMALIZED FREE ENERGY PREDICTED BY IDOCK:   -2.66 KCAL/MOL
REMARK 922        TOTAL FREE ENERGY PREDICTED BY IDOCK:   -3.77 KCAL/MOL
REMARK 923 INTER-LIGAND FREE ENERGY PREDICTED BY IDOCK:   -3.47 KCAL/MOL
REMARK 924 INTRA-LIGAND FREE ENERGY PREDICTED BY IDOCK:   -0.30 KCAL/MOL
REMARK 927      BINDING AFFINITY PREDICTED BY RF-SCORE:    0.00 PKD
ROOT
HETATM    1  C   UNL     1     -13.135  10.118  71.170  1.00  0.00    -0.480 C  
HETATM    2  C   UNL     1     -12.039   9.193  71.677  1.00  0.00    -0.432 C  
ENDROOT
BRANCH   2   3
HETATM    3  C   UNL     1     -12.346   7.733  71.345  1.00  0.00    -0.323 C  
BRANCH   3   4
HETATM    4  N   UNL     1     -11.812   7.403  70.018  1.00  0.00    -0.502 NA 
HETATM    5  H   UNL     1     -12.000   8.147  69.345  1.00  0.00     0.000 HD 
BRANCH   4   6
HETATM    6  C   UNL     1     -10.365   7.079  70.079  1.00  0.00    -0.202 C  
HETATM    7  C   UNL     1     -10.096   5.590  70.291  1.00  0.00    -0.305 C  
BRANCH   6   8
HETATM    8  C   UNL     1      -9.661   7.536  68.780  1.00  0.00    -0.151 C  
HETATM    9  O   UNL     1      -9.901   6.946  67.729  1.00  0.00    -0.130 OA 
HETATM   10  N   UNL     1      -8.857   8.660  68.927  1.00  0.00    -0.137 N  
HETATM   11  H   UNL     1      -8.837   9.093  69.850  1.00  0.00     0.000 HD 
BRANCH  10  12
HETATM   12  C   UNL     1      -8.060   9.264  67.921  1.00  0.00    -0.104 A  
HETATM   13  C   UNL     1      -7.076   8.532  67.238  1.00  0.00    -0.076 A  
HETATM   14  C   UNL     1      -6.286   9.111  66.242  1.00  0.00    -0.064 A  
HETATM   15  C   UNL     1      -6.456  10.448  65.915  1.00  0.00    -0.123 A  
HETATM   16  C   UNL     1      -7.412  11.202  66.591  1.00  0.00    -0.146 A  
HETATM   17  C   UNL     1      -8.223  10.625  67.595  1.00  0.00    -0.107 A  
HETATM   18  C   UNL     1      -9.219  11.533  68.272  1.00  0.00    -0.186 C  
ENDBRANCH  10  12
ENDBRANCH   6   8
ENDBRANCH   4   6
ENDBRANCH   3   4
ENDBRANCH   2   3
TORSDOF 5
ENDMDL
MODEL      280
REMARK 921   NORMALIZED FREE ENERGY PREDICTED BY IDOCK:   -2.65 KCAL/MOL
REMARK 922        TOTAL FREE ENERGY PREDICTED BY IDOCK:   -3.76 KCAL/MOL
REMARK 923 INTER-LIGAND FREE ENERGY PREDICTED BY IDOCK:   -3.90 KCAL/MOL
REMARK 924 INTRA-LIGAND FREE ENERGY PREDICTED BY IDOCK:    0.14 KCAL/MOL
REMARK 927      BINDING AFFINITY PREDICTED BY RF-SCORE:    0.00 PKD
ROOT
HETATM    1  C   UNL     1      -6.027  20.192  69.201  1.00  0.00    -0.347 C  
HETATM    2  C   UNL     1      -7.352  19.478  68.976  1.00  0.00    -0.392 C  
ENDROOT
BRANCH   2   3
HETATM    3  C   UNL     1      -7.265  18.005  69.374  1.00  0.00     0.035 C  
BRANCH   3   4
HETATM    4  N   UNL     1      -6.734  17.219  68.253  1.00  0.00    -0.172 NA 
HETATM    5  H   UNL     1      -6.261  16.376  68.579  1.00  0.00     0.000 HD 
BRANCH   4   6
HETATM    6  C   UNL     1      -7.794  16.899  67.264  1.00  0.00    -0.178 C  
HETATM    7  C   UNL     1      -7.533  17.515  65.890  1.00  0.00    -0.162 C  
BRANCH   6   8
HETATM    8  C   UNL     1      -7.932  15.366  67.109  1.00  0.00    -0.217 C  
HETATM    9  O   UNL     1      -6.931  14.661  67.210  1.00  0.00    -0.221 OA 
HETATM   10  N   UNL     1      -9.238  14.921  66.941  1.00  0.00    -0.232 N  
HETATM   11  H   UNL     1      -9.973  15.628  66.974  1.00  0.00     0.000 HD 
BRANCH  10  12
HETATM   12  C   UNL     1      -9.652  13.581  66.727  1.00  0.00    -0.267 A  
HETATM   13  C   UNL     1      -8.713  12.542  66.614  1.00  0.00    -0.101 A  
HETATM   14  C   UNL     1      -9.104  11.218  66.407  1.00  0.00    -0.201 A  
HETATM   15  C   UNL     1     -10.449  10.903  66.295  1.00  0.00    -0.304 A  
HETATM   16  C   UNL     1     -11.400  11.918  66.384  1.00  0.00    -0.400 A  
HETATM   17  C   UNL     1     -11.018  13.261  66.602  1.00  0.00    -0.297 A  
HETATM   18  C   UNL     1     -12.124  14.282  66.670  1.00  0.00    -0.448 C  
ENDBRANCH  10  12
ENDBRANCH   6   8
ENDBRANCH   4   6
ENDBRANCH   3   4
ENDBRANCH   2   3
TORSDOF 5
ENDMDL
MODEL      281
REMARK 921   NORMALIZED FREE ENERGY PREDICTED BY IDOCK:   -2.64 KCAL/MOL
REMARK 922        TOTAL FREE ENERGY PREDICTED BY IDOCK:   -3.76 KCAL/MOL
REMARK 923 INTER-LIGAND FREE ENERGY PREDICTED BY IDOCK:   -3.49 KCAL/MOL
REMARK 924 INTRA-LIGAND FREE ENERGY PREDICTED BY IDOCK:   -0.27 KCAL/MOL
REMARK 927      BINDING AFFINITY PREDICTED BY RF-SCORE:    0.00 PKD
ROOT
HETATM    1  C   UNL     1     -10.463  18.666  67.633  1.00  0.00    -0.468 C  
HETATM    2  C   UNL     1     -10.286  17.457  68.539  1.00  0.00    -0.369 C  
ENDROOT
BRANCH   2   3
HETATM    3  C   UNL     1     -10.933  16.210  67.937  1.00  0.00    -0.318 C  
BRANCH   3   4
HETATM    4  N   UNL     1     -10.225  15.011  68.402  1.00  0.00    -0.224 NA 
HETATM    5  H   UNL     1     -10.289  14.908  69.415  1.00  0.00     0.000 HD 
BRANCH   4   6
HETATM    6  C   UNL     1     -10.702  13.792  67.701  1.00  0.00    -0.249 C  
HETATM    7  C   UNL     1     -11.045  14.043  66.234  1.00  0.00    -0.307 C  
BRANCH   6   8
HETATM    8  C   UNL     1      -9.634  12.677  67.784  1.00  0.00    -0.197 C  
HETATM    9  O   UNL     1      -8.568  12.823  67.190  1.00  0.00    -0.191 OA 
HETATM   10  N   UNL     1      -9.972  11.617  68.616  1.00  0.00    -0.280 N  
HETATM   11  H   UNL     1     -10.858  11.690  69.117  1.00  0.00     0.000 HD 
BRANCH  10  12
HETATM   12  C   UNL     1      -9.208  10.443  68.840  1.00  0.00    -0.177 A  
HETATM   13  C   UNL     1      -8.458  10.280  70.016  1.00  0.00     0.084 A  
HETATM   14  C   UNL     1      -7.703   9.130  70.254  1.00  0.00    -0.115 A  
HETATM   15  C   UNL     1      -7.672   8.116  69.309  1.00  0.00    -0.104 A  
HETATM   16  C   UNL     1      -8.392   8.261  68.125  1.00  0.00    -0.129 A  
HETATM   17  C   UNL     1      -9.166   9.417  67.877  1.00  0.00    -0.139 A  
HETATM   18  C   UNL     1      -9.897   9.478  66.559  1.00  0.00    -0.305 C  
ENDBRANCH  10  12
ENDBRANCH   6   8
ENDBRANCH   4   6
ENDBRANCH   3   4
ENDBRANCH   2   3
TORSDOF 5
ENDMDL
MODEL      282
REMARK 921   NORMALIZED FREE ENERGY PREDICTED BY IDOCK:   -2.62 KCAL/MOL
REMARK 922        TOTAL FREE ENERGY PREDICTED BY IDOCK:   -3.72 KCAL/MOL
REMARK 923 INTER-LIGAND FREE ENERGY PREDICTED BY IDOCK:   -3.57 KCAL/MOL
REMARK 924 INTRA-LIGAND FREE ENERGY PREDICTED BY IDOCK:   -0.15 KCAL/MOL
REMARK 927      BINDING AFFINITY PREDICTED BY RF-SCORE:    0.00 PKD
ROOT
HETATM    1  C   UNL     1     -11.986  15.428  70.883  1.00  0.00    -0.406 C  
HETATM    2  C   UNL     1     -12.479  14.215  70.107  1.00  0.00    -0.391 C  
ENDROOT
BRANCH   2   3
HETATM    3  C   UNL     1     -11.368  13.617  69.245  1.00  0.00    -0.269 C  
BRANCH   3   4
HETATM    4  N   UNL     1     -11.952  12.731  68.230  1.00  0.00    -0.293 NA 
HETATM    5  H   UNL     1     -12.963  12.851  68.166  1.00  0.00     0.000 HD 
BRANCH   4   6
HETATM    6  C   UNL     1     -11.299  12.912  66.909  1.00  0.00    -0.312 C  
HETATM    7  C   UNL     1     -10.836  14.348  66.666  1.00  0.00    -0.304 C  
BRANCH   6   8
HETATM    8  C   UNL     1     -10.085  11.964  66.781  1.00  0.00    -0.202 C  
HETATM    9  O   UNL     1      -9.422  11.975  65.746  1.00  0.00    -0.236 OA 
HETATM   10  N   UNL     1      -9.812  11.221  67.923  1.00  0.00    -0.172 N  
HETATM   11  H   UNL     1     -10.401  11.397  68.737  1.00  0.00     0.000 HD 
BRANCH  10  12
HETATM   12  C   UNL     1      -8.795  10.243  68.071  1.00  0.00    -0.122 A  
HETATM   13  C   UNL     1      -7.543  10.577  68.612  1.00  0.00    -0.099 A  
HETATM   14  C   UNL     1      -6.532   9.625  68.768  1.00  0.00    -0.047 A  
HETATM   15  C   UNL     1      -6.749   8.315  68.372  1.00  0.00    -0.064 A  
HETATM   16  C   UNL     1      -7.976   7.962  67.814  1.00  0.00    -0.124 A  
HETATM   17  C   UNL     1      -9.010   8.914  67.659  1.00  0.00    -0.141 A  
HETATM   18  C   UNL     1     -10.294   8.430  67.034  1.00  0.00    -0.385 C  
ENDBRANCH  10  12
ENDBRANCH   6   8
ENDBRANCH   4   6
ENDBRANCH   3   4
ENDBRANCH   2   3
TORSDOF 5
ENDMDL
MODEL      283
REMARK 921   NORMALIZED FREE ENERGY PREDICTED BY IDOCK:   -2.61 KCAL/MOL
REMARK 922        TOTAL FREE ENERGY PREDICTED BY IDOCK:   -3.71 KCAL/MOL
REMARK 923 INTER-LIGAND FREE ENERGY PREDICTED BY IDOCK:   -3.34 KCAL/MOL
REMARK 924 INTRA-LIGAND FREE ENERGY PREDICTED BY IDOCK:   -0.37 KCAL/MOL
REMARK 927      BINDING AFFINITY PREDICTED BY RF-SCORE:    0.00 PKD
ROOT
HETATM    1  C   UNL     1      -6.140   8.821  72.050  1.00  0.00    -0.073 C  
HETATM    2  C   UNL     1      -6.983   7.618  71.656  1.00  0.00    -0.061 C  
ENDROOT
BRANCH   2   3
HETATM    3  C   UNL     1      -8.262   7.537  72.490  1.00  0.00    -0.108 C  
BRANCH   3   4
HETATM    4  N   UNL     1      -9.226   8.539  72.017  1.00  0.00    -0.236 NA 
HETATM    5  H   UNL     1      -8.755   9.353  71.623  1.00  0.00     0.000 HD 
BRANCH   4   6
HETATM    6  C   UNL     1     -10.192   7.951  71.055  1.00  0.00    -0.197 C  
HETATM    7  C   UNL     1     -11.524   7.577  71.702  1.00  0.00    -0.292 C  
BRANCH   6   8
HETATM    8  C   UNL     1     -10.456   8.939  69.895  1.00  0.00    -0.214 C  
HETATM    9  O   UNL     1     -10.764   8.498  68.790  1.00  0.00    -0.169 OA 
HETATM   10  N   UNL     1     -10.390  10.279  70.256  1.00  0.00    -0.437 N  
HETATM   11  H   UNL     1     -10.217  10.483  71.240  1.00  0.00     0.000 HD 
BRANCH  10  12
HETATM   12  C   UNL     1     -10.541  11.394  69.392  1.00  0.00    -0.052 A  
HETATM   13  C   UNL     1     -11.751  12.104  69.328  1.00  0.00    -0.386 A  
HETATM   14  C   UNL     1     -11.914  13.206  68.485  1.00  0.00    -0.324 A  
HETATM   15  C   UNL     1     -10.868  13.616  67.673  1.00  0.00    -0.268 A  
HETATM   16  C   UNL     1      -9.663  12.917  67.702  1.00  0.00    -0.212 A  
HETATM   17  C   UNL     1      -9.483  11.806  68.557  1.00  0.00    -0.165 A  
HETATM   18  C   UNL     1      -8.145  11.113  68.502  1.00  0.00    -0.146 C  
ENDBRANCH  10  12
ENDBRANCH   6   8
ENDBRANCH   4   6
ENDBRANCH   3   4
ENDBRANCH   2   3
TORSDOF 5
ENDMDL
MODEL      284
REMARK 921   NORMALIZED FREE ENERGY PREDICTED BY IDOCK:   -2.60 KCAL/MOL
REMARK 922        TOTAL FREE ENERGY PREDICTED BY IDOCK:   -3.70 KCAL/MOL
REMARK 923 INTER-LIGAND FREE ENERGY PREDICTED BY IDOCK:   -3.24 KCAL/MOL
REMARK 924 INTRA-LIGAND FREE ENERGY PREDICTED BY IDOCK:   -0.47 KCAL/MOL
REMARK 927      BINDING AFFINITY PREDICTED BY RF-SCORE:    0.00 PKD
ROOT
HETATM    1  C   UNL     1      -6.739  14.706  67.968  1.00  0.00    -0.152 C  
HETATM    2  C   UNL     1      -8.252  14.665  67.812  1.00  0.00    -0.169 C  
ENDROOT
BRANCH   2   3
HETATM    3  C   UNL     1      -8.773  13.228  67.820  1.00  0.00    -0.194 C  
BRANCH   3   4
HETATM    4  N   UNL     1      -9.858  13.090  66.840  1.00  0.00    -0.235 NA 
HETATM    5  H   UNL     1      -9.810  13.815  66.124  1.00  0.00     0.000 HD 
BRANCH   4   6
HETATM    6  C   UNL     1      -9.875  11.733  66.237  1.00  0.00    -0.221 C  
HETATM    7  C   UNL     1      -8.483  11.230  65.860  1.00  0.00    -0.060 C  
BRANCH   6   8
HETATM    8  C   UNL     1     -10.527  10.725  67.212  1.00  0.00    -0.237 C  
HETATM    9  O   UNL     1     -11.752  10.675  67.292  1.00  0.00    -0.317 OA 
HETATM   10  N   UNL     1      -9.625   9.895  67.867  1.00  0.00    -0.138 N  
HETATM   11  H   UNL     1      -8.641   9.997  67.619  1.00  0.00     0.000 HD 
BRANCH  10  12
HETATM   12  C   UNL     1      -9.937   8.917  68.846  1.00  0.00    -0.190 A  
HETATM   13  C   UNL     1     -10.315   9.289  70.146  1.00  0.00    -0.258 A  
HETATM   14  C   UNL     1     -10.629   8.339  71.122  1.00  0.00    -0.258 A  
HETATM   15  C   UNL     1     -10.558   6.988  70.819  1.00  0.00    -0.240 A  
HETATM   16  C   UNL     1     -10.167   6.592  69.542  1.00  0.00    -0.219 A  
HETATM   17  C   UNL     1      -9.855   7.544  68.544  1.00  0.00    -0.170 A  
HETATM   18  C   UNL     1      -9.431   7.008  67.200  1.00  0.00    -0.176 C  
ENDBRANCH  10  12
ENDBRANCH   6   8
ENDBRANCH   4   6
ENDBRANCH   3   4
ENDBRANCH   2   3
TORSDOF 5
ENDMDL
MODEL      285
REMARK 921   NORMALIZED FREE ENERGY PREDICTED BY IDOCK:   -2.60 KCAL/MOL
REMARK 922        TOTAL FREE ENERGY PREDICTED BY IDOCK:   -3.70 KCAL/MOL
REMARK 923 INTER-LIGAND FREE ENERGY PREDICTED BY IDOCK:   -3.28 KCAL/MOL
REMARK 924 INTRA-LIGAND FREE ENERGY PREDICTED BY IDOCK:   -0.41 KCAL/MOL
REMARK 927      BINDING AFFINITY PREDICTED BY RF-SCORE:    0.00 PKD
ROOT
HETATM    1  C   UNL     1      -6.145   8.629  71.972  1.00  0.00    -0.070 C  
HETATM    2  C   UNL     1      -6.778   7.256  71.797  1.00  0.00    -0.051 C  
ENDROOT
BRANCH   2   3
HETATM    3  C   UNL     1      -8.168   7.200  72.430  1.00  0.00    -0.104 C  
BRANCH   3   4
HETATM    4  N   UNL     1      -8.847   8.489  72.249  1.00  0.00    -0.291 NA 
HETATM    5  H   UNL     1      -8.179   9.245  72.098  1.00  0.00     0.000 HD 
BRANCH   4   6
HETATM    6  C   UNL     1      -9.852   8.426  71.158  1.00  0.00    -0.192 C  
HETATM    7  C   UNL     1     -11.151   9.154  71.500  1.00  0.00    -0.436 C  
BRANCH   6   8
HETATM    8  C   UNL     1      -9.266   9.027  69.859  1.00  0.00    -0.173 C  
HETATM    9  O   UNL     1      -8.373   9.867  69.938  1.00  0.00    -0.173 OA 
HETATM   10  N   UNL     1      -9.777   8.477  68.690  1.00  0.00    -0.160 N  
HETATM   11  H   UNL     1     -10.448   7.716  68.795  1.00  0.00     0.000 HD 
BRANCH  10  12
HETATM   12  C   UNL     1      -9.459   8.868  67.364  1.00  0.00    -0.145 A  
HETATM   13  C   UNL     1      -8.529   8.146  66.599  1.00  0.00    -0.129 A  
HETATM   14  C   UNL     1      -8.206   8.516  65.291  1.00  0.00    -0.149 A  
HETATM   15  C   UNL     1      -8.802   9.631  64.722  1.00  0.00    -0.242 A  
HETATM   16  C   UNL     1      -9.714  10.376  65.466  1.00  0.00    -0.307 A  
HETATM   17  C   UNL     1     -10.054  10.007  66.787  1.00  0.00    -0.286 A  
HETATM   18  C   UNL     1     -11.042  10.889  67.508  1.00  0.00    -0.375 C  
ENDBRANCH  10  12
ENDBRANCH   6   8
ENDBRANCH   4   6
ENDBRANCH   3   4
ENDBRANCH   2   3
TORSDOF 5
ENDMDL
MODEL      286
REMARK 921   NORMALIZED FREE ENERGY PREDICTED BY IDOCK:   -2.57 KCAL/MOL
REMARK 922        TOTAL FREE ENERGY PREDICTED BY IDOCK:   -3.66 KCAL/MOL
REMARK 923 INTER-LIGAND FREE ENERGY PREDICTED BY IDOCK:   -3.39 KCAL/MOL
REMARK 924 INTRA-LIGAND FREE ENERGY PREDICTED BY IDOCK:   -0.27 KCAL/MOL
REMARK 927      BINDING AFFINITY PREDICTED BY RF-SCORE:    0.00 PKD
ROOT
HETATM    1  C   UNL     1      -9.649   6.696  72.950  1.00  0.00    -0.162 C  
HETATM    2  C   UNL     1     -10.590   5.979  71.993  1.00  0.00    -0.267 C  
ENDROOT
BRANCH   2   3
HETATM    3  C   UNL     1     -10.548   6.604  70.599  1.00  0.00    -0.227 C  
BRANCH   3   4
HETATM    4  N   UNL     1     -10.226   8.033  70.706  1.00  0.00    -0.193 NA 
HETATM    5  H   UNL     1      -9.448   8.287  70.096  1.00  0.00     0.000 HD 
BRANCH   4   6
HETATM    6  C   UNL     1     -11.418   8.880  70.447  1.00  0.00    -0.157 C  
HETATM    7  C   UNL     1     -12.364   8.959  71.643  1.00  0.00    -0.405 C  
BRANCH   6   8
HETATM    8  C   UNL     1     -10.980  10.310  70.057  1.00  0.00    -0.311 C  
HETATM    9  O   UNL     1     -11.430  11.267  70.683  1.00  0.00    -0.174 OA 
HETATM   10  N   UNL     1     -10.026  10.365  69.047  1.00  0.00    -0.204 N  
HETATM   11  H   UNL     1      -9.681   9.473  68.692  1.00  0.00     0.000 HD 
BRANCH  10  12
HETATM   12  C   UNL     1      -9.483  11.537  68.461  1.00  0.00    -0.174 A  
HETATM   13  C   UNL     1      -8.183  11.968  68.772  1.00  0.00     0.027 A  
HETATM   14  C   UNL     1      -7.633  13.117  68.201  1.00  0.00    -0.141 A  
HETATM   15  C   UNL     1      -8.380  13.873  67.311  1.00  0.00    -0.199 A  
HETATM   16  C   UNL     1      -9.680  13.478  67.000  1.00  0.00    -0.251 A  
HETATM   17  C   UNL     1     -10.245  12.312  67.565  1.00  0.00    -0.212 A  
HETATM   18  C   UNL     1     -11.662  11.982  67.171  1.00  0.00    -0.344 C  
ENDBRANCH  10  12
ENDBRANCH   6   8
ENDBRANCH   4   6
ENDBRANCH   3   4
ENDBRANCH   2   3
TORSDOF 5
ENDMDL
MODEL      287
REMARK 921   NORMALIZED FREE ENERGY PREDICTED BY IDOCK:   -2.56 KCAL/MOL
REMARK 922        TOTAL FREE ENERGY PREDICTED BY IDOCK:   -3.65 KCAL/MOL
REMARK 923 INTER-LIGAND FREE ENERGY PREDICTED BY IDOCK:   -3.17 KCAL/MOL
REMARK 924 INTRA-LIGAND FREE ENERGY PREDICTED BY IDOCK:   -0.48 KCAL/MOL
REMARK 927      BINDING AFFINITY PREDICTED BY RF-SCORE:    0.00 PKD
ROOT
HETATM    1  C   UNL     1     -11.199  15.610  69.230  1.00  0.00    -0.320 C  
HETATM    2  C   UNL     1     -11.779  14.658  68.195  1.00  0.00    -0.360 C  
ENDROOT
BRANCH   2   3
HETATM    3  C   UNL     1     -11.523  13.200  68.574  1.00  0.00    -0.303 C  
BRANCH   3   4
HETATM    4  N   UNL     1     -10.133  13.041  69.021  1.00  0.00    -0.422 NA 
HETATM    5  H   UNL     1     -10.082  12.549  69.913  1.00  0.00     0.000 HD 
BRANCH   4   6
HETATM    6  C   UNL     1      -9.302  12.376  67.985  1.00  0.00    -0.204 C  
HETATM    7  C   UNL     1      -8.348  13.338  67.279  1.00  0.00    -0.182 C  
BRANCH   6   8
HETATM    8  C   UNL     1      -8.482  11.228  68.618  1.00  0.00    -0.143 C  
HETATM    9  O   UNL     1      -7.262  11.343  68.709  1.00  0.00    -0.092 OA 
HETATM   10  N   UNL     1      -9.247  10.176  69.106  1.00  0.00    -0.186 N  
HETATM   11  H   UNL     1     -10.260  10.274  69.039  1.00  0.00     0.000 HD 
BRANCH  10  12
HETATM   12  C   UNL     1      -8.760   8.978  69.688  1.00  0.00    -0.143 A  
HETATM   13  C   UNL     1      -8.305   8.950  71.017  1.00  0.00    -0.233 A  
HETATM   14  C   UNL     1      -7.826   7.778  71.606  1.00  0.00    -0.094 A  
HETATM   15  C   UNL     1      -7.779   6.604  70.871  1.00  0.00    -0.094 A  
HETATM   16  C   UNL     1      -8.206   6.608  69.545  1.00  0.00    -0.130 A  
HETATM   17  C   UNL     1      -8.701   7.786  68.939  1.00  0.00    -0.135 A  
HETATM   18  C   UNL     1      -9.125   7.684  67.496  1.00  0.00    -0.131 C  
ENDBRANCH  10  12
ENDBRANCH   6   8
ENDBRANCH   4   6
ENDBRANCH   3   4
ENDBRANCH   2   3
TORSDOF 5
ENDMDL
MODEL      288
REMARK 921   NORMALIZED FREE ENERGY PREDICTED BY IDOCK:   -2.54 KCAL/MOL
REMARK 922        TOTAL FREE ENERGY PREDICTED BY IDOCK:   -3.62 KCAL/MOL
REMARK 923 INTER-LIGAND FREE ENERGY PREDICTED BY IDOCK:   -3.10 KCAL/MOL
REMARK 924 INTRA-LIGAND FREE ENERGY PREDICTED BY IDOCK:   -0.53 KCAL/MOL
REMARK 927      BINDING AFFINITY PREDICTED BY RF-SCORE:    0.00 PKD
ROOT
HETATM    1  C   UNL     1     -11.464  14.366  66.591  1.00  0.00    -0.372 C  
HETATM    2  C   UNL     1     -10.732  14.032  67.883  1.00  0.00    -0.246 C  
ENDROOT
BRANCH   2   3
HETATM    3  C   UNL     1     -11.125  12.650  68.403  1.00  0.00    -0.265 C  
BRANCH   3   4
HETATM    4  N   UNL     1     -10.014  11.711  68.203  1.00  0.00    -0.189 NA 
HETATM    5  H   UNL     1      -9.828  11.167  69.046  1.00  0.00     0.000 HD 
BRANCH   4   6
HETATM    6  C   UNL     1     -10.251  10.831  67.031  1.00  0.00    -0.217 C  
HETATM    7  C   UNL     1      -9.222  11.028  65.919  1.00  0.00    -0.220 C  
BRANCH   6   8
HETATM    8  C   UNL     1     -10.240   9.347  67.468  1.00  0.00    -0.231 C  
HETATM    9  O   UNL     1     -10.755   9.034  68.539  1.00  0.00    -0.186 OA 
HETATM   10  N   UNL     1      -9.695   8.476  66.532  1.00  0.00    -0.240 N  
HETATM   11  H   UNL     1      -9.396   8.883  65.646  1.00  0.00     0.000 HD 
BRANCH  10  12
HETATM   12  C   UNL     1      -9.514   7.078  66.687  1.00  0.00    -0.165 A  
HETATM   13  C   UNL     1     -10.493   6.168  66.255  1.00  0.00     0.020 A  
HETATM   14  C   UNL     1     -10.329   4.789  66.397  1.00  0.00    -0.312 A  
HETATM   15  C   UNL     1      -9.180   4.286  66.987  1.00  0.00    -0.163 A  
HETATM   16  C   UNL     1      -8.201   5.168  67.441  1.00  0.00    -0.107 A  
HETATM   17  C   UNL     1      -8.352   6.566  67.297  1.00  0.00    -0.113 A  
HETATM   18  C   UNL     1      -7.240   7.431  67.833  1.00  0.00    -0.091 C  
ENDBRANCH  10  12
ENDBRANCH   6   8
ENDBRANCH   4   6
ENDBRANCH   3   4
ENDBRANCH   2   3
TORSDOF 5
ENDMDL
MODEL      289
REMARK 921   NORMALIZED FREE ENERGY PREDICTED BY IDOCK:   -2.52 KCAL/MOL
REMARK 922        TOTAL FREE ENERGY PREDICTED BY IDOCK:   -3.60 KCAL/MOL
REMARK 923 INTER-LIGAND FREE ENERGY PREDICTED BY IDOCK:   -3.18 KCAL/MOL
REMARK 924 INTRA-LIGAND FREE ENERGY PREDICTED BY IDOCK:   -0.42 KCAL/MOL
REMARK 927      BINDING AFFINITY PREDICTED BY RF-SCORE:    0.00 PKD
ROOT
HETATM    1  C   UNL     1     -12.139   6.956  71.044  1.00  0.00    -0.429 C  
HETATM    2  C   UNL     1     -11.237   6.277  70.023  1.00  0.00    -0.480 C  
ENDROOT
BRANCH   2   3
HETATM    3  C   UNL     1     -10.536   7.302  69.132  1.00  0.00    -0.215 C  
BRANCH   3   4
HETATM    4  N   UNL     1     -11.040   7.190  67.757  1.00  0.00    -0.533 NA 
HETATM    5  H   UNL     1     -12.059   7.244  67.728  1.00  0.00     0.000 HD 
BRANCH   4   6
HETATM    6  C   UNL     1     -10.417   8.201  66.866  1.00  0.00    -0.309 C  
HETATM    7  C   UNL     1     -10.163   9.536  67.564  1.00  0.00    -0.283 C  
BRANCH   6   8
HETATM    8  C   UNL     1      -9.079   7.664  66.307  1.00  0.00    -0.162 C  
HETATM    9  O   UNL     1      -8.022   8.105  66.754  1.00  0.00    -0.100 OA 
HETATM   10  N   UNL     1      -9.214   6.644  65.373  1.00  0.00    -0.318 N  
HETATM   11  H   UNL     1     -10.162   6.323  65.177  1.00  0.00     0.000 HD 
BRANCH  10  12
HETATM   12  C   UNL     1      -8.165   6.003  64.665  1.00  0.00    -0.108 A  
HETATM   13  C   UNL     1      -7.501   4.890  65.204  1.00  0.00    -0.076 A  
HETATM   14  C   UNL     1      -6.468   4.246  64.519  1.00  0.00    -0.042 A  
HETATM   15  C   UNL     1      -6.067   4.712  63.276  1.00  0.00    -0.018 A  
HETATM   16  C   UNL     1      -6.696   5.827  62.727  1.00  0.00    -0.036 A  
HETATM   17  C   UNL     1      -7.748   6.483  63.407  1.00  0.00    -0.106 A  
HETATM   18  C   UNL     1      -8.353   7.686  62.730  1.00  0.00     0.038 C  
ENDBRANCH  10  12
ENDBRANCH   6   8
ENDBRANCH   4   6
ENDBRANCH   3   4
ENDBRANCH   2   3
TORSDOF 5
ENDMDL
MODEL      290
REMARK 921   NORMALIZED FREE ENERGY PREDICTED BY IDOCK:   -2.50 KCAL/MOL
REMARK 922        TOTAL FREE ENERGY PREDICTED BY IDOCK:   -3.56 KCAL/MOL
REMARK 923 INTER-LIGAND FREE ENERGY PREDICTED BY IDOCK:   -3.11 KCAL/MOL
REMARK 924 INTRA-LIGAND FREE ENERGY PREDICTED BY IDOCK:   -0.46 KCAL/MOL
REMARK 927      BINDING AFFINITY PREDICTED BY RF-SCORE:    0.00 PKD
ROOT
HETATM    1  C   UNL     1     -13.308   6.927  71.531  1.00  0.00    -0.303 C  
HETATM    2  C   UNL     1     -11.970   6.774  70.824  1.00  0.00    -0.433 C  
ENDROOT
BRANCH   2   3
HETATM    3  C   UNL     1     -11.222   8.105  70.752  1.00  0.00    -0.261 C  
BRANCH   3   4
HETATM    4  N   UNL     1     -11.119   8.541  69.354  1.00  0.00    -0.432 NA 
HETATM    5  H   UNL     1     -11.832   9.234  69.126  1.00  0.00     0.000 HD 
BRANCH   4   6
HETATM    6  C   UNL     1      -9.757   9.040  69.039  1.00  0.00    -0.167 C  
HETATM    7  C   UNL     1      -9.013   9.559  70.268  1.00  0.00    -0.288 C  
BRANCH   6   8
HETATM    8  C   UNL     1      -8.919   7.919  68.380  1.00  0.00    -0.133 C  
HETATM    9  O   UNL     1      -7.859   7.579  68.901  1.00  0.00    -0.118 OA 
HETATM   10  N   UNL     1      -9.512   7.337  67.266  1.00  0.00    -0.133 N  
HETATM   11  H   UNL     1     -10.443   7.669  67.015  1.00  0.00     0.000 HD 
BRANCH  10  12
HETATM   12  C   UNL     1      -8.951   6.327  66.443  1.00  0.00    -0.152 A  
HETATM   13  C   UNL     1      -9.073   4.969  66.778  1.00  0.00    -0.118 A  
HETATM   14  C   UNL     1      -8.529   3.962  65.977  1.00  0.00    -0.110 A  
HETATM   15  C   UNL     1      -7.838   4.294  64.823  1.00  0.00    -0.088 A  
HETATM   16  C   UNL     1      -7.686   5.636  64.478  1.00  0.00    -0.096 A  
HETATM   17  C   UNL     1      -8.238   6.663  65.276  1.00  0.00    -0.133 A  
HETATM   18  C   UNL     1      -8.006   8.081  64.819  1.00  0.00    -0.143 C  
ENDBRANCH  10  12
ENDBRANCH   6   8
ENDBRANCH   4   6
ENDBRANCH   3   4
ENDBRANCH   2   3
TORSDOF 5
ENDMDL
MODEL      291
REMARK 921   NORMALIZED FREE ENERGY PREDICTED BY IDOCK:   -2.48 KCAL/MOL
REMARK 922        TOTAL FREE ENERGY PREDICTED BY IDOCK:   -3.55 KCAL/MOL
REMARK 923 INTER-LIGAND FREE ENERGY PREDICTED BY IDOCK:   -2.87 KCAL/MOL
REMARK 924 INTRA-LIGAND FREE ENERGY PREDICTED BY IDOCK:   -0.68 KCAL/MOL
REMARK 927      BINDING AFFINITY PREDICTED BY RF-SCORE:    0.00 PKD
ROOT
HETATM    1  C   UNL     1     -10.278   8.823  69.494  1.00  0.00    -0.208 C  
HETATM    2  C   UNL     1     -11.262   9.414  70.492  1.00  0.00    -0.329 C  
ENDROOT
BRANCH   2   3
HETATM    3  C   UNL     1     -10.973   8.928  71.912  1.00  0.00    -0.369 C  
BRANCH   3   4
HETATM    4  N   UNL     1      -9.549   8.595  72.042  1.00  0.00    -0.297 NA 
HETATM    5  H   UNL     1      -9.015   9.379  72.416  1.00  0.00     0.000 HD 
BRANCH   4   6
HETATM    6  C   UNL     1      -9.350   7.367  72.852  1.00  0.00    -0.164 C  
HETATM    7  C   UNL     1     -10.663   6.747  73.329  1.00  0.00    -0.330 C  
BRANCH   6   8
HETATM    8  C   UNL     1      -8.564   6.313  72.038  1.00  0.00    -0.131 C  
HETATM    9  O   UNL     1      -7.455   5.957  72.431  1.00  0.00    -0.096 OA 
HETATM   10  N   UNL     1      -9.251   5.802  70.944  1.00  0.00    -0.155 N  
HETATM   11  H   UNL     1     -10.206   6.133  70.805  1.00  0.00     0.000 HD 
BRANCH  10  12
HETATM   12  C   UNL     1      -8.757   4.866  70.000  1.00  0.00    -0.094 A  
HETATM   13  C   UNL     1      -8.050   5.288  68.862  1.00  0.00    -0.086 A  
HETATM   14  C   UNL     1      -7.554   4.379  67.925  1.00  0.00    -0.076 A  
HETATM   15  C   UNL     1      -7.768   3.020  68.099  1.00  0.00    -0.056 A  
HETATM   16  C   UNL     1      -8.484   2.576  69.209  1.00  0.00    -0.099 A  
HETATM   17  C   UNL     1      -8.983   3.486  70.169  1.00  0.00    -0.174 A  
HETATM   18  C   UNL     1      -9.754   2.902  71.326  1.00  0.00    -0.205 C  
ENDBRANCH  10  12
ENDBRANCH   6   8
ENDBRANCH   4   6
ENDBRANCH   3   4
ENDBRANCH   2   3
TORSDOF 5
ENDMDL
MODEL      292
REMARK 921   NORMALIZED FREE ENERGY PREDICTED BY IDOCK:   -2.47 KCAL/MOL
REMARK 922        TOTAL FREE ENERGY PREDICTED BY IDOCK:   -3.53 KCAL/MOL
REMARK 923 INTER-LIGAND FREE ENERGY PREDICTED BY IDOCK:   -3.09 KCAL/MOL
REMARK 924 INTRA-LIGAND FREE ENERGY PREDICTED BY IDOCK:   -0.43 KCAL/MOL
REMARK 927      BINDING AFFINITY PREDICTED BY RF-SCORE:    0.00 PKD
ROOT
HETATM    1  C   UNL     1     -12.461   6.640  70.966  1.00  0.00    -0.225 C  
HETATM    2  C   UNL     1     -11.360   6.348  69.957  1.00  0.00    -0.496 C  
ENDROOT
BRANCH   2   3
HETATM    3  C   UNL     1     -10.728   7.637  69.434  1.00  0.00    -0.184 C  
BRANCH   3   4
HETATM    4  N   UNL     1     -11.128   7.854  68.038  1.00  0.00    -0.391 NA 
HETATM    5  H   UNL     1     -12.122   7.671  67.902  1.00  0.00     0.000 HD 
BRANCH   4   6
HETATM    6  C   UNL     1     -10.757   9.214  67.571  1.00  0.00    -0.185 C  
HETATM    7  C   UNL     1     -10.806  10.260  68.684  1.00  0.00    -0.272 C  
BRANCH   6   8
HETATM    8  C   UNL     1      -9.337   9.198  66.959  1.00  0.00    -0.148 C  
HETATM    9  O   UNL     1      -8.422   9.763  67.553  1.00  0.00    -0.121 OA 
HETATM   10  N   UNL     1      -9.223   8.452  65.792  1.00  0.00    -0.372 N  
HETATM   11  H   UNL     1     -10.060   7.961  65.476  1.00  0.00     0.000 HD 
BRANCH  10  12
HETATM   12  C   UNL     1      -8.059   8.304  64.996  1.00  0.00    -0.148 A  
HETATM   13  C   UNL     1      -7.149   7.260  65.230  1.00  0.00    -0.060 A  
HETATM   14  C   UNL     1      -5.999   7.098  64.453  1.00  0.00    -0.037 A  
HETATM   15  C   UNL     1      -5.727   7.990  63.427  1.00  0.00    -0.059 A  
HETATM   16  C   UNL     1      -6.604   9.045  63.186  1.00  0.00    -0.090 A  
HETATM   17  C   UNL     1      -7.774   9.215  63.960  1.00  0.00    -0.122 A  
HETATM   18  C   UNL     1      -8.649  10.396  63.624  1.00  0.00    -0.186 C  
ENDBRANCH  10  12
ENDBRANCH   6   8
ENDBRANCH   4   6
ENDBRANCH   3   4
ENDBRANCH   2   3
TORSDOF 5
ENDMDL
MODEL      293
REMARK 921   NORMALIZED FREE ENERGY PREDICTED BY IDOCK:   -2.45 KCAL/MOL
REMARK 922        TOTAL FREE ENERGY PREDICTED BY IDOCK:   -3.51 KCAL/MOL
REMARK 923 INTER-LIGAND FREE ENERGY PREDICTED BY IDOCK:   -3.15 KCAL/MOL
REMARK 924 INTRA-LIGAND FREE ENERGY PREDICTED BY IDOCK:   -0.36 KCAL/MOL
REMARK 927      BINDING AFFINITY PREDICTED BY RF-SCORE:    0.00 PKD
ROOT
HETATM    1  C   UNL     1      -5.371  13.689  68.643  1.00  0.00    -0.085 C  
HETATM    2  C   UNL     1      -6.581  12.793  68.866  1.00  0.00    -0.095 C  
ENDROOT
BRANCH   2   3
HETATM    3  C   UNL     1      -6.214  11.554  69.682  1.00  0.00    -0.124 C  
BRANCH   3   4
HETATM    4  N   UNL     1      -7.432  10.805  70.020  1.00  0.00    -0.415 NA 
HETATM    5  H   UNL     1      -8.239  11.150  69.500  1.00  0.00     0.000 HD 
BRANCH   4   6
HETATM    6  C   UNL     1      -7.243   9.346  69.825  1.00  0.00    -0.076 C  
HETATM    7  C   UNL     1      -5.772   8.934  69.792  1.00  0.00    -0.029 C  
BRANCH   6   8
HETATM    8  C   UNL     1      -7.960   8.561  70.948  1.00  0.00    -0.110 C  
HETATM    9  O   UNL     1      -7.722   8.843  72.121  1.00  0.00    -0.341 OA 
HETATM   10  N   UNL     1      -8.892   7.634  70.498  1.00  0.00    -0.148 N  
HETATM   11  H   UNL     1      -9.042   7.586  69.491  1.00  0.00     0.000 HD 
BRANCH  10  12
HETATM   12  C   UNL     1      -9.655   6.747  71.300  1.00  0.00    -0.169 A  
HETATM   13  C   UNL     1      -9.221   5.434  71.542  1.00  0.00    -0.169 A  
HETATM   14  C   UNL     1      -9.959   4.549  72.331  1.00  0.00    -0.229 A  
HETATM   15  C   UNL     1     -11.160   4.958  72.891  1.00  0.00    -0.329 A  
HETATM   16  C   UNL     1     -11.622   6.250  72.651  1.00  0.00    -0.213 A  
HETATM   17  C   UNL     1     -10.881   7.157  71.860  1.00  0.00    -0.255 A  
HETATM   18  C   UNL     1     -11.476   8.527  71.653  1.00  0.00    -0.365 C  
ENDBRANCH  10  12
ENDBRANCH   6   8
ENDBRANCH   4   6
ENDBRANCH   3   4
ENDBRANCH   2   3
TORSDOF 5
ENDMDL
MODEL      294
REMARK 921   NORMALIZED FREE ENERGY PREDICTED BY IDOCK:   -2.43 KCAL/MOL
REMARK 922        TOTAL FREE ENERGY PREDICTED BY IDOCK:   -3.47 KCAL/MOL
REMARK 923 INTER-LIGAND FREE ENERGY PREDICTED BY IDOCK:   -3.11 KCAL/MOL
REMARK 924 INTRA-LIGAND FREE ENERGY PREDICTED BY IDOCK:   -0.37 KCAL/MOL
REMARK 927      BINDING AFFINITY PREDICTED BY RF-SCORE:    0.00 PKD
ROOT
HETATM    1  C   UNL     1     -11.448  12.947  63.723  1.00  0.00    -0.519 C  
HETATM    2  C   UNL     1     -12.124  12.280  64.912  1.00  0.00    -0.422 C  
ENDROOT
BRANCH   2   3
HETATM    3  C   UNL     1     -11.459  12.683  66.228  1.00  0.00    -0.364 C  
BRANCH   3   4
HETATM    4  N   UNL     1     -11.286  11.498  67.078  1.00  0.00    -0.320 NA 
HETATM    5  H   UNL     1     -10.713  10.789  66.619  1.00  0.00     0.000 HD 
BRANCH   4   6
HETATM    6  C   UNL     1     -10.737  11.860  68.410  1.00  0.00    -0.220 C  
HETATM    7  C   UNL     1     -11.696  11.542  69.556  1.00  0.00    -0.413 C  
BRANCH   6   8
HETATM    8  C   UNL     1      -9.401  11.121  68.654  1.00  0.00    -0.184 C  
HETATM    9  O   UNL     1      -8.426  11.400  67.960  1.00  0.00    -0.133 OA 
HETATM   10  N   UNL     1      -9.421  10.236  69.725  1.00  0.00    -0.393 N  
HETATM   11  H   UNL     1     -10.285  10.187  70.265  1.00  0.00     0.000 HD 
BRANCH  10  12
HETATM   12  C   UNL     1      -8.359   9.394  70.144  1.00  0.00    -0.182 A  
HETATM   13  C   UNL     1      -7.485   9.785  71.171  1.00  0.00     0.443 A  
HETATM   14  C   UNL     1      -6.437   8.967  71.598  1.00  0.00    -0.054 A  
HETATM   15  C   UNL     1      -6.230   7.737  70.993  1.00  0.00    -0.034 A  
HETATM   16  C   UNL     1      -7.070   7.333  69.957  1.00  0.00    -0.066 A  
HETATM   17  C   UNL     1      -8.140   8.148  69.523  1.00  0.00    -0.119 A  
HETATM   18  C   UNL     1      -8.981   7.622  68.388  1.00  0.00    -0.128 C  
ENDBRANCH  10  12
ENDBRANCH   6   8
ENDBRANCH   4   6
ENDBRANCH   3   4
ENDBRANCH   2   3
TORSDOF 5
ENDMDL
MODEL      295
REMARK 921   NORMALIZED FREE ENERGY PREDICTED BY IDOCK:   -2.42 KCAL/MOL
REMARK 922        TOTAL FREE ENERGY PREDICTED BY IDOCK:   -3.47 KCAL/MOL
REMARK 923 INTER-LIGAND FREE ENERGY PREDICTED BY IDOCK:   -3.27 KCAL/MOL
REMARK 924 INTRA-LIGAND FREE ENERGY PREDICTED BY IDOCK:   -0.19 KCAL/MOL
REMARK 927      BINDING AFFINITY PREDICTED BY RF-SCORE:    0.00 PKD
ROOT
HETATM    1  C   UNL     1     -13.122  10.378  70.811  1.00  0.00    -0.362 C  
HETATM    2  C   UNL     1     -12.167   9.685  71.772  1.00  0.00    -0.464 C  
ENDROOT
BRANCH   2   3
HETATM    3  C   UNL     1     -11.994   8.209  71.416  1.00  0.00    -0.298 C  
BRANCH   3   4
HETATM    4  N   UNL     1     -11.231   8.086  70.167  1.00  0.00    -0.412 NA 
HETATM    5  H   UNL     1     -11.779   8.394  69.364  1.00  0.00     0.000 HD 
BRANCH   4   6
HETATM    6  C   UNL     1      -9.935   8.806  70.249  1.00  0.00    -0.186 C  
HETATM    7  C   UNL     1      -8.731   7.866  70.268  1.00  0.00    -0.138 C  
BRANCH   6   8
HETATM    8  C   UNL     1      -9.792   9.782  69.058  1.00  0.00    -0.181 C  
HETATM    9  O   UNL     1     -10.288   9.482  67.975  1.00  0.00    -0.190 OA 
HETATM   10  N   UNL     1      -9.157  10.978  69.369  1.00  0.00    -0.390 N  
HETATM   11  H   UNL     1      -8.885  11.116  70.342  1.00  0.00     0.000 HD 
BRANCH  10  12
HETATM   12  C   UNL     1      -8.848  12.028  68.466  1.00  0.00    -0.095 A  
HETATM   13  C   UNL     1      -9.788  12.473  67.523  1.00  0.00    -0.198 A  
HETATM   14  C   UNL     1      -9.502  13.508  66.630  1.00  0.00    -0.271 A  
HETATM   15  C   UNL     1      -8.256  14.116  66.653  1.00  0.00     0.317 A  
HETATM   16  C   UNL     1      -7.298  13.681  67.566  1.00  0.00    -0.178 A  
HETATM   17  C   UNL     1      -7.579  12.640  68.481  1.00  0.00    -0.121 A  
HETATM   18  C   UNL     1      -6.469  12.239  69.418  1.00  0.00    -0.105 C  
ENDBRANCH  10  12
ENDBRANCH   6   8
ENDBRANCH   4   6
ENDBRANCH   3   4
ENDBRANCH   2   3
TORSDOF 5
ENDMDL
MODEL      296
REMARK 921   NORMALIZED FREE ENERGY PREDICTED BY IDOCK:   -2.40 KCAL/MOL
REMARK 922        TOTAL FREE ENERGY PREDICTED BY IDOCK:   -3.44 KCAL/MOL
REMARK 923 INTER-LIGAND FREE ENERGY PREDICTED BY IDOCK:   -3.07 KCAL/MOL
REMARK 924 INTRA-LIGAND FREE ENERGY PREDICTED BY IDOCK:   -0.37 KCAL/MOL
REMARK 927      BINDING AFFINITY PREDICTED BY RF-SCORE:    0.00 PKD
ROOT
HETATM    1  C   UNL     1     -13.489  12.859  72.016  1.00  0.00    -0.568 C  
HETATM    2  C   UNL     1     -12.366  12.406  71.095  1.00  0.00    -0.243 C  
ENDROOT
BRANCH   2   3
HETATM    3  C   UNL     1     -12.584  10.972  70.615  1.00  0.00    -0.338 C  
BRANCH   3   4
HETATM    4  N   UNL     1     -11.929  10.779  69.315  1.00  0.00    -0.480 NA 
HETATM    5  H   UNL     1     -11.783  11.668  68.835  1.00  0.00     0.000 HD 
BRANCH   4   6
HETATM    6  C   UNL     1     -10.659  10.022  69.453  1.00  0.00    -0.233 C  
HETATM    7  C   UNL     1     -10.766   8.583  68.949  1.00  0.00    -0.100 C  
BRANCH   6   8
HETATM    8  C   UNL     1      -9.525  10.740  68.687  1.00  0.00    -0.188 C  
HETATM    9  O   UNL     1      -9.520  11.968  68.635  1.00  0.00    -0.163 OA 
HETATM   10  N   UNL     1      -8.547   9.892  68.179  1.00  0.00    -0.118 N  
HETATM   11  H   UNL     1      -8.646   8.899  68.390  1.00  0.00     0.000 HD 
BRANCH  10  12
HETATM   12  C   UNL     1      -7.425  10.271  67.398  1.00  0.00    -0.094 A  
HETATM   13  C   UNL     1      -7.420  10.095  66.005  1.00  0.00    -0.118 A  
HETATM   14  C   UNL     1      -6.325  10.465  65.221  1.00  0.00    -0.114 A  
HETATM   15  C   UNL     1      -5.200  11.011  65.819  1.00  0.00    -0.127 A  
HETATM   16  C   UNL     1      -5.171  11.177  67.201  1.00  0.00    -0.054 A  
HETATM   17  C   UNL     1      -6.276  10.814  68.005  1.00  0.00    -0.057 A  
HETATM   18  C   UNL     1      -6.137  11.026  69.491  1.00  0.00    -0.072 C  
ENDBRANCH  10  12
ENDBRANCH   6   8
ENDBRANCH   4   6
ENDBRANCH   3   4
ENDBRANCH   2   3
TORSDOF 5
ENDMDL
MODEL      297
REMARK 921   NORMALIZED FREE ENERGY PREDICTED BY IDOCK:   -2.36 KCAL/MOL
REMARK 922        TOTAL FREE ENERGY PREDICTED BY IDOCK:   -3.39 KCAL/MOL
REMARK 923 INTER-LIGAND FREE ENERGY PREDICTED BY IDOCK:   -2.88 KCAL/MOL
REMARK 924 INTRA-LIGAND FREE ENERGY PREDICTED BY IDOCK:   -0.51 KCAL/MOL
REMARK 927      BINDING AFFINITY PREDICTED BY RF-SCORE:    0.00 PKD
ROOT
HETATM    1  C   UNL     1     -10.519   2.566  72.995  1.00  0.00    -0.245 C  
HETATM    2  C   UNL     1      -9.209   3.327  72.852  1.00  0.00    -0.119 C  
ENDROOT
BRANCH   2   3
HETATM    3  C   UNL     1      -9.435   4.838  72.900  1.00  0.00    -0.130 C  
BRANCH   3   4
HETATM    4  N   UNL     1     -10.328   5.240  71.806  1.00  0.00    -0.209 NA 
HETATM    5  H   UNL     1     -10.909   6.036  72.072  1.00  0.00     0.000 HD 
BRANCH   4   6
HETATM    6  C   UNL     1      -9.570   5.514  70.559  1.00  0.00    -0.173 C  
HETATM    7  C   UNL     1      -9.997   4.622  69.394  1.00  0.00    -0.249 C  
BRANCH   6   8
HETATM    8  C   UNL     1      -9.740   6.995  70.147  1.00  0.00    -0.175 C  
HETATM    9  O   UNL     1     -10.206   7.793  70.957  1.00  0.00    -0.197 OA 
HETATM   10  N   UNL     1      -9.258   7.297  68.879  1.00  0.00    -0.142 N  
HETATM   11  H   UNL     1      -8.809   6.539  68.365  1.00  0.00     0.000 HD 
BRANCH  10  12
HETATM   12  C   UNL     1      -9.326   8.556  68.229  1.00  0.00    -0.137 A  
HETATM   13  C   UNL     1     -10.417   8.891  67.411  1.00  0.00    -0.347 A  
HETATM   14  C   UNL     1     -10.501  10.127  66.766  1.00  0.00    -0.270 A  
HETATM   15  C   UNL     1      -9.484  11.057  66.918  1.00  0.00    -0.197 A  
HETATM   16  C   UNL     1      -8.381  10.742  67.709  1.00  0.00    -0.113 A  
HETATM   17  C   UNL     1      -8.288   9.498  68.373  1.00  0.00    -0.118 A  
HETATM   18  C   UNL     1      -7.048   9.255  69.195  1.00  0.00    -0.062 C  
ENDBRANCH  10  12
ENDBRANCH   6   8
ENDBRANCH   4   6
ENDBRANCH   3   4
ENDBRANCH   2   3
TORSDOF 5
ENDMDL
MODEL      298
REMARK 921   NORMALIZED FREE ENERGY PREDICTED BY IDOCK:   -2.33 KCAL/MOL
REMARK 922        TOTAL FREE ENERGY PREDICTED BY IDOCK:   -3.35 KCAL/MOL
REMARK 923 INTER-LIGAND FREE ENERGY PREDICTED BY IDOCK:   -3.27 KCAL/MOL
REMARK 924 INTRA-LIGAND FREE ENERGY PREDICTED BY IDOCK:   -0.08 KCAL/MOL
REMARK 927      BINDING AFFINITY PREDICTED BY RF-SCORE:    0.00 PKD
ROOT
HETATM    1  C   UNL     1      -8.559   8.425  71.496  1.00  0.00    -0.215 C  
HETATM    2  C   UNL     1      -9.162   9.226  70.352  1.00  0.00    -0.291 C  
ENDROOT
BRANCH   2   3
HETATM    3  C   UNL     1      -8.628   8.755  69.000  1.00  0.00    -0.132 C  
BRANCH   3   4
HETATM    4  N   UNL     1      -8.301   9.918  68.164  1.00  0.00    -0.109 NA 
HETATM    5  H   UNL     1      -9.143  10.370  67.807  1.00  0.00     0.000 HD 
BRANCH   4   6
HETATM    6  C   UNL     1      -7.433  10.880  68.889  1.00  0.00    -0.116 C  
HETATM    7  C   UNL     1      -5.949  10.527  68.802  1.00  0.00    -0.040 C  
BRANCH   6   8
HETATM    8  C   UNL     1      -7.642  12.308  68.333  1.00  0.00    -0.128 C  
HETATM    9  O   UNL     1      -6.663  13.022  68.130  1.00  0.00    -0.080 OA 
HETATM   10  N   UNL     1      -8.964  12.622  68.037  1.00  0.00    -0.193 N  
HETATM   11  H   UNL     1      -9.653  11.883  68.174  1.00  0.00     0.000 HD 
BRANCH  10  12
HETATM   12  C   UNL     1      -9.449  13.868  67.564  1.00  0.00    -0.216 A  
HETATM   13  C   UNL     1      -8.630  14.728  66.816  1.00  0.00    -0.226 A  
HETATM   14  C   UNL     1      -9.093  15.957  66.340  1.00  0.00    -0.355 A  
HETATM   15  C   UNL     1     -10.391  16.359  66.614  1.00  0.00    -0.292 A  
HETATM   16  C   UNL     1     -11.219  15.533  67.371  1.00  0.00    -0.248 A  
HETATM   17  C   UNL     1     -10.764  14.284  67.852  1.00  0.00    -0.244 A  
HETATM   18  C   UNL     1     -11.736  13.473  68.671  1.00  0.00    -0.389 C  
ENDBRANCH  10  12
ENDBRANCH   6   8
ENDBRANCH   4   6
ENDBRANCH   3   4
ENDBRANCH   2   3
TORSDOF 5
ENDMDL
MODEL      299
REMARK 921   NORMALIZED FREE ENERGY PREDICTED BY IDOCK:   -2.26 KCAL/MOL
REMARK 922        TOTAL FREE ENERGY PREDICTED BY IDOCK:   -3.26 KCAL/MOL
REMARK 923 INTER-LIGAND FREE ENERGY PREDICTED BY IDOCK:   -2.97 KCAL/MOL
REMARK 924 INTRA-LIGAND FREE ENERGY PREDICTED BY IDOCK:   -0.29 KCAL/MOL
REMARK 927      BINDING AFFINITY PREDICTED BY RF-SCORE:    0.00 PKD
ROOT
HETATM    1  C   UNL     1     -12.157  15.302  69.189  1.00  0.00    -0.266 C  
HETATM    2  C   UNL     1     -11.780  14.071  68.378  1.00  0.00    -0.389 C  
ENDROOT
BRANCH   2   3
HETATM    3  C   UNL     1     -10.298  13.732  68.539  1.00  0.00    -0.244 C  
BRANCH   3   4
HETATM    4  N   UNL     1      -9.724  13.391  67.231  1.00  0.00    -0.226 NA 
HETATM    5  H   UNL     1     -10.013  14.054  66.512  1.00  0.00     0.000 HD 
BRANCH   4   6
HETATM    6  C   UNL     1      -8.245  13.275  67.300  1.00  0.00    -0.158 C  
HETATM    7  C   UNL     1      -7.660  13.877  68.577  1.00  0.00    -0.134 C  
BRANCH   6   8
HETATM    8  C   UNL     1      -7.822  11.791  67.204  1.00  0.00    -0.166 C  
HETATM    9  O   UNL     1      -6.692  11.515  66.807  1.00  0.00    -0.140 OA 
HETATM   10  N   UNL     1      -8.773  10.891  67.666  1.00  0.00    -0.126 N  
HETATM   11  H   UNL     1      -9.629  11.286  68.056  1.00  0.00     0.000 HD 
BRANCH  10  12
HETATM   12  C   UNL     1      -8.674   9.476  67.651  1.00  0.00    -0.122 A  
HETATM   13  C   UNL     1      -8.212   8.770  68.774  1.00  0.00    -0.116 A  
HETATM   14  C   UNL     1      -8.111   7.377  68.777  1.00  0.00    -0.128 A  
HETATM   15  C   UNL     1      -8.460   6.656  67.646  1.00  0.00    -0.121 A  
HETATM   16  C   UNL     1      -8.903   7.333  66.511  1.00  0.00    -0.156 A  
HETATM   17  C   UNL     1      -9.017   8.742  66.499  1.00  0.00    -0.180 A  
HETATM   18  C   UNL     1      -9.494   9.376  65.217  1.00  0.00    -0.296 C  
ENDBRANCH  10  12
ENDBRANCH   6   8
ENDBRANCH   4   6
ENDBRANCH   3   4
ENDBRANCH   2   3
TORSDOF 5
ENDMDL
MODEL      300
REMARK 921   NORMALIZED FREE ENERGY PREDICTED BY IDOCK:   -2.26 KCAL/MOL
REMARK 922        TOTAL FREE ENERGY PREDICTED BY IDOCK:   -3.25 KCAL/MOL
REMARK 923 INTER-LIGAND FREE ENERGY PREDICTED BY IDOCK:   -2.83 KCAL/MOL
REMARK 924 INTRA-LIGAND FREE ENERGY PREDICTED BY IDOCK:   -0.42 KCAL/MOL
REMARK 927      BINDING AFFINITY PREDICTED BY RF-SCORE:    0.00 PKD
ROOT
HETATM    1  C   UNL     1     -10.284  10.710  64.978  1.00  0.00    -0.380 C  
HETATM    2  C   UNL     1      -9.447  10.200  66.141  1.00  0.00    -0.238 C  
ENDROOT
BRANCH   2   3
HETATM    3  C   UNL     1      -9.399  11.218  67.281  1.00  0.00    -0.166 C  
BRANCH   3   4
HETATM    4  N   UNL     1      -9.745  10.560  68.547  1.00  0.00    -0.159 NA 
HETATM    5  H   UNL     1     -10.682  10.158  68.516  1.00  0.00     0.000 HD 
BRANCH   4   6
HETATM    6  C   UNL     1      -8.731   9.544  68.926  1.00  0.00    -0.133 C  
HETATM    7  C   UNL     1      -8.064   9.839  70.269  1.00  0.00    -0.181 C  
BRANCH   6   8
HETATM    8  C   UNL     1      -9.379   8.141  68.985  1.00  0.00    -0.147 C  
HETATM    9  O   UNL     1     -10.597   8.049  69.118  1.00  0.00    -0.219 OA 
HETATM   10  N   UNL     1      -8.491   7.089  68.799  1.00  0.00    -0.122 N  
HETATM   11  H   UNL     1      -7.520   7.336  68.604  1.00  0.00     0.000 HD 
BRANCH  10  12
HETATM   12  C   UNL     1      -8.799   5.705  68.851  1.00  0.00    -0.109 A  
HETATM   13  C   UNL     1      -9.181   5.004  67.697  1.00  0.00    -0.132 A  
HETATM   14  C   UNL     1      -9.484   3.641  67.730  1.00  0.00    -0.231 A  
HETATM   15  C   UNL     1      -9.423   2.948  68.930  1.00  0.00    -0.174 A  
HETATM   16  C   UNL     1      -9.066   3.625  70.094  1.00  0.00    -0.199 A  
HETATM   17  C   UNL     1      -8.749   5.003  70.071  1.00  0.00    -0.119 A  
HETATM   18  C   UNL     1      -8.386   5.641  71.388  1.00  0.00    -0.127 C  
ENDBRANCH  10  12
ENDBRANCH   6   8
ENDBRANCH   4   6
ENDBRANCH   3   4
ENDBRANCH   2   3
TORSDOF 5
ENDMDL
MODEL      301
REMARK 921   NORMALIZED FREE ENERGY PREDICTED BY IDOCK:   -2.23 KCAL/MOL
REMARK 922        TOTAL FREE ENERGY PREDICTED BY IDOCK:   -3.22 KCAL/MOL
REMARK 923 INTER-LIGAND FREE ENERGY PREDICTED BY IDOCK:   -2.71 KCAL/MOL
REMARK 924 INTRA-LIGAND FREE ENERGY PREDICTED BY IDOCK:   -0.50 KCAL/MOL
REMARK 927      BINDING AFFINITY PREDICTED BY RF-SCORE:    0.00 PKD
ROOT
HETATM    1  C   UNL     1     -10.746   9.170  71.916  1.00  0.00    -0.334 C  
HETATM    2  C   UNL     1      -9.269   8.936  71.634  1.00  0.00    -0.302 C  
ENDROOT
BRANCH   2   3
HETATM    3  C   UNL     1      -8.947   9.139  70.153  1.00  0.00    -0.198 C  
BRANCH   3   4
HETATM    4  N   UNL     1     -10.024   8.573  69.330  1.00  0.00    -0.189 NA 
HETATM    5  H   UNL     1     -10.292   9.208  68.578  1.00  0.00     0.000 HD 
BRANCH   4   6
HETATM    6  C   UNL     1      -9.660   7.233  68.805  1.00  0.00    -0.142 C  
HETATM    7  C   UNL     1     -10.861   6.456  68.268  1.00  0.00    -0.384 C  
BRANCH   6   8
HETATM    8  C   UNL     1      -8.607   7.369  67.681  1.00  0.00    -0.119 C  
HETATM    9  O   UNL     1      -7.480   6.910  67.856  1.00  0.00    -0.094 OA 
HETATM   10  N   UNL     1      -9.085   7.953  66.514  1.00  0.00    -0.161 N  
HETATM   11  H   UNL     1     -10.075   8.196  66.493  1.00  0.00     0.000 HD 
BRANCH  10  12
HETATM   12  C   UNL     1      -8.332   8.246  65.348  1.00  0.00    -0.162 A  
HETATM   13  C   UNL     1      -8.132   7.276  64.352  1.00  0.00    -0.065 A  
HETATM   14  C   UNL     1      -7.397   7.548  63.197  1.00  0.00    -0.090 A  
HETATM   15  C   UNL     1      -6.832   8.801  63.016  1.00  0.00    -0.090 A  
HETATM   16  C   UNL     1      -6.999   9.776  63.997  1.00  0.00    -0.120 A  
HETATM   17  C   UNL     1      -7.748   9.515  65.167  1.00  0.00    -0.112 A  
HETATM   18  C   UNL     1      -7.857  10.635  66.171  1.00  0.00    -0.152 C  
ENDBRANCH  10  12
ENDBRANCH   6   8
ENDBRANCH   4   6
ENDBRANCH   3   4
ENDBRANCH   2   3
TORSDOF 5
ENDMDL
MODEL      302
REMARK 921   NORMALIZED FREE ENERGY PREDICTED BY IDOCK:   -2.21 KCAL/MOL
REMARK 922        TOTAL FREE ENERGY PREDICTED BY IDOCK:   -3.20 KCAL/MOL
REMARK 923 INTER-LIGAND FREE ENERGY PREDICTED BY IDOCK:   -2.72 KCAL/MOL
REMARK 924 INTRA-LIGAND FREE ENERGY PREDICTED BY IDOCK:   -0.48 KCAL/MOL
REMARK 927      BINDING AFFINITY PREDICTED BY RF-SCORE:    0.00 PKD
ROOT
HETATM    1  C   UNL     1      -9.422   5.128  72.862  1.00  0.00    -0.158 C  
HETATM    2  C   UNL     1     -10.892   4.773  73.033  1.00  0.00    -0.326 C  
ENDROOT
BRANCH   2   3
HETATM    3  C   UNL     1     -11.795   5.958  72.692  1.00  0.00    -0.141 C  
BRANCH   3   4
HETATM    4  N   UNL     1     -10.972   7.124  72.346  1.00  0.00    -0.239 NA 
HETATM    5  H   UNL     1     -10.027   6.848  72.077  1.00  0.00     0.000 HD 
BRANCH   4   6
HETATM    6  C   UNL     1     -11.616   7.950  71.294  1.00  0.00    -0.276 C  
HETATM    7  C   UNL     1     -12.316   9.188  71.854  1.00  0.00    -0.455 C  
BRANCH   6   8
HETATM    8  C   UNL     1     -10.567   8.396  70.249  1.00  0.00    -0.227 C  
HETATM    9  O   UNL     1     -10.844   8.325  69.054  1.00  0.00    -0.131 OA 
HETATM   10  N   UNL     1      -9.401   8.922  70.793  1.00  0.00    -0.208 N  
HETATM   11  H   UNL     1      -9.363   9.001  71.810  1.00  0.00     0.000 HD 
BRANCH  10  12
HETATM   12  C   UNL     1      -8.259   9.360  70.077  1.00  0.00    -0.162 A  
HETATM   13  C   UNL     1      -8.263  10.582  69.384  1.00  0.00    -0.128 A  
HETATM   14  C   UNL     1      -7.145  11.030  68.676  1.00  0.00    -0.080 A  
HETATM   15  C   UNL     1      -5.996  10.255  68.635  1.00  0.00    -0.044 A  
HETATM   16  C   UNL     1      -5.972   9.030  69.298  1.00  0.00    -0.041 A  
HETATM   17  C   UNL     1      -7.094   8.569  70.025  1.00  0.00    -0.046 A  
HETATM   18  C   UNL     1      -6.967   7.225  70.696  1.00  0.00    -0.057 C  
ENDBRANCH  10  12
ENDBRANCH   6   8
ENDBRANCH   4   6
ENDBRANCH   3   4
ENDBRANCH   2   3
TORSDOF 5
ENDMDL
MODEL      303
REMARK 921   NORMALIZED FREE ENERGY PREDICTED BY IDOCK:   -2.20 KCAL/MOL
REMARK 922        TOTAL FREE ENERGY PREDICTED BY IDOCK:   -3.18 KCAL/MOL
REMARK 923 INTER-LIGAND FREE ENERGY PREDICTED BY IDOCK:   -2.76 KCAL/MOL
REMARK 924 INTRA-LIGAND FREE ENERGY PREDICTED BY IDOCK:   -0.42 KCAL/MOL
REMARK 927      BINDING AFFINITY PREDICTED BY RF-SCORE:    0.00 PKD
ROOT
HETATM    1  C   UNL     1     -10.824  15.672  66.481  1.00  0.00    -0.260 C  
HETATM    2  C   UNL     1     -11.518  14.348  66.196  1.00  0.00    -0.357 C  
ENDROOT
BRANCH   2   3
HETATM    3  C   UNL     1     -10.675  13.164  66.669  1.00  0.00    -0.279 C  
BRANCH   3   4
HETATM    4  N   UNL     1     -11.555  12.065  67.086  1.00  0.00    -0.493 NA 
HETATM    5  H   UNL     1     -12.523  12.237  66.812  1.00  0.00     0.000 HD 
BRANCH   4   6
HETATM    6  C   UNL     1     -11.070  10.758  66.577  1.00  0.00     0.010 C  
HETATM    7  C   UNL     1     -10.402  10.862  65.207  1.00  0.00    -0.334 C  
BRANCH   6   8
HETATM    8  C   UNL     1     -10.069  10.135  67.578  1.00  0.00    -0.201 C  
HETATM    9  O   UNL     1     -10.263  10.273  68.784  1.00  0.00    -0.174 OA 
HETATM   10  N   UNL     1      -9.055   9.389  66.989  1.00  0.00    -0.133 N  
HETATM   11  H   UNL     1      -9.088   9.291  65.974  1.00  0.00     0.000 HD 
BRANCH  10  12
HETATM   12  C   UNL     1      -7.980   8.751  67.657  1.00  0.00    -0.106 A  
HETATM   13  C   UNL     1      -7.008   9.497  68.344  1.00  0.00    -0.066 A  
HETATM   14  C   UNL     1      -5.944   8.884  69.010  1.00  0.00    -0.043 A  
HETATM   15  C   UNL     1      -5.822   7.503  68.994  1.00  0.00    -0.026 A  
HETATM   16  C   UNL     1      -6.762   6.741  68.304  1.00  0.00    -0.068 A  
HETATM   17  C   UNL     1      -7.847   7.349  67.632  1.00  0.00    -0.113 A  
HETATM   18  C   UNL     1      -8.799   6.433  66.907  1.00  0.00    -0.119 C  
ENDBRANCH  10  12
ENDBRANCH   6   8
ENDBRANCH   4   6
ENDBRANCH   3   4
ENDBRANCH   2   3
TORSDOF 5
ENDMDL
MODEL      304
REMARK 921   NORMALIZED FREE ENERGY PREDICTED BY IDOCK:   -2.18 KCAL/MOL
REMARK 922        TOTAL FREE ENERGY PREDICTED BY IDOCK:   -3.16 KCAL/MOL
REMARK 923 INTER-LIGAND FREE ENERGY PREDICTED BY IDOCK:   -2.69 KCAL/MOL
REMARK 924 INTRA-LIGAND FREE ENERGY PREDICTED BY IDOCK:   -0.47 KCAL/MOL
REMARK 927      BINDING AFFINITY PREDICTED BY RF-SCORE:    0.00 PKD
ROOT
HETATM    1  C   UNL     1     -10.526   7.900  69.225  1.00  0.00    -0.221 C  
HETATM    2  C   UNL     1     -11.473   7.502  70.347  1.00  0.00    -0.219 C  
ENDROOT
BRANCH   2   3
HETATM    3  C   UNL     1     -11.091   6.148  70.945  1.00  0.00    -0.307 C  
BRANCH   3   4
HETATM    4  N   UNL     1      -9.630   6.046  71.045  1.00  0.00    -0.171 NA 
HETATM    5  H   UNL     1      -9.263   6.654  71.778  1.00  0.00     0.000 HD 
BRANCH   4   6
HETATM    6  C   UNL     1      -9.195   4.640  71.238  1.00  0.00    -0.139 C  
HETATM    7  C   UNL     1     -10.006   3.906  72.305  1.00  0.00    -0.236 C  
BRANCH   6   8
HETATM    8  C   UNL     1      -9.299   3.863  69.905  1.00  0.00    -0.174 C  
HETATM    9  O   UNL     1      -9.793   2.737  69.905  1.00  0.00     0.014 OA 
HETATM   10  N   UNL     1      -8.877   4.576  68.790  1.00  0.00    -0.097 N  
HETATM   11  H   UNL     1      -8.581   5.539  68.945  1.00  0.00     0.000 HD 
BRANCH  10  12
HETATM   12  C   UNL     1      -8.817   4.097  67.456  1.00  0.00    -0.113 A  
HETATM   13  C   UNL     1      -7.862   3.142  67.071  1.00  0.00    -0.079 A  
HETATM   14  C   UNL     1      -7.791   2.658  65.763  1.00  0.00    -0.081 A  
HETATM   15  C   UNL     1      -8.671   3.131  64.802  1.00  0.00    -0.103 A  
HETATM   16  C   UNL     1      -9.616   4.093  65.153  1.00  0.00    -0.185 A  
HETATM   17  C   UNL     1      -9.703   4.584  66.475  1.00  0.00    -0.220 A  
HETATM   18  C   UNL     1     -10.753   5.632  66.746  1.00  0.00    -0.358 C  
ENDBRANCH  10  12
ENDBRANCH   6   8
ENDBRANCH   4   6
ENDBRANCH   3   4
ENDBRANCH   2   3
TORSDOF 5
ENDMDL
MODEL      305
REMARK 921   NORMALIZED FREE ENERGY PREDICTED BY IDOCK:   -2.16 KCAL/MOL
REMARK 922        TOTAL FREE ENERGY PREDICTED BY IDOCK:   -3.13 KCAL/MOL
REMARK 923 INTER-LIGAND FREE ENERGY PREDICTED BY IDOCK:   -2.84 KCAL/MOL
REMARK 924 INTRA-LIGAND FREE ENERGY PREDICTED BY IDOCK:   -0.29 KCAL/MOL
REMARK 927      BINDING AFFINITY PREDICTED BY RF-SCORE:    0.00 PKD
ROOT
HETATM    1  C   UNL     1      -7.878   5.054  70.699  1.00  0.00    -0.078 C  
HETATM    2  C   UNL     1      -8.984   5.924  70.121  1.00  0.00    -0.148 C  
ENDROOT
BRANCH   2   3
HETATM    3  C   UNL     1      -9.133   7.228  70.904  1.00  0.00    -0.151 C  
BRANCH   3   4
HETATM    4  N   UNL     1      -9.979   8.164  70.152  1.00  0.00    -0.185 NA 
HETATM    5  H   UNL     1     -10.834   8.387  70.661  1.00  0.00     0.000 HD 
BRANCH   4   6
HETATM    6  C   UNL     1      -9.232   9.392  69.779  1.00  0.00    -0.196 C  
HETATM    7  C   UNL     1      -7.731   9.151  69.618  1.00  0.00    -0.082 C  
BRANCH   6   8
HETATM    8  C   UNL     1      -9.791   9.977  68.462  1.00  0.00    -0.156 C  
HETATM    9  O   UNL     1     -10.975  10.302  68.406  1.00  0.00    -0.238 OA 
HETATM   10  N   UNL     1      -8.842  10.152  67.462  1.00  0.00    -0.125 N  
HETATM   11  H   UNL     1      -7.878   9.920  67.698  1.00  0.00     0.000 HD 
BRANCH  10  12
HETATM   12  C   UNL     1      -9.082  10.620  66.145  1.00  0.00    -0.170 A  
HETATM   13  C   UNL     1      -9.620  11.897  65.916  1.00  0.00    -0.248 A  
HETATM   14  C   UNL     1      -9.859  12.375  64.626  1.00  0.00    -0.101 A  
HETATM   15  C   UNL     1      -9.573  11.576  63.529  1.00  0.00    -0.297 A  
HETATM   16  C   UNL     1      -9.056  10.298  63.729  1.00  0.00    -0.285 A  
HETATM   17  C   UNL     1      -8.803   9.806  65.029  1.00  0.00    -0.224 A  
HETATM   18  C   UNL     1      -8.254   8.406  65.134  1.00  0.00    -0.158 C  
ENDBRANCH  10  12
ENDBRANCH   6   8
ENDBRANCH   4   6
ENDBRANCH   3   4
ENDBRANCH   2   3
TORSDOF 5
ENDMDL
MODEL      306
REMARK 921   NORMALIZED FREE ENERGY PREDICTED BY IDOCK:   -2.10 KCAL/MOL
REMARK 922        TOTAL FREE ENERGY PREDICTED BY IDOCK:   -3.05 KCAL/MOL
REMARK 923 INTER-LIGAND FREE ENERGY PREDICTED BY IDOCK:   -2.59 KCAL/MOL
REMARK 924 INTRA-LIGAND FREE ENERGY PREDICTED BY IDOCK:   -0.47 KCAL/MOL
REMARK 927      BINDING AFFINITY PREDICTED BY RF-SCORE:    0.00 PKD
ROOT
HETATM    1  C   UNL     1     -12.022  14.319  68.307  1.00  0.00    -0.346 C  
HETATM    2  C   UNL     1     -11.694  13.319  69.407  1.00  0.00    -0.383 C  
ENDROOT
BRANCH   2   3
HETATM    3  C   UNL     1     -10.748  12.229  68.903  1.00  0.00    -0.172 C  
BRANCH   3   4
HETATM    4  N   UNL     1     -11.356  10.909  69.119  1.00  0.00    -0.258 NA 
HETATM    5  H   UNL     1     -12.364  10.980  69.257  1.00  0.00     0.000 HD 
BRANCH   4   6
HETATM    6  C   UNL     1     -11.023   9.971  68.016  1.00  0.00    -0.240 C  
HETATM    7  C   UNL     1     -10.352  10.661  66.829  1.00  0.00    -0.299 C  
BRANCH   6   8
HETATM    8  C   UNL     1     -10.095   8.848  68.535  1.00  0.00    -0.188 C  
HETATM    9  O   UNL     1      -9.787   8.826  69.724  1.00  0.00    -0.180 OA 
HETATM   10  N   UNL     1      -9.753   7.898  67.580  1.00  0.00    -0.151 N  
HETATM   11  H   UNL     1     -10.170   8.006  66.655  1.00  0.00     0.000 HD 
BRANCH  10  12
HETATM   12  C   UNL     1      -8.883   6.794  67.763  1.00  0.00    -0.118 A  
HETATM   13  C   UNL     1      -7.494   6.932  67.609  1.00  0.00    -0.098 A  
HETATM   14  C   UNL     1      -6.623   5.855  67.789  1.00  0.00    -0.056 A  
HETATM   15  C   UNL     1      -7.126   4.606  68.116  1.00  0.00    -0.061 A  
HETATM   16  C   UNL     1      -8.502   4.437  68.256  1.00  0.00    -0.101 A  
HETATM   17  C   UNL     1      -9.393   5.521  68.084  1.00  0.00    -0.123 A  
HETATM   18  C   UNL     1     -10.863   5.227  68.246  1.00  0.00     0.187 C  
ENDBRANCH  10  12
ENDBRANCH   6   8
ENDBRANCH   4   6
ENDBRANCH   3   4
ENDBRANCH   2   3
TORSDOF 5
ENDMDL
MODEL      307
REMARK 921   NORMALIZED FREE ENERGY PREDICTED BY IDOCK:   -2.05 KCAL/MOL
REMARK 922        TOTAL FREE ENERGY PREDICTED BY IDOCK:   -2.99 KCAL/MOL
REMARK 923 INTER-LIGAND FREE ENERGY PREDICTED BY IDOCK:   -2.64 KCAL/MOL
REMARK 924 INTRA-LIGAND FREE ENERGY PREDICTED BY IDOCK:   -0.36 KCAL/MOL
REMARK 927      BINDING AFFINITY PREDICTED BY RF-SCORE:    0.00 PKD
ROOT
HETATM    1  C   UNL     1     -11.674  13.049  63.299  1.00  0.00    -0.349 C  
HETATM    2  C   UNL     1     -12.182  12.589  64.658  1.00  0.00    -0.524 C  
ENDROOT
BRANCH   2   3
HETATM    3  C   UNL     1     -11.121  12.775  65.741  1.00  0.00    -0.285 C  
BRANCH   3   4
HETATM    4  N   UNL     1     -11.233  11.699  66.735  1.00  0.00    -0.310 NA 
HETATM    5  H   UNL     1     -11.465  10.808  66.296  1.00  0.00     0.000 HD 
BRANCH   4   6
HETATM    6  C   UNL     1     -10.005  11.593  67.562  1.00  0.00    -0.187 C  
HETATM    7  C   UNL     1     -10.247  11.923  69.034  1.00  0.00    -0.016 C  
BRANCH   6   8
HETATM    8  C   UNL     1      -9.413  10.168  67.457  1.00  0.00    -0.152 C  
HETATM    9  O   UNL     1      -8.861   9.824  66.415  1.00  0.00    -0.142 OA 
HETATM   10  N   UNL     1      -9.504   9.421  68.625  1.00  0.00    -0.145 N  
HETATM   11  H   UNL     1      -9.908   9.886  69.438  1.00  0.00     0.000 HD 
BRANCH  10  12
HETATM   12  C   UNL     1      -9.091   8.075  68.800  1.00  0.00    -0.144 A  
HETATM   13  C   UNL     1      -7.831   7.768  69.338  1.00  0.00    -0.115 A  
HETATM   14  C   UNL     1      -7.410   6.449  69.520  1.00  0.00    -0.088 A  
HETATM   15  C   UNL     1      -8.241   5.401  69.153  1.00  0.00    -0.093 A  
HETATM   16  C   UNL     1      -9.488   5.679  68.599  1.00  0.00    -0.152 A  
HETATM   17  C   UNL     1      -9.929   7.010  68.417  1.00  0.00    -0.160 A  
HETATM   18  C   UNL     1     -11.290   7.199  67.798  1.00  0.00     0.224 C  
ENDBRANCH  10  12
ENDBRANCH   6   8
ENDBRANCH   4   6
ENDBRANCH   3   4
ENDBRANCH   2   3
TORSDOF 5
ENDMDL
MODEL      308
REMARK 921   NORMALIZED FREE ENERGY PREDICTED BY IDOCK:   -2.02 KCAL/MOL
REMARK 922        TOTAL FREE ENERGY PREDICTED BY IDOCK:   -2.95 KCAL/MOL
REMARK 923 INTER-LIGAND FREE ENERGY PREDICTED BY IDOCK:   -2.61 KCAL/MOL
REMARK 924 INTRA-LIGAND FREE ENERGY PREDICTED BY IDOCK:   -0.34 KCAL/MOL
REMARK 927      BINDING AFFINITY PREDICTED BY RF-SCORE:    0.00 PKD
ROOT
HETATM    1  C   UNL     1     -10.614  14.749  66.653  1.00  0.00    -0.299 C  
HETATM    2  C   UNL     1     -10.833  14.075  68.000  1.00  0.00    -0.257 C  
ENDROOT
BRANCH   2   3
HETATM    3  C   UNL     1     -10.631  12.563  67.904  1.00  0.00    -0.218 C  
BRANCH   3   4
HETATM    4  N   UNL     1      -9.580  12.143  68.840  1.00  0.00    -0.413 NA 
HETATM    5  H   UNL     1      -9.821  11.267  69.304  1.00  0.00     0.000 HD 
BRANCH   4   6
HETATM    6  C   UNL     1      -8.258  12.057  68.170  1.00  0.00    -0.163 C  
HETATM    7  C   UNL     1      -7.256  13.086  68.691  1.00  0.00    -0.101 C  
BRANCH   6   8
HETATM    8  C   UNL     1      -7.662  10.641  68.348  1.00  0.00    -0.106 C  
HETATM    9  O   UNL     1      -6.444  10.491  68.285  1.00  0.00    -0.055 OA 
HETATM   10  N   UNL     1      -8.597   9.658  68.649  1.00  0.00    -0.118 N  
HETATM   11  H   UNL     1      -9.564   9.962  68.761  1.00  0.00     0.000 HD 
BRANCH  10  12
HETATM   12  C   UNL     1      -8.340   8.273  68.815  1.00  0.00    -0.124 A  
HETATM   13  C   UNL     1      -7.655   7.539  67.833  1.00  0.00    -0.110 A  
HETATM   14  C   UNL     1      -7.392   6.176  67.983  1.00  0.00    -0.088 A  
HETATM   15  C   UNL     1      -7.821   5.510  69.121  1.00  0.00    -0.091 A  
HETATM   16  C   UNL     1      -8.519   6.210  70.102  1.00  0.00    -0.133 A  
HETATM   17  C   UNL     1      -8.785   7.592  69.965  1.00  0.00    -0.140 A  
HETATM   18  C   UNL     1      -9.558   8.251  71.079  1.00  0.00    -0.197 C  
ENDBRANCH  10  12
ENDBRANCH   6   8
ENDBRANCH   4   6
ENDBRANCH   3   4
ENDBRANCH   2   3
TORSDOF 5
ENDMDL
MODEL      309
REMARK 921   NORMALIZED FREE ENERGY PREDICTED BY IDOCK:   -2.00 KCAL/MOL
REMARK 922        TOTAL FREE ENERGY PREDICTED BY IDOCK:   -2.93 KCAL/MOL
REMARK 923 INTER-LIGAND FREE ENERGY PREDICTED BY IDOCK:   -2.79 KCAL/MOL
REMARK 924 INTRA-LIGAND FREE ENERGY PREDICTED BY IDOCK:   -0.14 KCAL/MOL
REMARK 927      BINDING AFFINITY PREDICTED BY RF-SCORE:    0.00 PKD
ROOT
HETATM    1  C   UNL     1     -11.237   9.231  70.240  1.00  0.00    -0.267 C  
HETATM    2  C   UNL     1     -12.230   9.260  71.392  1.00  0.00    -0.426 C  
ENDROOT
BRANCH   2   3
HETATM    3  C   UNL     1     -11.972   8.122  72.378  1.00  0.00    -0.372 C  
BRANCH   3   4
HETATM    4  N   UNL     1     -10.530   7.860  72.466  1.00  0.00    -0.273 NA 
HETATM    5  H   UNL     1     -10.092   8.421  73.197  1.00  0.00     0.000 HD 
BRANCH   4   6
HETATM    6  C   UNL     1     -10.250   6.413  72.650  1.00  0.00    -0.182 C  
HETATM    7  C   UNL     1     -11.518   5.563  72.707  1.00  0.00    -0.339 C  
BRANCH   6   8
HETATM    8  C   UNL     1      -9.349   5.895  71.506  1.00  0.00    -0.146 C  
HETATM    9  O   UNL     1      -9.113   4.692  71.426  1.00  0.00    -0.125 OA 
HETATM   10  N   UNL     1      -8.945   6.873  70.604  1.00  0.00    -0.151 N  
HETATM   11  H   UNL     1      -9.305   7.815  70.756  1.00  0.00     0.000 HD 
BRANCH  10  12
HETATM   12  C   UNL     1      -8.081   6.692  69.494  1.00  0.00    -0.126 A  
HETATM   13  C   UNL     1      -8.034   5.470  68.804  1.00  0.00    -0.095 A  
HETATM   14  C   UNL     1      -7.192   5.276  67.707  1.00  0.00    -0.071 A  
HETATM   15  C   UNL     1      -6.363   6.303  67.281  1.00  0.00    -0.037 A  
HETATM   16  C   UNL     1      -6.376   7.519  67.961  1.00  0.00    -0.049 A  
HETATM   17  C   UNL     1      -7.230   7.730  69.067  1.00  0.00    -0.080 A  
HETATM   18  C   UNL     1      -7.156   9.078  69.738  1.00  0.00    -0.055 C  
ENDBRANCH  10  12
ENDBRANCH   6   8
ENDBRANCH   4   6
ENDBRANCH   3   4
ENDBRANCH   2   3
TORSDOF 5
ENDMDL
MODEL      310
REMARK 921   NORMALIZED FREE ENERGY PREDICTED BY IDOCK:   -1.99 KCAL/MOL
REMARK 922        TOTAL FREE ENERGY PREDICTED BY IDOCK:   -2.91 KCAL/MOL
REMARK 923 INTER-LIGAND FREE ENERGY PREDICTED BY IDOCK:   -2.46 KCAL/MOL
REMARK 924 INTRA-LIGAND FREE ENERGY PREDICTED BY IDOCK:   -0.45 KCAL/MOL
REMARK 927      BINDING AFFINITY PREDICTED BY RF-SCORE:    0.00 PKD
ROOT
HETATM    1  C   UNL     1      -6.123   8.113  72.886  1.00  0.00    -0.068 C  
HETATM    2  C   UNL     1      -7.563   8.295  72.429  1.00  0.00    -0.160 C  
ENDROOT
BRANCH   2   3
HETATM    3  C   UNL     1      -7.666   8.311  70.905  1.00  0.00    -0.082 C  
BRANCH   3   4
HETATM    4  N   UNL     1      -8.892   9.010  70.498  1.00  0.00    -0.188 NA 
HETATM    5  H   UNL     1      -9.422   9.334  71.307  1.00  0.00     0.000 HD 
BRANCH   4   6
HETATM    6  C   UNL     1      -8.598  10.122  69.559  1.00  0.00    -0.164 C  
HETATM    7  C   UNL     1      -7.175  10.660  69.701  1.00  0.00    -0.139 C  
BRANCH   6   8
HETATM    8  C   UNL     1      -8.817   9.659  68.100  1.00  0.00    -0.119 C  
HETATM    9  O   UNL     1      -9.599   8.738  67.875  1.00  0.00    -0.140 OA 
HETATM   10  N   UNL     1      -8.138  10.412  67.150  1.00  0.00    -0.114 N  
HETATM   11  H   UNL     1      -7.601  11.208  67.493  1.00  0.00     0.000 HD 
BRANCH  10  12
HETATM   12  C   UNL     1      -8.118  10.184  65.750  1.00  0.00    -0.142 A  
HETATM   13  C   UNL     1      -7.085   9.443  65.152  1.00  0.00    -0.100 A  
HETATM   14  C   UNL     1      -7.052   9.207  63.776  1.00  0.00    -0.093 A  
HETATM   15  C   UNL     1      -8.050   9.719  62.962  1.00  0.00    -0.146 A  
HETATM   16  C   UNL     1      -9.076  10.474  63.527  1.00  0.00    -0.264 A  
HETATM   17  C   UNL     1      -9.125  10.713  64.920  1.00  0.00    -0.231 A  
HETATM   18  C   UNL     1     -10.271  11.551  65.427  1.00  0.00    -0.311 C  
ENDBRANCH  10  12
ENDBRANCH   6   8
ENDBRANCH   4   6
ENDBRANCH   3   4
ENDBRANCH   2   3
TORSDOF 5
ENDMDL
MODEL      311
REMARK 921   NORMALIZED FREE ENERGY PREDICTED BY IDOCK:   -1.98 KCAL/MOL
REMARK 922        TOTAL FREE ENERGY PREDICTED BY IDOCK:   -2.90 KCAL/MOL
REMARK 923 INTER-LIGAND FREE ENERGY PREDICTED BY IDOCK:   -2.94 KCAL/MOL
REMARK 924 INTRA-LIGAND FREE ENERGY PREDICTED BY IDOCK:    0.04 KCAL/MOL
REMARK 927      BINDING AFFINITY PREDICTED BY RF-SCORE:    0.00 PKD
ROOT
HETATM    1  C   UNL     1      -9.996   5.295  72.352  1.00  0.00    -0.219 C  
HETATM    2  C   UNL     1     -11.415   5.834  72.241  1.00  0.00    -0.320 C  
ENDROOT
BRANCH   2   3
HETATM    3  C   UNL     1     -11.460   7.113  71.405  1.00  0.00    -0.272 C  
BRANCH   3   4
HETATM    4  N   UNL     1     -10.260   7.198  70.563  1.00  0.00    -0.195 NA 
HETATM    5  H   UNL     1      -9.926   6.272  70.295  1.00  0.00     0.000 HD 
BRANCH   4   6
HETATM    6  C   UNL     1     -10.489   8.058  69.375  1.00  0.00    -0.220 C  
HETATM    7  C   UNL     1      -9.435   9.153  69.220  1.00  0.00    -0.158 C  
BRANCH   6   8
HETATM    8  C   UNL     1     -10.512   7.197  68.091  1.00  0.00    -0.200 C  
HETATM    9  O   UNL     1     -10.957   7.681  67.052  1.00  0.00    -0.277 OA 
HETATM   10  N   UNL     1      -9.934   5.941  68.231  1.00  0.00    -0.137 N  
HETATM   11  H   UNL     1      -9.521   5.723  69.137  1.00  0.00     0.000 HD 
BRANCH  10  12
HETATM   12  C   UNL     1      -9.860   4.931  67.237  1.00  0.00    -0.184 A  
HETATM   13  C   UNL     1     -10.578   5.043  66.036  1.00  0.00    -0.286 A  
HETATM   14  C   UNL     1     -10.514   4.059  65.046  1.00  0.00    -0.152 A  
HETATM   15  C   UNL     1      -9.735   2.929  65.244  1.00  0.00     0.100 A  
HETATM   16  C   UNL     1      -9.028   2.784  66.436  1.00  0.00    -0.153 A  
HETATM   17  C   UNL     1      -9.078   3.777  67.441  1.00  0.00    -0.186 A  
HETATM   18  C   UNL     1      -8.286   3.516  68.697  1.00  0.00    -0.081 C  
ENDBRANCH  10  12
ENDBRANCH   6   8
ENDBRANCH   4   6
ENDBRANCH   3   4
ENDBRANCH   2   3
TORSDOF 5
ENDMDL
MODEL      312
REMARK 921   NORMALIZED FREE ENERGY PREDICTED BY IDOCK:   -1.96 KCAL/MOL
REMARK 922        TOTAL FREE ENERGY PREDICTED BY IDOCK:   -2.88 KCAL/MOL
REMARK 923 INTER-LIGAND FREE ENERGY PREDICTED BY IDOCK:   -2.96 KCAL/MOL
REMARK 924 INTRA-LIGAND FREE ENERGY PREDICTED BY IDOCK:    0.08 KCAL/MOL
REMARK 927      BINDING AFFINITY PREDICTED BY RF-SCORE:    0.00 PKD
ROOT
HETATM    1  C   UNL     1     -14.132  15.207  72.320  1.00  0.00    -0.633 C  
HETATM    2  C   UNL     1     -13.154  15.645  71.240  1.00  0.00    -0.542 C  
ENDROOT
BRANCH   2   3
HETATM    3  C   UNL     1     -12.994  14.570  70.165  1.00  0.00    -0.003 C  
BRANCH   3   4
HETATM    4  N   UNL     1     -13.005  15.194  68.836  1.00  0.00     0.263 NA 
HETATM    5  H   UNL     1     -13.251  16.183  68.889  1.00  0.00     0.000 HD 
BRANCH   4   6
HETATM    6  C   UNL     1     -11.715  14.992  68.130  1.00  0.00    -0.312 C  
HETATM    7  C   UNL     1     -11.819  15.216  66.622  1.00  0.00     0.038 C  
BRANCH   6   8
HETATM    8  C   UNL     1     -10.639  15.942  68.706  1.00  0.00    -0.245 C  
HETATM    9  O   UNL     1     -10.984  16.856  69.451  1.00  0.00    -0.256 OA 
HETATM   10  N   UNL     1      -9.334  15.604  68.368  1.00  0.00    -0.192 N  
HETATM   11  H   UNL     1      -9.207  14.756  67.817  1.00  0.00     0.000 HD 
BRANCH  10  12
HETATM   12  C   UNL     1      -8.160  16.322  68.715  1.00  0.00    -0.227 A  
HETATM   13  C   UNL     1      -7.353  15.915  69.790  1.00  0.00     0.036 A  
HETATM   14  C   UNL     1      -6.193  16.608  70.142  1.00  0.00     0.025 A  
HETATM   15  C   UNL     1      -5.819  17.738  69.430  1.00  0.00    -0.230 A  
HETATM   16  C   UNL     1      -6.613  18.174  68.371  1.00  0.00    -0.211 A  
HETATM   17  C   UNL     1      -7.785  17.476  68.000  1.00  0.00    -0.211 A  
HETATM   18  C   UNL     1      -8.578  18.039  66.848  1.00  0.00    -0.262 C  
ENDBRANCH  10  12
ENDBRANCH   6   8
ENDBRANCH   4   6
ENDBRANCH   3   4
ENDBRANCH   2   3
TORSDOF 5
ENDMDL
MODEL      313
REMARK 921   NORMALIZED FREE ENERGY PREDICTED BY IDOCK:   -1.96 KCAL/MOL
REMARK 922        TOTAL FREE ENERGY PREDICTED BY IDOCK:   -2.87 KCAL/MOL
REMARK 923 INTER-LIGAND FREE ENERGY PREDICTED BY IDOCK:   -2.90 KCAL/MOL
REMARK 924 INTRA-LIGAND FREE ENERGY PREDICTED BY IDOCK:    0.03 KCAL/MOL
REMARK 927      BINDING AFFINITY PREDICTED BY RF-SCORE:    0.00 PKD
ROOT
HETATM    1  C   UNL     1     -12.086  15.179  69.294  1.00  0.00    -0.278 C  
HETATM    2  C   UNL     1     -12.299  13.983  68.379  1.00  0.00    -0.013 C  
ENDROOT
BRANCH   2   3
HETATM    3  C   UNL     1     -11.084  13.055  68.384  1.00  0.00    -0.262 C  
BRANCH   3   4
HETATM    4  N   UNL     1     -10.837  12.556  67.025  1.00  0.00    -0.248 NA 
HETATM    5  H   UNL     1     -11.084  13.251  66.321  1.00  0.00     0.000 HD 
BRANCH   4   6
HETATM    6  C   UNL     1      -9.436  12.092  66.863  1.00  0.00    -0.210 C  
HETATM    7  C   UNL     1      -9.167  11.475  65.492  1.00  0.00    -0.156 C  
BRANCH   6   8
HETATM    8  C   UNL     1      -8.457  13.268  67.085  1.00  0.00    -0.176 C  
HETATM    9  O   UNL     1      -7.252  13.039  67.161  1.00  0.00    -0.095 OA 
HETATM   10  N   UNL     1      -9.058  14.521  67.100  1.00  0.00    -0.214 N  
HETATM   11  H   UNL     1     -10.062  14.551  66.927  1.00  0.00     0.000 HD 
BRANCH  10  12
HETATM   12  C   UNL     1      -8.413  15.763  67.332  1.00  0.00    -0.171 A  
HETATM   13  C   UNL     1      -7.977  16.564  66.264  1.00  0.00    -0.307 A  
HETATM   14  C   UNL     1      -7.344  17.791  66.475  1.00  0.00    -0.283 A  
HETATM   15  C   UNL     1      -7.121  18.241  67.767  1.00  0.00    -0.213 A  
HETATM   16  C   UNL     1      -7.526  17.456  68.845  1.00  0.00    -0.235 A  
HETATM   17  C   UNL     1      -8.175  16.217  68.644  1.00  0.00    -0.202 A  
HETATM   18  C   UNL     1      -8.562  15.442  69.878  1.00  0.00     0.162 C  
ENDBRANCH  10  12
ENDBRANCH   6   8
ENDBRANCH   4   6
ENDBRANCH   3   4
ENDBRANCH   2   3
TORSDOF 5
ENDMDL
MODEL      314
REMARK 921   NORMALIZED FREE ENERGY PREDICTED BY IDOCK:   -1.94 KCAL/MOL
REMARK 922        TOTAL FREE ENERGY PREDICTED BY IDOCK:   -2.84 KCAL/MOL
REMARK 923 INTER-LIGAND FREE ENERGY PREDICTED BY IDOCK:   -2.39 KCAL/MOL
REMARK 924 INTRA-LIGAND FREE ENERGY PREDICTED BY IDOCK:   -0.46 KCAL/MOL
REMARK 927      BINDING AFFINITY PREDICTED BY RF-SCORE:    0.00 PKD
ROOT
HETATM    1  C   UNL     1      -6.930  11.774  67.022  1.00  0.00    -0.135 C  
HETATM    2  C   UNL     1      -6.846  10.760  65.890  1.00  0.00    -0.084 C  
ENDROOT
BRANCH   2   3
HETATM    3  C   UNL     1      -8.230  10.230  65.515  1.00  0.00    -0.158 C  
BRANCH   3   4
HETATM    4  N   UNL     1      -9.174  10.490  66.610  1.00  0.00    -0.155 NA 
HETATM    5  H   UNL     1      -9.765  11.297  66.409  1.00  0.00     0.000 HD 
BRANCH   4   6
HETATM    6  C   UNL     1      -9.985   9.287  66.925  1.00  0.00    -0.233 C  
HETATM    7  C   UNL     1      -9.564   8.057  66.123  1.00  0.00    -0.159 C  
BRANCH   6   8
HETATM    8  C   UNL     1      -9.888   8.960  68.433  1.00  0.00    -0.174 C  
HETATM    9  O   UNL     1     -10.764   9.369  69.192  1.00  0.00    -0.223 OA 
HETATM   10  N   UNL     1      -8.819   8.142  68.777  1.00  0.00    -0.138 N  
HETATM   11  H   UNL     1      -8.232   7.807  68.013  1.00  0.00     0.000 HD 
BRANCH  10  12
HETATM   12  C   UNL     1      -8.462   7.726  70.085  1.00  0.00    -0.134 A  
HETATM   13  C   UNL     1      -8.205   8.662  71.099  1.00  0.00    -0.187 A  
HETATM   14  C   UNL     1      -7.855   8.269  72.392  1.00  0.00    -0.177 A  
HETATM   15  C   UNL     1      -7.742   6.922  72.699  1.00  0.00    -0.094 A  
HETATM   16  C   UNL     1      -7.973   5.972  71.706  1.00  0.00    -0.107 A  
HETATM   17  C   UNL     1      -8.336   6.357  70.395  1.00  0.00    -0.126 A  
HETATM   18  C   UNL     1      -8.552   5.251  69.394  1.00  0.00    -0.102 C  
ENDBRANCH  10  12
ENDBRANCH   6   8
ENDBRANCH   4   6
ENDBRANCH   3   4
ENDBRANCH   2   3
TORSDOF 5
ENDMDL
MODEL      315
REMARK 921   NORMALIZED FREE ENERGY PREDICTED BY IDOCK:   -1.67 KCAL/MOL
REMARK 922        TOTAL FREE ENERGY PREDICTED BY IDOCK:   -2.49 KCAL/MOL
REMARK 923 INTER-LIGAND FREE ENERGY PREDICTED BY IDOCK:   -2.29 KCAL/MOL
REMARK 924 INTRA-LIGAND FREE ENERGY PREDICTED BY IDOCK:   -0.20 KCAL/MOL
REMARK 927      BINDING AFFINITY PREDICTED BY RF-SCORE:    0.00 PKD
ROOT
HETATM    1  C   UNL     1      -9.102   7.889  71.925  1.00  0.00    -0.192 C  
HETATM    2  C   UNL     1      -9.766   7.934  70.556  1.00  0.00    -0.174 C  
ENDROOT
BRANCH   2   3
HETATM    3  C   UNL     1      -8.813   7.461  69.459  1.00  0.00    -0.137 C  
BRANCH   3   4
HETATM    4  N   UNL     1      -8.232   8.623  68.773  1.00  0.00    -0.119 NA 
HETATM    5  H   UNL     1      -8.918   9.084  68.175  1.00  0.00     0.000 HD 
BRANCH   4   6
HETATM    6  C   UNL     1      -7.623   9.574  69.736  1.00  0.00    -0.110 C  
HETATM    7  C   UNL     1      -6.121   9.360  69.917  1.00  0.00    -0.039 C  
BRANCH   6   8
HETATM    8  C   UNL     1      -7.871  11.029  69.275  1.00  0.00    -0.052 C  
HETATM    9  O   UNL     1      -6.952  11.843  69.341  1.00  0.00    -0.088 OA 
HETATM   10  N   UNL     1      -9.134  11.257  68.743  1.00  0.00    -0.312 N  
HETATM   11  H   UNL     1      -9.754  10.450  68.670  1.00  0.00     0.000 HD 
BRANCH  10  12
HETATM   12  C   UNL     1      -9.648  12.499  68.291  1.00  0.00    -0.209 A  
HETATM   13  C   UNL     1     -10.290  13.383  69.173  1.00  0.00     0.099 A  
HETATM   14  C   UNL     1     -10.799  14.611  68.745  1.00  0.00    -0.261 A  
HETATM   15  C   UNL     1     -10.686  14.979  67.413  1.00  0.00    -0.289 A  
HETATM   16  C   UNL     1     -10.070  14.112  66.512  1.00  0.00    -0.283 A  
HETATM   17  C   UNL     1      -9.544  12.870  66.936  1.00  0.00    -0.240 A  
HETATM   18  C   UNL     1      -8.909  12.003  65.879  1.00  0.00     0.115 C  
ENDBRANCH  10  12
ENDBRANCH   6   8
ENDBRANCH   4   6
ENDBRANCH   3   4
ENDBRANCH   2   3
TORSDOF 5
ENDMDL
MODEL      316
REMARK 921   NORMALIZED FREE ENERGY PREDICTED BY IDOCK:   -1.59 KCAL/MOL
REMARK 922        TOTAL FREE ENERGY PREDICTED BY IDOCK:   -2.39 KCAL/MOL
REMARK 923 INTER-LIGAND FREE ENERGY PREDICTED BY IDOCK:   -1.90 KCAL/MOL
REMARK 924 INTRA-LIGAND FREE ENERGY PREDICTED BY IDOCK:   -0.49 KCAL/MOL
REMARK 927      BINDING AFFINITY PREDICTED BY RF-SCORE:    0.00 PKD
ROOT
HETATM    1  C   UNL     1     -10.907   5.945  66.725  1.00  0.00    -0.347 C  
HETATM    2  C   UNL     1     -10.071   4.744  66.307  1.00  0.00    -0.291 C  
ENDROOT
BRANCH   2   3
HETATM    3  C   UNL     1      -8.624   4.882  66.777  1.00  0.00    -0.108 C  
BRANCH   3   4
HETATM    4  N   UNL     1      -8.258   3.723  67.601  1.00  0.00    -0.089 NA 
HETATM    5  H   UNL     1      -7.312   3.813  67.973  1.00  0.00     0.000 HD 
BRANCH   4   6
HETATM    6  C   UNL     1      -9.247   3.491  68.683  1.00  0.00    -0.165 C  
HETATM    7  C   UNL     1      -9.312   2.032  69.130  1.00  0.00    -0.184 C  
BRANCH   6   8
HETATM    8  C   UNL     1      -8.915   4.377  69.906  1.00  0.00    -0.093 C  
HETATM    9  O   UNL     1      -9.371   5.517  69.962  1.00  0.00    -0.141 OA 
HETATM   10  N   UNL     1      -8.170   3.741  70.891  1.00  0.00    -0.065 N  
HETATM   11  H   UNL     1      -7.949   2.757  70.738  1.00  0.00     0.000 HD 
BRANCH  10  12
HETATM   12  C   UNL     1      -7.685   4.323  72.090  1.00  0.00    -0.081 A  
HETATM   13  C   UNL     1      -8.468   4.340  73.256  1.00  0.00    -0.090 A  
HETATM   14  C   UNL     1      -8.004   4.906  74.446  1.00  0.00    -0.096 A  
HETATM   15  C   UNL     1      -6.743   5.482  74.492  1.00  0.00    -0.073 A  
HETATM   16  C   UNL     1      -5.954   5.495  73.344  1.00  0.00    -0.039 A  
HETATM   17  C   UNL     1      -6.409   4.918  72.137  1.00  0.00    -0.034 A  
HETATM   18  C   UNL     1      -5.481   4.996  70.951  1.00  0.00    -0.004 C  
ENDBRANCH  10  12
ENDBRANCH   6   8
ENDBRANCH   4   6
ENDBRANCH   3   4
ENDBRANCH   2   3
TORSDOF 5
ENDMDL
MODEL      317
REMARK 921   NORMALIZED FREE ENERGY PREDICTED BY IDOCK:   -1.53 KCAL/MOL
REMARK 922        TOTAL FREE ENERGY PREDICTED BY IDOCK:   -2.32 KCAL/MOL
REMARK 923 INTER-LIGAND FREE ENERGY PREDICTED BY IDOCK:   -2.92 KCAL/MOL
REMARK 924 INTRA-LIGAND FREE ENERGY PREDICTED BY IDOCK:    0.60 KCAL/MOL
REMARK 927      BINDING AFFINITY PREDICTED BY RF-SCORE:    0.00 PKD
ROOT
HETATM    1  C   UNL     1     -10.541   5.466  69.428  1.00  0.00    -0.295 C  
HETATM    2  C   UNL     1     -10.665   6.300  68.161  1.00  0.00    -0.364 C  
ENDROOT
BRANCH   2   3
HETATM    3  C   UNL     1      -9.528   7.315  68.050  1.00  0.00    -0.136 C  
BRANCH   3   4
HETATM    4  N   UNL     1      -9.416   8.073  69.303  1.00  0.00    -0.155 NA 
HETATM    5  H   UNL     1      -9.008   7.507  70.047  1.00  0.00     0.000 HD 
BRANCH   4   6
HETATM    6  C   UNL     1      -8.664   9.338  69.108  1.00  0.00    -0.139 C  
HETATM    7  C   UNL     1      -8.111   9.490  67.692  1.00  0.00    -0.110 C  
BRANCH   6   8
HETATM    8  C   UNL     1      -9.570  10.551  69.426  1.00  0.00    -0.148 C  
HETATM    9  O   UNL     1     -10.455  10.432  70.271  1.00  0.00    -0.227 OA 
HETATM   10  N   UNL     1      -9.228  11.717  68.752  1.00  0.00    -0.380 N  
HETATM   11  H   UNL     1      -8.403  11.676  68.153  1.00  0.00     0.000 HD 
BRANCH  10  12
HETATM   12  C   UNL     1      -9.910  12.958  68.814  1.00  0.00     0.035 A  
HETATM   13  C   UNL     1      -9.219  14.153  69.072  1.00  0.00     0.093 A  
HETATM   14  C   UNL     1      -9.875  15.385  69.133  1.00  0.00    -0.247 A  
HETATM   15  C   UNL     1     -11.248  15.446  68.949  1.00  0.00    -0.296 A  
HETATM   16  C   UNL     1     -11.961  14.273  68.710  1.00  0.00    -0.346 A  
HETATM   17  C   UNL     1     -11.307  13.022  68.638  1.00  0.00    -0.329 A  
HETATM   18  C   UNL     1     -12.172  11.813  68.387  1.00  0.00     0.122 C  
ENDBRANCH  10  12
ENDBRANCH   6   8
ENDBRANCH   4   6
ENDBRANCH   3   4
ENDBRANCH   2   3
TORSDOF 5
ENDMDL
MODEL      318
REMARK 921   NORMALIZED FREE ENERGY PREDICTED BY IDOCK:   -1.24 KCAL/MOL
REMARK 922        TOTAL FREE ENERGY PREDICTED BY IDOCK:   -1.94 KCAL/MOL
REMARK 923 INTER-LIGAND FREE ENERGY PREDICTED BY IDOCK:   -2.08 KCAL/MOL
REMARK 924 INTRA-LIGAND FREE ENERGY PREDICTED BY IDOCK:    0.14 KCAL/MOL
REMARK 927      BINDING AFFINITY PREDICTED BY RF-SCORE:    0.00 PKD
ROOT
HETATM    1  C   UNL     1     -10.626  11.583  63.824  1.00  0.00    -0.465 C  
HETATM    2  C   UNL     1     -10.734  10.672  65.038  1.00  0.00    -0.080 C  
ENDROOT
BRANCH   2   3
HETATM    3  C   UNL     1     -11.383  11.392  66.219  1.00  0.00    -0.068 C  
BRANCH   3   4
HETATM    4  N   UNL     1     -10.351  12.076  67.009  1.00  0.00    -0.210 NA 
HETATM    5  H   UNL     1      -9.677  11.415  67.395  1.00  0.00     0.000 HD 
BRANCH   4   6
HETATM    6  C   UNL     1      -9.679  13.140  66.221  1.00  0.00    -0.265 C  
HETATM    7  C   UNL     1     -10.560  14.370  66.009  1.00  0.00    -0.304 C  
BRANCH   6   8
HETATM    8  C   UNL     1      -8.370  13.574  66.921  1.00  0.00     0.008 C  
HETATM    9  O   UNL     1      -7.301  13.107  66.535  1.00  0.00     0.644 OA 
HETATM   10  N   UNL     1      -8.537  14.544  67.902  1.00  0.00    -0.153 N  
HETATM   11  H   UNL     1      -9.483  14.900  68.040  1.00  0.00     0.000 HD 
BRANCH  10  12
HETATM   12  C   UNL     1      -7.523  15.087  68.732  1.00  0.00    -0.133 A  
HETATM   13  C   UNL     1      -6.786  14.270  69.605  1.00  0.00    -0.087 A  
HETATM   14  C   UNL     1      -5.782  14.788  70.426  1.00  0.00    -0.148 A  
HETATM   15  C   UNL     1      -5.501  16.146  70.401  1.00  0.00    -0.164 A  
HETATM   16  C   UNL     1      -6.231  16.981  69.559  1.00  0.00    -0.237 A  
HETATM   17  C   UNL     1      -7.243  16.467  68.717  1.00  0.00    -0.197 A  
HETATM   18  C   UNL     1      -7.980  17.459  67.853  1.00  0.00    -0.218 C  
ENDBRANCH  10  12
ENDBRANCH   6   8
ENDBRANCH   4   6
ENDBRANCH   3   4
ENDBRANCH   2   3
TORSDOF 5
ENDMDL
MODEL      319
REMARK 921   NORMALIZED FREE ENERGY PREDICTED BY IDOCK:   -0.86 KCAL/MOL
REMARK 922        TOTAL FREE ENERGY PREDICTED BY IDOCK:   -1.46 KCAL/MOL
REMARK 923 INTER-LIGAND FREE ENERGY PREDICTED BY IDOCK:   -1.48 KCAL/MOL
REMARK 924 INTRA-LIGAND FREE ENERGY PREDICTED BY IDOCK:    0.03 KCAL/MOL
REMARK 927      BINDING AFFINITY PREDICTED BY RF-SCORE:    0.00 PKD
ROOT
HETATM    1  C   UNL     1      -9.778   2.105  70.824  1.00  0.00    -0.105 C  
HETATM    2  C   UNL     1      -9.053   1.547  69.608  1.00  0.00    -0.148 C  
ENDROOT
BRANCH   2   3
HETATM    3  C   UNL     1      -7.764   2.318  69.325  1.00  0.00    -0.042 C  
BRANCH   3   4
HETATM    4  N   UNL     1      -8.048   3.446  68.429  1.00  0.00    -0.069 NA 
HETATM    5  H   UNL     1      -8.320   4.279  68.951  1.00  0.00     0.000 HD 
BRANCH   4   6
HETATM    6  C   UNL     1      -6.904   3.722  67.523  1.00  0.00    -0.054 C  
HETATM    7  C   UNL     1      -6.071   2.478  67.220  1.00  0.00    -0.024 C  
BRANCH   6   8
HETATM    8  C   UNL     1      -7.411   4.323  66.192  1.00  0.00    -0.085 C  
HETATM    9  O   UNL     1      -7.997   3.598  65.392  1.00  0.00    -0.091 OA 
HETATM   10  N   UNL     1      -7.212   5.693  66.067  1.00  0.00    -0.071 N  
HETATM   11  H   UNL     1      -6.794   6.171  66.865  1.00  0.00     0.000 HD 
BRANCH  10  12
HETATM   12  C   UNL     1      -7.532   6.492  64.940  1.00  0.00    -0.086 A  
HETATM   13  C   UNL     1      -7.522   5.954  63.643  1.00  0.00    -0.071 A  
HETATM   14  C   UNL     1      -7.838   6.727  62.523  1.00  0.00    -0.108 A  
HETATM   15  C   UNL     1      -8.160   8.066  62.676  1.00  0.00    -0.152 A  
HETATM   16  C   UNL     1      -8.157   8.630  63.950  1.00  0.00    -0.163 A  
HETATM   17  C   UNL     1      -7.848   7.857  65.092  1.00  0.00    -0.114 A  
HETATM   18  C   UNL     1      -7.863   8.567  66.422  1.00  0.00    -0.099 C  
ENDBRANCH  10  12
ENDBRANCH   6   8
ENDBRANCH   4   6
ENDBRANCH   3   4
ENDBRANCH   2   3
TORSDOF 5
ENDMDL
MODEL      320
REMARK 921   NORMALIZED FREE ENERGY PREDICTED BY IDOCK:    0.14 KCAL/MOL
REMARK 922        TOTAL FREE ENERGY PREDICTED BY IDOCK:   -0.16 KCAL/MOL
REMARK 923 INTER-LIGAND FREE ENERGY PREDICTED BY IDOCK:   -0.92 KCAL/MOL
REMARK 924 INTRA-LIGAND FREE ENERGY PREDICTED BY IDOCK:    0.76 KCAL/MOL
REMARK 927      BINDING AFFINITY PREDICTED BY RF-SCORE:    0.00 PKD
ROOT
HETATM    1  C   UNL     1     -10.680  10.256  64.820  1.00  0.00     0.513 C  
HETATM    2  C   UNL     1      -9.366  10.302  65.586  1.00  0.00    -0.241 C  
ENDROOT
BRANCH   2   3
HETATM    3  C   UNL     1      -8.954  11.740  65.898  1.00  0.00    -0.059 C  
BRANCH   3   4
HETATM    4  N   UNL     1      -8.528  11.841  67.300  1.00  0.00    -0.153 NA 
HETATM    5  H   UNL     1      -9.303  11.657  67.939  1.00  0.00     0.000 HD 
BRANCH   4   6
HETATM    6  C   UNL     1      -7.371  10.955  67.582  1.00  0.00    -0.094 C  
HETATM    7  C   UNL     1      -6.181  11.702  68.182  1.00  0.00    -0.046 C  
BRANCH   6   8
HETATM    8  C   UNL     1      -7.790   9.821  68.546  1.00  0.00    -0.081 C  
HETATM    9  O   UNL     1      -8.813   9.950  69.215  1.00  0.00    -0.149 OA 
HETATM   10  N   UNL     1      -6.976   8.696  68.499  1.00  0.00    -0.064 N  
HETATM   11  H   UNL     1      -6.216   8.706  67.818  1.00  0.00     0.000 HD 
BRANCH  10  12
HETATM   12  C   UNL     1      -7.095   7.534  69.303  1.00  0.00    -0.077 A  
HETATM   13  C   UNL     1      -7.082   6.251  68.730  1.00  0.00    -0.082 A  
HETATM   14  C   UNL     1      -7.196   5.097  69.508  1.00  0.00    -0.057 A  
HETATM   15  C   UNL     1      -7.337   5.201  70.883  1.00  0.00    -0.073 A  
HETATM   16  C   UNL     1      -7.372   6.462  71.475  1.00  0.00    -0.088 A  
HETATM   17  C   UNL     1      -7.250   7.637  70.699  1.00  0.00    -0.062 A  
HETATM   18  C   UNL     1      -7.312   8.951  71.437  1.00  0.00    -0.106 C  
ENDBRANCH  10  12
ENDBRANCH   6   8
ENDBRANCH   4   6
ENDBRANCH   3   4
ENDBRANCH   2   3
TORSDOF 5
ENDMDL
MODEL      321
REMARK 921   NORMALIZED FREE ENERGY PREDICTED BY IDOCK:    3.41 KCAL/MOL
REMARK 922        TOTAL FREE ENERGY PREDICTED BY IDOCK:    4.07 KCAL/MOL
REMARK 923 INTER-LIGAND FREE ENERGY PREDICTED BY IDOCK:    4.41 KCAL/MOL
REMARK 924 INTRA-LIGAND FREE ENERGY PREDICTED BY IDOCK:   -0.35 KCAL/MOL
REMARK 927      BINDING AFFINITY PREDICTED BY RF-SCORE:    0.00 PKD
ROOT
HETATM    1  C   UNL     1     -11.128  17.650  64.434  1.00  0.00     2.435 C  
HETATM    2  C   UNL     1     -10.279  16.492  64.938  1.00  0.00     0.505 C  
ENDROOT
BRANCH   2   3
HETATM    3  C   UNL     1     -10.997  15.713  66.039  1.00  0.00    -0.213 C  
BRANCH   3   4
HETATM    4  N   UNL     1     -10.080  14.729  66.629  1.00  0.00    -0.257 NA 
HETATM    5  H   UNL     1      -9.612  15.103  67.455  1.00  0.00     0.000 HD 
BRANCH   4   6
HETATM    6  C   UNL     1     -10.773  13.452  66.929  1.00  0.00    -0.273 C  
HETATM    7  C   UNL     1     -10.073  12.236  66.323  1.00  0.00    -0.253 C  
BRANCH   6   8
HETATM    8  C   UNL     1     -10.888  13.255  68.459  1.00  0.00    -0.265 C  
HETATM    9  O   UNL     1      -9.936  13.557  69.175  1.00  0.00     0.056 OA 
HETATM   10  N   UNL     1     -12.132  12.810  68.889  1.00  0.00    -0.218 N  
HETATM   11  H   UNL     1     -12.852  12.695  68.176  1.00  0.00     0.000 HD 
BRANCH  10  12
HETATM   12  C   UNL     1     -12.502  12.499  70.223  1.00  0.00    -0.084 A  
HETATM   13  C   UNL     1     -12.010  11.350  70.862  1.00  0.00    -0.271 A  
HETATM   14  C   UNL     1     -12.361  11.031  72.176  1.00  0.00     0.691 A  
HETATM   15  C   UNL     1     -13.227  11.854  72.879  1.00  0.00     2.068 A  
HETATM   16  C   UNL     1     -13.745  12.991  72.262  1.00  0.00    -0.608 A  
HETATM   17  C   UNL     1     -13.390  13.328  70.935  1.00  0.00     0.144 A  
HETATM   18  C   UNL     1     -14.016  14.572  70.358  1.00  0.00     0.955 C  
ENDBRANCH  10  12
ENDBRANCH   6   8
ENDBRANCH   4   6
ENDBRANCH   3   4
ENDBRANCH   2   3
TORSDOF 5
ENDMDL
