MODEL        1
REMARK 921   NORMALIZED FREE ENERGY PREDICTED BY IDOCK:   -6.29 KCAL/MOL
REMARK 922        TOTAL FREE ENERGY PREDICTED BY IDOCK:   -8.97 KCAL/MOL
REMARK 923 INTER-LIGAND FREE ENERGY PREDICTED BY IDOCK:   -8.50 KCAL/MOL
REMARK 924 INTRA-LIGAND FREE ENERGY PREDICTED BY IDOCK:   -0.47 KCAL/MOL
REMARK 927      BINDING AFFINITY PREDICTED BY RF-SCORE:    0.00 PKD
ROOT
HETATM    1  C   UNL     1     -13.029  16.089  73.570  1.00  0.00    -0.586 C  
HETATM    2  O   UNL     1     -13.805  15.519  72.525  1.00  0.00    -0.517 OA 
ENDROOT
BRANCH   2   3
HETATM    3  C   UNL     1     -13.274  14.445  71.866  1.00  0.00    -0.365 A  
HETATM    4  C   UNL     1     -12.501  14.776  70.756  1.00  0.00    -0.402 A  
HETATM    5  C   UNL     1     -11.850  13.797  69.989  1.00  0.00    -0.307 A  
HETATM    6  C   UNL     1     -12.510   9.766  70.922  1.00  0.00    -0.366 A  
HETATM    7  C   UNL     1     -12.038  12.428  70.302  1.00  0.00    -0.297 A  
HETATM    8  C   UNL     1     -13.058  10.751  71.729  1.00  0.00    -0.573 A  
HETATM    9  C   UNL     1     -13.431  13.109  72.209  1.00  0.00    -0.665 A  
HETATM   10  N   UNL     1     -11.483  11.458  69.537  1.00  0.00    -0.286 NA 
HETATM   11  C   UNL     1     -11.739  10.166  69.850  1.00  0.00    -0.179 A  
HETATM   12  C   UNL     1     -12.845  12.105  71.420  1.00  0.00    -0.378 A  
BRANCH   5  13
HETATM   13  N   UNL     1     -10.952  14.168  68.961  1.00  0.00    -0.256 NA 
HETATM   14  H   UNL     1      -9.960  13.945  69.048  1.00  0.00     0.000 HD 
BRANCH  13  15
HETATM   15  C   UNL     1     -11.439  14.871  67.771  1.00  0.00    -0.338 C  
HETATM   16  C   UNL     1     -10.370  15.870  67.315  1.00  0.00    -0.293 C  
BRANCH  15  17
HETATM   17  C   UNL     1     -11.704  13.870  66.627  1.00  0.00    -0.417 C  
BRANCH  17  18
HETATM   18  C   UNL     1     -11.178  14.299  65.250  1.00  0.00    -0.337 C  
BRANCH  18  19
HETATM   19  C   UNL     1     -12.165  15.083  64.383  1.00  0.00    -0.337 C  
HETATM   20  H1  UNL     1     -12.263  16.868  63.334  1.00  0.00     0.000 HD 
HETATM   21  N   UNL     1     -11.605  16.345  63.912  1.00  0.00    -1.602 NA 
HETATM   22  H2  UNL     1     -10.722  16.197  63.423  1.00  0.00     0.000 HD 
ENDBRANCH  18  19
ENDBRANCH  17  18
ENDBRANCH  15  17
ENDBRANCH  13  15
ENDBRANCH   5  13
ENDBRANCH   2   3
TORSDOF 6
ENDMDL
MODEL        2
REMARK 921   NORMALIZED FREE ENERGY PREDICTED BY IDOCK:   -6.28 KCAL/MOL
REMARK 922        TOTAL FREE ENERGY PREDICTED BY IDOCK:   -8.95 KCAL/MOL
REMARK 923 INTER-LIGAND FREE ENERGY PREDICTED BY IDOCK:   -8.46 KCAL/MOL
REMARK 924 INTRA-LIGAND FREE ENERGY PREDICTED BY IDOCK:   -0.49 KCAL/MOL
REMARK 927      BINDING AFFINITY PREDICTED BY RF-SCORE:    0.00 PKD
ROOT
HETATM    1  C   UNL     1     -13.448   8.923  72.147  1.00  0.00    -0.448 C  
HETATM    2  O   UNL     1     -12.835   9.491  70.998  1.00  0.00    -0.298 OA 
ENDROOT
BRANCH   2   3
HETATM    3  C   UNL     1     -12.723  10.853  70.960  1.00  0.00    -0.407 A  
HETATM    4  C   UNL     1     -11.934  11.336  69.919  1.00  0.00    -0.440 A  
HETATM    5  C   UNL     1     -11.745  12.711  69.711  1.00  0.00    -0.284 A  
HETATM    6  C   UNL     1     -13.376  15.392  72.487  1.00  0.00    -0.569 A  
HETATM    7  C   UNL     1     -12.309  13.638  70.623  1.00  0.00    -0.368 A  
HETATM    8  C   UNL     1     -13.637  14.037  72.614  1.00  0.00    -0.623 A  
HETATM    9  C   UNL     1     -13.316  11.752  71.835  1.00  0.00    -0.401 A  
HETATM   10  N   UNL     1     -12.084  14.967  70.491  1.00  0.00    -0.297 NA 
HETATM   11  C   UNL     1     -12.603  15.803  71.420  1.00  0.00    -0.455 A  
HETATM   12  C   UNL     1     -13.090  13.131  71.690  1.00  0.00    -0.444 A  
BRANCH   5  13
HETATM   13  N   UNL     1     -11.066  13.179  68.561  1.00  0.00    -0.252 NA 
HETATM   14  H   UNL     1     -10.056  13.323  68.591  1.00  0.00     0.000 HD 
BRANCH  13  15
HETATM   15  C   UNL     1     -11.806  13.457  67.327  1.00  0.00    -0.376 C  
HETATM   16  C   UNL     1     -11.447  14.867  66.844  1.00  0.00    -0.318 C  
BRANCH  15  17
HETATM   17  C   UNL     1     -11.420  12.443  66.230  1.00  0.00    -0.423 C  
BRANCH  17  18
HETATM   18  C   UNL     1     -12.382  12.378  65.035  1.00  0.00    -0.441 C  
BRANCH  18  19
HETATM   19  C   UNL     1     -11.822  12.897  63.710  1.00  0.00    -0.504 C  
HETATM   20  H1  UNL     1     -12.163  14.424  62.350  1.00  0.00     0.000 HD 
HETATM   21  N   UNL     1     -12.536  14.077  63.233  1.00  0.00    -1.112 NA 
HETATM   22  H2  UNL     1     -12.549  14.811  63.941  1.00  0.00     0.000 HD 
ENDBRANCH  18  19
ENDBRANCH  17  18
ENDBRANCH  15  17
ENDBRANCH  13  15
ENDBRANCH   5  13
ENDBRANCH   2   3
TORSDOF 6
ENDMDL
MODEL        3
REMARK 921   NORMALIZED FREE ENERGY PREDICTED BY IDOCK:   -6.18 KCAL/MOL
REMARK 922        TOTAL FREE ENERGY PREDICTED BY IDOCK:   -8.82 KCAL/MOL
REMARK 923 INTER-LIGAND FREE ENERGY PREDICTED BY IDOCK:   -8.44 KCAL/MOL
REMARK 924 INTRA-LIGAND FREE ENERGY PREDICTED BY IDOCK:   -0.38 KCAL/MOL
REMARK 927      BINDING AFFINITY PREDICTED BY RF-SCORE:    0.00 PKD
ROOT
HETATM    1  C   UNL     1     -10.407   9.133  71.092  1.00  0.00    -0.317 C  
HETATM    2  O   UNL     1     -11.675   9.491  70.561  1.00  0.00    -0.265 OA 
ENDROOT
BRANCH   2   3
HETATM    3  C   UNL     1     -12.008  10.816  70.579  1.00  0.00    -0.361 A  
HETATM    4  C   UNL     1     -11.564  11.537  69.474  1.00  0.00    -0.400 A  
HETATM    5  C   UNL     1     -11.853  12.902  69.315  1.00  0.00    -0.309 A  
HETATM    6  C   UNL     1     -13.856  14.890  72.411  1.00  0.00    -0.587 A  
HETATM    7  C   UNL     1     -12.552  13.590  70.338  1.00  0.00    -0.197 A  
HETATM    8  C   UNL     1     -13.652  13.522  72.500  1.00  0.00    -0.674 A  
HETATM    9  C   UNL     1     -12.732  11.469  71.569  1.00  0.00    -0.439 A  
HETATM   10  N   UNL     1     -12.782  14.921  70.248  1.00  0.00    -0.306 NA 
HETATM   11  C   UNL     1     -13.407  15.537  71.279  1.00  0.00    -0.511 A  
HETATM   12  C   UNL     1     -12.978  12.848  71.468  1.00  0.00    -0.388 A  
BRANCH   5  13
HETATM   13  N   UNL     1     -11.521  13.573  68.114  1.00  0.00    -0.283 NA 
HETATM   14  H   UNL     1     -11.876  14.515  67.945  1.00  0.00     0.000 HD 
BRANCH  13  15
HETATM   15  C   UNL     1     -10.672  12.922  67.114  1.00  0.00    -0.253 C  
HETATM   16  C   UNL     1     -11.567  12.266  66.058  1.00  0.00    -0.451 C  
BRANCH  15  17
HETATM   17  C   UNL     1      -9.766  13.962  66.421  1.00  0.00    -0.309 C  
BRANCH  17  18
HETATM   18  C   UNL     1     -10.291  14.493  65.079  1.00  0.00    -0.442 C  
BRANCH  18  19
HETATM   19  C   UNL     1     -10.990  15.852  65.137  1.00  0.00    -0.377 C  
HETATM   20  H1  UNL     1     -12.018  17.146  63.886  1.00  0.00     0.000 HD 
HETATM   21  N   UNL     1     -11.553  16.239  63.848  1.00  0.00    -1.573 NA 
HETATM   22  H2  UNL     1     -12.178  15.519  63.487  1.00  0.00     0.000 HD 
ENDBRANCH  18  19
ENDBRANCH  17  18
ENDBRANCH  15  17
ENDBRANCH  13  15
ENDBRANCH   5  13
ENDBRANCH   2   3
TORSDOF 6
ENDMDL
MODEL        4
REMARK 921   NORMALIZED FREE ENERGY PREDICTED BY IDOCK:   -6.14 KCAL/MOL
REMARK 922        TOTAL FREE ENERGY PREDICTED BY IDOCK:   -8.76 KCAL/MOL
REMARK 923 INTER-LIGAND FREE ENERGY PREDICTED BY IDOCK:   -8.25 KCAL/MOL
REMARK 924 INTRA-LIGAND FREE ENERGY PREDICTED BY IDOCK:   -0.51 KCAL/MOL
REMARK 927      BINDING AFFINITY PREDICTED BY RF-SCORE:    0.00 PKD
ROOT
HETATM    1  C   UNL     1     -13.280  15.821  73.120  1.00  0.00    -0.591 C  
HETATM    2  O   UNL     1     -13.945  15.176  72.043  1.00  0.00    -0.426 OA 
ENDROOT
BRANCH   2   3
HETATM    3  C   UNL     1     -13.364  14.047  71.537  1.00  0.00    -0.350 A  
HETATM    4  C   UNL     1     -12.641  14.248  70.364  1.00  0.00    -0.405 A  
HETATM    5  C   UNL     1     -11.949  13.203  69.733  1.00  0.00    -0.314 A  
HETATM    6  C   UNL     1     -12.333   9.331  71.287  1.00  0.00    -0.403 A  
HETATM    7  C   UNL     1     -12.044  11.889  70.256  1.00  0.00    -0.325 A  
HETATM    8  C   UNL     1     -12.922  10.394  71.953  1.00  0.00    -0.555 A  
HETATM    9  C   UNL     1     -13.429  12.772  72.084  1.00  0.00    -0.591 A  
HETATM   10  N   UNL     1     -11.448  10.847  69.628  1.00  0.00    -0.277 NA 
HETATM   11  C   UNL     1     -11.615   9.606  70.142  1.00  0.00    -0.141 A  
HETATM   12  C   UNL     1     -12.802  11.695  71.436  1.00  0.00    -0.461 A  
BRANCH   5  13
HETATM   13  N   UNL     1     -11.101  13.463  68.631  1.00  0.00    -0.252 NA 
HETATM   14  H   UNL     1     -10.088  13.410  68.745  1.00  0.00     0.000 HD 
BRANCH  13  15
HETATM   15  C   UNL     1     -11.670  13.807  67.325  1.00  0.00    -0.382 C  
HETATM   16  C   UNL     1     -11.076  15.143  66.864  1.00  0.00    -0.314 C  
BRANCH  15  17
HETATM   17  C   UNL     1     -11.321  12.723  66.285  1.00  0.00    -0.365 C  
BRANCH  17  18
HETATM   18  C   UNL     1     -12.380  12.499  65.195  1.00  0.00    -0.496 C  
BRANCH  18  19
HETATM   19  C   UNL     1     -11.899  12.699  63.757  1.00  0.00    -0.498 C  
HETATM   20  H1  UNL     1     -11.922  14.152  62.280  1.00  0.00     0.000 HD 
HETATM   21  N   UNL     1     -12.243  14.018  63.238  1.00  0.00    -1.099 NA 
HETATM   22  H2  UNL     1     -11.895  14.757  63.850  1.00  0.00     0.000 HD 
ENDBRANCH  18  19
ENDBRANCH  17  18
ENDBRANCH  15  17
ENDBRANCH  13  15
ENDBRANCH   5  13
ENDBRANCH   2   3
TORSDOF 6
ENDMDL
MODEL        5
REMARK 921   NORMALIZED FREE ENERGY PREDICTED BY IDOCK:   -6.10 KCAL/MOL
REMARK 922        TOTAL FREE ENERGY PREDICTED BY IDOCK:   -8.72 KCAL/MOL
REMARK 923 INTER-LIGAND FREE ENERGY PREDICTED BY IDOCK:   -8.32 KCAL/MOL
REMARK 924 INTRA-LIGAND FREE ENERGY PREDICTED BY IDOCK:   -0.40 KCAL/MOL
REMARK 927      BINDING AFFINITY PREDICTED BY RF-SCORE:    0.00 PKD
ROOT
HETATM    1  C   UNL     1     -11.130   8.685  72.012  1.00  0.00    -0.367 C  
HETATM    2  O   UNL     1     -12.139   9.132  71.117  1.00  0.00    -0.292 OA 
ENDROOT
BRANCH   2   3
HETATM    3  C   UNL     1     -12.301  10.482  70.983  1.00  0.00    -0.399 A  
HETATM    4  C   UNL     1     -11.596  11.045  69.923  1.00  0.00    -0.416 A  
HETATM    5  C   UNL     1     -11.681  12.413  69.619  1.00  0.00    -0.307 A  
HETATM    6  C   UNL     1     -13.895  14.888  72.173  1.00  0.00    -0.576 A  
HETATM    7  C   UNL     1     -12.445  13.265  70.455  1.00  0.00    -0.225 A  
HETATM    8  C   UNL     1     -13.882  13.520  72.393  1.00  0.00    -0.687 A  
HETATM    9  C   UNL     1     -13.088  11.300  71.783  1.00  0.00    -0.527 A  
HETATM   10  N   UNL     1     -12.487  14.600  70.232  1.00  0.00    -0.348 NA 
HETATM   11  C   UNL     1     -13.189  15.374  71.092  1.00  0.00    -0.513 A  
HETATM   12  C   UNL     1     -13.139  12.683  71.544  1.00  0.00    -0.373 A  
BRANCH   5  13
HETATM   13  N   UNL     1     -11.076  12.930  68.449  1.00  0.00    -0.247 NA 
HETATM   14  H   UNL     1     -10.163  13.383  68.507  1.00  0.00     0.000 HD 
BRANCH  13  15
HETATM   15  C   UNL     1     -11.754  12.818  67.155  1.00  0.00    -0.380 C  
HETATM   16  C   UNL     1     -12.169  14.220  66.693  1.00  0.00    -0.411 C  
BRANCH  15  17
HETATM   17  C   UNL     1     -10.805  12.209  66.103  1.00  0.00    -0.317 C  
BRANCH  17  18
HETATM   18  C   UNL     1     -10.719  12.980  64.778  1.00  0.00    -0.370 C  
BRANCH  18  19
HETATM   19  C   UNL     1     -11.694  12.531  63.689  1.00  0.00    -0.515 C  
HETATM   20  H1  UNL     1     -13.130  13.341  62.432  1.00  0.00     0.000 HD 
HETATM   21  N   UNL     1     -12.479  13.640  63.158  1.00  0.00    -1.045 NA 
HETATM   22  H2  UNL     1     -11.876  14.392  62.825  1.00  0.00     0.000 HD 
ENDBRANCH  18  19
ENDBRANCH  17  18
ENDBRANCH  15  17
ENDBRANCH  13  15
ENDBRANCH   5  13
ENDBRANCH   2   3
TORSDOF 6
ENDMDL
MODEL        6
REMARK 921   NORMALIZED FREE ENERGY PREDICTED BY IDOCK:   -5.98 KCAL/MOL
REMARK 922        TOTAL FREE ENERGY PREDICTED BY IDOCK:   -8.55 KCAL/MOL
REMARK 923 INTER-LIGAND FREE ENERGY PREDICTED BY IDOCK:   -7.79 KCAL/MOL
REMARK 924 INTRA-LIGAND FREE ENERGY PREDICTED BY IDOCK:   -0.76 KCAL/MOL
REMARK 927      BINDING AFFINITY PREDICTED BY RF-SCORE:    0.00 PKD
ROOT
HETATM    1  C   UNL     1     -13.460  15.206  72.901  1.00  0.00    -0.489 C  
HETATM    2  O   UNL     1     -13.624  13.796  72.836  1.00  0.00    -0.681 OA 
ENDROOT
BRANCH   2   3
HETATM    3  C   UNL     1     -13.086  13.154  71.756  1.00  0.00    -0.383 A  
HETATM    4  C   UNL     1     -13.215  11.768  71.786  1.00  0.00    -0.434 A  
HETATM    5  C   UNL     1     -12.752  10.958  70.738  1.00  0.00    -0.340 A  
HETATM    6  C   UNL     1     -10.673  12.772  67.585  1.00  0.00    -0.236 A  
HETATM    7  C   UNL     1     -12.068  11.552  69.648  1.00  0.00    -0.296 A  
HETATM    8  C   UNL     1     -11.229  13.562  68.578  1.00  0.00    -0.310 A  
HETATM    9  C   UNL     1     -12.456  13.753  70.673  1.00  0.00    -0.429 A  
HETATM   10  N   UNL     1     -11.545  10.791  68.658  1.00  0.00    -0.327 NA 
HETATM   11  C   UNL     1     -10.856  11.407  67.669  1.00  0.00    -0.237 A  
HETATM   12  C   UNL     1     -11.924  12.962  69.641  1.00  0.00    -0.358 A  
BRANCH   5  13
HETATM   13  N   UNL     1     -13.029   9.571  70.723  1.00  0.00    -0.550 NA 
HETATM   14  H   UNL     1     -13.071   9.070  69.835  1.00  0.00     0.000 HD 
BRANCH  13  15
HETATM   15  C   UNL     1     -13.256   8.849  71.978  1.00  0.00    -0.409 C  
HETATM   16  C   UNL     1     -14.397   7.846  71.771  1.00  0.00    -0.589 C  
BRANCH  15  17
HETATM   17  C   UNL     1     -11.985   8.078  72.390  1.00  0.00    -0.405 C  
BRANCH  17  18
HETATM   18  C   UNL     1     -11.995   6.578  72.058  1.00  0.00    -0.372 C  
BRANCH  18  19
HETATM   19  C   UNL     1     -11.169   6.168  70.839  1.00  0.00    -0.299 C  
HETATM   20  H1  UNL     1     -11.123   6.486  68.791  1.00  0.00     0.000 HD 
HETATM   21  N   UNL     1     -11.674   6.759  69.604  1.00  0.00    -0.642 NA 
HETATM   22  H2  UNL     1     -11.738   7.774  69.681  1.00  0.00     0.000 HD 
ENDBRANCH  18  19
ENDBRANCH  17  18
ENDBRANCH  15  17
ENDBRANCH  13  15
ENDBRANCH   5  13
ENDBRANCH   2   3
TORSDOF 6
ENDMDL
MODEL        7
REMARK 921   NORMALIZED FREE ENERGY PREDICTED BY IDOCK:   -5.82 KCAL/MOL
REMARK 922        TOTAL FREE ENERGY PREDICTED BY IDOCK:   -8.33 KCAL/MOL
REMARK 923 INTER-LIGAND FREE ENERGY PREDICTED BY IDOCK:   -7.93 KCAL/MOL
REMARK 924 INTRA-LIGAND FREE ENERGY PREDICTED BY IDOCK:   -0.40 KCAL/MOL
REMARK 927      BINDING AFFINITY PREDICTED BY RF-SCORE:    0.00 PKD
ROOT
HETATM    1  C   UNL     1     -10.173   8.938  68.958  1.00  0.00    -0.206 C  
HETATM    2  O   UNL     1     -10.918  10.061  69.409  1.00  0.00    -0.229 OA 
ENDROOT
BRANCH   2   3
HETATM    3  C   UNL     1     -11.211  11.026  68.486  1.00  0.00    -0.268 A  
HETATM    4  C   UNL     1     -11.727  12.201  69.025  1.00  0.00    -0.377 A  
HETATM    5  C   UNL     1     -12.045  13.308  68.222  1.00  0.00    -0.211 A  
HETATM    6  C   UNL     1     -11.695  12.921  64.065  1.00  0.00    -0.499 A  
HETATM    7  C   UNL     1     -11.910  13.209  66.815  1.00  0.00    -0.385 A  
HETATM    8  C   UNL     1     -11.288  11.879  64.883  1.00  0.00    -0.337 A  
HETATM    9  C   UNL     1     -11.034  10.931  67.112  1.00  0.00    -0.334 A  
HETATM   10  N   UNL     1     -12.278  14.232  66.008  1.00  0.00    -0.421 NA 
HETATM   11  C   UNL     1     -12.178  14.064  64.669  1.00  0.00    -0.435 A  
HETATM   12  C   UNL     1     -11.406  11.999  66.278  1.00  0.00    -0.415 A  
BRANCH   5  13
HETATM   13  N   UNL     1     -12.423  14.539  68.809  1.00  0.00    -0.569 NA 
HETATM   14  H   UNL     1     -12.973  15.209  68.272  1.00  0.00     0.000 HD 
BRANCH  13  15
HETATM   15  C   UNL     1     -12.027  14.855  70.184  1.00  0.00    -0.317 C  
HETATM   16  C   UNL     1     -10.885  15.876  70.146  1.00  0.00    -0.359 C  
BRANCH  15  17
HETATM   17  C   UNL     1     -13.214  15.465  70.957  1.00  0.00    -0.560 C  
BRANCH  17  18
HETATM   18  C   UNL     1     -13.337  15.020  72.422  1.00  0.00    -0.509 C  
BRANCH  18  19
HETATM   19  C   UNL     1     -12.293  15.599  73.376  1.00  0.00    -0.519 C  
HETATM   20  H1  UNL     1     -12.202  16.583  75.198  1.00  0.00     0.000 HD 
HETATM   21  N   UNL     1     -12.898  16.197  74.562  1.00  0.00    -0.978 NA 
HETATM   22  H2  UNL     1     -13.506  15.532  75.040  1.00  0.00     0.000 HD 
ENDBRANCH  18  19
ENDBRANCH  17  18
ENDBRANCH  15  17
ENDBRANCH  13  15
ENDBRANCH   5  13
ENDBRANCH   2   3
TORSDOF 6
ENDMDL
MODEL        8
REMARK 921   NORMALIZED FREE ENERGY PREDICTED BY IDOCK:   -5.82 KCAL/MOL
REMARK 922        TOTAL FREE ENERGY PREDICTED BY IDOCK:   -8.33 KCAL/MOL
REMARK 923 INTER-LIGAND FREE ENERGY PREDICTED BY IDOCK:   -8.09 KCAL/MOL
REMARK 924 INTRA-LIGAND FREE ENERGY PREDICTED BY IDOCK:   -0.24 KCAL/MOL
REMARK 927      BINDING AFFINITY PREDICTED BY RF-SCORE:    0.00 PKD
ROOT
HETATM    1  C   UNL     1     -11.006  10.191  67.692  1.00  0.00    -0.268 C  
HETATM    2  O   UNL     1     -11.479  10.232  69.032  1.00  0.00    -0.217 OA 
ENDROOT
BRANCH   2   3
HETATM    3  C   UNL     1     -11.879  11.446  69.515  1.00  0.00    -0.357 A  
HETATM    4  C   UNL     1     -11.727  12.501  68.620  1.00  0.00    -0.368 A  
HETATM    5  C   UNL     1     -12.125  13.808  68.941  1.00  0.00    -0.313 A  
HETATM    6  C   UNL     1     -13.529  14.571  72.814  1.00  0.00    -0.575 A  
HETATM    7  C   UNL     1     -12.627  14.085  70.237  1.00  0.00    -0.291 A  
HETATM    8  C   UNL     1     -13.229  13.270  72.442  1.00  0.00    -0.539 A  
HETATM    9  C   UNL     1     -12.410  11.696  70.774  1.00  0.00    -0.454 A  
HETATM   10  N   UNL     1     -12.950  15.348  70.602  1.00  0.00    -0.433 NA 
HETATM   11  C   UNL     1     -13.374  15.564  71.869  1.00  0.00    -0.477 A  
HETATM   12  C   UNL     1     -12.754  13.006  71.146  1.00  0.00    -0.372 A  
BRANCH   5  13
HETATM   13  N   UNL     1     -12.101  14.830  67.962  1.00  0.00    -0.579 NA 
HETATM   14  H   UNL     1     -12.938  15.027  67.413  1.00  0.00     0.000 HD 
BRANCH  13  15
HETATM   15  C   UNL     1     -10.879  15.606  67.734  1.00  0.00    -0.307 C  
HETATM   16  C   UNL     1      -9.715  14.916  68.452  1.00  0.00    -0.209 C  
BRANCH  15  17
HETATM   17  C   UNL     1     -10.562  15.675  66.225  1.00  0.00    -0.310 C  
BRANCH  17  18
HETATM   18  C   UNL     1     -10.912  14.410  65.427  1.00  0.00    -0.343 C  
BRANCH  18  19
HETATM   19  C   UNL     1     -12.028  14.572  64.394  1.00  0.00    -0.449 C  
HETATM   20  H1  UNL     1     -12.812  16.024  63.140  1.00  0.00     0.000 HD 
HETATM   21  N   UNL     1     -12.068  15.916  63.829  1.00  0.00    -1.230 NA 
HETATM   22  H2  UNL     1     -11.163  16.179  63.438  1.00  0.00     0.000 HD 
ENDBRANCH  18  19
ENDBRANCH  17  18
ENDBRANCH  15  17
ENDBRANCH  13  15
ENDBRANCH   5  13
ENDBRANCH   2   3
TORSDOF 6
ENDMDL
MODEL        9
REMARK 921   NORMALIZED FREE ENERGY PREDICTED BY IDOCK:   -5.78 KCAL/MOL
REMARK 922        TOTAL FREE ENERGY PREDICTED BY IDOCK:   -8.27 KCAL/MOL
REMARK 923 INTER-LIGAND FREE ENERGY PREDICTED BY IDOCK:   -7.76 KCAL/MOL
REMARK 924 INTRA-LIGAND FREE ENERGY PREDICTED BY IDOCK:   -0.51 KCAL/MOL
REMARK 927      BINDING AFFINITY PREDICTED BY RF-SCORE:    0.00 PKD
ROOT
HETATM    1  C   UNL     1     -12.312  12.177  63.701  1.00  0.00    -0.568 C  
HETATM    2  O   UNL     1     -12.929  12.646  64.892  1.00  0.00    -0.830 OA 
ENDROOT
BRANCH   2   3
HETATM    3  C   UNL     1     -12.216  13.523  65.660  1.00  0.00    -0.458 A  
HETATM    4  C   UNL     1     -12.146  13.183  67.008  1.00  0.00    -0.366 A  
HETATM    5  C   UNL     1     -11.421  13.954  67.930  1.00  0.00    -0.318 A  
HETATM    6  C   UNL     1      -9.677  17.527  66.607  1.00  0.00    -0.303 A  
HETATM    7  C   UNL     1     -10.801  15.154  67.500  1.00  0.00    -0.301 A  
HETATM    8  C   UNL     1     -10.309  16.698  65.693  1.00  0.00    -0.310 A  
HETATM    9  C   UNL     1     -11.577  14.674  65.217  1.00  0.00    -0.354 A  
HETATM   10  N   UNL     1     -10.157  15.957  68.379  1.00  0.00    -0.220 NA 
HETATM   11  C   UNL     1      -9.629  17.117  67.924  1.00  0.00    -0.266 A  
HETATM   12  C   UNL     1     -10.900  15.500  66.130  1.00  0.00    -0.295 A  
BRANCH   5  13
HETATM   13  N   UNL     1     -11.241  13.506  69.260  1.00  0.00    -0.361 NA 
HETATM   14  H   UNL     1     -10.311  13.523  69.680  1.00  0.00     0.000 HD 
BRANCH  13  15
HETATM   15  C   UNL     1     -12.383  13.018  70.037  1.00  0.00    -0.152 C  
HETATM   16  C   UNL     1     -12.196  11.520  70.301  1.00  0.00    -0.415 C  
BRANCH  15  17
HETATM   17  C   UNL     1     -12.466  13.754  71.390  1.00  0.00    -0.404 C  
BRANCH  17  18
HETATM   18  C   UNL     1     -12.753  15.260  71.297  1.00  0.00    -0.469 C  
BRANCH  18  19
HETATM   19  C   UNL     1     -12.234  16.103  72.462  1.00  0.00    -0.520 C  
HETATM   20  H1  UNL     1     -12.817  16.688  74.363  1.00  0.00     0.000 HD 
HETATM   21  N   UNL     1     -13.163  16.125  73.586  1.00  0.00    -0.848 NA 
HETATM   22  H2  UNL     1     -13.396  15.180  73.890  1.00  0.00     0.000 HD 
ENDBRANCH  18  19
ENDBRANCH  17  18
ENDBRANCH  15  17
ENDBRANCH  13  15
ENDBRANCH   5  13
ENDBRANCH   2   3
TORSDOF 6
ENDMDL
MODEL       10
REMARK 921   NORMALIZED FREE ENERGY PREDICTED BY IDOCK:   -5.74 KCAL/MOL
REMARK 922        TOTAL FREE ENERGY PREDICTED BY IDOCK:   -8.23 KCAL/MOL
REMARK 923 INTER-LIGAND FREE ENERGY PREDICTED BY IDOCK:   -7.13 KCAL/MOL
REMARK 924 INTRA-LIGAND FREE ENERGY PREDICTED BY IDOCK:   -1.10 KCAL/MOL
REMARK 927      BINDING AFFINITY PREDICTED BY RF-SCORE:    0.00 PKD
ROOT
HETATM    1  C   UNL     1     -13.514  15.536  72.239  1.00  0.00    -0.499 C  
HETATM    2  O   UNL     1     -12.168  15.847  71.907  1.00  0.00    -0.407 OA 
ENDROOT
BRANCH   2   3
HETATM    3  C   UNL     1     -11.772  15.615  70.620  1.00  0.00    -0.369 A  
HETATM    4  C   UNL     1     -10.929  16.589  70.092  1.00  0.00    -0.215 A  
HETATM    5  C   UNL     1     -10.399  16.486  68.796  1.00  0.00    -0.286 A  
HETATM    6  C   UNL     1     -11.646  13.301  66.377  1.00  0.00    -0.387 A  
HETATM    7  C   UNL     1     -10.787  15.403  67.969  1.00  0.00    -0.292 A  
HETATM    8  C   UNL     1     -12.074  13.365  67.694  1.00  0.00    -0.311 A  
HETATM    9  C   UNL     1     -12.126  14.526  69.834  1.00  0.00    -0.389 A  
HETATM   10  N   UNL     1     -10.351  15.316  66.690  1.00  0.00    -0.273 NA 
HETATM   11  C   UNL     1     -10.795  14.289  65.927  1.00  0.00    -0.300 A  
HETATM   12  C   UNL     1     -11.664  14.432  68.511  1.00  0.00    -0.370 A  
BRANCH   5  13
HETATM   13  N   UNL     1      -9.427  17.408  68.340  1.00  0.00    -0.283 NA 
HETATM   14  H   UNL     1      -8.761  17.129  67.619  1.00  0.00     0.000 HD 
BRANCH  13  15
HETATM   15  C   UNL     1      -9.372  18.762  68.900  1.00  0.00    -0.260 C  
HETATM   16  C   UNL     1      -7.971  19.337  68.663  1.00  0.00    -0.405 C  
BRANCH  15  17
HETATM   17  C   UNL     1     -10.407  19.671  68.205  1.00  0.00    -0.561 C  
BRANCH  17  18
HETATM   18  C   UNL     1      -9.984  20.207  66.829  1.00  0.00    -0.604 C  
BRANCH  18  19
HETATM   19  C   UNL     1     -10.732  19.615  65.633  1.00  0.00    -0.329 C  
HETATM   20  H1  UNL     1     -11.017  17.782  64.708  1.00  0.00     0.000 HD 
HETATM   21  N   UNL     1     -10.518  18.177  65.505  1.00  0.00    -0.593 NA 
HETATM   22  H2  UNL     1     -10.759  17.690  66.368  1.00  0.00     0.000 HD 
ENDBRANCH  18  19
ENDBRANCH  17  18
ENDBRANCH  15  17
ENDBRANCH  13  15
ENDBRANCH   5  13
ENDBRANCH   2   3
TORSDOF 6
ENDMDL
MODEL       11
REMARK 921   NORMALIZED FREE ENERGY PREDICTED BY IDOCK:   -5.74 KCAL/MOL
REMARK 922        TOTAL FREE ENERGY PREDICTED BY IDOCK:   -8.23 KCAL/MOL
REMARK 923 INTER-LIGAND FREE ENERGY PREDICTED BY IDOCK:   -7.14 KCAL/MOL
REMARK 924 INTRA-LIGAND FREE ENERGY PREDICTED BY IDOCK:   -1.09 KCAL/MOL
REMARK 927      BINDING AFFINITY PREDICTED BY RF-SCORE:    0.00 PKD
ROOT
HETATM    1  C   UNL     1     -13.994  15.463  72.280  1.00  0.00    -0.562 C  
HETATM    2  O   UNL     1     -12.777  14.729  72.248  1.00  0.00    -0.310 OA 
ENDROOT
BRANCH   2   3
HETATM    3  C   UNL     1     -12.519  13.998  71.123  1.00  0.00    -0.371 A  
HETATM    4  C   UNL     1     -12.598  12.619  71.300  1.00  0.00    -0.339 A  
HETATM    5  C   UNL     1     -12.400  11.723  70.239  1.00  0.00    -0.240 A  
HETATM    6  C   UNL     1     -11.250  13.263  66.516  1.00  0.00    -0.329 A  
HETATM    7  C   UNL     1     -12.035  12.223  68.964  1.00  0.00    -0.248 A  
HETATM    8  C   UNL     1     -11.553  14.135  67.550  1.00  0.00    -0.396 A  
HETATM    9  C   UNL     1     -12.204  14.502  69.868  1.00  0.00    -0.379 A  
HETATM   10  N   UNL     1     -11.765  11.381  67.939  1.00  0.00    -0.574 NA 
HETATM   11  C   UNL     1     -11.370  11.910  66.758  1.00  0.00    -0.330 A  
HETATM   12  C   UNL     1     -11.935  13.627  68.803  1.00  0.00    -0.394 A  
BRANCH   5  13
HETATM   13  N   UNL     1     -12.636  10.338  70.411  1.00  0.00    -0.499 NA 
HETATM   14  H   UNL     1     -13.101   9.806  69.675  1.00  0.00     0.000 HD 
BRANCH  13  15
HETATM   15  C   UNL     1     -12.214   9.665  71.643  1.00  0.00    -0.402 C  
HETATM   16  C   UNL     1     -13.404   8.883  72.209  1.00  0.00    -0.497 C  
BRANCH  15  17
HETATM   17  C   UNL     1     -11.066   8.677  71.348  1.00  0.00    -0.343 C  
BRANCH  17  18
HETATM   18  C   UNL     1      -9.843   9.289  70.648  1.00  0.00    -0.332 C  
BRANCH  18  19
HETATM   19  C   UNL     1      -9.669   8.912  69.177  1.00  0.00    -0.168 C  
HETATM   20  H1  UNL     1     -10.784   8.143  67.608  1.00  0.00     0.000 HD 
HETATM   21  N   UNL     1     -10.900   8.395  68.589  1.00  0.00    -0.430 NA 
HETATM   22  H2  UNL     1     -11.671   9.050  68.713  1.00  0.00     0.000 HD 
ENDBRANCH  18  19
ENDBRANCH  17  18
ENDBRANCH  15  17
ENDBRANCH  13  15
ENDBRANCH   5  13
ENDBRANCH   2   3
TORSDOF 6
ENDMDL
MODEL       12
REMARK 921   NORMALIZED FREE ENERGY PREDICTED BY IDOCK:   -5.70 KCAL/MOL
REMARK 922        TOTAL FREE ENERGY PREDICTED BY IDOCK:   -8.16 KCAL/MOL
REMARK 923 INTER-LIGAND FREE ENERGY PREDICTED BY IDOCK:   -7.79 KCAL/MOL
REMARK 924 INTRA-LIGAND FREE ENERGY PREDICTED BY IDOCK:   -0.38 KCAL/MOL
REMARK 927      BINDING AFFINITY PREDICTED BY RF-SCORE:    0.00 PKD
ROOT
HETATM    1  C   UNL     1     -11.274  14.977  65.258  1.00  0.00    -0.367 C  
HETATM    2  O   UNL     1     -12.316  14.226  65.866  1.00  0.00    -0.430 OA 
ENDROOT
BRANCH   2   3
HETATM    3  C   UNL     1     -11.951  13.285  66.788  1.00  0.00    -0.382 A  
HETATM    4  C   UNL     1     -11.964  13.735  68.106  1.00  0.00    -0.394 A  
HETATM    5  C   UNL     1     -11.653  12.887  69.180  1.00  0.00    -0.322 A  
HETATM    6  C   UNL     1     -10.373   8.987  68.339  1.00  0.00    -0.242 A  
HETATM    7  C   UNL     1     -11.242  11.556  68.921  1.00  0.00    -0.247 A  
HETATM    8  C   UNL     1     -10.784   9.808  67.301  1.00  0.00    -0.296 A  
HETATM    9  C   UNL     1     -11.591  11.971  66.524  1.00  0.00    -0.384 A  
HETATM   10  N   UNL     1     -10.865  10.736  69.931  1.00  0.00    -0.242 NA 
HETATM   11  C   UNL     1     -10.431   9.492  69.622  1.00  0.00    -0.223 A  
HETATM   12  C   UNL     1     -11.211  11.119  67.574  1.00  0.00    -0.369 A  
BRANCH   5  13
HETATM   13  N   UNL     1     -11.821  13.325  70.515  1.00  0.00    -0.542 NA 
HETATM   14  H   UNL     1     -11.041  13.268  71.170  1.00  0.00     0.000 HD 
BRANCH  13  15
HETATM   15  C   UNL     1     -13.110  13.860  70.961  1.00  0.00    -0.243 C  
HETATM   16  C   UNL     1     -13.512  13.158  72.263  1.00  0.00    -0.665 C  
BRANCH  15  17
HETATM   17  C   UNL     1     -12.998  15.376  71.229  1.00  0.00    -0.541 C  
BRANCH  17  18
HETATM   18  C   UNL     1     -11.904  15.783  72.226  1.00  0.00    -0.598 C  
BRANCH  18  19
HETATM   19  C   UNL     1     -12.394  16.159  73.625  1.00  0.00    -0.562 C  
HETATM   20  H1  UNL     1     -14.177  16.479  74.633  1.00  0.00     0.000 HD 
HETATM   21  N   UNL     1     -13.849  16.229  73.700  1.00  0.00    -0.739 NA 
HETATM   22  H2  UNL     1     -14.278  15.360  73.381  1.00  0.00     0.000 HD 
ENDBRANCH  18  19
ENDBRANCH  17  18
ENDBRANCH  15  17
ENDBRANCH  13  15
ENDBRANCH   5  13
ENDBRANCH   2   3
TORSDOF 6
ENDMDL
MODEL       13
REMARK 921   NORMALIZED FREE ENERGY PREDICTED BY IDOCK:   -5.69 KCAL/MOL
REMARK 922        TOTAL FREE ENERGY PREDICTED BY IDOCK:   -8.15 KCAL/MOL
REMARK 923 INTER-LIGAND FREE ENERGY PREDICTED BY IDOCK:   -7.70 KCAL/MOL
REMARK 924 INTRA-LIGAND FREE ENERGY PREDICTED BY IDOCK:   -0.46 KCAL/MOL
REMARK 927      BINDING AFFINITY PREDICTED BY RF-SCORE:    0.00 PKD
ROOT
HETATM    1  C   UNL     1      -9.146  18.874  68.086  1.00  0.00    -0.313 C  
HETATM    2  O   UNL     1     -10.049  18.087  68.850  1.00  0.00    -0.375 OA 
ENDROOT
BRANCH   2   3
HETATM    3  C   UNL     1     -10.522  16.942  68.273  1.00  0.00    -0.352 A  
HETATM    4  C   UNL     1     -11.266  16.131  69.126  1.00  0.00    -0.336 A  
HETATM    5  C   UNL     1     -11.858  14.937  68.684  1.00  0.00    -0.300 A  
HETATM    6  C   UNL     1     -11.096  13.665  64.765  1.00  0.00    -0.375 A  
HETATM    7  C   UNL     1     -11.635  14.500  67.354  1.00  0.00    -0.385 A  
HETATM    8  C   UNL     1     -10.609  14.891  65.190  1.00  0.00    -0.450 A  
HETATM    9  C   UNL     1     -10.332  16.546  66.955  1.00  0.00    -0.301 A  
HETATM   10  N   UNL     1     -12.130  13.317  66.920  1.00  0.00    -0.365 NA 
HETATM   11  C   UNL     1     -11.843  12.923  65.658  1.00  0.00    -0.417 A  
HETATM   12  C   UNL     1     -10.856  15.323  66.504  1.00  0.00    -0.311 A  
BRANCH   5  13
HETATM   13  N   UNL     1     -12.732  14.212  69.527  1.00  0.00    -0.394 NA 
HETATM   14  H   UNL     1     -13.714  14.105  69.270  1.00  0.00     0.000 HD 
BRANCH  13  15
HETATM   15  C   UNL     1     -12.234  13.613  70.768  1.00  0.00    -0.347 C  
HETATM   16  C   UNL     1     -13.164  14.015  71.918  1.00  0.00    -0.477 C  
BRANCH  15  17
HETATM   17  C   UNL     1     -12.222  12.074  70.654  1.00  0.00    -0.409 C  
BRANCH  17  18
HETATM   18  C   UNL     1     -13.054  11.335  71.712  1.00  0.00    -0.527 C  
BRANCH  18  19
HETATM   19  C   UNL     1     -12.983   9.808  71.658  1.00  0.00    -0.419 C  
HETATM   20  H1  UNL     1     -13.417   8.171  72.852  1.00  0.00     0.000 HD 
HETATM   21  N   UNL     1     -13.464   9.189  72.888  1.00  0.00    -0.842 NA 
HETATM   22  H2  UNL     1     -14.406   9.506  73.116  1.00  0.00     0.000 HD 
ENDBRANCH  18  19
ENDBRANCH  17  18
ENDBRANCH  15  17
ENDBRANCH  13  15
ENDBRANCH   5  13
ENDBRANCH   2   3
TORSDOF 6
ENDMDL
MODEL       14
REMARK 921   NORMALIZED FREE ENERGY PREDICTED BY IDOCK:   -5.68 KCAL/MOL
REMARK 922        TOTAL FREE ENERGY PREDICTED BY IDOCK:   -8.15 KCAL/MOL
REMARK 923 INTER-LIGAND FREE ENERGY PREDICTED BY IDOCK:   -7.61 KCAL/MOL
REMARK 924 INTRA-LIGAND FREE ENERGY PREDICTED BY IDOCK:   -0.54 KCAL/MOL
REMARK 927      BINDING AFFINITY PREDICTED BY RF-SCORE:    0.00 PKD
ROOT
HETATM    1  C   UNL     1     -10.079  18.432  68.694  1.00  0.00    -0.377 C  
HETATM    2  O   UNL     1     -10.290  17.133  68.158  1.00  0.00    -0.312 OA 
ENDROOT
BRANCH   2   3
HETATM    3  C   UNL     1     -10.956  16.235  68.944  1.00  0.00    -0.334 A  
HETATM    4  C   UNL     1     -11.286  15.043  68.304  1.00  0.00    -0.309 A  
HETATM    5  C   UNL     1     -11.937  13.997  68.976  1.00  0.00    -0.357 A  
HETATM    6  C   UNL     1     -13.169  14.628  72.930  1.00  0.00    -0.609 A  
HETATM    7  C   UNL     1     -12.341  14.178  70.322  1.00  0.00    -0.356 A  
HETATM    8  C   UNL     1     -12.434  15.607  72.281  1.00  0.00    -0.512 A  
HETATM    9  C   UNL     1     -11.308  16.409  70.276  1.00  0.00    -0.207 A  
HETATM   10  N   UNL     1     -13.035  13.217  70.975  1.00  0.00    -0.194 NA 
HETATM   11  C   UNL     1     -13.442  13.464  72.242  1.00  0.00    -0.586 A  
HETATM   12  C   UNL     1     -12.020  15.405  70.954  1.00  0.00    -0.406 A  
BRANCH   5  13
HETATM   13  N   UNL     1     -12.124  12.743  68.347  1.00  0.00    -0.206 NA 
HETATM   14  H   UNL     1     -13.013  12.252  68.447  1.00  0.00     0.000 HD 
BRANCH  13  15
HETATM   15  C   UNL     1     -11.046  12.146  67.554  1.00  0.00    -0.275 C  
HETATM   16  C   UNL     1     -10.636  10.817  68.199  1.00  0.00    -0.238 C  
BRANCH  15  17
HETATM   17  C   UNL     1     -11.528  11.872  66.114  1.00  0.00    -0.352 C  
BRANCH  17  18
HETATM   18  C   UNL     1     -12.285  13.030  65.448  1.00  0.00    -0.520 C  
BRANCH  18  19
HETATM   19  C   UNL     1     -11.577  13.685  64.262  1.00  0.00    -0.382 C  
HETATM   20  H1  UNL     1     -12.007  14.356  62.349  1.00  0.00     0.000 HD 
HETATM   21  N   UNL     1     -12.479  13.919  63.140  1.00  0.00    -1.079 NA 
HETATM   22  H2  UNL     1     -13.293  14.462  63.428  1.00  0.00     0.000 HD 
ENDBRANCH  18  19
ENDBRANCH  17  18
ENDBRANCH  15  17
ENDBRANCH  13  15
ENDBRANCH   5  13
ENDBRANCH   2   3
TORSDOF 6
ENDMDL
MODEL       15
REMARK 921   NORMALIZED FREE ENERGY PREDICTED BY IDOCK:   -5.68 KCAL/MOL
REMARK 922        TOTAL FREE ENERGY PREDICTED BY IDOCK:   -8.14 KCAL/MOL
REMARK 923 INTER-LIGAND FREE ENERGY PREDICTED BY IDOCK:   -7.11 KCAL/MOL
REMARK 924 INTRA-LIGAND FREE ENERGY PREDICTED BY IDOCK:   -1.03 KCAL/MOL
REMARK 927      BINDING AFFINITY PREDICTED BY RF-SCORE:    0.00 PKD
ROOT
HETATM    1  C   UNL     1     -13.548   8.469  71.978  1.00  0.00    -0.392 C  
HETATM    2  O   UNL     1     -13.407   9.784  72.497  1.00  0.00    -0.349 OA 
ENDROOT
BRANCH   2   3
HETATM    3  C   UNL     1     -13.022  10.762  71.622  1.00  0.00    -0.476 A  
HETATM    4  C   UNL     1     -12.557  10.289  70.398  1.00  0.00    -0.277 A  
HETATM    5  C   UNL     1     -12.158  11.158  69.371  1.00  0.00    -0.326 A  
HETATM    6  C   UNL     1     -12.101  15.274  70.153  1.00  0.00    -0.394 A  
HETATM    7  C   UNL     1     -12.155  12.556  69.604  1.00  0.00    -0.207 A  
HETATM    8  C   UNL     1     -12.589  14.405  71.115  1.00  0.00    -0.422 A  
HETATM    9  C   UNL     1     -13.064  12.131  71.848  1.00  0.00    -0.475 A  
HETATM   10  N   UNL     1     -11.706  13.417  68.660  1.00  0.00    -0.328 NA 
HETATM   11  C   UNL     1     -11.675  14.737  68.955  1.00  0.00    -0.312 A  
HETATM   12  C   UNL     1     -12.608  13.022  70.863  1.00  0.00    -0.364 A  
BRANCH   5  13
HETATM   13  N   UNL     1     -11.835  10.657  68.088  1.00  0.00    -0.788 NA 
HETATM   14  H   UNL     1     -12.551  10.620  67.362  1.00  0.00     0.000 HD 
BRANCH  13  15
HETATM   15  C   UNL     1     -10.476  10.192  67.797  1.00  0.00    -0.232 C  
HETATM   16  C   UNL     1     -10.548   8.748  67.287  1.00  0.00    -0.303 C  
BRANCH  15  17
HETATM   17  C   UNL     1      -9.829  11.072  66.707  1.00  0.00    -0.229 C  
BRANCH  17  18
HETATM   18  C   UNL     1     -10.317  10.802  65.276  1.00  0.00    -0.327 C  
BRANCH  18  19
HETATM   19  C   UNL     1     -11.178  11.902  64.655  1.00  0.00    -0.305 C  
HETATM   20  H1  UNL     1     -12.788  13.109  65.153  1.00  0.00     0.000 HD 
HETATM   21  N   UNL     1     -12.214  12.375  65.567  1.00  0.00    -0.604 NA 
HETATM   22  H2  UNL     1     -11.813  12.678  66.455  1.00  0.00     0.000 HD 
ENDBRANCH  18  19
ENDBRANCH  17  18
ENDBRANCH  15  17
ENDBRANCH  13  15
ENDBRANCH   5  13
ENDBRANCH   2   3
TORSDOF 6
ENDMDL
MODEL       16
REMARK 921   NORMALIZED FREE ENERGY PREDICTED BY IDOCK:   -5.62 KCAL/MOL
REMARK 922        TOTAL FREE ENERGY PREDICTED BY IDOCK:   -8.06 KCAL/MOL
REMARK 923 INTER-LIGAND FREE ENERGY PREDICTED BY IDOCK:   -7.14 KCAL/MOL
REMARK 924 INTRA-LIGAND FREE ENERGY PREDICTED BY IDOCK:   -0.92 KCAL/MOL
REMARK 927      BINDING AFFINITY PREDICTED BY RF-SCORE:    0.00 PKD
ROOT
HETATM    1  C   UNL     1     -12.802  14.619  71.729  1.00  0.00    -0.332 C  
HETATM    2  O   UNL     1     -12.474  13.501  70.916  1.00  0.00    -0.356 OA 
ENDROOT
BRANCH   2   3
HETATM    3  C   UNL     1     -12.036  13.760  69.647  1.00  0.00    -0.336 A  
HETATM    4  C   UNL     1     -11.746  15.099  69.400  1.00  0.00    -0.355 A  
HETATM    5  C   UNL     1     -11.248  15.532  68.161  1.00  0.00    -0.343 A  
HETATM    6  C   UNL     1     -10.919  12.738  65.056  1.00  0.00    -0.319 A  
HETATM    7  C   UNL     1     -11.104  14.600  67.103  1.00  0.00    -0.326 A  
HETATM    8  C   UNL     1     -11.309  12.313  66.316  1.00  0.00    -0.395 A  
HETATM    9  C   UNL     1     -11.859  12.829  68.632  1.00  0.00    -0.341 A  
HETATM   10  N   UNL     1     -10.697  14.999  65.875  1.00  0.00    -0.318 NA 
HETATM   11  C   UNL     1     -10.628  14.076  64.888  1.00  0.00    -0.424 A  
HETATM   12  C   UNL     1     -11.426  13.245  67.362  1.00  0.00    -0.371 A  
BRANCH   5  13
HETATM   13  N   UNL     1     -10.819  16.869  67.985  1.00  0.00    -0.362 NA 
HETATM   14  H   UNL     1     -11.249  17.450  67.264  1.00  0.00     0.000 HD 
BRANCH  13  15
HETATM   15  C   UNL     1      -9.759  17.423  68.832  1.00  0.00    -0.251 C  
HETATM   16  C   UNL     1      -8.463  16.647  68.572  1.00  0.00    -0.233 C  
BRANCH  15  17
HETATM   17  C   UNL     1      -9.524  18.910  68.493  1.00  0.00    -0.416 C  
BRANCH  17  18
HETATM   18  C   UNL     1     -10.631  19.571  67.659  1.00  0.00    -0.566 C  
BRANCH  18  19
HETATM   19  C   UNL     1     -10.349  19.682  66.160  1.00  0.00    -0.530 C  
HETATM   20  H1  UNL     1     -10.243  18.463  64.487  1.00  0.00     0.000 HD 
HETATM   21  N   UNL     1     -10.431  18.390  65.486  1.00  0.00    -0.571 NA 
HETATM   22  H2  UNL     1     -11.329  17.940  65.660  1.00  0.00     0.000 HD 
ENDBRANCH  18  19
ENDBRANCH  17  18
ENDBRANCH  15  17
ENDBRANCH  13  15
ENDBRANCH   5  13
ENDBRANCH   2   3
TORSDOF 6
ENDMDL
MODEL       17
REMARK 921   NORMALIZED FREE ENERGY PREDICTED BY IDOCK:   -5.61 KCAL/MOL
REMARK 922        TOTAL FREE ENERGY PREDICTED BY IDOCK:   -8.06 KCAL/MOL
REMARK 923 INTER-LIGAND FREE ENERGY PREDICTED BY IDOCK:   -7.59 KCAL/MOL
REMARK 924 INTRA-LIGAND FREE ENERGY PREDICTED BY IDOCK:   -0.47 KCAL/MOL
REMARK 927      BINDING AFFINITY PREDICTED BY RF-SCORE:    0.00 PKD
ROOT
HETATM    1  C   UNL     1     -10.862  10.384  67.611  1.00  0.00    -0.306 C  
HETATM    2  O   UNL     1     -11.430  10.362  68.913  1.00  0.00    -0.244 OA 
ENDROOT
BRANCH   2   3
HETATM    3  C   UNL     1     -11.838  11.557  69.437  1.00  0.00    -0.350 A  
HETATM    4  C   UNL     1     -11.594  12.657  68.619  1.00  0.00    -0.356 A  
HETATM    5  C   UNL     1     -11.985  13.954  68.986  1.00  0.00    -0.364 A  
HETATM    6  C   UNL     1     -13.661  14.532  72.782  1.00  0.00    -0.533 A  
HETATM    7  C   UNL     1     -12.577  14.170  70.256  1.00  0.00    -0.306 A  
HETATM    8  C   UNL     1     -13.364  13.247  72.357  1.00  0.00    -0.616 A  
HETATM    9  C   UNL     1     -12.456  11.749  70.665  1.00  0.00    -0.364 A  
HETATM   10  N   UNL     1     -12.897  15.419  70.669  1.00  0.00    -0.445 NA 
HETATM   11  C   UNL     1     -13.411  15.573  71.912  1.00  0.00    -0.481 A  
HETATM   12  C   UNL     1     -12.797  13.045  71.087  1.00  0.00    -0.331 A  
BRANCH   5  13
HETATM   13  N   UNL     1     -11.863  15.029  68.074  1.00  0.00    -0.489 NA 
HETATM   14  H   UNL     1     -12.690  15.382  67.592  1.00  0.00     0.000 HD 
BRANCH  13  15
HETATM   15  C   UNL     1     -10.554  15.637  67.819  1.00  0.00    -0.281 C  
HETATM   16  C   UNL     1     -10.200  15.444  66.340  1.00  0.00    -0.296 C  
BRANCH  15  17
HETATM   17  C   UNL     1     -10.596  17.148  68.126  1.00  0.00    -0.380 C  
BRANCH  17  18
HETATM   18  C   UNL     1     -10.513  18.066  66.898  1.00  0.00    -0.350 C  
BRANCH  18  19
HETATM   19  C   UNL     1     -10.323  19.554  67.199  1.00  0.00    -0.451 C  
HETATM   20  H1  UNL     1      -9.518  21.246  66.313  1.00  0.00     0.000 HD 
HETATM   21  N   UNL     1      -9.645  20.255  66.113  1.00  0.00    -0.645 NA 
HETATM   22  H2  UNL     1     -10.130  20.117  65.226  1.00  0.00     0.000 HD 
ENDBRANCH  18  19
ENDBRANCH  17  18
ENDBRANCH  15  17
ENDBRANCH  13  15
ENDBRANCH   5  13
ENDBRANCH   2   3
TORSDOF 6
ENDMDL
MODEL       18
REMARK 921   NORMALIZED FREE ENERGY PREDICTED BY IDOCK:   -5.60 KCAL/MOL
REMARK 922        TOTAL FREE ENERGY PREDICTED BY IDOCK:   -8.03 KCAL/MOL
REMARK 923 INTER-LIGAND FREE ENERGY PREDICTED BY IDOCK:   -7.51 KCAL/MOL
REMARK 924 INTRA-LIGAND FREE ENERGY PREDICTED BY IDOCK:   -0.52 KCAL/MOL
REMARK 927      BINDING AFFINITY PREDICTED BY RF-SCORE:    0.00 PKD
ROOT
HETATM    1  C   UNL     1     -14.219  15.176  72.094  1.00  0.00    -0.559 C  
HETATM    2  O   UNL     1     -12.846  14.815  72.153  1.00  0.00    -0.306 OA 
ENDROOT
BRANCH   2   3
HETATM    3  C   UNL     1     -12.300  14.256  71.031  1.00  0.00    -0.361 A  
HETATM    4  C   UNL     1     -11.574  15.144  70.241  1.00  0.00    -0.325 A  
HETATM    5  C   UNL     1     -10.914  14.728  69.074  1.00  0.00    -0.248 A  
HETATM    6  C   UNL     1     -11.410  10.765  67.807  1.00  0.00    -0.354 A  
HETATM    7  C   UNL     1     -11.047  13.385  68.640  1.00  0.00    -0.263 A  
HETATM    8  C   UNL     1     -11.966  11.170  69.011  1.00  0.00    -0.389 A  
HETATM    9  C   UNL     1     -12.402  12.928  70.639  1.00  0.00    -0.385 A  
HETATM   10  N   UNL     1     -10.484  12.971  67.480  1.00  0.00    -0.226 NA 
HETATM   11  C   UNL     1     -10.687  11.693  67.086  1.00  0.00    -0.247 A  
HETATM   12  C   UNL     1     -11.808  12.499  69.441  1.00  0.00    -0.368 A  
BRANCH   5  13
HETATM   13  N   UNL     1     -10.061  15.613  68.374  1.00  0.00    -0.212 NA 
HETATM   14  H   UNL     1      -9.094  15.346  68.187  1.00  0.00     0.000 HD 
BRANCH  13  15
HETATM   15  C   UNL     1     -10.559  16.913  67.916  1.00  0.00    -0.361 C  
HETATM   16  C   UNL     1      -9.785  18.021  68.639  1.00  0.00    -0.356 C  
BRANCH  15  17
HETATM   17  C   UNL     1     -10.342  17.066  66.397  1.00  0.00    -0.304 C  
BRANCH  17  18
HETATM   18  C   UNL     1     -10.231  15.747  65.618  1.00  0.00    -0.407 C  
BRANCH  18  19
HETATM   19  C   UNL     1     -11.405  15.429  64.691  1.00  0.00    -0.355 C  
HETATM   20  H1  UNL     1     -12.542  16.348  63.221  1.00  0.00     0.000 HD 
HETATM   21  N   UNL     1     -11.759  16.559  63.839  1.00  0.00    -1.484 NA 
HETATM   22  H2  UNL     1     -10.951  16.890  63.311  1.00  0.00     0.000 HD 
ENDBRANCH  18  19
ENDBRANCH  17  18
ENDBRANCH  15  17
ENDBRANCH  13  15
ENDBRANCH   5  13
ENDBRANCH   2   3
TORSDOF 6
ENDMDL
MODEL       19
REMARK 921   NORMALIZED FREE ENERGY PREDICTED BY IDOCK:   -5.57 KCAL/MOL
REMARK 922        TOTAL FREE ENERGY PREDICTED BY IDOCK:   -8.00 KCAL/MOL
REMARK 923 INTER-LIGAND FREE ENERGY PREDICTED BY IDOCK:   -7.53 KCAL/MOL
REMARK 924 INTRA-LIGAND FREE ENERGY PREDICTED BY IDOCK:   -0.47 KCAL/MOL
REMARK 927      BINDING AFFINITY PREDICTED BY RF-SCORE:    0.00 PKD
ROOT
HETATM    1  C   UNL     1     -12.757  16.294  74.014  1.00  0.00    -0.444 C  
HETATM    2  O   UNL     1     -13.660  15.867  73.003  1.00  0.00    -0.575 OA 
ENDROOT
BRANCH   2   3
HETATM    3  C   UNL     1     -13.172  15.017  72.050  1.00  0.00    -0.364 A  
HETATM    4  C   UNL     1     -12.771  15.642  70.872  1.00  0.00    -0.500 A  
HETATM    5  C   UNL     1     -12.211  14.922  69.806  1.00  0.00    -0.287 A  
HETATM    6  C   UNL     1     -12.025  10.746  70.096  1.00  0.00    -0.432 A  
HETATM    7  C   UNL     1     -12.114  13.511  69.892  1.00  0.00    -0.341 A  
HETATM    8  C   UNL     1     -12.478  11.485  71.178  1.00  0.00    -0.442 A  
HETATM    9  C   UNL     1     -13.043  13.639  72.164  1.00  0.00    -0.489 A  
HETATM   10  N   UNL     1     -11.647  12.781  68.851  1.00  0.00    -0.295 NA 
HETATM   11  C   UNL     1     -11.626  11.433  68.968  1.00  0.00    -0.317 A  
HETATM   12  C   UNL     1     -12.547  12.886  71.087  1.00  0.00    -0.373 A  
BRANCH   5  13
HETATM   13  N   UNL     1     -11.674  15.597  68.684  1.00  0.00    -0.427 NA 
HETATM   14  H   UNL     1     -12.061  15.427  67.755  1.00  0.00     0.000 HD 
BRANCH  13  15
HETATM   15  C   UNL     1     -10.565  16.540  68.850  1.00  0.00    -0.326 C  
HETATM   16  C   UNL     1      -9.288  15.751  69.156  1.00  0.00    -0.258 C  
BRANCH  15  17
HETATM   17  C   UNL     1     -10.350  17.349  67.554  1.00  0.00    -0.351 C  
BRANCH  17  18
HETATM   18  C   UNL     1     -10.907  18.780  67.578  1.00  0.00    -0.396 C  
BRANCH  18  19
HETATM   19  C   UNL     1      -9.882  19.890  67.341  1.00  0.00    -0.409 C  
HETATM   20  H1  UNL     1      -8.780  20.708  65.788  1.00  0.00     0.000 HD 
HETATM   21  N   UNL     1      -9.464  19.968  65.946  1.00  0.00    -0.502 NA 
HETATM   22  H2  UNL     1     -10.267  20.070  65.325  1.00  0.00     0.000 HD 
ENDBRANCH  18  19
ENDBRANCH  17  18
ENDBRANCH  15  17
ENDBRANCH  13  15
ENDBRANCH   5  13
ENDBRANCH   2   3
TORSDOF 6
ENDMDL
MODEL       20
REMARK 921   NORMALIZED FREE ENERGY PREDICTED BY IDOCK:   -5.56 KCAL/MOL
REMARK 922        TOTAL FREE ENERGY PREDICTED BY IDOCK:   -7.98 KCAL/MOL
REMARK 923 INTER-LIGAND FREE ENERGY PREDICTED BY IDOCK:   -7.54 KCAL/MOL
REMARK 924 INTRA-LIGAND FREE ENERGY PREDICTED BY IDOCK:   -0.44 KCAL/MOL
REMARK 927      BINDING AFFINITY PREDICTED BY RF-SCORE:    0.00 PKD
ROOT
HETATM    1  C   UNL     1     -12.445  12.227  63.541  1.00  0.00    -0.534 C  
HETATM    2  O   UNL     1     -12.997  12.797  64.720  1.00  0.00    -0.768 OA 
ENDROOT
BRANCH   2   3
HETATM    3  C   UNL     1     -12.150  13.508  65.524  1.00  0.00    -0.419 A  
HETATM    4  C   UNL     1     -12.008  12.991  66.810  1.00  0.00    -0.434 A  
HETATM    5  C   UNL     1     -11.148  13.576  67.751  1.00  0.00    -0.268 A  
HETATM    6  C   UNL     1      -9.196  17.139  66.728  1.00  0.00    -0.270 A  
HETATM    7  C   UNL     1     -10.457  14.768  67.419  1.00  0.00    -0.256 A  
HETATM    8  C   UNL     1      -9.968  16.489  65.779  1.00  0.00    -0.302 A  
HETATM    9  C   UNL     1     -11.446  14.651  65.171  1.00  0.00    -0.375 A  
HETATM   10  N   UNL     1      -9.677  15.397  68.330  1.00  0.00    -0.207 NA 
HETATM   11  C   UNL     1      -9.083  16.560  67.975  1.00  0.00    -0.209 A  
HETATM   12  C   UNL     1     -10.629  15.295  66.115  1.00  0.00    -0.318 A  
BRANCH   5  13
HETATM   13  N   UNL     1     -10.906  12.947  68.996  1.00  0.00    -0.394 NA 
HETATM   14  H   UNL     1     -10.396  13.444  69.726  1.00  0.00     0.000 HD 
BRANCH  13  15
HETATM   15  C   UNL     1     -11.387  11.584  69.240  1.00  0.00    -0.288 C  
HETATM   16  C   UNL     1     -10.181  10.640  69.307  1.00  0.00    -0.235 C  
BRANCH  15  17
HETATM   17  C   UNL     1     -12.147  11.515  70.581  1.00  0.00    -0.450 C  
BRANCH  17  18
HETATM   18  C   UNL     1     -12.981  10.244  70.794  1.00  0.00    -0.408 C  
BRANCH  18  19
HETATM   19  C   UNL     1     -12.802   9.558  72.149  1.00  0.00    -0.389 C  
HETATM   20  H1  UNL     1     -13.956   8.695  73.639  1.00  0.00     0.000 HD 
HETATM   21  N   UNL     1     -14.075   9.152  72.735  1.00  0.00    -1.013 NA 
HETATM   22  H2  UNL     1     -14.607   8.566  72.093  1.00  0.00     0.000 HD 
ENDBRANCH  18  19
ENDBRANCH  17  18
ENDBRANCH  15  17
ENDBRANCH  13  15
ENDBRANCH   5  13
ENDBRANCH   2   3
TORSDOF 6
ENDMDL
MODEL       21
REMARK 921   NORMALIZED FREE ENERGY PREDICTED BY IDOCK:   -5.51 KCAL/MOL
REMARK 922        TOTAL FREE ENERGY PREDICTED BY IDOCK:   -7.91 KCAL/MOL
REMARK 923 INTER-LIGAND FREE ENERGY PREDICTED BY IDOCK:   -6.86 KCAL/MOL
REMARK 924 INTRA-LIGAND FREE ENERGY PREDICTED BY IDOCK:   -1.05 KCAL/MOL
REMARK 927      BINDING AFFINITY PREDICTED BY RF-SCORE:    0.00 PKD
ROOT
HETATM    1  C   UNL     1     -11.036  15.062  65.872  1.00  0.00    -0.334 C  
HETATM    2  O   UNL     1     -11.821  14.262  66.745  1.00  0.00    -0.393 OA 
ENDROOT
BRANCH   2   3
HETATM    3  C   UNL     1     -11.469  12.947  66.872  1.00  0.00    -0.341 A  
HETATM    4  C   UNL     1     -11.904  12.345  68.050  1.00  0.00    -0.376 A  
HETATM    5  C   UNL     1     -11.663  10.989  68.322  1.00  0.00    -0.229 A  
HETATM    6  C   UNL     1      -9.314   8.802  65.629  1.00  0.00    -0.219 A  
HETATM    7  C   UNL     1     -10.892  10.223  67.413  1.00  0.00    -0.277 A  
HETATM    8  C   UNL     1      -9.652  10.112  65.330  1.00  0.00    -0.338 A  
HETATM    9  C   UNL     1     -10.750  12.195  65.952  1.00  0.00    -0.302 A  
HETATM   10  N   UNL     1     -10.579   8.933  67.682  1.00  0.00    -0.251 NA 
HETATM   11  C   UNL     1      -9.796   8.264  66.805  1.00  0.00    -0.263 A  
HETATM   12  C   UNL     1     -10.436  10.854  66.229  1.00  0.00    -0.304 A  
BRANCH   5  13
HETATM   13  N   UNL     1     -12.244  10.367  69.452  1.00  0.00    -0.592 NA 
HETATM   14  H   UNL     1     -13.028   9.725  69.331  1.00  0.00     0.000 HD 
BRANCH  13  15
HETATM   15  C   UNL     1     -11.726  10.640  70.795  1.00  0.00    -0.335 C  
HETATM   16  C   UNL     1     -12.881  11.120  71.681  1.00  0.00    -0.524 C  
BRANCH  15  17
HETATM   17  C   UNL     1     -11.127   9.358  71.410  1.00  0.00    -0.450 C  
BRANCH  17  18
HETATM   18  C   UNL     1     -12.155   8.349  71.944  1.00  0.00    -0.398 C  
BRANCH  18  19
HETATM   19  C   UNL     1     -12.258   7.038  71.164  1.00  0.00    -0.382 C  
HETATM   20  H1  UNL     1     -11.757   6.271  69.305  1.00  0.00     0.000 HD 
HETATM   21  N   UNL     1     -11.688   7.145  69.825  1.00  0.00    -0.548 NA 
HETATM   22  H2  UNL     1     -10.725   7.478  69.860  1.00  0.00     0.000 HD 
ENDBRANCH  18  19
ENDBRANCH  17  18
ENDBRANCH  15  17
ENDBRANCH  13  15
ENDBRANCH   5  13
ENDBRANCH   2   3
TORSDOF 6
ENDMDL
MODEL       22
REMARK 921   NORMALIZED FREE ENERGY PREDICTED BY IDOCK:   -5.49 KCAL/MOL
REMARK 922        TOTAL FREE ENERGY PREDICTED BY IDOCK:   -7.89 KCAL/MOL
REMARK 923 INTER-LIGAND FREE ENERGY PREDICTED BY IDOCK:   -7.40 KCAL/MOL
REMARK 924 INTRA-LIGAND FREE ENERGY PREDICTED BY IDOCK:   -0.50 KCAL/MOL
REMARK 927      BINDING AFFINITY PREDICTED BY RF-SCORE:    0.00 PKD
ROOT
HETATM    1  C   UNL     1      -7.786   8.389  65.544  1.00  0.00    -0.109 C  
HETATM    2  O   UNL     1      -8.510   8.873  66.667  1.00  0.00    -0.116 OA 
ENDROOT
BRANCH   2   3
HETATM    3  C   UNL     1      -9.424   9.865  66.440  1.00  0.00    -0.183 A  
HETATM    4  C   UNL     1     -10.376  10.011  67.445  1.00  0.00    -0.292 A  
HETATM    5  C   UNL     1     -11.364  11.006  67.390  1.00  0.00    -0.230 A  
HETATM    6  C   UNL     1     -11.602  13.392  63.954  1.00  0.00    -0.401 A  
HETATM    7  C   UNL     1     -11.448  11.842  66.248  1.00  0.00    -0.301 A  
HETATM    8  C   UNL     1     -10.572  12.473  64.075  1.00  0.00    -0.451 A  
HETATM    9  C   UNL     1      -9.469  10.705  65.336  1.00  0.00    -0.263 A  
HETATM   10  N   UNL     1     -12.434  12.762  66.132  1.00  0.00    -0.451 NA 
HETATM   11  C   UNL     1     -12.499  13.497  64.997  1.00  0.00    -0.417 A  
HETATM   12  C   UNL     1     -10.487  11.666  65.223  1.00  0.00    -0.323 A  
BRANCH   5  13
HETATM   13  N   UNL     1     -12.223  11.231  68.492  1.00  0.00    -0.630 NA 
HETATM   14  H   UNL     1     -13.210  10.984  68.425  1.00  0.00     0.000 HD 
BRANCH  13  15
HETATM   15  C   UNL     1     -11.700  11.817  69.729  1.00  0.00    -0.335 C  
HETATM   16  C   UNL     1     -11.641  13.340  69.567  1.00  0.00    -0.349 C  
BRANCH  15  17
HETATM   17  C   UNL     1     -12.626  11.479  70.916  1.00  0.00    -0.438 C  
BRANCH  17  18
HETATM   18  C   UNL     1     -12.437  10.076  71.512  1.00  0.00    -0.516 C  
BRANCH  18  19
HETATM   19  C   UNL     1     -13.720   9.273  71.726  1.00  0.00    -0.377 C  
HETATM   20  H1  UNL     1     -14.830   8.469  73.281  1.00  0.00     0.000 HD 
HETATM   21  N   UNL     1     -13.975   9.004  73.137  1.00  0.00    -1.215 NA 
HETATM   22  H2  UNL     1     -13.985   9.867  73.681  1.00  0.00     0.000 HD 
ENDBRANCH  18  19
ENDBRANCH  17  18
ENDBRANCH  15  17
ENDBRANCH  13  15
ENDBRANCH   5  13
ENDBRANCH   2   3
TORSDOF 6
ENDMDL
MODEL       23
REMARK 921   NORMALIZED FREE ENERGY PREDICTED BY IDOCK:   -5.49 KCAL/MOL
REMARK 922        TOTAL FREE ENERGY PREDICTED BY IDOCK:   -7.89 KCAL/MOL
REMARK 923 INTER-LIGAND FREE ENERGY PREDICTED BY IDOCK:   -7.62 KCAL/MOL
REMARK 924 INTRA-LIGAND FREE ENERGY PREDICTED BY IDOCK:   -0.27 KCAL/MOL
REMARK 927      BINDING AFFINITY PREDICTED BY RF-SCORE:    0.00 PKD
ROOT
HETATM    1  C   UNL     1     -12.650  15.154  71.271  1.00  0.00    -0.353 C  
HETATM    2  O   UNL     1     -11.766  15.462  70.203  1.00  0.00    -0.279 OA 
ENDROOT
BRANCH   2   3
HETATM    3  C   UNL     1     -11.804  14.647  69.106  1.00  0.00    -0.312 A  
HETATM    4  C   UNL     1     -11.864  13.287  69.401  1.00  0.00    -0.386 A  
HETATM    5  C   UNL     1     -11.948  12.314  68.393  1.00  0.00    -0.210 A  
HETATM    6  C   UNL     1     -11.715  13.554  64.398  1.00  0.00    -0.443 A  
HETATM    7  C   UNL     1     -11.897  12.712  67.034  1.00  0.00    -0.345 A  
HETATM    8  C   UNL     1     -11.739  14.505  65.406  1.00  0.00    -0.354 A  
HETATM    9  C   UNL     1     -11.797  15.053  67.778  1.00  0.00    -0.228 A  
HETATM   10  N   UNL     1     -11.901  11.793  66.040  1.00  0.00    -0.400 NA 
HETATM   11  C   UNL     1     -11.797  12.226  64.762  1.00  0.00    -0.364 A  
HETATM   12  C   UNL     1     -11.812  14.097  66.749  1.00  0.00    -0.449 A  
BRANCH   5  13
HETATM   13  N   UNL     1     -12.159  10.954  68.721  1.00  0.00    -0.763 NA 
HETATM   14  H   UNL     1     -13.090  10.547  68.623  1.00  0.00     0.000 HD 
BRANCH  13  15
HETATM   15  C   UNL     1     -11.048  10.127  69.199  1.00  0.00    -0.212 C  
HETATM   16  C   UNL     1      -9.729  10.823  68.848  1.00  0.00    -0.207 C  
BRANCH  15  17
HETATM   17  C   UNL     1     -11.128   9.957  70.731  1.00  0.00    -0.417 C  
BRANCH  17  18
HETATM   18  C   UNL     1     -12.324   9.137  71.235  1.00  0.00    -0.382 C  
BRANCH  18  19
HETATM   19  C   UNL     1     -13.325   9.898  72.106  1.00  0.00    -0.399 C  
HETATM   20  H1  UNL     1     -14.826   9.509  73.481  1.00  0.00     0.000 HD 
HETATM   21  N   UNL     1     -14.159   9.002  72.900  1.00  0.00    -1.110 NA 
HETATM   22  H2  UNL     1     -13.590   8.369  73.461  1.00  0.00     0.000 HD 
ENDBRANCH  18  19
ENDBRANCH  17  18
ENDBRANCH  15  17
ENDBRANCH  13  15
ENDBRANCH   5  13
ENDBRANCH   2   3
TORSDOF 6
ENDMDL
MODEL       24
REMARK 921   NORMALIZED FREE ENERGY PREDICTED BY IDOCK:   -5.46 KCAL/MOL
REMARK 922        TOTAL FREE ENERGY PREDICTED BY IDOCK:   -7.85 KCAL/MOL
REMARK 923 INTER-LIGAND FREE ENERGY PREDICTED BY IDOCK:   -6.73 KCAL/MOL
REMARK 924 INTRA-LIGAND FREE ENERGY PREDICTED BY IDOCK:   -1.11 KCAL/MOL
REMARK 927      BINDING AFFINITY PREDICTED BY RF-SCORE:    0.00 PKD
ROOT
HETATM    1  C   UNL     1     -10.835   8.832  71.862  1.00  0.00    -0.360 C  
HETATM    2  O   UNL     1     -11.716   9.260  70.834  1.00  0.00    -0.279 OA 
ENDROOT
BRANCH   2   3
HETATM    3  C   UNL     1     -12.007  10.595  70.776  1.00  0.00    -0.374 A  
HETATM    4  C   UNL     1     -11.429  11.264  69.701  1.00  0.00    -0.380 A  
HETATM    5  C   UNL     1     -11.656  12.630  69.470  1.00  0.00    -0.281 A  
HETATM    6  C   UNL     1     -13.899  14.782  72.280  1.00  0.00    -0.590 A  
HETATM    7  C   UNL     1     -12.433  13.373  70.394  1.00  0.00    -0.252 A  
HETATM    8  C   UNL     1     -13.749  13.412  72.432  1.00  0.00    -0.698 A  
HETATM    9  C   UNL     1     -12.805  11.302  71.665  1.00  0.00    -0.510 A  
HETATM   10  N   UNL     1     -12.608  14.706  70.239  1.00  0.00    -0.338 NA 
HETATM   11  C   UNL     1     -13.315  15.376  71.179  1.00  0.00    -0.508 A  
HETATM   12  C   UNL     1     -12.995  12.684  71.496  1.00  0.00    -0.380 A  
BRANCH   5  13
HETATM   13  N   UNL     1     -11.182  13.250  68.289  1.00  0.00    -0.260 NA 
HETATM   14  H   UNL     1     -11.810  13.829  67.733  1.00  0.00     0.000 HD 
BRANCH  13  15
HETATM   15  C   UNL     1      -9.792  13.063  67.863  1.00  0.00    -0.224 C  
HETATM   16  C   UNL     1      -9.785  12.469  66.450  1.00  0.00    -0.253 C  
BRANCH  15  17
HETATM   17  C   UNL     1      -9.053  14.417  67.837  1.00  0.00    -0.187 C  
BRANCH  17  18
HETATM   18  C   UNL     1      -9.144  15.236  69.133  1.00  0.00    -0.236 C  
BRANCH  18  19
HETATM   19  C   UNL     1      -9.950  16.531  69.038  1.00  0.00    -0.275 C  
HETATM   20  H1  UNL     1     -11.643  17.265  68.092  1.00  0.00     0.000 HD 
HETATM   21  N   UNL     1     -11.105  16.401  68.156  1.00  0.00    -0.346 NA 
HETATM   22  H2  UNL     1     -11.696  15.618  68.436  1.00  0.00     0.000 HD 
ENDBRANCH  18  19
ENDBRANCH  17  18
ENDBRANCH  15  17
ENDBRANCH  13  15
ENDBRANCH   5  13
ENDBRANCH   2   3
TORSDOF 6
ENDMDL
MODEL       25
REMARK 921   NORMALIZED FREE ENERGY PREDICTED BY IDOCK:   -5.43 KCAL/MOL
REMARK 922        TOTAL FREE ENERGY PREDICTED BY IDOCK:   -7.80 KCAL/MOL
REMARK 923 INTER-LIGAND FREE ENERGY PREDICTED BY IDOCK:   -7.27 KCAL/MOL
REMARK 924 INTRA-LIGAND FREE ENERGY PREDICTED BY IDOCK:   -0.53 KCAL/MOL
REMARK 927      BINDING AFFINITY PREDICTED BY RF-SCORE:    0.00 PKD
ROOT
HETATM    1  C   UNL     1     -12.557  15.815  70.928  1.00  0.00    -0.386 C  
HETATM    2  O   UNL     1     -11.384  15.453  70.213  1.00  0.00    -0.259 OA 
ENDROOT
BRANCH   2   3
HETATM    3  C   UNL     1     -11.548  14.691  69.090  1.00  0.00    -0.301 A  
HETATM    4  C   UNL     1     -11.576  13.318  69.324  1.00  0.00    -0.370 A  
HETATM    5  C   UNL     1     -11.776  12.394  68.287  1.00  0.00    -0.345 A  
HETATM    6  C   UNL     1     -11.998  13.823  64.355  1.00  0.00    -0.480 A  
HETATM    7  C   UNL     1     -11.880  12.856  66.952  1.00  0.00    -0.379 A  
HETATM    8  C   UNL     1     -11.905  14.725  65.404  1.00  0.00    -0.249 A  
HETATM    9  C   UNL     1     -11.691  15.159  67.791  1.00  0.00    -0.250 A  
HETATM   10  N   UNL     1     -11.999  11.985  65.922  1.00  0.00    -0.519 NA 
HETATM   11  C   UNL     1     -12.040  12.479  64.663  1.00  0.00    -0.428 A  
HETATM   12  C   UNL     1     -11.826  14.254  66.725  1.00  0.00    -0.449 A  
BRANCH   5  13
HETATM   13  N   UNL     1     -11.952  11.019  68.572  1.00  0.00    -0.712 NA 
HETATM   14  H   UNL     1     -12.704  10.498  68.120  1.00  0.00     0.000 HD 
BRANCH  13  15
HETATM   15  C   UNL     1     -11.058  10.339  69.514  1.00  0.00    -0.262 C  
HETATM   16  C   UNL     1     -11.888   9.813  70.690  1.00  0.00    -0.360 C  
BRANCH  15  17
HETATM   17  C   UNL     1     -10.360   9.147  68.826  1.00  0.00    -0.235 C  
BRANCH  17  18
HETATM   18  C   UNL     1     -10.734   8.935  67.352  1.00  0.00    -0.225 C  
BRANCH  18  19
HETATM   19  C   UNL     1     -10.279   7.609  66.741  1.00  0.00    -0.263 C  
HETATM   20  H1  UNL     1     -11.048   5.736  66.299  1.00  0.00     0.000 HD 
HETATM   21  N   UNL     1     -11.351   6.620  66.706  1.00  0.00    -0.795 NA 
HETATM   22  H2  UNL     1     -12.174   6.984  66.226  1.00  0.00     0.000 HD 
ENDBRANCH  18  19
ENDBRANCH  17  18
ENDBRANCH  15  17
ENDBRANCH  13  15
ENDBRANCH   5  13
ENDBRANCH   2   3
TORSDOF 6
ENDMDL
MODEL       26
REMARK 921   NORMALIZED FREE ENERGY PREDICTED BY IDOCK:   -5.41 KCAL/MOL
REMARK 922        TOTAL FREE ENERGY PREDICTED BY IDOCK:   -7.78 KCAL/MOL
REMARK 923 INTER-LIGAND FREE ENERGY PREDICTED BY IDOCK:   -7.55 KCAL/MOL
REMARK 924 INTRA-LIGAND FREE ENERGY PREDICTED BY IDOCK:   -0.23 KCAL/MOL
REMARK 927      BINDING AFFINITY PREDICTED BY RF-SCORE:    0.00 PKD
ROOT
HETATM    1  C   UNL     1     -10.934  12.198  64.604  1.00  0.00    -0.312 C  
HETATM    2  O   UNL     1     -11.300  13.451  65.164  1.00  0.00    -0.293 OA 
ENDROOT
BRANCH   2   3
HETATM    3  C   UNL     1     -11.495  13.497  66.517  1.00  0.00    -0.339 A  
HETATM    4  C   UNL     1     -11.755  12.261  67.103  1.00  0.00    -0.396 A  
HETATM    5  C   UNL     1     -11.941  12.123  68.487  1.00  0.00    -0.217 A  
HETATM    6  C   UNL     1     -12.000  15.583  70.848  1.00  0.00    -0.420 A  
HETATM    7  C   UNL     1     -11.939  13.277  69.309  1.00  0.00    -0.303 A  
HETATM    8  C   UNL     1     -11.715  15.686  69.496  1.00  0.00    -0.382 A  
HETATM    9  C   UNL     1     -11.449  14.631  67.317  1.00  0.00    -0.386 A  
HETATM   10  N   UNL     1     -12.188  13.185  70.637  1.00  0.00    -0.361 NA 
HETATM   11  C   UNL     1     -12.228  14.325  71.365  1.00  0.00    -0.331 A  
HETATM   12  C   UNL     1     -11.697  14.531  68.696  1.00  0.00    -0.364 A  
BRANCH   5  13
HETATM   13  N   UNL     1     -12.052  10.840  69.074  1.00  0.00    -0.701 NA 
HETATM   14  H   UNL     1     -12.971  10.474  69.324  1.00  0.00     0.000 HD 
BRANCH  13  15
HETATM   15  C   UNL     1     -10.853  10.035  69.325  1.00  0.00    -0.230 C  
HETATM   16  C   UNL     1      -9.619  10.934  69.192  1.00  0.00    -0.125 C  
BRANCH  15  17
HETATM   17  C   UNL     1     -10.889   9.448  70.751  1.00  0.00    -0.372 C  
BRANCH  17  18
HETATM   18  C   UNL     1     -12.170   9.743  71.546  1.00  0.00    -0.493 C  
BRANCH  18  19
HETATM   19  C   UNL     1     -12.674   8.603  72.431  1.00  0.00    -0.362 C  
HETATM   20  H1  UNL     1     -14.128   8.251  73.866  1.00  0.00     0.000 HD 
HETATM   21  N   UNL     1     -13.792   9.011  73.275  1.00  0.00    -1.163 NA 
HETATM   22  H2  UNL     1     -14.549   9.407  72.719  1.00  0.00     0.000 HD 
ENDBRANCH  18  19
ENDBRANCH  17  18
ENDBRANCH  15  17
ENDBRANCH  13  15
ENDBRANCH   5  13
ENDBRANCH   2   3
TORSDOF 6
ENDMDL
MODEL       27
REMARK 921   NORMALIZED FREE ENERGY PREDICTED BY IDOCK:   -5.38 KCAL/MOL
REMARK 922        TOTAL FREE ENERGY PREDICTED BY IDOCK:   -7.73 KCAL/MOL
REMARK 923 INTER-LIGAND FREE ENERGY PREDICTED BY IDOCK:   -7.29 KCAL/MOL
REMARK 924 INTRA-LIGAND FREE ENERGY PREDICTED BY IDOCK:   -0.44 KCAL/MOL
REMARK 927      BINDING AFFINITY PREDICTED BY RF-SCORE:    0.00 PKD
ROOT
HETATM    1  C   UNL     1     -10.483  17.639  65.981  1.00  0.00    -0.278 C  
HETATM    2  O   UNL     1     -10.811  16.506  65.190  1.00  0.00    -0.543 OA 
ENDROOT
BRANCH   2   3
HETATM    3  C   UNL     1     -10.746  15.282  65.795  1.00  0.00    -0.348 A  
HETATM    4  C   UNL     1     -10.805  15.324  67.185  1.00  0.00    -0.322 A  
HETATM    5  C   UNL     1     -10.790  14.155  67.962  1.00  0.00    -0.246 A  
HETATM    6  C   UNL     1     -10.259  10.478  66.024  1.00  0.00    -0.310 A  
HETATM    7  C   UNL     1     -10.637  12.897  67.326  1.00  0.00    -0.234 A  
HETATM    8  C   UNL     1     -10.381  11.634  65.270  1.00  0.00    -0.316 A  
HETATM    9  C   UNL     1     -10.639  14.053  65.157  1.00  0.00    -0.400 A  
HETATM   10  N   UNL     1     -10.545  11.758  68.052  1.00  0.00    -0.199 NA 
HETATM   11  C   UNL     1     -10.346  10.591  67.397  1.00  0.00    -0.224 A  
HETATM   12  C   UNL     1     -10.555  12.872  65.912  1.00  0.00    -0.287 A  
BRANCH   5  13
HETATM   13  N   UNL     1     -11.002  14.216  69.360  1.00  0.00    -0.367 NA 
HETATM   14  H   UNL     1     -10.205  14.297  69.992  1.00  0.00     0.000 HD 
BRANCH  13  15
HETATM   15  C   UNL     1     -12.362  14.164  69.904  1.00  0.00    -0.327 C  
HETATM   16  C   UNL     1     -12.439  13.031  70.933  1.00  0.00    -0.396 C  
BRANCH  15  17
HETATM   17  C   UNL     1     -12.712  15.494  70.602  1.00  0.00    -0.487 C  
BRANCH  17  18
HETATM   18  C   UNL     1     -12.170  15.642  72.032  1.00  0.00    -0.521 C  
BRANCH  18  19
HETATM   19  C   UNL     1     -13.228  15.824  73.122  1.00  0.00    -0.591 C  
HETATM   20  H1  UNL     1     -13.345  16.298  75.136  1.00  0.00     0.000 HD 
HETATM   21  N   UNL     1     -12.640  16.177  74.409  1.00  0.00    -0.895 NA 
HETATM   22  H2  UNL     1     -12.047  17.003  74.329  1.00  0.00     0.000 HD 
ENDBRANCH  18  19
ENDBRANCH  17  18
ENDBRANCH  15  17
ENDBRANCH  13  15
ENDBRANCH   5  13
ENDBRANCH   2   3
TORSDOF 6
ENDMDL
MODEL       28
REMARK 921   NORMALIZED FREE ENERGY PREDICTED BY IDOCK:   -5.33 KCAL/MOL
REMARK 922        TOTAL FREE ENERGY PREDICTED BY IDOCK:   -7.67 KCAL/MOL
REMARK 923 INTER-LIGAND FREE ENERGY PREDICTED BY IDOCK:   -7.14 KCAL/MOL
REMARK 924 INTRA-LIGAND FREE ENERGY PREDICTED BY IDOCK:   -0.53 KCAL/MOL
REMARK 927      BINDING AFFINITY PREDICTED BY RF-SCORE:    0.00 PKD
ROOT
HETATM    1  C   UNL     1     -11.973  13.338  65.558  1.00  0.00    -0.405 C  
HETATM    2  O   UNL     1     -11.064  13.489  66.640  1.00  0.00    -0.292 OA 
ENDROOT
BRANCH   2   3
HETATM    3  C   UNL     1     -11.541  13.239  67.896  1.00  0.00    -0.334 A  
HETATM    4  C   UNL     1     -11.655  11.887  68.210  1.00  0.00    -0.390 A  
HETATM    5  C   UNL     1     -12.092  11.454  69.471  1.00  0.00    -0.302 A  
HETATM    6  C   UNL     1     -13.358  14.332  72.240  1.00  0.00    -0.534 A  
HETATM    7  C   UNL     1     -12.502  12.411  70.433  1.00  0.00    -0.136 A  
HETATM    8  C   UNL     1     -12.825  14.741  71.028  1.00  0.00    -0.415 A  
HETATM    9  C   UNL     1     -11.898  14.187  68.845  1.00  0.00    -0.382 A  
HETATM   10  N   UNL     1     -12.997  12.023  71.632  1.00  0.00    -0.391 NA 
HETATM   11  C   UNL     1     -13.423  12.977  72.492  1.00  0.00    -0.419 A  
HETATM   12  C   UNL     1     -12.402  13.782  70.092  1.00  0.00    -0.390 A  
BRANCH   5  13
HETATM   13  N   UNL     1     -12.055  10.082  69.815  1.00  0.00    -0.480 NA 
HETATM   14  H   UNL     1     -12.905   9.520  69.757  1.00  0.00     0.000 HD 
BRANCH  13  15
HETATM   15  C   UNL     1     -10.801   9.464  70.254  1.00  0.00    -0.258 C  
HETATM   16  C   UNL     1     -10.970   8.974  71.696  1.00  0.00    -0.435 C  
BRANCH  15  17
HETATM   17  C   UNL     1     -10.454   8.257  69.357  1.00  0.00    -0.224 C  
BRANCH  17  18
HETATM   18  C   UNL     1     -10.401   8.558  67.851  1.00  0.00    -0.281 C  
BRANCH  18  19
HETATM   19  C   UNL     1     -10.184   7.346  66.945  1.00  0.00    -0.276 C  
HETATM   20  H1  UNL     1     -11.266   5.774  66.135  1.00  0.00     0.000 HD 
HETATM   21  N   UNL     1     -11.410   6.582  66.740  1.00  0.00    -0.800 NA 
HETATM   22  H2  UNL     1     -12.160   7.177  66.387  1.00  0.00     0.000 HD 
ENDBRANCH  18  19
ENDBRANCH  17  18
ENDBRANCH  15  17
ENDBRANCH  13  15
ENDBRANCH   5  13
ENDBRANCH   2   3
TORSDOF 6
ENDMDL
MODEL       29
REMARK 921   NORMALIZED FREE ENERGY PREDICTED BY IDOCK:   -5.30 KCAL/MOL
REMARK 922        TOTAL FREE ENERGY PREDICTED BY IDOCK:   -7.64 KCAL/MOL
REMARK 923 INTER-LIGAND FREE ENERGY PREDICTED BY IDOCK:   -6.87 KCAL/MOL
REMARK 924 INTRA-LIGAND FREE ENERGY PREDICTED BY IDOCK:   -0.77 KCAL/MOL
REMARK 927      BINDING AFFINITY PREDICTED BY RF-SCORE:    0.00 PKD
ROOT
HETATM    1  C   UNL     1     -10.317  12.235  65.756  1.00  0.00    -0.258 C  
HETATM    2  O   UNL     1     -10.976  13.494  65.749  1.00  0.00    -0.278 OA 
ENDROOT
BRANCH   2   3
HETATM    3  C   UNL     1     -11.082  14.149  66.944  1.00  0.00    -0.307 A  
HETATM    4  C   UNL     1     -10.387  15.354  67.005  1.00  0.00    -0.280 A  
HETATM    5  C   UNL     1     -10.421  16.172  68.145  1.00  0.00    -0.279 A  
HETATM    6  C   UNL     1     -12.440  14.777  71.541  1.00  0.00    -0.403 A  
HETATM    7  C   UNL     1     -11.119  15.732  69.298  1.00  0.00    -0.297 A  
HETATM    8  C   UNL     1     -12.481  14.035  70.372  1.00  0.00    -0.418 A  
HETATM    9  C   UNL     1     -11.805  13.727  68.052  1.00  0.00    -0.408 A  
HETATM   10  N   UNL     1     -11.109  16.464  70.437  1.00  0.00    -0.322 NA 
HETATM   11  C   UNL     1     -11.748  15.971  71.524  1.00  0.00    -0.484 A  
HETATM   12  C   UNL     1     -11.802  14.493  69.229  1.00  0.00    -0.361 A  
BRANCH   5  13
HETATM   13  N   UNL     1      -9.832  17.458  68.127  1.00  0.00    -0.287 NA 
HETATM   14  H   UNL     1      -8.898  17.595  68.516  1.00  0.00     0.000 HD 
BRANCH  13  15
HETATM   15  C   UNL     1     -10.556  18.594  67.551  1.00  0.00    -0.423 C  
HETATM   16  C   UNL     1     -10.272  19.840  68.396  1.00  0.00    -0.568 C  
BRANCH  15  17
HETATM   17  C   UNL     1     -10.081  18.856  66.106  1.00  0.00    -0.438 C  
BRANCH  17  18
HETATM   18  C   UNL     1      -8.846  19.759  65.978  1.00  0.00    -0.295 C  
BRANCH  18  19
HETATM   19  C   UNL     1      -7.499  19.036  65.971  1.00  0.00    -0.254 C  
HETATM   20  H1  UNL     1      -6.752  17.103  65.941  1.00  0.00     0.000 HD 
HETATM   21  N   UNL     1      -7.650  17.585  65.946  1.00  0.00    -0.511 NA 
HETATM   22  H2  UNL     1      -8.232  17.288  65.163  1.00  0.00     0.000 HD 
ENDBRANCH  18  19
ENDBRANCH  17  18
ENDBRANCH  15  17
ENDBRANCH  13  15
ENDBRANCH   5  13
ENDBRANCH   2   3
TORSDOF 6
ENDMDL
MODEL       30
REMARK 921   NORMALIZED FREE ENERGY PREDICTED BY IDOCK:   -5.30 KCAL/MOL
REMARK 922        TOTAL FREE ENERGY PREDICTED BY IDOCK:   -7.63 KCAL/MOL
REMARK 923 INTER-LIGAND FREE ENERGY PREDICTED BY IDOCK:   -7.13 KCAL/MOL
REMARK 924 INTRA-LIGAND FREE ENERGY PREDICTED BY IDOCK:   -0.50 KCAL/MOL
REMARK 927      BINDING AFFINITY PREDICTED BY RF-SCORE:    0.00 PKD
ROOT
HETATM    1  C   UNL     1      -6.188  14.360  68.407  1.00  0.00    -0.103 C  
HETATM    2  O   UNL     1      -6.361  15.691  68.875  1.00  0.00    -0.108 OA 
ENDROOT
BRANCH   2   3
HETATM    3  C   UNL     1      -7.280  16.466  68.225  1.00  0.00    -0.149 A  
HETATM    4  C   UNL     1      -7.941  15.824  67.182  1.00  0.00    -0.250 A  
HETATM    5  C   UNL     1      -8.943  16.463  66.435  1.00  0.00    -0.305 A  
HETATM    6  C   UNL     1      -9.733  20.505  67.204  1.00  0.00    -0.581 A  
HETATM    7  C   UNL     1      -9.245  17.823  66.695  1.00  0.00    -0.269 A  
HETATM    8  C   UNL     1      -8.822  19.826  67.998  1.00  0.00    -0.360 A  
HETATM    9  C   UNL     1      -7.597  17.786  68.518  1.00  0.00    -0.276 A  
HETATM   10  N   UNL     1     -10.154  18.488  65.944  1.00  0.00    -0.557 NA 
HETATM   11  C   UNL     1     -10.365  19.800  66.201  1.00  0.00    -0.524 A  
HETATM   12  C   UNL     1      -8.548  18.471  67.744  1.00  0.00    -0.286 A  
BRANCH   5  13
HETATM   13  N   UNL     1      -9.703  15.742  65.484  1.00  0.00    -0.375 NA 
HETATM   14  H   UNL     1      -9.871  16.141  64.560  1.00  0.00     0.000 HD 
BRANCH  13  15
HETATM   15  C   UNL     1     -10.249  14.424  65.819  1.00  0.00    -0.337 C  
HETATM   16  C   UNL     1     -11.581  14.613  66.553  1.00  0.00    -0.350 C  
BRANCH  15  17
HETATM   17  C   UNL     1     -10.502  13.606  64.535  1.00  0.00    -0.411 C  
BRANCH  17  18
HETATM   18  C   UNL     1     -11.964  13.562  64.067  1.00  0.00    -0.501 C  
BRANCH  18  19
HETATM   19  C   UNL     1     -12.425  12.231  63.470  1.00  0.00    -0.534 C  
HETATM   20  H1  UNL     1     -11.611  10.510  62.651  1.00  0.00     0.000 HD 
HETATM   21  N   UNL     1     -11.304  11.397  63.049  1.00  0.00    -0.852 NA 
HETATM   22  H2  UNL     1     -10.646  11.249  63.814  1.00  0.00     0.000 HD 
ENDBRANCH  18  19
ENDBRANCH  17  18
ENDBRANCH  15  17
ENDBRANCH  13  15
ENDBRANCH   5  13
ENDBRANCH   2   3
TORSDOF 6
ENDMDL
MODEL       31
REMARK 921   NORMALIZED FREE ENERGY PREDICTED BY IDOCK:   -5.28 KCAL/MOL
REMARK 922        TOTAL FREE ENERGY PREDICTED BY IDOCK:   -7.60 KCAL/MOL
REMARK 923 INTER-LIGAND FREE ENERGY PREDICTED BY IDOCK:   -7.27 KCAL/MOL
REMARK 924 INTRA-LIGAND FREE ENERGY PREDICTED BY IDOCK:   -0.33 KCAL/MOL
REMARK 927      BINDING AFFINITY PREDICTED BY RF-SCORE:    0.00 PKD
ROOT
HETATM    1  C   UNL     1      -8.844  18.439  66.544  1.00  0.00    -0.278 C  
HETATM    2  O   UNL     1      -9.952  18.487  67.432  1.00  0.00    -0.305 OA 
ENDROOT
BRANCH   2   3
HETATM    3  C   UNL     1     -10.431  17.295  67.898  1.00  0.00    -0.382 A  
HETATM    4  C   UNL     1     -10.655  16.339  66.911  1.00  0.00    -0.270 A  
HETATM    5  C   UNL     1     -11.109  15.047  67.221  1.00  0.00    -0.334 A  
HETATM    6  C   UNL     1     -12.083  14.175  71.201  1.00  0.00    -0.392 A  
HETATM    7  C   UNL     1     -11.421  14.721  68.564  1.00  0.00    -0.308 A  
HETATM    8  C   UNL     1     -11.535  15.409  70.889  1.00  0.00    -0.396 A  
HETATM    9  C   UNL     1     -10.692  16.974  69.224  1.00  0.00    -0.226 A  
HETATM   10  N   UNL     1     -11.930  13.509  68.885  1.00  0.00    -0.349 NA 
HETATM   11  C   UNL     1     -12.260  13.270  70.176  1.00  0.00    -0.306 A  
HETATM   12  C   UNL     1     -11.210  15.712  69.555  1.00  0.00    -0.313 A  
BRANCH   5  13
HETATM   13  N   UNL     1     -11.184  14.051  66.219  1.00  0.00    -0.315 NA 
HETATM   14  H   UNL     1     -10.385  13.439  66.050  1.00  0.00     0.000 HD 
BRANCH  13  15
HETATM   15  C   UNL     1     -12.404  13.893  65.422  1.00  0.00    -0.470 C  
HETATM   16  C   UNL     1     -12.395  14.933  64.296  1.00  0.00    -0.300 C  
BRANCH  15  17
HETATM   17  C   UNL     1     -12.458  12.484  64.797  1.00  0.00    -0.532 C  
BRANCH  17  18
HETATM   18  C   UNL     1     -11.717  12.334  63.460  1.00  0.00    -0.584 C  
BRANCH  18  19
HETATM   19  C   UNL     1     -10.305  11.754  63.551  1.00  0.00    -0.448 C  
HETATM   20  H1  UNL     1      -9.169  10.242  62.701  1.00  0.00     0.000 HD 
HETATM   21  N   UNL     1     -10.111  10.630  62.641  1.00  0.00    -0.763 NA 
HETATM   22  H2  UNL     1     -10.342  10.887  61.682  1.00  0.00     0.000 HD 
ENDBRANCH  18  19
ENDBRANCH  17  18
ENDBRANCH  15  17
ENDBRANCH  13  15
ENDBRANCH   5  13
ENDBRANCH   2   3
TORSDOF 6
ENDMDL
MODEL       32
REMARK 921   NORMALIZED FREE ENERGY PREDICTED BY IDOCK:   -5.27 KCAL/MOL
REMARK 922        TOTAL FREE ENERGY PREDICTED BY IDOCK:   -7.59 KCAL/MOL
REMARK 923 INTER-LIGAND FREE ENERGY PREDICTED BY IDOCK:   -6.65 KCAL/MOL
REMARK 924 INTRA-LIGAND FREE ENERGY PREDICTED BY IDOCK:   -0.95 KCAL/MOL
REMARK 927      BINDING AFFINITY PREDICTED BY RF-SCORE:    0.00 PKD
ROOT
HETATM    1  C   UNL     1     -13.163  12.929  71.831  1.00  0.00    -0.423 C  
HETATM    2  O   UNL     1     -12.648  14.251  71.769  1.00  0.00    -0.332 OA 
ENDROOT
BRANCH   2   3
HETATM    3  C   UNL     1     -12.129  14.663  70.573  1.00  0.00    -0.321 A  
HETATM    4  C   UNL     1     -12.133  13.690  69.578  1.00  0.00    -0.368 A  
HETATM    5  C   UNL     1     -11.672  13.957  68.279  1.00  0.00    -0.361 A  
HETATM    6  C   UNL     1      -9.974  17.706  67.497  1.00  0.00    -0.322 A  
HETATM    7  C   UNL     1     -11.117  15.227  67.984  1.00  0.00    -0.312 A  
HETATM    8  C   UNL     1     -10.529  17.457  68.742  1.00  0.00    -0.333 A  
HETATM    9  C   UNL     1     -11.626  15.926  70.286  1.00  0.00    -0.365 A  
HETATM   10  N   UNL     1     -10.597  15.491  66.763  1.00  0.00    -0.304 NA 
HETATM   11  C   UNL     1     -10.031  16.703  66.552  1.00  0.00    -0.285 A  
HETATM   12  C   UNL     1     -11.097  16.200  69.014  1.00  0.00    -0.336 A  
BRANCH   5  13
HETATM   13  N   UNL     1     -11.828  13.000  67.249  1.00  0.00    -0.372 NA 
HETATM   14  H   UNL     1     -12.702  12.956  66.724  1.00  0.00     0.000 HD 
BRANCH  13  15
HETATM   15  C   UNL     1     -10.739  12.072  66.931  1.00  0.00    -0.244 C  
HETATM   16  C   UNL     1     -11.263  10.637  67.048  1.00  0.00    -0.117 C  
BRANCH  15  17
HETATM   17  C   UNL     1     -10.241  12.304  65.489  1.00  0.00    -0.296 C  
BRANCH  17  18
HETATM   18  C   UNL     1     -11.195  11.824  64.385  1.00  0.00    -0.383 C  
BRANCH  18  19
HETATM   19  C   UNL     1     -11.911  12.928  63.607  1.00  0.00    -0.532 C  
HETATM   20  H1  UNL     1     -12.184  14.982  63.683  1.00  0.00     0.000 HD 
HETATM   21  N   UNL     1     -11.706  14.245  64.202  1.00  0.00    -0.641 NA 
HETATM   22  H2  UNL     1     -10.713  14.452  64.306  1.00  0.00     0.000 HD 
ENDBRANCH  18  19
ENDBRANCH  17  18
ENDBRANCH  15  17
ENDBRANCH  13  15
ENDBRANCH   5  13
ENDBRANCH   2   3
TORSDOF 6
ENDMDL
MODEL       33
REMARK 921   NORMALIZED FREE ENERGY PREDICTED BY IDOCK:   -5.24 KCAL/MOL
REMARK 922        TOTAL FREE ENERGY PREDICTED BY IDOCK:   -7.55 KCAL/MOL
REMARK 923 INTER-LIGAND FREE ENERGY PREDICTED BY IDOCK:   -6.76 KCAL/MOL
REMARK 924 INTRA-LIGAND FREE ENERGY PREDICTED BY IDOCK:   -0.79 KCAL/MOL
REMARK 927      BINDING AFFINITY PREDICTED BY RF-SCORE:    0.00 PKD
ROOT
HETATM    1  C   UNL     1     -10.546  16.726  68.261  1.00  0.00    -0.352 C  
HETATM    2  O   UNL     1     -11.731  16.303  68.921  1.00  0.00    -0.313 OA 
ENDROOT
BRANCH   2   3
HETATM    3  C   UNL     1     -11.868  14.964  69.160  1.00  0.00    -0.307 A  
HETATM    4  C   UNL     1     -11.557  14.150  68.074  1.00  0.00    -0.368 A  
HETATM    5  C   UNL     1     -11.607  12.750  68.160  1.00  0.00    -0.336 A  
HETATM    6  C   UNL     1     -13.016  11.018  71.704  1.00  0.00    -0.561 A  
HETATM    7  C   UNL     1     -12.056  12.141  69.358  1.00  0.00    -0.190 A  
HETATM    8  C   UNL     1     -12.860  12.393  71.634  1.00  0.00    -0.375 A  
HETATM    9  C   UNL     1     -12.269  14.379  70.353  1.00  0.00    -0.404 A  
HETATM   10  N   UNL     1     -12.186  10.796  69.447  1.00  0.00    -0.314 NA 
HETATM   11  C   UNL     1     -12.670  10.271  70.597  1.00  0.00    -0.300 A  
HETATM   12  C   UNL     1     -12.392  12.982  70.447  1.00  0.00    -0.351 A  
BRANCH   5  13
HETATM   13  N   UNL     1     -11.142  11.946  67.092  1.00  0.00    -0.275 NA 
HETATM   14  H   UNL     1     -11.631  11.083  66.856  1.00  0.00     0.000 HD 
BRANCH  13  15
HETATM   15  C   UNL     1      -9.960  12.349  66.324  1.00  0.00    -0.246 C  
HETATM   16  C   UNL     1      -8.734  11.624  66.889  1.00  0.00    -0.185 C  
BRANCH  15  17
HETATM   17  C   UNL     1     -10.128  11.960  64.840  1.00  0.00    -0.296 C  
BRANCH  17  18
HETATM   18  C   UNL     1     -11.574  11.960  64.325  1.00  0.00    -0.405 C  
BRANCH  18  19
HETATM   19  C   UNL     1     -12.158  13.336  64.001  1.00  0.00    -0.447 C  
HETATM   20  H1  UNL     1     -13.484  14.710  64.807  1.00  0.00     0.000 HD 
HETATM   21  N   UNL     1     -13.094  13.793  65.023  1.00  0.00    -0.737 NA 
HETATM   22  H2  UNL     1     -12.665  13.783  65.948  1.00  0.00     0.000 HD 
ENDBRANCH  18  19
ENDBRANCH  17  18
ENDBRANCH  15  17
ENDBRANCH  13  15
ENDBRANCH   5  13
ENDBRANCH   2   3
TORSDOF 6
ENDMDL
MODEL       34
REMARK 921   NORMALIZED FREE ENERGY PREDICTED BY IDOCK:   -5.24 KCAL/MOL
REMARK 922        TOTAL FREE ENERGY PREDICTED BY IDOCK:   -7.55 KCAL/MOL
REMARK 923 INTER-LIGAND FREE ENERGY PREDICTED BY IDOCK:   -7.05 KCAL/MOL
REMARK 924 INTRA-LIGAND FREE ENERGY PREDICTED BY IDOCK:   -0.50 KCAL/MOL
REMARK 927      BINDING AFFINITY PREDICTED BY RF-SCORE:    0.00 PKD
ROOT
HETATM    1  C   UNL     1     -12.502  12.153  63.462  1.00  0.00    -0.555 C  
HETATM    2  O   UNL     1     -12.580  13.572  63.465  1.00  0.00    -0.738 OA 
ENDROOT
BRANCH   2   3
HETATM    3  C   UNL     1     -12.075  14.222  64.556  1.00  0.00    -0.480 A  
HETATM    4  C   UNL     1     -12.196  13.521  65.752  1.00  0.00    -0.505 A  
HETATM    5  C   UNL     1     -11.695  14.027  66.962  1.00  0.00    -0.398 A  
HETATM    6  C   UNL     1     -10.058  17.884  66.984  1.00  0.00    -0.340 A  
HETATM    7  C   UNL     1     -11.114  15.320  66.988  1.00  0.00    -0.305 A  
HETATM    8  C   UNL     1     -10.464  17.323  65.783  1.00  0.00    -0.237 A  
HETATM    9  C   UNL     1     -11.469  15.472  64.561  1.00  0.00    -0.311 A  
HETATM   10  N   UNL     1     -10.688  15.866  68.152  1.00  0.00    -0.290 NA 
HETATM   11  C   UNL     1     -10.190  17.124  68.127  1.00  0.00    -0.332 A  
HETATM   12  C   UNL     1     -11.018  16.032  65.767  1.00  0.00    -0.142 A  
BRANCH   5  13
HETATM   13  N   UNL     1     -11.696  13.231  68.131  1.00  0.00    -0.342 NA 
HETATM   14  H   UNL     1     -12.093  13.599  68.996  1.00  0.00     0.000 HD 
BRANCH  13  15
HETATM   15  C   UNL     1     -11.128  11.880  68.107  1.00  0.00    -0.242 C  
HETATM   16  C   UNL     1      -9.653  11.958  68.515  1.00  0.00    -0.160 C  
BRANCH  15  17
HETATM   17  C   UNL     1     -11.872  10.967  69.103  1.00  0.00    -0.407 C  
BRANCH  17  18
HETATM   18  C   UNL     1     -12.168  11.600  70.471  1.00  0.00    -0.451 C  
BRANCH  18  19
HETATM   19  C   UNL     1     -13.002  10.744  71.426  1.00  0.00    -0.432 C  
HETATM   20  H1  UNL     1     -12.885   8.929  72.419  1.00  0.00     0.000 HD 
HETATM   21  N   UNL     1     -12.329   9.499  71.782  1.00  0.00    -0.382 NA 
HETATM   22  H2  UNL     1     -11.400   9.678  72.163  1.00  0.00     0.000 HD 
ENDBRANCH  18  19
ENDBRANCH  17  18
ENDBRANCH  15  17
ENDBRANCH  13  15
ENDBRANCH   5  13
ENDBRANCH   2   3
TORSDOF 6
ENDMDL
MODEL       35
REMARK 921   NORMALIZED FREE ENERGY PREDICTED BY IDOCK:   -5.24 KCAL/MOL
REMARK 922        TOTAL FREE ENERGY PREDICTED BY IDOCK:   -7.55 KCAL/MOL
REMARK 923 INTER-LIGAND FREE ENERGY PREDICTED BY IDOCK:   -7.39 KCAL/MOL
REMARK 924 INTRA-LIGAND FREE ENERGY PREDICTED BY IDOCK:   -0.16 KCAL/MOL
REMARK 927      BINDING AFFINITY PREDICTED BY RF-SCORE:    0.00 PKD
ROOT
HETATM    1  C   UNL     1     -12.237  15.691  64.222  1.00  0.00    -0.002 C  
HETATM    2  O   UNL     1     -12.670  14.410  63.785  1.00  0.00    -0.785 OA 
ENDROOT
BRANCH   2   3
HETATM    3  C   UNL     1     -11.995  13.324  64.269  1.00  0.00    -0.421 A  
HETATM    4  C   UNL     1     -12.123  13.131  65.641  1.00  0.00    -0.501 A  
HETATM    5  C   UNL     1     -11.527  12.041  66.295  1.00  0.00    -0.345 A  
HETATM    6  C   UNL     1      -9.059   9.489  64.070  1.00  0.00    -0.183 A  
HETATM    7  C   UNL     1     -10.708  11.150  65.557  1.00  0.00    -0.185 A  
HETATM    8  C   UNL     1      -9.741  10.509  63.426  1.00  0.00    -0.368 A  
HETATM    9  C   UNL     1     -11.231  12.434  63.527  1.00  0.00    -0.540 A  
HETATM   10  N   UNL     1     -10.060  10.133  66.172  1.00  0.00    -0.249 NA 
HETATM   11  C   UNL     1      -9.249   9.344  65.428  1.00  0.00    -0.244 A  
HETATM   12  C   UNL     1     -10.567  11.373  64.165  1.00  0.00    -0.430 A  
BRANCH   5  13
HETATM   13  N   UNL     1     -11.797  11.784  67.660  1.00  0.00    -0.603 NA 
HETATM   14  H   UNL     1     -12.444  11.038  67.917  1.00  0.00     0.000 HD 
BRANCH  13  15
HETATM   15  C   UNL     1     -11.151  12.583  68.704  1.00  0.00    -0.265 C  
HETATM   16  C   UNL     1      -9.748  12.976  68.229  1.00  0.00    -0.221 C  
BRANCH  15  17
HETATM   17  C   UNL     1     -11.962  13.868  68.974  1.00  0.00    -0.402 C  
BRANCH  17  18
HETATM   18  C   UNL     1     -12.577  13.969  70.378  1.00  0.00    -0.374 C  
BRANCH  18  19
HETATM   19  C   UNL     1     -12.995  15.373  70.815  1.00  0.00    -0.453 C  
HETATM   20  H1  UNL     1     -14.680  16.374  71.490  1.00  0.00     0.000 HD 
HETATM   21  N   UNL     1     -14.401  15.437  71.199  1.00  0.00    -0.821 NA 
HETATM   22  H2  UNL     1     -14.619  14.747  71.918  1.00  0.00     0.000 HD 
ENDBRANCH  18  19
ENDBRANCH  17  18
ENDBRANCH  15  17
ENDBRANCH  13  15
ENDBRANCH   5  13
ENDBRANCH   2   3
TORSDOF 6
ENDMDL
MODEL       36
REMARK 921   NORMALIZED FREE ENERGY PREDICTED BY IDOCK:   -5.24 KCAL/MOL
REMARK 922        TOTAL FREE ENERGY PREDICTED BY IDOCK:   -7.55 KCAL/MOL
REMARK 923 INTER-LIGAND FREE ENERGY PREDICTED BY IDOCK:   -6.86 KCAL/MOL
REMARK 924 INTRA-LIGAND FREE ENERGY PREDICTED BY IDOCK:   -0.68 KCAL/MOL
REMARK 927      BINDING AFFINITY PREDICTED BY RF-SCORE:    0.00 PKD
ROOT
HETATM    1  C   UNL     1     -10.732  19.605  65.607  1.00  0.00    -0.329 C  
HETATM    2  O   UNL     1     -11.034  18.293  65.152  1.00  0.00    -0.628 OA 
ENDROOT
BRANCH   2   3
HETATM    3  C   UNL     1     -10.376  17.257  65.753  1.00  0.00    -0.234 A  
HETATM    4  C   UNL     1     -10.555  16.024  65.132  1.00  0.00    -0.394 A  
HETATM    5  C   UNL     1      -9.918  14.862  65.596  1.00  0.00    -0.358 A  
HETATM    6  C   UNL     1      -7.661  15.094  69.118  1.00  0.00    -0.195 A  
HETATM    7  C   UNL     1      -9.129  14.922  66.772  1.00  0.00    -0.270 A  
HETATM    8  C   UNL     1      -8.213  16.249  68.585  1.00  0.00    -0.214 A  
HETATM    9  C   UNL     1      -9.570  17.338  66.881  1.00  0.00    -0.272 A  
HETATM   10  N   UNL     1      -8.562  13.805  67.286  1.00  0.00    -0.206 NA 
HETATM   11  C   UNL     1      -7.863  13.910  68.440  1.00  0.00    -0.138 A  
HETATM   12  C   UNL     1      -8.975  16.179  67.406  1.00  0.00    -0.201 A  
BRANCH   5  13
HETATM   13  N   UNL     1      -9.996  13.656  64.860  1.00  0.00    -0.618 NA 
HETATM   14  H   UNL     1      -9.140  13.187  64.562  1.00  0.00     0.000 HD 
BRANCH  13  15
HETATM   15  C   UNL     1     -11.300  13.077  64.525  1.00  0.00    -0.339 C  
HETATM   16  C   UNL     1     -11.080  11.845  63.641  1.00  0.00    -0.517 C  
BRANCH  15  17
HETATM   17  C   UNL     1     -12.039  12.642  65.808  1.00  0.00    -0.484 C  
BRANCH  17  18
HETATM   18  C   UNL     1     -11.299  11.607  66.668  1.00  0.00    -0.338 C  
BRANCH  18  19
HETATM   19  C   UNL     1     -11.413  11.805  68.180  1.00  0.00    -0.316 C  
HETATM   20  H1  UNL     1     -12.293  10.896  69.822  1.00  0.00     0.000 HD 
HETATM   21  N   UNL     1     -12.217  10.764  68.814  1.00  0.00    -0.814 NA 
HETATM   22  H2  UNL     1     -11.861   9.835  68.590  1.00  0.00     0.000 HD 
ENDBRANCH  18  19
ENDBRANCH  17  18
ENDBRANCH  15  17
ENDBRANCH  13  15
ENDBRANCH   5  13
ENDBRANCH   2   3
TORSDOF 6
ENDMDL
MODEL       37
REMARK 921   NORMALIZED FREE ENERGY PREDICTED BY IDOCK:   -5.21 KCAL/MOL
REMARK 922        TOTAL FREE ENERGY PREDICTED BY IDOCK:   -7.51 KCAL/MOL
REMARK 923 INTER-LIGAND FREE ENERGY PREDICTED BY IDOCK:   -6.85 KCAL/MOL
REMARK 924 INTRA-LIGAND FREE ENERGY PREDICTED BY IDOCK:   -0.65 KCAL/MOL
REMARK 927      BINDING AFFINITY PREDICTED BY RF-SCORE:    0.00 PKD
ROOT
HETATM    1  C   UNL     1     -10.591   9.249  69.646  1.00  0.00    -0.229 C  
HETATM    2  O   UNL     1     -10.844  10.599  70.011  1.00  0.00    -0.274 OA 
ENDROOT
BRANCH   2   3
HETATM    3  C   UNL     1     -11.161  11.468  69.005  1.00  0.00    -0.262 A  
HETATM    4  C   UNL     1     -11.667  12.691  69.438  1.00  0.00    -0.387 A  
HETATM    5  C   UNL     1     -12.006  13.713  68.538  1.00  0.00    -0.361 A  
HETATM    6  C   UNL     1     -11.755  12.919  64.432  1.00  0.00    -0.427 A  
HETATM    7  C   UNL     1     -11.905  13.476  67.144  1.00  0.00    -0.387 A  
HETATM    8  C   UNL     1     -11.327  11.962  65.338  1.00  0.00    -0.334 A  
HETATM    9  C   UNL     1     -11.017  11.239  67.643  1.00  0.00    -0.312 A  
HETATM   10  N   UNL     1     -12.295  14.415  66.250  1.00  0.00    -0.373 NA 
HETATM   11  C   UNL     1     -12.226  14.115  64.932  1.00  0.00    -0.438 A  
HETATM   12  C   UNL     1     -11.411  12.219  66.717  1.00  0.00    -0.421 A  
BRANCH   5  13
HETATM   13  N   UNL     1     -12.373  14.996  69.009  1.00  0.00    -0.590 NA 
HETATM   14  H   UNL     1     -13.359  15.252  69.070  1.00  0.00     0.000 HD 
BRANCH  13  15
HETATM   15  C   UNL     1     -11.344  15.958  69.410  1.00  0.00    -0.349 C  
HETATM   16  C   UNL     1     -11.275  15.998  70.941  1.00  0.00    -0.365 C  
BRANCH  15  17
HETATM   17  C   UNL     1      -9.967  15.530  68.862  1.00  0.00    -0.218 C  
BRANCH  17  18
HETATM   18  C   UNL     1      -9.387  16.442  67.770  1.00  0.00    -0.213 C  
BRANCH  18  19
HETATM   19  C   UNL     1     -10.402  17.317  67.035  1.00  0.00    -0.318 C  
HETATM   20  H1  UNL     1     -11.082  17.654  65.106  1.00  0.00     0.000 HD 
HETATM   21  N   UNL     1     -10.405  17.071  65.597  1.00  0.00    -0.591 NA 
HETATM   22  H2  UNL     1     -10.553  16.083  65.392  1.00  0.00     0.000 HD 
ENDBRANCH  18  19
ENDBRANCH  17  18
ENDBRANCH  15  17
ENDBRANCH  13  15
ENDBRANCH   5  13
ENDBRANCH   2   3
TORSDOF 6
ENDMDL
MODEL       38
REMARK 921   NORMALIZED FREE ENERGY PREDICTED BY IDOCK:   -5.13 KCAL/MOL
REMARK 922        TOTAL FREE ENERGY PREDICTED BY IDOCK:   -7.41 KCAL/MOL
REMARK 923 INTER-LIGAND FREE ENERGY PREDICTED BY IDOCK:   -6.97 KCAL/MOL
REMARK 924 INTRA-LIGAND FREE ENERGY PREDICTED BY IDOCK:   -0.44 KCAL/MOL
REMARK 927      BINDING AFFINITY PREDICTED BY RF-SCORE:    0.00 PKD
ROOT
HETATM    1  C   UNL     1     -10.800  10.024  67.971  1.00  0.00    -0.260 C  
HETATM    2  O   UNL     1     -11.317  10.143  69.290  1.00  0.00    -0.217 OA 
ENDROOT
BRANCH   2   3
HETATM    3  C   UNL     1     -11.759  11.377  69.678  1.00  0.00    -0.345 A  
HETATM    4  C   UNL     1     -11.506  12.394  68.761  1.00  0.00    -0.350 A  
HETATM    5  C   UNL     1     -11.927  13.714  68.985  1.00  0.00    -0.353 A  
HETATM    6  C   UNL     1     -13.728  14.639  72.653  1.00  0.00    -0.545 A  
HETATM    7  C   UNL     1     -12.561  14.045  70.208  1.00  0.00    -0.291 A  
HETATM    8  C   UNL     1     -13.399  13.323  72.368  1.00  0.00    -0.616 A  
HETATM    9  C   UNL     1     -12.418  11.680  70.862  1.00  0.00    -0.440 A  
HETATM   10  N   UNL     1     -12.913  15.323  70.484  1.00  0.00    -0.367 NA 
HETATM   11  C   UNL     1     -13.467  15.592  71.689  1.00  0.00    -0.494 A  
HETATM   12  C   UNL     1     -12.791  13.005  71.142  1.00  0.00    -0.331 A  
BRANCH   5  13
HETATM   13  N   UNL     1     -11.793  14.694  67.973  1.00  0.00    -0.470 NA 
HETATM   14  H   UNL     1     -12.111  15.648  68.144  1.00  0.00     0.000 HD 
BRANCH  13  15
HETATM   15  C   UNL     1     -11.198  14.344  66.680  1.00  0.00    -0.339 C  
HETATM   16  C   UNL     1     -12.312  13.887  65.732  1.00  0.00    -0.518 C  
BRANCH  15  17
HETATM   17  C   UNL     1     -10.495  15.572  66.064  1.00  0.00    -0.335 C  
BRANCH  17  18
HETATM   18  C   UNL     1      -9.426  16.225  66.953  1.00  0.00    -0.245 C  
BRANCH  18  19
HETATM   19  C   UNL     1      -8.376  15.274  67.529  1.00  0.00    -0.175 C  
HETATM   20  H1  UNL     1      -6.396  14.746  67.222  1.00  0.00     0.000 HD 
HETATM   21  N   UNL     1      -7.096  15.380  66.838  1.00  0.00    -0.275 NA 
HETATM   22  H2  UNL     1      -6.758  16.342  66.834  1.00  0.00     0.000 HD 
ENDBRANCH  18  19
ENDBRANCH  17  18
ENDBRANCH  15  17
ENDBRANCH  13  15
ENDBRANCH   5  13
ENDBRANCH   2   3
TORSDOF 6
ENDMDL
MODEL       39
REMARK 921   NORMALIZED FREE ENERGY PREDICTED BY IDOCK:   -5.12 KCAL/MOL
REMARK 922        TOTAL FREE ENERGY PREDICTED BY IDOCK:   -7.38 KCAL/MOL
REMARK 923 INTER-LIGAND FREE ENERGY PREDICTED BY IDOCK:   -7.16 KCAL/MOL
REMARK 924 INTRA-LIGAND FREE ENERGY PREDICTED BY IDOCK:   -0.23 KCAL/MOL
REMARK 927      BINDING AFFINITY PREDICTED BY RF-SCORE:    0.00 PKD
ROOT
HETATM    1  C   UNL     1      -7.137  15.960  69.309  1.00  0.00    -0.206 C  
HETATM    2  O   UNL     1      -8.116  16.756  68.656  1.00  0.00    -0.228 OA 
ENDROOT
BRANCH   2   3
HETATM    3  C   UNL     1      -9.162  16.101  68.067  1.00  0.00    -0.195 A  
HETATM    4  C   UNL     1     -10.257  15.896  68.902  1.00  0.00    -0.226 A  
HETATM    5  C   UNL     1     -11.429  15.273  68.446  1.00  0.00    -0.345 A  
HETATM    6  C   UNL     1     -11.488  13.742  64.547  1.00  0.00    -0.401 A  
HETATM    7  C   UNL     1     -11.481  14.770  67.122  1.00  0.00    -0.364 A  
HETATM    8  C   UNL     1     -10.380  14.452  64.983  1.00  0.00    -0.449 A  
HETATM    9  C   UNL     1      -9.216  15.651  66.755  1.00  0.00    -0.275 A  
HETATM   10  N   UNL     1     -12.570  14.100  66.676  1.00  0.00    -0.227 NA 
HETATM   11  C   UNL     1     -12.545  13.594  65.421  1.00  0.00    -0.491 A  
HETATM   12  C   UNL     1     -10.351  14.965  66.291  1.00  0.00    -0.302 A  
BRANCH   5  13
HETATM   13  N   UNL     1     -12.579  15.213  69.268  1.00  0.00    -0.541 NA 
HETATM   14  H   UNL     1     -13.351  15.861  69.109  1.00  0.00     0.000 HD 
BRANCH  13  15
HETATM   15  C   UNL     1     -12.666  14.225  70.347  1.00  0.00    -0.295 C  
HETATM   16  C   UNL     1     -11.994  12.928  69.883  1.00  0.00    -0.377 C  
BRANCH  15  17
HETATM   17  C   UNL     1     -11.937  14.740  71.606  1.00  0.00    -0.411 C  
BRANCH  17  18
HETATM   18  C   UNL     1     -12.482  16.054  72.183  1.00  0.00    -0.524 C  
BRANCH  18  19
HETATM   19  C   UNL     1     -12.495  16.148  73.709  1.00  0.00    -0.587 C  
HETATM   20  H1  UNL     1     -12.277  14.917  75.362  1.00  0.00     0.000 HD 
HETATM   21  N   UNL     1     -12.268  14.854  74.344  1.00  0.00    -0.711 NA 
HETATM   22  H2  UNL     1     -11.406  14.425  74.009  1.00  0.00     0.000 HD 
ENDBRANCH  18  19
ENDBRANCH  17  18
ENDBRANCH  15  17
ENDBRANCH  13  15
ENDBRANCH   5  13
ENDBRANCH   2   3
TORSDOF 6
ENDMDL
MODEL       40
REMARK 921   NORMALIZED FREE ENERGY PREDICTED BY IDOCK:   -5.08 KCAL/MOL
REMARK 922        TOTAL FREE ENERGY PREDICTED BY IDOCK:   -7.33 KCAL/MOL
REMARK 923 INTER-LIGAND FREE ENERGY PREDICTED BY IDOCK:   -6.74 KCAL/MOL
REMARK 924 INTRA-LIGAND FREE ENERGY PREDICTED BY IDOCK:   -0.59 KCAL/MOL
REMARK 927      BINDING AFFINITY PREDICTED BY RF-SCORE:    0.00 PKD
ROOT
HETATM    1  C   UNL     1     -10.434  19.723  66.042  1.00  0.00    -0.506 C  
HETATM    2  O   UNL     1     -10.863  18.987  67.179  1.00  0.00    -0.462 OA 
ENDROOT
BRANCH   2   3
HETATM    3  C   UNL     1      -9.960  18.129  67.743  1.00  0.00    -0.327 A  
HETATM    4  C   UNL     1     -10.531  17.100  68.488  1.00  0.00    -0.377 A  
HETATM    5  C   UNL     1      -9.750  16.109  69.102  1.00  0.00    -0.248 A  
HETATM    6  C   UNL     1      -5.579  16.456  68.915  1.00  0.00    -0.122 A  
HETATM    7  C   UNL     1      -8.337  16.192  69.031  1.00  0.00    -0.247 A  
HETATM    8  C   UNL     1      -6.369  17.364  68.229  1.00  0.00    -0.170 A  
HETATM    9  C   UNL     1      -8.578  18.197  67.630  1.00  0.00    -0.252 A  
HETATM   10  N   UNL     1      -7.555  15.293  69.674  1.00  0.00    -0.210 NA 
HETATM   11  C   UNL     1      -6.212  15.451  69.616  1.00  0.00    -0.153 A  
HETATM   12  C   UNL     1      -7.769  17.257  68.290  1.00  0.00    -0.234 A  
BRANCH   5  13
HETATM   13  N   UNL     1     -10.360  14.993  69.723  1.00  0.00    -0.414 NA 
HETATM   14  H   UNL     1      -9.836  14.442  70.404  1.00  0.00     0.000 HD 
BRANCH  13  15
HETATM   15  C   UNL     1     -11.739  14.625  69.392  1.00  0.00    -0.316 C  
HETATM   16  C   UNL     1     -11.727  13.287  68.646  1.00  0.00    -0.376 C  
BRANCH  15  17
HETATM   17  C   UNL     1     -12.576  14.470  70.679  1.00  0.00    -0.416 C  
BRANCH  17  18
HETATM   18  C   UNL     1     -12.677  15.732  71.549  1.00  0.00    -0.512 C  
BRANCH  18  19
HETATM   19  C   UNL     1     -12.057  15.623  72.942  1.00  0.00    -0.475 C  
HETATM   20  H1  UNL     1     -12.534  16.054  74.913  1.00  0.00     0.000 HD 
HETATM   21  N   UNL     1     -12.947  16.127  73.983  1.00  0.00    -0.918 NA 
HETATM   22  H2  UNL     1     -13.856  15.665  73.947  1.00  0.00     0.000 HD 
ENDBRANCH  18  19
ENDBRANCH  17  18
ENDBRANCH  15  17
ENDBRANCH  13  15
ENDBRANCH   5  13
ENDBRANCH   2   3
TORSDOF 6
ENDMDL
MODEL       41
REMARK 921   NORMALIZED FREE ENERGY PREDICTED BY IDOCK:   -5.08 KCAL/MOL
REMARK 922        TOTAL FREE ENERGY PREDICTED BY IDOCK:   -7.33 KCAL/MOL
REMARK 923 INTER-LIGAND FREE ENERGY PREDICTED BY IDOCK:   -6.60 KCAL/MOL
REMARK 924 INTRA-LIGAND FREE ENERGY PREDICTED BY IDOCK:   -0.72 KCAL/MOL
REMARK 927      BINDING AFFINITY PREDICTED BY RF-SCORE:    0.00 PKD
ROOT
HETATM    1  C   UNL     1     -10.862  16.747  68.497  1.00  0.00    -0.345 C  
HETATM    2  O   UNL     1     -11.860  15.736  68.522  1.00  0.00    -0.363 OA 
ENDROOT
BRANCH   2   3
HETATM    3  C   UNL     1     -11.632  14.616  67.773  1.00  0.00    -0.359 A  
HETATM    4  C   UNL     1     -11.841  13.417  68.450  1.00  0.00    -0.401 A  
HETATM    5  C   UNL     1     -11.690  12.173  67.818  1.00  0.00    -0.320 A  
HETATM    6  C   UNL     1     -10.287  12.099  63.871  1.00  0.00    -0.441 A  
HETATM    7  C   UNL     1     -11.241  12.125  66.475  1.00  0.00    -0.328 A  
HETATM    8  C   UNL     1     -10.543  13.317  64.480  1.00  0.00    -0.437 A  
HETATM    9  C   UNL     1     -11.233  14.582  66.443  1.00  0.00    -0.341 A  
HETATM   10  N   UNL     1     -11.014  10.939  65.861  1.00  0.00    -0.063 NA 
HETATM   11  C   UNL     1     -10.535  10.951  64.595  1.00  0.00    -0.314 A  
HETATM   12  C   UNL     1     -11.010  13.351  65.805  1.00  0.00    -0.288 A  
BRANCH   5  13
HETATM   13  N   UNL     1     -12.053  10.978  68.483  1.00  0.00    -0.770 NA 
HETATM   14  H   UNL     1     -12.622  10.282  68.001  1.00  0.00     0.000 HD 
BRANCH  13  15
HETATM   15  C   UNL     1     -11.618  10.737  69.861  1.00  0.00    -0.331 C  
HETATM   16  C   UNL     1     -12.856  10.549  70.744  1.00  0.00    -0.454 C  
BRANCH  15  17
HETATM   17  C   UNL     1     -10.756   9.460  69.936  1.00  0.00    -0.258 C  
BRANCH  17  18
HETATM   18  C   UNL     1      -9.245   9.700  70.070  1.00  0.00    -0.275 C  
BRANCH  18  19
HETATM   19  C   UNL     1      -8.559  10.292  68.838  1.00  0.00    -0.150 C  
HETATM   20  H1  UNL     1      -7.853  12.118  68.158  1.00  0.00     0.000 HD 
HETATM   21  N   UNL     1      -8.310  11.723  68.979  1.00  0.00    -0.368 NA 
HETATM   22  H2  UNL     1      -7.781  11.923  69.827  1.00  0.00     0.000 HD 
ENDBRANCH  18  19
ENDBRANCH  17  18
ENDBRANCH  15  17
ENDBRANCH  13  15
ENDBRANCH   5  13
ENDBRANCH   2   3
TORSDOF 6
ENDMDL
MODEL       42
REMARK 921   NORMALIZED FREE ENERGY PREDICTED BY IDOCK:   -5.07 KCAL/MOL
REMARK 922        TOTAL FREE ENERGY PREDICTED BY IDOCK:   -7.32 KCAL/MOL
REMARK 923 INTER-LIGAND FREE ENERGY PREDICTED BY IDOCK:   -6.87 KCAL/MOL
REMARK 924 INTRA-LIGAND FREE ENERGY PREDICTED BY IDOCK:   -0.45 KCAL/MOL
REMARK 927      BINDING AFFINITY PREDICTED BY RF-SCORE:    0.00 PKD
ROOT
HETATM    1  C   UNL     1      -5.265  18.242  70.349  1.00  0.00    -0.252 C  
HETATM    2  O   UNL     1      -5.856  17.214  69.566  1.00  0.00    -0.195 OA 
ENDROOT
BRANCH   2   3
HETATM    3  C   UNL     1      -6.870  17.576  68.723  1.00  0.00    -0.233 A  
HETATM    4  C   UNL     1      -7.321  16.554  67.893  1.00  0.00    -0.148 A  
HETATM    5  C   UNL     1      -8.383  16.744  66.994  1.00  0.00    -0.191 A  
HETATM    6  C   UNL     1     -10.015  20.584  66.618  1.00  0.00    -0.378 A  
HETATM    7  C   UNL     1      -8.968  18.028  66.868  1.00  0.00    -0.262 A  
HETATM    8  C   UNL     1      -9.038  20.349  67.573  1.00  0.00    -0.447 A  
HETATM    9  C   UNL     1      -7.463  18.829  68.640  1.00  0.00    -0.343 A  
HETATM   10  N   UNL     1      -9.943  18.261  65.958  1.00  0.00    -0.547 NA 
HETATM   11  C   UNL     1     -10.429  19.519  65.844  1.00  0.00    -0.491 A  
HETATM   12  C   UNL     1      -8.482  19.065  67.702  1.00  0.00    -0.316 A  
BRANCH   5  13
HETATM   13  N   UNL     1      -8.920  15.651  66.273  1.00  0.00    -0.324 NA 
HETATM   14  H   UNL     1      -8.824  15.616  65.258  1.00  0.00     0.000 HD 
BRANCH  13  15
HETATM   15  C   UNL     1      -9.615  14.571  66.978  1.00  0.00    -0.245 C  
HETATM   16  C   UNL     1     -10.663  15.185  67.912  1.00  0.00    -0.268 C  
BRANCH  15  17
HETATM   17  C   UNL     1     -10.330  13.646  65.971  1.00  0.00    -0.305 C  
BRANCH  17  18
HETATM   18  C   UNL     1     -11.839  13.885  65.822  1.00  0.00    -0.393 C  
BRANCH  18  19
HETATM   19  C   UNL     1     -12.267  14.626  64.554  1.00  0.00    -0.456 C  
HETATM   20  H1  UNL     1     -12.541  14.256  62.534  1.00  0.00     0.000 HD 
HETATM   21  N   UNL     1     -12.256  13.762  63.379  1.00  0.00    -1.075 NA 
HETATM   22  H2  UNL     1     -12.825  12.929  63.528  1.00  0.00     0.000 HD 
ENDBRANCH  18  19
ENDBRANCH  17  18
ENDBRANCH  15  17
ENDBRANCH  13  15
ENDBRANCH   5  13
ENDBRANCH   2   3
TORSDOF 6
ENDMDL
MODEL       43
REMARK 921   NORMALIZED FREE ENERGY PREDICTED BY IDOCK:   -5.07 KCAL/MOL
REMARK 922        TOTAL FREE ENERGY PREDICTED BY IDOCK:   -7.32 KCAL/MOL
REMARK 923 INTER-LIGAND FREE ENERGY PREDICTED BY IDOCK:   -7.04 KCAL/MOL
REMARK 924 INTRA-LIGAND FREE ENERGY PREDICTED BY IDOCK:   -0.29 KCAL/MOL
REMARK 927      BINDING AFFINITY PREDICTED BY RF-SCORE:    0.00 PKD
ROOT
HETATM    1  C   UNL     1     -10.447  18.510  65.996  1.00  0.00    -0.400 C  
HETATM    2  O   UNL     1     -10.998  17.717  64.953  1.00  0.00    -0.866 OA 
ENDROOT
BRANCH   2   3
HETATM    3  C   UNL     1     -10.824  16.364  65.039  1.00  0.00    -0.273 A  
HETATM    4  C   UNL     1      -9.821  15.968  65.920  1.00  0.00    -0.380 A  
HETATM    5  C   UNL     1      -9.536  14.614  66.156  1.00  0.00    -0.276 A  
HETATM    6  C   UNL     1     -11.579  11.724  63.916  1.00  0.00    -0.469 A  
HETATM    7  C   UNL     1     -10.233  13.618  65.428  1.00  0.00    -0.313 A  
HETATM    8  C   UNL     1     -11.918  13.060  63.774  1.00  0.00    -0.585 A  
HETATM    9  C   UNL     1     -11.543  15.396  64.351  1.00  0.00    -0.265 A  
HETATM   10  N   UNL     1      -9.930  12.307  65.580  1.00  0.00    -0.253 NA 
HETATM   11  C   UNL     1     -10.589  11.402  64.821  1.00  0.00    -0.316 A  
HETATM   12  C   UNL     1     -11.234  14.036  64.518  1.00  0.00    -0.358 A  
BRANCH   5  13
HETATM   13  N   UNL     1      -8.618  14.237  67.166  1.00  0.00    -0.216 NA 
HETATM   14  H   UNL     1      -7.706  13.861  66.908  1.00  0.00     0.000 HD 
BRANCH  13  15
HETATM   15  C   UNL     1      -8.974  14.384  68.580  1.00  0.00    -0.187 C  
HETATM   16  C   UNL     1      -8.300  15.646  69.130  1.00  0.00    -0.251 C  
BRANCH  15  17
HETATM   17  C   UNL     1     -10.502  14.529  68.736  1.00  0.00    -0.246 C  
BRANCH  17  18
HETATM   18  C   UNL     1     -10.956  15.491  69.844  1.00  0.00    -0.315 C  
BRANCH  18  19
HETATM   19  C   UNL     1     -12.062  14.966  70.761  1.00  0.00    -0.317 C  
HETATM   20  H1  UNL     1     -14.124  15.059  70.950  1.00  0.00     0.000 HD 
HETATM   21  N   UNL     1     -13.386  15.409  70.338  1.00  0.00    -0.752 NA 
HETATM   22  H2  UNL     1     -13.565  15.160  69.366  1.00  0.00     0.000 HD 
ENDBRANCH  18  19
ENDBRANCH  17  18
ENDBRANCH  15  17
ENDBRANCH  13  15
ENDBRANCH   5  13
ENDBRANCH   2   3
TORSDOF 6
ENDMDL
MODEL       44
REMARK 921   NORMALIZED FREE ENERGY PREDICTED BY IDOCK:   -5.07 KCAL/MOL
REMARK 922        TOTAL FREE ENERGY PREDICTED BY IDOCK:   -7.32 KCAL/MOL
REMARK 923 INTER-LIGAND FREE ENERGY PREDICTED BY IDOCK:   -6.86 KCAL/MOL
REMARK 924 INTRA-LIGAND FREE ENERGY PREDICTED BY IDOCK:   -0.46 KCAL/MOL
REMARK 927      BINDING AFFINITY PREDICTED BY RF-SCORE:    0.00 PKD
ROOT
HETATM    1  C   UNL     1     -13.836   9.020  72.317  1.00  0.00    -0.484 C  
HETATM    2  O   UNL     1     -13.120  10.215  72.038  1.00  0.00    -0.440 OA 
ENDROOT
BRANCH   2   3
HETATM    3  C   UNL     1     -12.182  10.163  71.044  1.00  0.00    -0.374 A  
HETATM    4  C   UNL     1     -12.519  10.876  69.897  1.00  0.00    -0.292 A  
HETATM    5  C   UNL     1     -11.652  10.960  68.796  1.00  0.00    -0.309 A  
HETATM    6  C   UNL     1      -8.095   8.748  68.885  1.00  0.00    -0.114 A  
HETATM    7  C   UNL     1     -10.431  10.240  68.814  1.00  0.00    -0.203 A  
HETATM    8  C   UNL     1      -8.916   8.764  70.002  1.00  0.00    -0.162 A  
HETATM    9  C   UNL     1     -10.970   9.488  71.091  1.00  0.00    -0.438 A  
HETATM   10  N   UNL     1      -9.608  10.241  67.739  1.00  0.00    -0.151 NA 
HETATM   11  C   UNL     1      -8.481   9.494  67.791  1.00  0.00    -0.119 A  
HETATM   12  C   UNL     1     -10.113   9.499  69.979  1.00  0.00    -0.279 A  
BRANCH   5  13
HETATM   13  N   UNL     1     -11.951  11.813  67.707  1.00  0.00    -0.600 NA 
HETATM   14  H   UNL     1     -12.135  11.415  66.786  1.00  0.00     0.000 HD 
BRANCH  13  15
HETATM   15  C   UNL     1     -11.997  13.265  67.897  1.00  0.00    -0.309 C  
HETATM   16  C   UNL     1     -10.685  13.720  68.546  1.00  0.00    -0.274 C  
BRANCH  15  17
HETATM   17  C   UNL     1     -12.152  13.979  66.538  1.00  0.00    -0.488 C  
BRANCH  17  18
HETATM   18  C   UNL     1     -11.123  13.579  65.470  1.00  0.00    -0.303 C  
BRANCH  18  19
HETATM   19  C   UNL     1     -11.702  12.970  64.192  1.00  0.00    -0.412 C  
HETATM   20  H1  UNL     1     -12.859  13.532  62.567  1.00  0.00     0.000 HD 
HETATM   21  N   UNL     1     -12.473  13.938  63.419  1.00  0.00    -1.110 NA 
HETATM   22  H2  UNL     1     -11.920  14.770  63.213  1.00  0.00     0.000 HD 
ENDBRANCH  18  19
ENDBRANCH  17  18
ENDBRANCH  15  17
ENDBRANCH  13  15
ENDBRANCH   5  13
ENDBRANCH   2   3
TORSDOF 6
ENDMDL
MODEL       45
REMARK 921   NORMALIZED FREE ENERGY PREDICTED BY IDOCK:   -5.03 KCAL/MOL
REMARK 922        TOTAL FREE ENERGY PREDICTED BY IDOCK:   -7.26 KCAL/MOL
REMARK 923 INTER-LIGAND FREE ENERGY PREDICTED BY IDOCK:   -6.76 KCAL/MOL
REMARK 924 INTRA-LIGAND FREE ENERGY PREDICTED BY IDOCK:   -0.50 KCAL/MOL
REMARK 927      BINDING AFFINITY PREDICTED BY RF-SCORE:    0.00 PKD
ROOT
HETATM    1  C   UNL     1      -7.717   7.238  66.161  1.00  0.00    -0.101 C  
HETATM    2  O   UNL     1      -8.616   7.839  65.239  1.00  0.00    -0.130 OA 
ENDROOT
BRANCH   2   3
HETATM    3  C   UNL     1      -9.382   8.873  65.699  1.00  0.00    -0.191 A  
HETATM    4  C   UNL     1      -9.916   8.674  66.969  1.00  0.00    -0.317 A  
HETATM    5  C   UNL     1     -10.694   9.652  67.607  1.00  0.00    -0.262 A  
HETATM    6  C   UNL     1     -11.664  13.130  65.481  1.00  0.00    -0.393 A  
HETATM    7  C   UNL     1     -11.014  10.848  66.917  1.00  0.00    -0.223 A  
HETATM    8  C   UNL     1     -10.811  12.198  64.911  1.00  0.00    -0.352 A  
HETATM    9  C   UNL     1      -9.653  10.059  65.028  1.00  0.00    -0.362 A  
HETATM   10  N   UNL     1     -11.823  11.778  67.476  1.00  0.00    -0.617 NA 
HETATM   11  C   UNL     1     -12.139  12.876  66.751  1.00  0.00    -0.265 A  
HETATM   12  C   UNL     1     -10.484  11.027  65.615  1.00  0.00    -0.293 A  
BRANCH   5  13
HETATM   13  N   UNL     1     -11.096   9.488  68.954  1.00  0.00    -0.446 NA 
HETATM   14  H   UNL     1     -11.785  10.122  69.360  1.00  0.00     0.000 HD 
BRANCH  13  15
HETATM   15  C   UNL     1     -10.526   8.411  69.769  1.00  0.00    -0.220 C  
HETATM   16  C   UNL     1      -9.492   9.012  70.727  1.00  0.00    -0.308 C  
BRANCH  15  17
HETATM   17  C   UNL     1     -11.632   7.724  70.598  1.00  0.00    -0.233 C  
BRANCH  17  18
HETATM   18  C   UNL     1     -12.006   8.438  71.905  1.00  0.00    -0.397 C  
BRANCH  18  19
HETATM   19  C   UNL     1     -13.342   9.182  71.890  1.00  0.00    -0.427 C  
HETATM   20  H1  UNL     1     -15.016   9.432  73.086  1.00  0.00     0.000 HD 
HETATM   21  N   UNL     1     -14.125   8.936  73.096  1.00  0.00    -1.225 NA 
HETATM   22  H2  UNL     1     -13.590   9.158  73.935  1.00  0.00     0.000 HD 
ENDBRANCH  18  19
ENDBRANCH  17  18
ENDBRANCH  15  17
ENDBRANCH  13  15
ENDBRANCH   5  13
ENDBRANCH   2   3
TORSDOF 6
ENDMDL
MODEL       46
REMARK 921   NORMALIZED FREE ENERGY PREDICTED BY IDOCK:   -5.02 KCAL/MOL
REMARK 922        TOTAL FREE ENERGY PREDICTED BY IDOCK:   -7.26 KCAL/MOL
REMARK 923 INTER-LIGAND FREE ENERGY PREDICTED BY IDOCK:   -6.71 KCAL/MOL
REMARK 924 INTRA-LIGAND FREE ENERGY PREDICTED BY IDOCK:   -0.55 KCAL/MOL
REMARK 927      BINDING AFFINITY PREDICTED BY RF-SCORE:    0.00 PKD
ROOT
HETATM    1  C   UNL     1     -14.202  15.141  72.018  1.00  0.00    -0.577 C  
HETATM    2  O   UNL     1     -13.172  15.671  71.195  1.00  0.00    -0.504 OA 
ENDROOT
BRANCH   2   3
HETATM    3  C   UNL     1     -12.611  14.829  70.276  1.00  0.00    -0.315 A  
HETATM    4  C   UNL     1     -12.215  15.447  69.094  1.00  0.00    -0.192 A  
HETATM    5  C   UNL     1     -11.586  14.736  68.060  1.00  0.00    -0.343 A  
HETATM    6  C   UNL     1     -11.173  10.586  68.460  1.00  0.00    -0.332 A  
HETATM    7  C   UNL     1     -11.412  13.335  68.184  1.00  0.00    -0.312 A  
HETATM    8  C   UNL     1     -11.696  11.323  69.511  1.00  0.00    -0.415 A  
HETATM    9  C   UNL     1     -12.408  13.463  70.428  1.00  0.00    -0.382 A  
HETATM   10  N   UNL     1     -10.877  12.609  67.175  1.00  0.00    -0.248 NA 
HETATM   11  C   UNL     1     -10.783  11.267  67.326  1.00  0.00    -0.251 A  
HETATM   12  C   UNL     1     -11.842  12.715  69.383  1.00  0.00    -0.356 A  
BRANCH   5  13
HETATM   13  N   UNL     1     -11.058  15.414  66.936  1.00  0.00    -0.296 NA 
HETATM   14  H   UNL     1     -11.394  15.185  66.001  1.00  0.00     0.000 HD 
BRANCH  13  15
HETATM   15  C   UNL     1     -10.029  16.443  67.110  1.00  0.00    -0.260 C  
HETATM   16  C   UNL     1      -8.736  15.968  66.438  1.00  0.00    -0.362 C  
BRANCH  15  17
HETATM   17  C   UNL     1     -10.475  17.764  66.449  1.00  0.00    -0.297 C  
BRANCH  17  18
HETATM   18  C   UNL     1     -10.239  19.027  67.290  1.00  0.00    -0.476 C  
BRANCH  18  19
HETATM   19  C   UNL     1      -9.513  20.168  66.577  1.00  0.00    -0.374 C  
HETATM   20  H1  UNL     1      -7.801  20.482  65.451  1.00  0.00     0.000 HD 
HETATM   21  N   UNL     1      -8.285  19.721  65.928  1.00  0.00    -0.414 NA 
HETATM   22  H2  UNL     1      -8.465  18.944  65.292  1.00  0.00     0.000 HD 
ENDBRANCH  18  19
ENDBRANCH  17  18
ENDBRANCH  15  17
ENDBRANCH  13  15
ENDBRANCH   5  13
ENDBRANCH   2   3
TORSDOF 6
ENDMDL
MODEL       47
REMARK 921   NORMALIZED FREE ENERGY PREDICTED BY IDOCK:   -5.02 KCAL/MOL
REMARK 922        TOTAL FREE ENERGY PREDICTED BY IDOCK:   -7.25 KCAL/MOL
REMARK 923 INTER-LIGAND FREE ENERGY PREDICTED BY IDOCK:   -6.94 KCAL/MOL
REMARK 924 INTRA-LIGAND FREE ENERGY PREDICTED BY IDOCK:   -0.31 KCAL/MOL
REMARK 927      BINDING AFFINITY PREDICTED BY RF-SCORE:    0.00 PKD
ROOT
HETATM    1  C   UNL     1     -13.321  13.503  72.012  1.00  0.00    -0.475 C  
HETATM    2  O   UNL     1     -13.873  12.197  72.106  1.00  0.00    -0.229 OA 
ENDROOT
BRANCH   2   3
HETATM    3  C   UNL     1     -13.118  11.164  71.626  1.00  0.00    -0.424 A  
HETATM    4  C   UNL     1     -12.095  11.550  70.764  1.00  0.00    -0.410 A  
HETATM    5  C   UNL     1     -11.202  10.619  70.212  1.00  0.00    -0.285 A  
HETATM    6  C   UNL     1     -11.842   6.548  70.966  1.00  0.00    -0.390 A  
HETATM    7  C   UNL     1     -11.383   9.238  70.474  1.00  0.00    -0.258 A  
HETATM    8  C   UNL     1     -12.648   7.490  71.585  1.00  0.00    -0.376 A  
HETATM    9  C   UNL     1     -13.280   9.817  71.925  1.00  0.00    -0.545 A  
HETATM   10  N   UNL     1     -10.584   8.310  69.897  1.00  0.00    -0.231 NA 
HETATM   11  C   UNL     1     -10.835   7.003  70.140  1.00  0.00    -0.256 A  
HETATM   12  C   UNL     1     -12.443   8.858  71.334  1.00  0.00    -0.357 A  
BRANCH   5  13
HETATM   13  N   UNL     1     -10.082  11.052  69.462  1.00  0.00    -0.441 NA 
HETATM   14  H   UNL     1      -9.152  11.030  69.880  1.00  0.00     0.000 HD 
BRANCH  13  15
HETATM   15  C   UNL     1     -10.254  11.533  68.089  1.00  0.00    -0.194 C  
HETATM   16  C   UNL     1     -11.390  10.745  67.428  1.00  0.00    -0.239 C  
BRANCH  15  17
HETATM   17  C   UNL     1     -10.622  13.032  68.088  1.00  0.00    -0.257 C  
BRANCH  17  18
HETATM   18  C   UNL     1     -11.975  13.370  67.445  1.00  0.00    -0.391 C  
BRANCH  18  19
HETATM   19  C   UNL     1     -11.905  14.184  66.152  1.00  0.00    -0.407 C  
HETATM   20  H1  UNL     1     -12.988  14.457  64.406  1.00  0.00     0.000 HD 
HETATM   21  N   UNL     1     -13.034  13.915  65.268  1.00  0.00    -0.774 NA 
HETATM   22  H2  UNL     1     -13.922  14.062  65.748  1.00  0.00     0.000 HD 
ENDBRANCH  18  19
ENDBRANCH  17  18
ENDBRANCH  15  17
ENDBRANCH  13  15
ENDBRANCH   5  13
ENDBRANCH   2   3
TORSDOF 6
ENDMDL
MODEL       48
REMARK 921   NORMALIZED FREE ENERGY PREDICTED BY IDOCK:   -4.98 KCAL/MOL
REMARK 922        TOTAL FREE ENERGY PREDICTED BY IDOCK:   -7.20 KCAL/MOL
REMARK 923 INTER-LIGAND FREE ENERGY PREDICTED BY IDOCK:   -6.92 KCAL/MOL
REMARK 924 INTRA-LIGAND FREE ENERGY PREDICTED BY IDOCK:   -0.28 KCAL/MOL
REMARK 927      BINDING AFFINITY PREDICTED BY RF-SCORE:    0.00 PKD
ROOT
HETATM    1  C   UNL     1     -13.147   8.777  72.174  1.00  0.00    -0.406 C  
HETATM    2  O   UNL     1     -12.574  10.069  72.035  1.00  0.00    -0.372 OA 
ENDROOT
BRANCH   2   3
HETATM    3  C   UNL     1     -12.139  10.428  70.790  1.00  0.00    -0.364 A  
HETATM    4  C   UNL     1     -12.442  11.738  70.429  1.00  0.00    -0.280 A  
HETATM    5  C   UNL     1     -12.035  12.281  69.200  1.00  0.00    -0.249 A  
HETATM    6  C   UNL     1     -10.116   9.772  66.448  1.00  0.00    -0.313 A  
HETATM    7  C   UNL     1     -11.362  11.458  68.264  1.00  0.00    -0.286 A  
HETATM    8  C   UNL     1     -10.434   9.286  67.707  1.00  0.00    -0.313 A  
HETATM    9  C   UNL     1     -11.442   9.624  69.898  1.00  0.00    -0.144 A  
HETATM   10  N   UNL     1     -11.022  11.931  67.042  1.00  0.00    -0.262 NA 
HETATM   11  C   UNL     1     -10.428  11.086  66.167  1.00  0.00    -0.244 A  
HETATM   12  C   UNL     1     -11.081  10.120  68.635  1.00  0.00    -0.254 A  
BRANCH   5  13
HETATM   13  N   UNL     1     -12.222  13.656  68.923  1.00  0.00    -0.350 NA 
HETATM   14  H   UNL     1     -12.628  13.944  68.032  1.00  0.00     0.000 HD 
BRANCH  13  15
HETATM   15  C   UNL     1     -11.837  14.669  69.910  1.00  0.00    -0.319 C  
HETATM   16  C   UNL     1     -11.472  15.962  69.172  1.00  0.00    -0.377 C  
BRANCH  15  17
HETATM   17  C   UNL     1     -13.010  14.957  70.869  1.00  0.00    -0.436 C  
BRANCH  17  18
HETATM   18  C   UNL     1     -12.678  14.830  72.363  1.00  0.00    -0.432 C  
BRANCH  18  19
HETATM   19  C   UNL     1     -12.409  16.147  73.092  1.00  0.00    -0.538 C  
HETATM   20  H1  UNL     1     -12.485  16.925  75.012  1.00  0.00     0.000 HD 
HETATM   21  N   UNL     1     -12.665  16.047  74.525  1.00  0.00    -0.984 NA 
HETATM   22  H2  UNL     1     -12.136  15.280  74.941  1.00  0.00     0.000 HD 
ENDBRANCH  18  19
ENDBRANCH  17  18
ENDBRANCH  15  17
ENDBRANCH  13  15
ENDBRANCH   5  13
ENDBRANCH   2   3
TORSDOF 6
ENDMDL
MODEL       49
REMARK 921   NORMALIZED FREE ENERGY PREDICTED BY IDOCK:   -4.97 KCAL/MOL
REMARK 922        TOTAL FREE ENERGY PREDICTED BY IDOCK:   -7.18 KCAL/MOL
REMARK 923 INTER-LIGAND FREE ENERGY PREDICTED BY IDOCK:   -6.73 KCAL/MOL
REMARK 924 INTRA-LIGAND FREE ENERGY PREDICTED BY IDOCK:   -0.45 KCAL/MOL
REMARK 927      BINDING AFFINITY PREDICTED BY RF-SCORE:    0.00 PKD
ROOT
HETATM    1  C   UNL     1      -8.953   7.295  66.221  1.00  0.00    -0.156 C  
HETATM    2  O   UNL     1      -8.896   8.505  66.963  1.00  0.00    -0.129 OA 
ENDROOT
BRANCH   2   3
HETATM    3  C   UNL     1      -9.689   9.535  66.540  1.00  0.00    -0.222 A  
HETATM    4  C   UNL     1     -10.540  10.045  67.517  1.00  0.00    -0.336 A  
HETATM    5  C   UNL     1     -11.394  11.130  67.262  1.00  0.00    -0.226 A  
HETATM    6  C   UNL     1     -11.575  12.654  63.364  1.00  0.00    -0.536 A  
HETATM    7  C   UNL     1     -11.453  11.678  65.957  1.00  0.00    -0.125 A  
HETATM    8  C   UNL     1     -10.664  11.653  63.663  1.00  0.00    -0.500 A  
HETATM    9  C   UNL     1      -9.707  10.092  65.268  1.00  0.00    -0.373 A  
HETATM   10  N   UNL     1     -12.320  12.675  65.661  1.00  0.00    -0.630 NA 
HETATM   11  C   UNL     1     -12.372  13.126  64.386  1.00  0.00    -0.360 A  
HETATM   12  C   UNL     1     -10.599  11.133  64.967  1.00  0.00    -0.340 A  
BRANCH   5  13
HETATM   13  N   UNL     1     -12.135  11.725  68.311  1.00  0.00    -0.506 NA 
HETATM   14  H   UNL     1     -13.151  11.637  68.328  1.00  0.00     0.000 HD 
BRANCH  13  15
HETATM   15  C   UNL     1     -11.448  12.467  69.372  1.00  0.00    -0.271 C  
HETATM   16  C   UNL     1     -11.005  13.825  68.817  1.00  0.00    -0.289 C  
BRANCH  15  17
HETATM   17  C   UNL     1     -12.401  12.704  70.563  1.00  0.00    -0.350 C  
BRANCH  17  18
HETATM   18  C   UNL     1     -12.877  14.153  70.739  1.00  0.00    -0.378 C  
BRANCH  18  19
HETATM   19  C   UNL     1     -12.334  14.880  71.970  1.00  0.00    -0.344 C  
HETATM   20  H1  UNL     1     -11.564  16.733  72.489  1.00  0.00     0.000 HD 
HETATM   21  N   UNL     1     -11.926  16.248  71.668  1.00  0.00    -0.656 NA 
HETATM   22  H2  UNL     1     -12.686  16.773  71.236  1.00  0.00     0.000 HD 
ENDBRANCH  18  19
ENDBRANCH  17  18
ENDBRANCH  15  17
ENDBRANCH  13  15
ENDBRANCH   5  13
ENDBRANCH   2   3
TORSDOF 6
ENDMDL
MODEL       50
REMARK 921   NORMALIZED FREE ENERGY PREDICTED BY IDOCK:   -4.92 KCAL/MOL
REMARK 922        TOTAL FREE ENERGY PREDICTED BY IDOCK:   -7.12 KCAL/MOL
REMARK 923 INTER-LIGAND FREE ENERGY PREDICTED BY IDOCK:   -6.69 KCAL/MOL
REMARK 924 INTRA-LIGAND FREE ENERGY PREDICTED BY IDOCK:   -0.43 KCAL/MOL
REMARK 927      BINDING AFFINITY PREDICTED BY RF-SCORE:    0.00 PKD
ROOT
HETATM    1  C   UNL     1      -8.853  17.162  68.625  1.00  0.00    -0.266 C  
HETATM    2  O   UNL     1     -10.030  16.531  68.137  1.00  0.00    -0.237 OA 
ENDROOT
BRANCH   2   3
HETATM    3  C   UNL     1     -10.783  15.832  69.039  1.00  0.00    -0.235 A  
HETATM    4  C   UNL     1     -11.220  14.591  68.585  1.00  0.00    -0.281 A  
HETATM    5  C   UNL     1     -11.971  13.728  69.397  1.00  0.00    -0.347 A  
HETATM    6  C   UNL     1     -13.161  15.080  73.180  1.00  0.00    -0.619 A  
HETATM    7  C   UNL     1     -12.364  14.154  70.691  1.00  0.00    -0.365 A  
HETATM    8  C   UNL     1     -12.332  15.873  72.403  1.00  0.00    -0.570 A  
HETATM    9  C   UNL     1     -11.124  16.244  70.320  1.00  0.00    -0.340 A  
HETATM   10  N   UNL     1     -13.150  13.375  71.470  1.00  0.00    -0.361 NA 
HETATM   11  C   UNL     1     -13.539  13.853  72.675  1.00  0.00    -0.517 A  
HETATM   12  C   UNL     1     -11.932  15.429  71.131  1.00  0.00    -0.414 A  
BRANCH   5  13
HETATM   13  N   UNL     1     -12.272  12.414  68.967  1.00  0.00    -0.103 NA 
HETATM   14  H   UNL     1     -13.178  12.214  68.542  1.00  0.00     0.000 HD 
BRANCH  13  15
HETATM   15  C   UNL     1     -11.289  11.339  69.128  1.00  0.00    -0.282 C  
HETATM   16  C   UNL     1     -11.798  10.360  70.191  1.00  0.00    -0.379 C  
BRANCH  15  17
HETATM   17  C   UNL     1     -11.103  10.578  67.799  1.00  0.00    -0.382 C  
BRANCH  17  18
HETATM   18  C   UNL     1     -10.042   9.469  67.825  1.00  0.00    -0.244 C  
BRANCH  18  19
HETATM   19  C   UNL     1     -10.252   8.332  66.823  1.00  0.00    -0.304 C  
HETATM   20  H1  UNL     1      -9.580   7.739  64.955  1.00  0.00     0.000 HD 
HETATM   21  N   UNL     1      -9.440   8.497  65.623  1.00  0.00    -0.445 NA 
HETATM   22  H2  UNL     1      -8.453   8.604  65.856  1.00  0.00     0.000 HD 
ENDBRANCH  18  19
ENDBRANCH  17  18
ENDBRANCH  15  17
ENDBRANCH  13  15
ENDBRANCH   5  13
ENDBRANCH   2   3
TORSDOF 6
ENDMDL
MODEL       51
REMARK 921   NORMALIZED FREE ENERGY PREDICTED BY IDOCK:   -4.90 KCAL/MOL
REMARK 922        TOTAL FREE ENERGY PREDICTED BY IDOCK:   -7.09 KCAL/MOL
REMARK 923 INTER-LIGAND FREE ENERGY PREDICTED BY IDOCK:   -6.89 KCAL/MOL
REMARK 924 INTRA-LIGAND FREE ENERGY PREDICTED BY IDOCK:   -0.20 KCAL/MOL
REMARK 927      BINDING AFFINITY PREDICTED BY RF-SCORE:    0.00 PKD
ROOT
HETATM    1  C   UNL     1      -6.379  21.128  62.770  1.00  0.00    -0.188 C  
HETATM    2  O   UNL     1      -5.509  21.331  63.875  1.00  0.00    -0.217 OA 
ENDROOT
BRANCH   2   3
HETATM    3  C   UNL     1      -5.922  20.859  65.090  1.00  0.00    -0.242 A  
HETATM    4  C   UNL     1      -7.015  19.999  65.032  1.00  0.00    -0.165 A  
HETATM    5  C   UNL     1      -7.543  19.393  66.182  1.00  0.00    -0.297 A  
HETATM    6  C   UNL     1      -5.946  20.457  69.907  1.00  0.00    -0.383 A  
HETATM    7  C   UNL     1      -7.002  19.719  67.451  1.00  0.00    -0.219 A  
HETATM    8  C   UNL     1      -5.373  20.962  68.751  1.00  0.00    -0.379 A  
HETATM    9  C   UNL     1      -5.355  21.153  66.323  1.00  0.00    -0.260 A  
HETATM   10  N   UNL     1      -7.537  19.208  68.586  1.00  0.00    -0.333 NA 
HETATM   11  C   UNL     1      -7.015  19.594  69.773  1.00  0.00    -0.158 A  
HETATM   12  C   UNL     1      -5.905  20.614  67.497  1.00  0.00    -0.273 A  
BRANCH   5  13
HETATM   13  N   UNL     1      -8.554  18.408  66.079  1.00  0.00    -0.511 NA 
HETATM   14  H   UNL     1      -8.382  17.559  65.541  1.00  0.00     0.000 HD 
BRANCH  13  15
HETATM   15  C   UNL     1      -9.846  18.604  66.742  1.00  0.00    -0.341 C  
HETATM   16  C   UNL     1     -10.529  19.836  66.139  1.00  0.00    -0.613 C  
BRANCH  15  17
HETATM   17  C   UNL     1     -10.753  17.375  66.521  1.00  0.00    -0.086 C  
BRANCH  17  18
HETATM   18  C   UNL     1     -10.044  16.132  65.963  1.00  0.00    -0.372 C  
BRANCH  18  19
HETATM   19  C   UNL     1     -10.753  15.433  64.803  1.00  0.00    -0.314 C  
HETATM   20  H1  UNL     1     -12.083  15.877  63.276  1.00  0.00     0.000 HD 
HETATM   21  N   UNL     1     -11.609  16.343  64.050  1.00  0.00    -1.542 NA 
HETATM   22  H2  UNL     1     -11.088  17.158  63.726  1.00  0.00     0.000 HD 
ENDBRANCH  18  19
ENDBRANCH  17  18
ENDBRANCH  15  17
ENDBRANCH  13  15
ENDBRANCH   5  13
ENDBRANCH   2   3
TORSDOF 6
ENDMDL
MODEL       52
REMARK 921   NORMALIZED FREE ENERGY PREDICTED BY IDOCK:   -4.90 KCAL/MOL
REMARK 922        TOTAL FREE ENERGY PREDICTED BY IDOCK:   -7.09 KCAL/MOL
REMARK 923 INTER-LIGAND FREE ENERGY PREDICTED BY IDOCK:   -6.82 KCAL/MOL
REMARK 924 INTRA-LIGAND FREE ENERGY PREDICTED BY IDOCK:   -0.26 KCAL/MOL
REMARK 927      BINDING AFFINITY PREDICTED BY RF-SCORE:    0.00 PKD
ROOT
HETATM    1  C   UNL     1      -9.916   5.876  68.287  1.00  0.00    -0.146 C  
HETATM    2  O   UNL     1      -9.328   7.136  68.581  1.00  0.00    -0.136 OA 
ENDROOT
BRANCH   2   3
HETATM    3  C   UNL     1     -10.119   8.064  69.200  1.00  0.00    -0.201 A  
HETATM    4  C   UNL     1      -9.942   9.368  68.744  1.00  0.00    -0.191 A  
HETATM    5  C   UNL     1     -10.701  10.437  69.245  1.00  0.00    -0.237 A  
HETATM    6  C   UNL     1     -13.352   9.694  72.403  1.00  0.00    -0.426 A  
HETATM    7  C   UNL     1     -11.623  10.205  70.296  1.00  0.00    -0.302 A  
HETATM    8  C   UNL     1     -12.669   8.636  71.823  1.00  0.00    -0.401 A  
HETATM    9  C   UNL     1     -11.049   7.816  70.200  1.00  0.00    -0.216 A  
HETATM   10  N   UNL     1     -12.316  11.227  70.850  1.00  0.00    -0.387 NA 
HETATM   11  C   UNL     1     -13.143  10.957  71.887  1.00  0.00    -0.432 A  
HETATM   12  C   UNL     1     -11.775   8.877  70.766  1.00  0.00    -0.269 A  
BRANCH   5  13
HETATM   13  N   UNL     1     -10.609  11.722  68.659  1.00  0.00    -0.218 NA 
HETATM   14  H   UNL     1      -9.776  12.291  68.811  1.00  0.00     0.000 HD 
BRANCH  13  15
HETATM   15  C   UNL     1     -11.706  12.239  67.836  1.00  0.00    -0.347 C  
HETATM   16  C   UNL     1     -11.827  13.749  68.068  1.00  0.00    -0.408 C  
BRANCH  15  17
HETATM   17  C   UNL     1     -11.418  11.988  66.341  1.00  0.00    -0.417 C  
BRANCH  17  18
HETATM   18  C   UNL     1     -12.341  12.733  65.365  1.00  0.00    -0.528 C  
BRANCH  18  19
HETATM   19  C   UNL     1     -11.723  13.082  64.011  1.00  0.00    -0.436 C  
HETATM   20  H1  UNL     1     -11.882  14.531  62.537  1.00  0.00     0.000 HD 
HETATM   21  N   UNL     1     -12.294  14.297  63.440  1.00  0.00    -1.126 NA 
HETATM   22  H2  UNL     1     -12.222  15.080  64.090  1.00  0.00     0.000 HD 
ENDBRANCH  18  19
ENDBRANCH  17  18
ENDBRANCH  15  17
ENDBRANCH  13  15
ENDBRANCH   5  13
ENDBRANCH   2   3
TORSDOF 6
ENDMDL
MODEL       53
REMARK 921   NORMALIZED FREE ENERGY PREDICTED BY IDOCK:   -4.90 KCAL/MOL
REMARK 922        TOTAL FREE ENERGY PREDICTED BY IDOCK:   -7.08 KCAL/MOL
REMARK 923 INTER-LIGAND FREE ENERGY PREDICTED BY IDOCK:   -6.51 KCAL/MOL
REMARK 924 INTRA-LIGAND FREE ENERGY PREDICTED BY IDOCK:   -0.58 KCAL/MOL
REMARK 927      BINDING AFFINITY PREDICTED BY RF-SCORE:    0.00 PKD
ROOT
HETATM    1  C   UNL     1     -11.827  14.971  64.269  1.00  0.00    -0.275 C  
HETATM    2  O   UNL     1     -11.378  13.807  64.949  1.00  0.00    -0.324 OA 
ENDROOT
BRANCH   2   3
HETATM    3  C   UNL     1     -11.572  13.761  66.302  1.00  0.00    -0.350 A  
HETATM    4  C   UNL     1     -11.738  12.478  66.817  1.00  0.00    -0.453 A  
HETATM    5  C   UNL     1     -11.909  12.248  68.191  1.00  0.00    -0.311 A  
HETATM    6  C   UNL     1     -12.219  15.556  70.744  1.00  0.00    -0.450 A  
HETATM    7  C   UNL     1     -11.991  13.351  69.077  1.00  0.00    -0.315 A  
HETATM    8  C   UNL     1     -11.946  15.756  69.400  1.00  0.00    -0.321 A  
HETATM    9  C   UNL     1     -11.608  14.848  67.165  1.00  0.00    -0.327 A  
HETATM   10  N   UNL     1     -12.230  13.166  70.397  1.00  0.00    -0.345 NA 
HETATM   11  C   UNL     1     -12.352  14.257  71.188  1.00  0.00    -0.368 A  
HETATM   12  C   UNL     1     -11.845  14.652  68.536  1.00  0.00    -0.346 A  
BRANCH   5  13
HETATM   13  N   UNL     1     -11.923  10.930  68.704  1.00  0.00    -0.727 NA 
HETATM   14  H   UNL     1     -12.801  10.413  68.754  1.00  0.00     0.000 HD 
BRANCH  13  15
HETATM   15  C   UNL     1     -10.680  10.303  69.164  1.00  0.00    -0.228 C  
HETATM   16  C   UNL     1     -10.931   9.654  70.530  1.00  0.00    -0.374 C  
BRANCH  15  17
HETATM   17  C   UNL     1     -10.232   9.211  68.170  1.00  0.00    -0.249 C  
BRANCH  17  18
HETATM   18  C   UNL     1      -9.070   9.606  67.247  1.00  0.00    -0.150 C  
BRANCH  18  19
HETATM   19  C   UNL     1      -9.374   9.565  65.750  1.00  0.00    -0.233 C  
HETATM   20  H1  UNL     1      -9.464   8.190  64.201  1.00  0.00     0.000 HD 
HETATM   21  N   UNL     1      -9.261   8.218  65.200  1.00  0.00    -0.361 NA 
HETATM   22  H2  UNL     1      -9.846   7.560  65.713  1.00  0.00     0.000 HD 
ENDBRANCH  18  19
ENDBRANCH  17  18
ENDBRANCH  15  17
ENDBRANCH  13  15
ENDBRANCH   5  13
ENDBRANCH   2   3
TORSDOF 6
ENDMDL
MODEL       54
REMARK 921   NORMALIZED FREE ENERGY PREDICTED BY IDOCK:   -4.89 KCAL/MOL
REMARK 922        TOTAL FREE ENERGY PREDICTED BY IDOCK:   -7.08 KCAL/MOL
REMARK 923 INTER-LIGAND FREE ENERGY PREDICTED BY IDOCK:   -6.35 KCAL/MOL
REMARK 924 INTRA-LIGAND FREE ENERGY PREDICTED BY IDOCK:   -0.73 KCAL/MOL
REMARK 927      BINDING AFFINITY PREDICTED BY RF-SCORE:    0.00 PKD
ROOT
HETATM    1  C   UNL     1      -8.017   8.228  63.666  1.00  0.00    -0.153 C  
HETATM    2  O   UNL     1      -8.426   8.491  65.002  1.00  0.00    -0.173 OA 
ENDROOT
BRANCH   2   3
HETATM    3  C   UNL     1      -9.333   9.496  65.190  1.00  0.00    -0.252 A  
HETATM    4  C   UNL     1     -10.029   9.425  66.394  1.00  0.00    -0.346 A  
HETATM    5  C   UNL     1     -10.970  10.398  66.764  1.00  0.00    -0.046 A  
HETATM    6  C   UNL     1     -11.896  13.423  64.017  1.00  0.00    -0.498 A  
HETATM    7  C   UNL     1     -11.280  11.446  65.862  1.00  0.00    -0.107 A  
HETATM    8  C   UNL     1     -10.896  12.512  63.716  1.00  0.00    -0.489 A  
HETATM    9  C   UNL     1      -9.597  10.541  64.315  1.00  0.00    -0.364 A  
HETATM   10  N   UNL     1     -12.236  12.358  66.158  1.00  0.00    -0.609 NA 
HETATM   11  C   UNL     1     -12.530  13.305  65.237  1.00  0.00    -0.489 A  
HETATM   12  C   UNL     1     -10.582  11.492  64.630  1.00  0.00    -0.369 A  
BRANCH   5  13
HETATM   13  N   UNL     1     -11.550  10.386  68.055  1.00  0.00    -0.712 NA 
HETATM   14  H   UNL     1     -12.419   9.876  68.216  1.00  0.00     0.000 HD 
BRANCH  13  15
HETATM   15  C   UNL     1     -10.907  11.101  69.161  1.00  0.00    -0.238 C  
HETATM   16  C   UNL     1     -11.877  11.149  70.347  1.00  0.00    -0.462 C  
BRANCH  15  17
HETATM   17  C   UNL     1      -9.623  10.368  69.600  1.00  0.00    -0.142 C  
BRANCH  17  18
HETATM   18  C   UNL     1      -9.844   9.155  70.515  1.00  0.00    -0.285 C  
BRANCH  18  19
HETATM   19  C   UNL     1      -9.820   7.793  69.821  1.00  0.00    -0.178 C  
HETATM   20  H1  UNL     1     -11.132   6.458  68.931  1.00  0.00     0.000 HD 
HETATM   21  N   UNL     1     -11.148   7.367  69.394  1.00  0.00    -0.441 NA 
HETATM   22  H2  UNL     1     -11.590   8.072  68.805  1.00  0.00     0.000 HD 
ENDBRANCH  18  19
ENDBRANCH  17  18
ENDBRANCH  15  17
ENDBRANCH  13  15
ENDBRANCH   5  13
ENDBRANCH   2   3
TORSDOF 6
ENDMDL
MODEL       55
REMARK 921   NORMALIZED FREE ENERGY PREDICTED BY IDOCK:   -4.84 KCAL/MOL
REMARK 922        TOTAL FREE ENERGY PREDICTED BY IDOCK:   -7.01 KCAL/MOL
REMARK 923 INTER-LIGAND FREE ENERGY PREDICTED BY IDOCK:   -6.03 KCAL/MOL
REMARK 924 INTRA-LIGAND FREE ENERGY PREDICTED BY IDOCK:   -0.98 KCAL/MOL
REMARK 927      BINDING AFFINITY PREDICTED BY RF-SCORE:    0.00 PKD
ROOT
HETATM    1  C   UNL     1     -12.594  11.976  63.449  1.00  0.00    -0.469 C  
HETATM    2  O   UNL     1     -13.062  12.691  64.584  1.00  0.00    -0.821 OA 
ENDROOT
BRANCH   2   3
HETATM    3  C   UNL     1     -12.128  13.093  65.497  1.00  0.00    -0.442 A  
HETATM    4  C   UNL     1     -10.991  12.291  65.550  1.00  0.00    -0.337 A  
HETATM    5  C   UNL     1      -9.917  12.584  66.404  1.00  0.00    -0.252 A  
HETATM    6  C   UNL     1     -10.304  15.799  69.064  1.00  0.00    -0.223 A  
HETATM    7  C   UNL     1     -10.015  13.682  67.295  1.00  0.00    -0.240 A  
HETATM    8  C   UNL     1     -11.308  15.554  68.140  1.00  0.00    -0.348 A  
HETATM    9  C   UNL     1     -12.218  14.197  66.334  1.00  0.00    -0.473 A  
HETATM   10  N   UNL     1      -9.028  13.947  68.183  1.00  0.00    -0.180 NA 
HETATM   11  C   UNL     1      -9.197  14.975  69.046  1.00  0.00    -0.205 A  
HETATM   12  C   UNL     1     -11.188  14.476  67.247  1.00  0.00    -0.341 A  
BRANCH   5  13
HETATM   13  N   UNL     1      -8.714  11.843  66.330  1.00  0.00    -0.365 NA 
HETATM   14  H   UNL     1      -7.833  12.275  66.609  1.00  0.00     0.000 HD 
BRANCH  13  15
HETATM   15  C   UNL     1      -8.728  10.457  65.852  1.00  0.00    -0.158 C  
HETATM   16  C   UNL     1      -7.410  10.173  65.124  1.00  0.00    -0.141 C  
BRANCH  15  17
HETATM   17  C   UNL     1      -8.859   9.482  67.041  1.00  0.00    -0.139 C  
BRANCH  17  18
HETATM   18  C   UNL     1     -10.255   9.413  67.677  1.00  0.00    -0.281 C  
BRANCH  18  19
HETATM   19  C   UNL     1     -10.406  10.138  69.015  1.00  0.00    -0.212 C  
HETATM   20  H1  UNL     1      -9.300  11.352  70.279  1.00  0.00     0.000 HD 
HETATM   21  N   UNL     1      -9.199  10.869  69.387  1.00  0.00    -0.406 NA 
HETATM   22  H2  UNL     1      -8.915  11.512  68.649  1.00  0.00     0.000 HD 
ENDBRANCH  18  19
ENDBRANCH  17  18
ENDBRANCH  15  17
ENDBRANCH  13  15
ENDBRANCH   5  13
ENDBRANCH   2   3
TORSDOF 6
ENDMDL
MODEL       56
REMARK 921   NORMALIZED FREE ENERGY PREDICTED BY IDOCK:   -4.84 KCAL/MOL
REMARK 922        TOTAL FREE ENERGY PREDICTED BY IDOCK:   -7.01 KCAL/MOL
REMARK 923 INTER-LIGAND FREE ENERGY PREDICTED BY IDOCK:   -6.47 KCAL/MOL
REMARK 924 INTRA-LIGAND FREE ENERGY PREDICTED BY IDOCK:   -0.54 KCAL/MOL
REMARK 927      BINDING AFFINITY PREDICTED BY RF-SCORE:    0.00 PKD
ROOT
HETATM    1  C   UNL     1      -6.524  14.541  68.150  1.00  0.00    -0.139 C  
HETATM    2  O   UNL     1      -7.730  15.262  68.362  1.00  0.00    -0.118 OA 
ENDROOT
BRANCH   2   3
HETATM    3  C   UNL     1      -8.856  14.787  67.749  1.00  0.00    -0.175 A  
HETATM    4  C   UNL     1      -9.945  14.614  68.598  1.00  0.00    -0.234 A  
HETATM    5  C   UNL     1     -11.190  14.171  68.125  1.00  0.00    -0.276 A  
HETATM    6  C   UNL     1     -11.517  13.071  64.095  1.00  0.00    -0.452 A  
HETATM    7  C   UNL     1     -11.331  13.818  66.760  1.00  0.00    -0.330 A  
HETATM    8  C   UNL     1     -10.327  13.609  64.561  1.00  0.00    -0.355 A  
HETATM    9  C   UNL     1      -8.993  14.485  66.400  1.00  0.00    -0.153 A  
HETATM   10  N   UNL     1     -12.498  13.318  66.289  1.00  0.00    -0.359 NA 
HETATM   11  C   UNL     1     -12.561  12.947  64.989  1.00  0.00    -0.472 A  
HETATM   12  C   UNL     1     -10.208  13.976  65.912  1.00  0.00    -0.332 A  
BRANCH   5  13
HETATM   13  N   UNL     1     -12.319  14.149  68.979  1.00  0.00    -0.537 NA 
HETATM   14  H   UNL     1     -13.253  14.040  68.583  1.00  0.00     0.000 HD 
BRANCH  13  15
HETATM   15  C   UNL     1     -12.152  14.282  70.428  1.00  0.00    -0.339 C  
HETATM   16  C   UNL     1     -12.825  15.581  70.885  1.00  0.00    -0.535 C  
BRANCH  15  17
HETATM   17  C   UNL     1     -12.817  13.095  71.156  1.00  0.00    -0.349 C  
BRANCH  17  18
HETATM   18  C   UNL     1     -12.465  11.708  70.599  1.00  0.00    -0.386 C  
BRANCH  18  19
HETATM   19  C   UNL     1     -12.757  10.531  71.529  1.00  0.00    -0.452 C  
HETATM   20  H1  UNL     1     -12.701   8.459  71.509  1.00  0.00     0.000 HD 
HETATM   21  N   UNL     1     -12.506   9.244  70.888  1.00  0.00    -0.475 NA 
HETATM   22  H2  UNL     1     -11.557   9.195  70.519  1.00  0.00     0.000 HD 
ENDBRANCH  18  19
ENDBRANCH  17  18
ENDBRANCH  15  17
ENDBRANCH  13  15
ENDBRANCH   5  13
ENDBRANCH   2   3
TORSDOF 6
ENDMDL
MODEL       57
REMARK 921   NORMALIZED FREE ENERGY PREDICTED BY IDOCK:   -4.83 KCAL/MOL
REMARK 922        TOTAL FREE ENERGY PREDICTED BY IDOCK:   -6.99 KCAL/MOL
REMARK 923 INTER-LIGAND FREE ENERGY PREDICTED BY IDOCK:   -6.51 KCAL/MOL
REMARK 924 INTRA-LIGAND FREE ENERGY PREDICTED BY IDOCK:   -0.49 KCAL/MOL
REMARK 927      BINDING AFFINITY PREDICTED BY RF-SCORE:    0.00 PKD
ROOT
HETATM    1  C   UNL     1      -9.944   3.355  74.055  1.00  0.00    -0.123 C  
HETATM    2  O   UNL     1     -10.631   4.572  73.795  1.00  0.00    -0.200 OA 
ENDROOT
BRANCH   2   3
HETATM    3  C   UNL     1     -10.697   4.985  72.493  1.00  0.00    -0.212 A  
HETATM    4  C   UNL     1     -11.567   6.049  72.271  1.00  0.00    -0.359 A  
HETATM    5  C   UNL     1     -11.726   6.622  70.999  1.00  0.00    -0.360 A  
HETATM    6  C   UNL     1      -9.737   4.866  67.757  1.00  0.00    -0.199 A  
HETATM    7  C   UNL     1     -11.043   6.060  69.892  1.00  0.00    -0.399 A  
HETATM    8  C   UNL     1      -9.513   4.382  69.036  1.00  0.00    -0.237 A  
HETATM    9  C   UNL     1      -9.990   4.453  71.424  1.00  0.00    -0.248 A  
HETATM   10  N   UNL     1     -11.233   6.543  68.641  1.00  0.00    -0.267 NA 
HETATM   11  C   UNL     1     -10.597   5.935  67.613  1.00  0.00    -0.262 A  
HETATM   12  C   UNL     1     -10.180   4.963  70.129  1.00  0.00    -0.310 A  
BRANCH   5  13
HETATM   13  N   UNL     1     -12.499   7.796  70.829  1.00  0.00    -0.523 NA 
HETATM   14  H   UNL     1     -13.274   7.802  70.166  1.00  0.00     0.000 HD 
BRANCH  13  15
HETATM   15  C   UNL     1     -12.190   9.002  71.602  1.00  0.00    -0.348 C  
HETATM   16  C   UNL     1     -10.681   9.262  71.529  1.00  0.00    -0.425 C  
BRANCH  15  17
HETATM   17  C   UNL     1     -12.933  10.220  71.015  1.00  0.00    -0.488 C  
BRANCH  17  18
HETATM   18  C   UNL     1     -12.039  11.411  70.639  1.00  0.00    -0.469 C  
BRANCH  18  19
HETATM   19  C   UNL     1     -12.009  11.769  69.153  1.00  0.00    -0.293 C  
HETATM   20  H1  UNL     1     -11.883  10.827  67.311  1.00  0.00     0.000 HD 
HETATM   21  N   UNL     1     -11.903  10.588  68.302  1.00  0.00    -0.785 NA 
HETATM   22  H2  UNL     1     -12.646   9.920  68.505  1.00  0.00     0.000 HD 
ENDBRANCH  18  19
ENDBRANCH  17  18
ENDBRANCH  15  17
ENDBRANCH  13  15
ENDBRANCH   5  13
ENDBRANCH   2   3
TORSDOF 6
ENDMDL
MODEL       58
REMARK 921   NORMALIZED FREE ENERGY PREDICTED BY IDOCK:   -4.82 KCAL/MOL
REMARK 922        TOTAL FREE ENERGY PREDICTED BY IDOCK:   -6.98 KCAL/MOL
REMARK 923 INTER-LIGAND FREE ENERGY PREDICTED BY IDOCK:   -6.75 KCAL/MOL
REMARK 924 INTRA-LIGAND FREE ENERGY PREDICTED BY IDOCK:   -0.23 KCAL/MOL
REMARK 927      BINDING AFFINITY PREDICTED BY RF-SCORE:    0.00 PKD
ROOT
HETATM    1  C   UNL     1      -6.321  13.941  69.177  1.00  0.00    -0.107 C  
HETATM    2  O   UNL     1      -6.572  15.177  69.833  1.00  0.00    -0.166 OA 
ENDROOT
BRANCH   2   3
HETATM    3  C   UNL     1      -7.552  15.973  69.310  1.00  0.00    -0.230 A  
HETATM    4  C   UNL     1      -8.738  15.306  69.012  1.00  0.00    -0.226 A  
HETATM    5  C   UNL     1      -9.859  15.981  68.505  1.00  0.00    -0.216 A  
HETATM    6  C   UNL     1      -9.496  20.055  67.598  1.00  0.00    -0.498 A  
HETATM    7  C   UNL     1      -9.768  17.365  68.214  1.00  0.00    -0.299 A  
HETATM    8  C   UNL     1      -8.435  19.393  68.196  1.00  0.00    -0.367 A  
HETATM    9  C   UNL     1      -7.463  17.338  69.069  1.00  0.00    -0.196 A  
HETATM   10  N   UNL     1     -10.808  18.028  67.656  1.00  0.00    -0.333 NA 
HETATM   11  C   UNL     1     -10.647  19.336  67.350  1.00  0.00    -0.487 A  
HETATM   12  C   UNL     1      -8.547  18.025  68.500  1.00  0.00    -0.306 A  
BRANCH   5  13
HETATM   13  N   UNL     1     -11.096  15.310  68.355  1.00  0.00    -0.273 NA 
HETATM   14  H   UNL     1     -11.383  14.974  67.436  1.00  0.00     0.000 HD 
BRANCH  13  15
HETATM   15  C   UNL     1     -11.966  15.096  69.515  1.00  0.00    -0.321 C  
HETATM   16  C   UNL     1     -12.083  13.590  69.773  1.00  0.00    -0.381 C  
BRANCH  15  17
HETATM   17  C   UNL     1     -11.367  15.770  70.766  1.00  0.00    -0.419 C  
BRANCH  17  18
HETATM   18  C   UNL     1     -12.373  16.082  71.884  1.00  0.00    -0.516 C  
BRANCH  18  19
HETATM   19  C   UNL     1     -12.014  15.535  73.266  1.00  0.00    -0.458 C  
HETATM   20  H1  UNL     1     -12.524  15.826  75.254  1.00  0.00     0.000 HD 
HETATM   21  N   UNL     1     -12.764  16.191  74.332  1.00  0.00    -0.952 NA 
HETATM   22  H2  UNL     1     -13.768  16.136  74.164  1.00  0.00     0.000 HD 
ENDBRANCH  18  19
ENDBRANCH  17  18
ENDBRANCH  15  17
ENDBRANCH  13  15
ENDBRANCH   5  13
ENDBRANCH   2   3
TORSDOF 6
ENDMDL
MODEL       59
REMARK 921   NORMALIZED FREE ENERGY PREDICTED BY IDOCK:   -4.81 KCAL/MOL
REMARK 922        TOTAL FREE ENERGY PREDICTED BY IDOCK:   -6.97 KCAL/MOL
REMARK 923 INTER-LIGAND FREE ENERGY PREDICTED BY IDOCK:   -6.09 KCAL/MOL
REMARK 924 INTRA-LIGAND FREE ENERGY PREDICTED BY IDOCK:   -0.88 KCAL/MOL
REMARK 927      BINDING AFFINITY PREDICTED BY RF-SCORE:    0.00 PKD
ROOT
HETATM    1  C   UNL     1      -7.815   7.355  68.463  1.00  0.00    -0.122 C  
HETATM    2  O   UNL     1      -7.718   8.258  67.371  1.00  0.00    -0.099 OA 
ENDROOT
BRANCH   2   3
HETATM    3  C   UNL     1      -8.695   9.207  67.257  1.00  0.00    -0.117 A  
HETATM    4  C   UNL     1      -9.732   9.079  68.178  1.00  0.00    -0.172 A  
HETATM    5  C   UNL     1     -10.797   9.992  68.225  1.00  0.00    -0.241 A  
HETATM    6  C   UNL     1     -10.978  12.999  65.314  1.00  0.00    -0.307 A  
HETATM    7  C   UNL     1     -10.866  11.033  67.266  1.00  0.00    -0.281 A  
HETATM    8  C   UNL     1      -9.883  12.151  65.350  1.00  0.00    -0.231 A  
HETATM    9  C   UNL     1      -8.729  10.248  66.339  1.00  0.00    -0.144 A  
HETATM   10  N   UNL     1     -11.918  11.885  67.240  1.00  0.00    -0.599 NA 
HETATM   11  C   UNL     1     -11.959  12.827  66.269  1.00  0.00    -0.395 A  
HETATM   12  C   UNL     1      -9.816  11.137  66.321  1.00  0.00    -0.253 A  
BRANCH   5  13
HETATM   13  N   UNL     1     -11.755   9.927  69.265  1.00  0.00    -0.460 NA 
HETATM   14  H   UNL     1     -12.649   9.462  69.103  1.00  0.00     0.000 HD 
BRANCH  13  15
HETATM   15  C   UNL     1     -11.470  10.526  70.572  1.00  0.00    -0.345 C  
HETATM   16  C   UNL     1     -12.655  11.408  70.979  1.00  0.00    -0.487 C  
BRANCH  15  17
HETATM   17  C   UNL     1     -11.281   9.425  71.636  1.00  0.00    -0.431 C  
BRANCH  17  18
HETATM   18  C   UNL     1     -12.529   8.580  71.929  1.00  0.00    -0.402 C  
BRANCH  18  19
HETATM   19  C   UNL     1     -12.416   7.095  71.581  1.00  0.00    -0.370 C  
HETATM   20  H1  UNL     1     -11.922   5.892  69.967  1.00  0.00     0.000 HD 
HETATM   21  N   UNL     1     -11.997   6.882  70.199  1.00  0.00    -0.637 NA 
HETATM   22  H2  UNL     1     -11.128   7.375  69.997  1.00  0.00     0.000 HD 
ENDBRANCH  18  19
ENDBRANCH  17  18
ENDBRANCH  15  17
ENDBRANCH  13  15
ENDBRANCH   5  13
ENDBRANCH   2   3
TORSDOF 6
ENDMDL
MODEL       60
REMARK 921   NORMALIZED FREE ENERGY PREDICTED BY IDOCK:   -4.80 KCAL/MOL
REMARK 922        TOTAL FREE ENERGY PREDICTED BY IDOCK:   -6.95 KCAL/MOL
REMARK 923 INTER-LIGAND FREE ENERGY PREDICTED BY IDOCK:   -6.19 KCAL/MOL
REMARK 924 INTRA-LIGAND FREE ENERGY PREDICTED BY IDOCK:   -0.76 KCAL/MOL
REMARK 927      BINDING AFFINITY PREDICTED BY RF-SCORE:    0.00 PKD
ROOT
HETATM    1  C   UNL     1      -8.304  11.082  67.446  1.00  0.00    -0.126 C  
HETATM    2  O   UNL     1      -8.494  10.040  68.393  1.00  0.00    -0.109 OA 
ENDROOT
BRANCH   2   3
HETATM    3  C   UNL     1      -9.605  10.113  69.186  1.00  0.00    -0.212 A  
HETATM    4  C   UNL     1     -10.248  11.348  69.165  1.00  0.00    -0.084 A  
HETATM    5  C   UNL     1     -11.425  11.582  69.892  1.00  0.00    -0.260 A  
HETATM    6  C   UNL     1     -12.852   8.553  72.410  1.00  0.00    -0.373 A  
HETATM    7  C   UNL     1     -11.941  10.563  70.731  1.00  0.00    -0.370 A  
HETATM    8  C   UNL     1     -11.751   8.308  71.605  1.00  0.00    -0.341 A  
HETATM    9  C   UNL     1     -10.124   9.092  69.971  1.00  0.00    -0.215 A  
HETATM   10  N   UNL     1     -13.033  10.783  71.500  1.00  0.00    -0.439 NA 
HETATM   11  C   UNL     1     -13.450   9.793  72.323  1.00  0.00    -0.349 A  
HETATM   12  C   UNL     1     -11.263   9.320  70.760  1.00  0.00    -0.351 A  
BRANCH   5  13
HETATM   13  N   UNL     1     -12.139  12.794  69.734  1.00  0.00    -0.275 NA 
HETATM   14  H   UNL     1     -13.160  12.786  69.738  1.00  0.00     0.000 HD 
BRANCH  13  15
HETATM   15  C   UNL     1     -11.420  14.060  69.566  1.00  0.00    -0.275 C  
HETATM   16  C   UNL     1     -11.763  14.643  68.191  1.00  0.00    -0.360 C  
BRANCH  15  17
HETATM   17  C   UNL     1     -11.847  15.067  70.654  1.00  0.00    -0.364 C  
BRANCH  17  18
HETATM   18  C   UNL     1     -13.308  14.953  71.112  1.00  0.00    -0.480 C  
BRANCH  18  19
HETATM   19  C   UNL     1     -13.512  14.458  72.545  1.00  0.00    -0.497 C  
HETATM   20  H1  UNL     1     -14.287  12.816  73.546  1.00  0.00     0.000 HD 
HETATM   21  N   UNL     1     -14.151  13.147  72.591  1.00  0.00    -0.710 NA 
HETATM   22  H2  UNL     1     -13.634  12.465  72.035  1.00  0.00     0.000 HD 
ENDBRANCH  18  19
ENDBRANCH  17  18
ENDBRANCH  15  17
ENDBRANCH  13  15
ENDBRANCH   5  13
ENDBRANCH   2   3
TORSDOF 6
ENDMDL
MODEL       61
REMARK 921   NORMALIZED FREE ENERGY PREDICTED BY IDOCK:   -4.77 KCAL/MOL
REMARK 922        TOTAL FREE ENERGY PREDICTED BY IDOCK:   -6.91 KCAL/MOL
REMARK 923 INTER-LIGAND FREE ENERGY PREDICTED BY IDOCK:   -5.90 KCAL/MOL
REMARK 924 INTRA-LIGAND FREE ENERGY PREDICTED BY IDOCK:   -1.01 KCAL/MOL
REMARK 927      BINDING AFFINITY PREDICTED BY RF-SCORE:    0.00 PKD
ROOT
HETATM    1  C   UNL     1      -7.978   8.151  64.912  1.00  0.00    -0.145 C  
HETATM    2  O   UNL     1      -9.007   9.074  64.580  1.00  0.00    -0.174 OA 
ENDROOT
BRANCH   2   3
HETATM    3  C   UNL     1      -9.704   9.630  65.616  1.00  0.00    -0.293 A  
HETATM    4  C   UNL     1     -10.327  10.837  65.309  1.00  0.00    -0.327 A  
HETATM    5  C   UNL     1     -11.115  11.522  66.246  1.00  0.00    -0.263 A  
HETATM    6  C   UNL     1     -11.336  10.017  70.150  1.00  0.00    -0.357 A  
HETATM    7  C   UNL     1     -11.225  11.018  67.566  1.00  0.00    -0.302 A  
HETATM    8  C   UNL     1     -10.649   9.302  69.182  1.00  0.00    -0.228 A  
HETATM    9  C   UNL     1      -9.839   9.103  66.894  1.00  0.00    -0.280 A  
HETATM   10  N   UNL     1     -11.918  11.695  68.513  1.00  0.00    -0.493 NA 
HETATM   11  C   UNL     1     -11.946  11.195  69.770  1.00  0.00    -0.357 A  
HETATM   12  C   UNL     1     -10.567   9.802  67.871  1.00  0.00    -0.310 A  
BRANCH   5  13
HETATM   13  N   UNL     1     -11.859  12.664  65.864  1.00  0.00    -0.429 NA 
HETATM   14  H   UNL     1     -12.870  12.682  66.001  1.00  0.00     0.000 HD 
BRANCH  13  15
HETATM   15  C   UNL     1     -11.183  13.822  65.272  1.00  0.00    -0.307 C  
HETATM   16  C   UNL     1     -12.242  14.779  64.713  1.00  0.00    -0.356 C  
BRANCH  15  17
HETATM   17  C   UNL     1     -10.357  14.566  66.342  1.00  0.00    -0.296 C  
BRANCH  17  18
HETATM   18  C   UNL     1     -11.175  15.177  67.489  1.00  0.00    -0.331 C  
BRANCH  18  19
HETATM   19  C   UNL     1     -10.621  14.938  68.894  1.00  0.00    -0.247 C  
HETATM   20  H1  UNL     1      -9.237  13.729  69.853  1.00  0.00     0.000 HD 
HETATM   21  N   UNL     1      -9.607  13.889  68.917  1.00  0.00    -0.406 NA 
HETATM   22  H2  UNL     1      -8.857  14.086  68.254  1.00  0.00     0.000 HD 
ENDBRANCH  18  19
ENDBRANCH  17  18
ENDBRANCH  15  17
ENDBRANCH  13  15
ENDBRANCH   5  13
ENDBRANCH   2   3
TORSDOF 6
ENDMDL
MODEL       62
REMARK 921   NORMALIZED FREE ENERGY PREDICTED BY IDOCK:   -4.76 KCAL/MOL
REMARK 922        TOTAL FREE ENERGY PREDICTED BY IDOCK:   -6.90 KCAL/MOL
REMARK 923 INTER-LIGAND FREE ENERGY PREDICTED BY IDOCK:   -6.37 KCAL/MOL
REMARK 924 INTRA-LIGAND FREE ENERGY PREDICTED BY IDOCK:   -0.53 KCAL/MOL
REMARK 927      BINDING AFFINITY PREDICTED BY RF-SCORE:    0.00 PKD
ROOT
HETATM    1  C   UNL     1     -10.604   8.438  66.930  1.00  0.00    -0.215 C  
HETATM    2  O   UNL     1     -10.578   9.766  66.425  1.00  0.00    -0.159 OA 
ENDROOT
BRANCH   2   3
HETATM    3  C   UNL     1     -11.025  10.758  67.254  1.00  0.00    -0.297 A  
HETATM    4  C   UNL     1     -11.078  12.019  66.666  1.00  0.00    -0.358 A  
HETATM    5  C   UNL     1     -11.550  13.141  67.364  1.00  0.00    -0.356 A  
HETATM    6  C   UNL     1     -12.537  12.704  71.412  1.00  0.00    -0.304 A  
HETATM    7  C   UNL     1     -11.914  13.012  68.728  1.00  0.00    -0.266 A  
HETATM    8  C   UNL     1     -12.169  11.589  70.677  1.00  0.00    -0.473 A  
HETATM    9  C   UNL     1     -11.419  10.609  68.577  1.00  0.00    -0.333 A  
HETATM   10  N   UNL     1     -12.303  14.090  69.449  1.00  0.00    -0.287 NA 
HETATM   11  C   UNL     1     -12.588  13.918  70.760  1.00  0.00    -0.354 A  
HETATM   12  C   UNL     1     -11.832  11.727  69.319  1.00  0.00    -0.389 A  
BRANCH   5  13
HETATM   13  N   UNL     1     -11.737  14.377  66.700  1.00  0.00    -0.385 NA 
HETATM   14  H   UNL     1     -12.300  15.108  67.136  1.00  0.00     0.000 HD 
BRANCH  13  15
HETATM   15  C   UNL     1     -11.126  14.610  65.388  1.00  0.00    -0.348 C  
HETATM   16  C   UNL     1     -12.218  14.537  64.315  1.00  0.00    -0.441 C  
BRANCH  15  17
HETATM   17  C   UNL     1     -10.476  16.009  65.341  1.00  0.00    -0.415 C  
BRANCH  17  18
HETATM   18  C   UNL     1      -9.261  16.195  66.262  1.00  0.00    -0.366 C  
BRANCH  18  19
HETATM   19  C   UNL     1      -9.150  17.562  66.938  1.00  0.00    -0.254 C  
HETATM   20  H1  UNL     1     -10.311  18.858  68.064  1.00  0.00     0.000 HD 
HETATM   21  N   UNL     1     -10.385  17.946  67.613  1.00  0.00    -0.365 NA 
HETATM   22  H2  UNL     1     -10.680  17.230  68.277  1.00  0.00     0.000 HD 
ENDBRANCH  18  19
ENDBRANCH  17  18
ENDBRANCH  15  17
ENDBRANCH  13  15
ENDBRANCH   5  13
ENDBRANCH   2   3
TORSDOF 6
ENDMDL
MODEL       63
REMARK 921   NORMALIZED FREE ENERGY PREDICTED BY IDOCK:   -4.76 KCAL/MOL
REMARK 922        TOTAL FREE ENERGY PREDICTED BY IDOCK:   -6.89 KCAL/MOL
REMARK 923 INTER-LIGAND FREE ENERGY PREDICTED BY IDOCK:   -6.55 KCAL/MOL
REMARK 924 INTRA-LIGAND FREE ENERGY PREDICTED BY IDOCK:   -0.35 KCAL/MOL
REMARK 927      BINDING AFFINITY PREDICTED BY RF-SCORE:    0.00 PKD
ROOT
HETATM    1  C   UNL     1      -9.064  10.008  64.576  1.00  0.00    -0.243 C  
HETATM    2  O   UNL     1      -9.283   9.094  65.642  1.00  0.00    -0.210 OA 
ENDROOT
BRANCH   2   3
HETATM    3  C   UNL     1      -9.929   9.570  66.749  1.00  0.00    -0.233 A  
HETATM    4  C   UNL     1     -10.576  10.788  66.559  1.00  0.00    -0.279 A  
HETATM    5  C   UNL     1     -11.320  11.399  67.580  1.00  0.00    -0.290 A  
HETATM    6  C   UNL     1     -11.327   9.626  71.376  1.00  0.00    -0.444 A  
HETATM    7  C   UNL     1     -11.358  10.804  68.866  1.00  0.00    -0.284 A  
HETATM    8  C   UNL     1     -10.686   8.987  70.327  1.00  0.00    -0.262 A  
HETATM    9  C   UNL     1      -9.994   8.955  67.992  1.00  0.00    -0.215 A  
HETATM   10  N   UNL     1     -12.005  11.406  69.892  1.00  0.00    -0.336 NA 
HETATM   11  C   UNL     1     -11.964  10.820  71.111  1.00  0.00    -0.258 A  
HETATM   12  C   UNL     1     -10.675   9.577  69.052  1.00  0.00    -0.224 A  
BRANCH   5  13
HETATM   13  N   UNL     1     -12.091  12.556  67.317  1.00  0.00    -0.480 NA 
HETATM   14  H   UNL     1     -13.108  12.490  67.278  1.00  0.00     0.000 HD 
BRANCH  13  15
HETATM   15  C   UNL     1     -11.434  13.848  67.101  1.00  0.00    -0.347 C  
HETATM   16  C   UNL     1      -9.994  13.762  67.618  1.00  0.00    -0.238 C  
BRANCH  15  17
HETATM   17  C   UNL     1     -11.402  14.188  65.596  1.00  0.00    -0.319 C  
BRANCH  17  18
HETATM   18  C   UNL     1     -12.447  13.456  64.740  1.00  0.00    -0.416 C  
BRANCH  18  19
HETATM   19  C   UNL     1     -11.977  13.033  63.347  1.00  0.00    -0.520 C  
HETATM   20  H1  UNL     1     -11.785  11.311  62.210  1.00  0.00     0.000 HD 
HETATM   21  N   UNL     1     -12.098  11.594  63.138  1.00  0.00    -0.950 NA 
HETATM   22  H2  UNL     1     -13.049  11.273  63.320  1.00  0.00     0.000 HD 
ENDBRANCH  18  19
ENDBRANCH  17  18
ENDBRANCH  15  17
ENDBRANCH  13  15
ENDBRANCH   5  13
ENDBRANCH   2   3
TORSDOF 6
ENDMDL
MODEL       64
REMARK 921   NORMALIZED FREE ENERGY PREDICTED BY IDOCK:   -4.73 KCAL/MOL
REMARK 922        TOTAL FREE ENERGY PREDICTED BY IDOCK:   -6.87 KCAL/MOL
REMARK 923 INTER-LIGAND FREE ENERGY PREDICTED BY IDOCK:   -6.52 KCAL/MOL
REMARK 924 INTRA-LIGAND FREE ENERGY PREDICTED BY IDOCK:   -0.35 KCAL/MOL
REMARK 927      BINDING AFFINITY PREDICTED BY RF-SCORE:    0.00 PKD
ROOT
HETATM    1  C   UNL     1     -10.446   7.130  73.722  1.00  0.00    -0.329 C  
HETATM    2  O   UNL     1     -11.385   7.917  73.003  1.00  0.00    -0.408 OA 
ENDROOT
BRANCH   2   3
HETATM    3  C   UNL     1     -11.154   8.099  71.668  1.00  0.00    -0.255 A  
HETATM    4  C   UNL     1     -10.988   9.428  71.288  1.00  0.00    -0.440 A  
HETATM    5  C   UNL     1     -10.705   9.788  69.961  1.00  0.00    -0.283 A  
HETATM    6  C   UNL     1     -10.660   6.783  67.043  1.00  0.00    -0.405 A  
HETATM    7  C   UNL     1     -10.660   8.786  68.961  1.00  0.00    -0.171 A  
HETATM    8  C   UNL     1     -10.834   6.438  68.374  1.00  0.00    -0.383 A  
HETATM    9  C   UNL     1     -11.070   7.102  70.705  1.00  0.00    -0.294 A  
HETATM   10  N   UNL     1     -10.462   9.109  67.661  1.00  0.00    -0.255 NA 
HETATM   11  C   UNL     1     -10.482   8.117  66.741  1.00  0.00    -0.246 A  
HETATM   12  C   UNL     1     -10.855   7.440  69.358  1.00  0.00    -0.184 A  
BRANCH   5  13
HETATM   13  N   UNL     1     -10.391  11.128  69.630  1.00  0.00    -0.440 NA 
HETATM   14  H   UNL     1      -9.427  11.456  69.699  1.00  0.00     0.000 HD 
BRANCH  13  15
HETATM   15  C   UNL     1     -11.444  12.047  69.189  1.00  0.00    -0.300 C  
HETATM   16  C   UNL     1     -12.008  12.775  70.413  1.00  0.00    -0.331 C  
BRANCH  15  17
HETATM   17  C   UNL     1     -10.868  13.092  68.211  1.00  0.00    -0.267 C  
BRANCH  17  18
HETATM   18  C   UNL     1     -11.858  13.618  67.161  1.00  0.00    -0.435 C  
BRANCH  18  19
HETATM   19  C   UNL     1     -11.647  13.099  65.738  1.00  0.00    -0.347 C  
HETATM   20  H1  UNL     1     -12.751  12.304  64.174  1.00  0.00     0.000 HD 
HETATM   21  N   UNL     1     -12.891  12.650  65.123  1.00  0.00    -0.743 NA 
HETATM   22  H2  UNL     1     -13.599  13.384  65.146  1.00  0.00     0.000 HD 
ENDBRANCH  18  19
ENDBRANCH  17  18
ENDBRANCH  15  17
ENDBRANCH  13  15
ENDBRANCH   5  13
ENDBRANCH   2   3
TORSDOF 6
ENDMDL
MODEL       65
REMARK 921   NORMALIZED FREE ENERGY PREDICTED BY IDOCK:   -4.73 KCAL/MOL
REMARK 922        TOTAL FREE ENERGY PREDICTED BY IDOCK:   -6.86 KCAL/MOL
REMARK 923 INTER-LIGAND FREE ENERGY PREDICTED BY IDOCK:   -6.35 KCAL/MOL
REMARK 924 INTRA-LIGAND FREE ENERGY PREDICTED BY IDOCK:   -0.50 KCAL/MOL
REMARK 927      BINDING AFFINITY PREDICTED BY RF-SCORE:    0.00 PKD
ROOT
HETATM    1  C   UNL     1     -10.414  19.542  66.195  1.00  0.00    -0.518 C  
HETATM    2  O   UNL     1     -10.433  18.246  65.614  1.00  0.00    -0.627 OA 
ENDROOT
BRANCH   2   3
HETATM    3  C   UNL     1      -9.553  17.325  66.112  1.00  0.00    -0.202 A  
HETATM    4  C   UNL     1     -10.126  16.098  66.436  1.00  0.00    -0.321 A  
HETATM    5  C   UNL     1      -9.359  15.029  66.923  1.00  0.00    -0.241 A  
HETATM    6  C   UNL     1      -5.291  15.677  67.689  1.00  0.00    -0.097 A  
HETATM    7  C   UNL     1      -7.976  15.217  67.166  1.00  0.00    -0.215 A  
HETATM    8  C   UNL     1      -6.045  16.686  67.110  1.00  0.00    -0.202 A  
HETATM    9  C   UNL     1      -8.191  17.509  66.305  1.00  0.00    -0.275 A  
HETATM   10  N   UNL     1      -7.224  14.228  67.704  1.00  0.00    -0.173 NA 
HETATM   11  C   UNL     1      -5.920  14.480  67.965  1.00  0.00    -0.151 A  
HETATM   12  C   UNL     1      -7.411  16.478  66.854  1.00  0.00    -0.256 A  
BRANCH   5  13
HETATM   13  N   UNL     1      -9.938  13.749  67.100  1.00  0.00    -0.239 NA 
HETATM   14  H   UNL     1     -10.308  13.481  68.012  1.00  0.00     0.000 HD 
BRANCH  13  15
HETATM   15  C   UNL     1     -10.007  12.808  65.979  1.00  0.00    -0.271 C  
HETATM   16  C   UNL     1      -9.238  11.536  66.355  1.00  0.00    -0.218 C  
BRANCH  15  17
HETATM   17  C   UNL     1     -11.474  12.433  65.684  1.00  0.00    -0.412 C  
BRANCH  17  18
HETATM   18  C   UNL     1     -12.464  13.607  65.701  1.00  0.00    -0.540 C  
BRANCH  18  19
HETATM   19  C   UNL     1     -12.517  14.443  64.422  1.00  0.00    -0.312 C  
HETATM   20  H1  UNL     1     -12.325  14.195  62.373  1.00  0.00     0.000 HD 
HETATM   21  N   UNL     1     -12.289  13.638  63.226  1.00  0.00    -1.080 NA 
HETATM   22  H2  UNL     1     -12.939  12.853  63.181  1.00  0.00     0.000 HD 
ENDBRANCH  18  19
ENDBRANCH  17  18
ENDBRANCH  15  17
ENDBRANCH  13  15
ENDBRANCH   5  13
ENDBRANCH   2   3
TORSDOF 6
ENDMDL
MODEL       66
REMARK 921   NORMALIZED FREE ENERGY PREDICTED BY IDOCK:   -4.69 KCAL/MOL
REMARK 922        TOTAL FREE ENERGY PREDICTED BY IDOCK:   -6.80 KCAL/MOL
REMARK 923 INTER-LIGAND FREE ENERGY PREDICTED BY IDOCK:   -6.52 KCAL/MOL
REMARK 924 INTRA-LIGAND FREE ENERGY PREDICTED BY IDOCK:   -0.28 KCAL/MOL
REMARK 927      BINDING AFFINITY PREDICTED BY RF-SCORE:    0.00 PKD
ROOT
HETATM    1  C   UNL     1     -12.138  15.190  64.214  1.00  0.00    -0.261 C  
HETATM    2  O   UNL     1     -12.174  13.842  63.765  1.00  0.00    -0.588 OA 
ENDROOT
BRANCH   2   3
HETATM    3  C   UNL     1     -11.588  12.902  64.565  1.00  0.00    -0.350 A  
HETATM    4  C   UNL     1     -12.021  12.921  65.888  1.00  0.00    -0.504 A  
HETATM    5  C   UNL     1     -11.550  11.997  66.835  1.00  0.00    -0.318 A  
HETATM    6  C   UNL     1      -8.543   9.318  65.683  1.00  0.00    -0.172 A  
HETATM    7  C   UNL     1     -10.551  11.064  66.461  1.00  0.00    -0.254 A  
HETATM    8  C   UNL     1      -9.096  10.167  64.739  1.00  0.00    -0.262 A  
HETATM    9  C   UNL     1     -10.640  11.965  64.175  1.00  0.00    -0.397 A  
HETATM   10  N   UNL     1     -10.024  10.210  67.369  1.00  0.00    -0.186 NA 
HETATM   11  C   UNL     1      -9.035   9.377  66.971  1.00  0.00    -0.130 A  
HETATM   12  C   UNL     1     -10.102  11.072  65.118  1.00  0.00    -0.346 A  
BRANCH   5  13
HETATM   13  N   UNL     1     -12.118  11.941  68.130  1.00  0.00    -0.486 NA 
HETATM   14  H   UNL     1     -13.002  11.454  68.277  1.00  0.00     0.000 HD 
BRANCH  13  15
HETATM   15  C   UNL     1     -11.440  12.580  69.262  1.00  0.00    -0.293 C  
HETATM   16  C   UNL     1     -11.609  14.099  69.144  1.00  0.00    -0.349 C  
BRANCH  15  17
HETATM   17  C   UNL     1     -12.064  12.112  70.593  1.00  0.00    -0.344 C  
BRANCH  17  18
HETATM   18  C   UNL     1     -11.893  10.618  70.904  1.00  0.00    -0.433 C  
BRANCH  18  19
HETATM   19  C   UNL     1     -13.124   9.921  71.485  1.00  0.00    -0.418 C  
HETATM   20  H1  UNL     1     -13.589   8.323  72.721  1.00  0.00     0.000 HD 
HETATM   21  N   UNL     1     -12.768   8.788  72.333  1.00  0.00    -0.426 NA 
HETATM   22  H2  UNL     1     -12.121   9.068  73.070  1.00  0.00     0.000 HD 
ENDBRANCH  18  19
ENDBRANCH  17  18
ENDBRANCH  15  17
ENDBRANCH  13  15
ENDBRANCH   5  13
ENDBRANCH   2   3
TORSDOF 6
ENDMDL
MODEL       67
REMARK 921   NORMALIZED FREE ENERGY PREDICTED BY IDOCK:   -4.66 KCAL/MOL
REMARK 922        TOTAL FREE ENERGY PREDICTED BY IDOCK:   -6.76 KCAL/MOL
REMARK 923 INTER-LIGAND FREE ENERGY PREDICTED BY IDOCK:   -6.47 KCAL/MOL
REMARK 924 INTRA-LIGAND FREE ENERGY PREDICTED BY IDOCK:   -0.30 KCAL/MOL
REMARK 927      BINDING AFFINITY PREDICTED BY RF-SCORE:    0.00 PKD
ROOT
HETATM    1  C   UNL     1     -10.338  20.006  66.609  1.00  0.00    -0.440 C  
HETATM    2  O   UNL     1     -10.359  18.874  65.751  1.00  0.00    -0.549 OA 
ENDROOT
BRANCH   2   3
HETATM    3  C   UNL     1      -9.822  17.714  66.236  1.00  0.00    -0.288 A  
HETATM    4  C   UNL     1     -10.319  16.557  65.641  1.00  0.00    -0.342 A  
HETATM    5  C   UNL     1      -9.847  15.283  65.993  1.00  0.00    -0.328 A  
HETATM    6  C   UNL     1      -7.084  14.973  69.127  1.00  0.00    -0.149 A  
HETATM    7  C   UNL     1      -8.893  15.155  67.033  1.00  0.00    -0.234 A  
HETATM    8  C   UNL     1      -7.484  16.227  68.693  1.00  0.00    -0.185 A  
HETATM    9  C   UNL     1      -8.856  17.606  67.227  1.00  0.00    -0.240 A  
HETATM   10  N   UNL     1      -8.473  13.936  67.446  1.00  0.00    -0.189 NA 
HETATM   11  C   UNL     1      -7.602  13.871  68.479  1.00  0.00    -0.134 A  
HETATM   12  C   UNL     1      -8.414  16.340  67.646  1.00  0.00    -0.178 A  
BRANCH   5  13
HETATM   13  N   UNL     1     -10.257  14.138  65.269  1.00  0.00    -0.419 NA 
HETATM   14  H   UNL     1      -9.827  13.925  64.369  1.00  0.00     0.000 HD 
BRANCH  13  15
HETATM   15  C   UNL     1     -11.297  13.256  65.808  1.00  0.00    -0.307 C  
HETATM   16  C   UNL     1     -12.188  14.066  66.756  1.00  0.00    -0.439 C  
BRANCH  15  17
HETATM   17  C   UNL     1     -12.168  12.695  64.665  1.00  0.00    -0.519 C  
BRANCH  17  18
HETATM   18  C   UNL     1     -11.427  12.442  63.343  1.00  0.00    -0.526 C  
BRANCH  18  19
HETATM   19  C   UNL     1     -10.414  11.297  63.365  1.00  0.00    -0.361 C  
HETATM   20  H1  UNL     1      -8.373  11.000  63.155  1.00  0.00     0.000 HD 
HETATM   21  N   UNL     1      -9.050  11.763  63.141  1.00  0.00    -0.642 NA 
HETATM   22  H2  UNL     1      -8.795  12.493  63.806  1.00  0.00     0.000 HD 
ENDBRANCH  18  19
ENDBRANCH  17  18
ENDBRANCH  15  17
ENDBRANCH  13  15
ENDBRANCH   5  13
ENDBRANCH   2   3
TORSDOF 6
ENDMDL
MODEL       68
REMARK 921   NORMALIZED FREE ENERGY PREDICTED BY IDOCK:   -4.66 KCAL/MOL
REMARK 922        TOTAL FREE ENERGY PREDICTED BY IDOCK:   -6.76 KCAL/MOL
REMARK 923 INTER-LIGAND FREE ENERGY PREDICTED BY IDOCK:   -6.45 KCAL/MOL
REMARK 924 INTRA-LIGAND FREE ENERGY PREDICTED BY IDOCK:   -0.31 KCAL/MOL
REMARK 927      BINDING AFFINITY PREDICTED BY RF-SCORE:    0.00 PKD
ROOT
HETATM    1  C   UNL     1     -10.753  16.256  66.587  1.00  0.00    -0.197 C  
HETATM    2  O   UNL     1     -10.996  16.432  67.976  1.00  0.00    -0.345 OA 
ENDROOT
BRANCH   2   3
HETATM    3  C   UNL     1     -11.342  15.323  68.695  1.00  0.00    -0.317 A  
HETATM    4  C   UNL     1     -10.872  14.124  68.166  1.00  0.00    -0.258 A  
HETATM    5  C   UNL     1     -11.104  12.893  68.800  1.00  0.00    -0.263 A  
HETATM    6  C   UNL     1     -13.529  12.835  72.216  1.00  0.00    -0.591 A  
HETATM    7  C   UNL     1     -11.900  12.852  69.972  1.00  0.00    -0.286 A  
HETATM    8  C   UNL     1     -13.201  14.049  71.634  1.00  0.00    -0.442 A  
HETATM    9  C   UNL     1     -12.088  15.301  69.866  1.00  0.00    -0.375 A  
HETATM   10  N   UNL     1     -12.203  11.673  70.565  1.00  0.00    -0.369 NA 
HETATM   11  C   UNL     1     -13.012  11.688  71.650  1.00  0.00    -0.378 A  
HETATM   12  C   UNL     1     -12.392  14.077  70.485  1.00  0.00    -0.437 A  
BRANCH   5  13
HETATM   13  N   UNL     1     -10.489  11.711  68.325  1.00  0.00    -0.196 NA 
HETATM   14  H   UNL     1      -9.577  11.431  68.689  1.00  0.00     0.000 HD 
BRANCH  13  15
HETATM   15  C   UNL     1     -11.154  10.886  67.312  1.00  0.00    -0.283 C  
HETATM   16  C   UNL     1     -10.988  11.556  65.944  1.00  0.00    -0.301 C  
BRANCH  15  17
HETATM   17  C   UNL     1     -10.516   9.483  67.259  1.00  0.00    -0.328 C  
BRANCH  17  18
HETATM   18  C   UNL     1     -10.525   8.712  68.588  1.00  0.00    -0.208 C  
BRANCH  18  19
HETATM   19  C   UNL     1     -10.705   7.198  68.470  1.00  0.00    -0.152 C  
HETATM   20  H1  UNL     1     -11.587   5.814  67.204  1.00  0.00     0.000 HD 
HETATM   21  N   UNL     1     -11.467   6.823  67.283  1.00  0.00    -0.729 NA 
HETATM   22  H2  UNL     1     -11.047   7.211  66.438  1.00  0.00     0.000 HD 
ENDBRANCH  18  19
ENDBRANCH  17  18
ENDBRANCH  15  17
ENDBRANCH  13  15
ENDBRANCH   5  13
ENDBRANCH   2   3
TORSDOF 6
ENDMDL
MODEL       69
REMARK 921   NORMALIZED FREE ENERGY PREDICTED BY IDOCK:   -4.64 KCAL/MOL
REMARK 922        TOTAL FREE ENERGY PREDICTED BY IDOCK:   -6.73 KCAL/MOL
REMARK 923 INTER-LIGAND FREE ENERGY PREDICTED BY IDOCK:   -6.43 KCAL/MOL
REMARK 924 INTRA-LIGAND FREE ENERGY PREDICTED BY IDOCK:   -0.30 KCAL/MOL
REMARK 927      BINDING AFFINITY PREDICTED BY RF-SCORE:    0.00 PKD
ROOT
HETATM    1  C   UNL     1     -11.688  10.679  70.300  1.00  0.00    -0.344 C  
HETATM    2  O   UNL     1     -11.929  11.991  69.811  1.00  0.00    -0.308 OA 
ENDROOT
BRANCH   2   3
HETATM    3  C   UNL     1     -11.563  12.252  68.520  1.00  0.00    -0.310 A  
HETATM    4  C   UNL     1     -11.508  13.606  68.200  1.00  0.00    -0.348 A  
HETATM    5  C   UNL     1     -11.112  14.051  66.929  1.00  0.00    -0.304 A  
HETATM    6  C   UNL     1     -10.370  11.193  63.957  1.00  0.00    -0.437 A  
HETATM    7  C   UNL     1     -10.831  13.102  65.915  1.00  0.00    -0.273 A  
HETATM    8  C   UNL     1     -10.661  10.775  65.246  1.00  0.00    -0.230 A  
HETATM    9  C   UNL     1     -11.249  11.312  67.547  1.00  0.00    -0.357 A  
HETATM   10  N   UNL     1     -10.519  13.499  64.659  1.00  0.00    -0.421 NA 
HETATM   11  C   UNL     1     -10.312  12.550  63.716  1.00  0.00    -0.388 A  
HETATM   12  C   UNL     1     -10.915  11.727  66.248  1.00  0.00    -0.346 A  
BRANCH   5  13
HETATM   13  N   UNL     1     -10.918  15.430  66.677  1.00  0.00    -0.304 NA 
HETATM   14  H   UNL     1     -11.610  15.949  66.136  1.00  0.00     0.000 HD 
BRANCH  13  15
HETATM   15  C   UNL     1      -9.728  16.114  67.189  1.00  0.00    -0.233 C  
HETATM   16  C   UNL     1      -8.521  15.181  67.043  1.00  0.00    -0.259 C  
BRANCH  15  17
HETATM   17  C   UNL     1      -9.461  17.402  66.381  1.00  0.00    -0.279 C  
BRANCH  17  18
HETATM   18  C   UNL     1      -9.403  18.693  67.212  1.00  0.00    -0.299 C  
BRANCH  18  19
HETATM   19  C   UNL     1      -9.893  18.570  68.655  1.00  0.00    -0.385 C  
HETATM   20  H1  UNL     1     -10.704  19.760  70.146  1.00  0.00     0.000 HD 
HETATM   21  N   UNL     1     -10.376  19.841  69.184  1.00  0.00    -0.607 NA 
HETATM   22  H2  UNL     1     -11.096  20.241  68.583  1.00  0.00     0.000 HD 
ENDBRANCH  18  19
ENDBRANCH  17  18
ENDBRANCH  15  17
ENDBRANCH  13  15
ENDBRANCH   5  13
ENDBRANCH   2   3
TORSDOF 6
ENDMDL
MODEL       70
REMARK 921   NORMALIZED FREE ENERGY PREDICTED BY IDOCK:   -4.63 KCAL/MOL
REMARK 922        TOTAL FREE ENERGY PREDICTED BY IDOCK:   -6.73 KCAL/MOL
REMARK 923 INTER-LIGAND FREE ENERGY PREDICTED BY IDOCK:   -6.49 KCAL/MOL
REMARK 924 INTRA-LIGAND FREE ENERGY PREDICTED BY IDOCK:   -0.24 KCAL/MOL
REMARK 927      BINDING AFFINITY PREDICTED BY RF-SCORE:    0.00 PKD
ROOT
HETATM    1  C   UNL     1     -10.468  12.170  66.075  1.00  0.00    -0.247 C  
HETATM    2  O   UNL     1     -10.224  13.338  65.305  1.00  0.00    -0.303 OA 
ENDROOT
BRANCH   2   3
HETATM    3  C   UNL     1     -10.268  14.538  65.959  1.00  0.00    -0.315 A  
HETATM    4  C   UNL     1     -11.263  14.628  66.929  1.00  0.00    -0.345 A  
HETATM    5  C   UNL     1     -11.423  15.776  67.721  1.00  0.00    -0.175 A  
HETATM    6  C   UNL     1      -9.013  19.107  66.915  1.00  0.00    -0.332 A  
HETATM    7  C   UNL     1     -10.602  16.906  67.483  1.00  0.00    -0.307 A  
HETATM    8  C   UNL     1      -8.803  17.929  66.216  1.00  0.00    -0.189 A  
HETATM    9  C   UNL     1      -9.429  15.623  65.745  1.00  0.00    -0.338 A  
HETATM   10  N   UNL     1     -10.780  18.053  68.180  1.00  0.00    -0.314 NA 
HETATM   11  C   UNL     1     -10.003  19.119  67.876  1.00  0.00    -0.362 A  
HETATM   12  C   UNL     1      -9.609  16.808  66.477  1.00  0.00    -0.285 A  
BRANCH   5  13
HETATM   13  N   UNL     1     -12.340  15.785  68.799  1.00  0.00    -0.447 NA 
HETATM   14  H   UNL     1     -13.219  16.295  68.713  1.00  0.00     0.000 HD 
BRANCH  13  15
HETATM   15  C   UNL     1     -12.031  15.067  70.038  1.00  0.00    -0.332 C  
HETATM   16  C   UNL     1     -10.510  15.033  70.223  1.00  0.00    -0.063 C  
BRANCH  15  17
HETATM   17  C   UNL     1     -12.663  15.787  71.247  1.00  0.00    -0.498 C  
BRANCH  17  18
HETATM   18  C   UNL     1     -11.664  16.312  72.289  1.00  0.00    -0.530 C  
BRANCH  18  19
HETATM   19  C   UNL     1     -12.208  16.453  73.711  1.00  0.00    -0.449 C  
HETATM   20  H1  UNL     1     -13.795  15.778  74.861  1.00  0.00     0.000 HD 
HETATM   21  N   UNL     1     -13.432  15.685  73.913  1.00  0.00    -0.655 NA 
HETATM   22  H2  UNL     1     -13.297  14.705  73.665  1.00  0.00     0.000 HD 
ENDBRANCH  18  19
ENDBRANCH  17  18
ENDBRANCH  15  17
ENDBRANCH  13  15
ENDBRANCH   5  13
ENDBRANCH   2   3
TORSDOF 6
ENDMDL
MODEL       71
REMARK 921   NORMALIZED FREE ENERGY PREDICTED BY IDOCK:   -4.63 KCAL/MOL
REMARK 922        TOTAL FREE ENERGY PREDICTED BY IDOCK:   -6.72 KCAL/MOL
REMARK 923 INTER-LIGAND FREE ENERGY PREDICTED BY IDOCK:   -6.18 KCAL/MOL
REMARK 924 INTRA-LIGAND FREE ENERGY PREDICTED BY IDOCK:   -0.54 KCAL/MOL
REMARK 927      BINDING AFFINITY PREDICTED BY RF-SCORE:    0.00 PKD
ROOT
HETATM    1  C   UNL     1      -9.315   6.459  66.760  1.00  0.00    -0.147 C  
HETATM    2  O   UNL     1      -9.181   7.858  66.548  1.00  0.00    -0.171 OA 
ENDROOT
BRANCH   2   3
HETATM    3  C   UNL     1      -9.882   8.685  67.381  1.00  0.00    -0.192 A  
HETATM    4  C   UNL     1     -10.336   9.856  66.780  1.00  0.00    -0.285 A  
HETATM    5  C   UNL     1     -11.106  10.798  67.482  1.00  0.00    -0.308 A  
HETATM    6  C   UNL     1     -11.784  10.173  71.569  1.00  0.00    -0.290 A  
HETATM    7  C   UNL     1     -11.369  10.595  68.859  1.00  0.00    -0.274 A  
HETATM    8  C   UNL     1     -11.116   9.207  70.833  1.00  0.00    -0.356 A  
HETATM    9  C   UNL     1     -10.170   8.454  68.719  1.00  0.00    -0.223 A  
HETATM   10  N   UNL     1     -12.045  11.520  69.581  1.00  0.00    -0.310 NA 
HETATM   11  C   UNL     1     -12.223  11.300  70.904  1.00  0.00    -0.356 A  
HETATM   12  C   UNL     1     -10.881   9.410  69.463  1.00  0.00    -0.231 A  
BRANCH   5  13
HETATM   13  N   UNL     1     -11.681  11.902  66.810  1.00  0.00    -0.590 NA 
HETATM   14  H   UNL     1     -12.379  12.477  67.282  1.00  0.00     0.000 HD 
BRANCH  13  15
HETATM   15  C   UNL     1     -11.279  12.224  65.438  1.00  0.00    -0.328 C  
HETATM   16  C   UNL     1     -12.538  12.404  64.583  1.00  0.00    -0.459 C  
BRANCH  15  17
HETATM   17  C   UNL     1     -10.468  13.537  65.411  1.00  0.00    -0.322 C  
BRANCH  17  18
HETATM   18  C   UNL     1     -10.857  14.565  66.484  1.00  0.00    -0.314 C  
BRANCH  18  19
HETATM   19  C   UNL     1     -10.929  16.017  66.010  1.00  0.00    -0.097 C  
HETATM   20  H1  UNL     1     -10.960  17.093  64.239  1.00  0.00     0.000 HD 
HETATM   21  N   UNL     1     -10.912  16.125  64.555  1.00  0.00    -0.927 NA 
HETATM   22  H2  UNL     1     -11.652  15.563  64.135  1.00  0.00     0.000 HD 
ENDBRANCH  18  19
ENDBRANCH  17  18
ENDBRANCH  15  17
ENDBRANCH  13  15
ENDBRANCH   5  13
ENDBRANCH   2   3
TORSDOF 6
ENDMDL
MODEL       72
REMARK 921   NORMALIZED FREE ENERGY PREDICTED BY IDOCK:   -4.63 KCAL/MOL
REMARK 922        TOTAL FREE ENERGY PREDICTED BY IDOCK:   -6.72 KCAL/MOL
REMARK 923 INTER-LIGAND FREE ENERGY PREDICTED BY IDOCK:   -6.25 KCAL/MOL
REMARK 924 INTRA-LIGAND FREE ENERGY PREDICTED BY IDOCK:   -0.47 KCAL/MOL
REMARK 927      BINDING AFFINITY PREDICTED BY RF-SCORE:    0.00 PKD
ROOT
HETATM    1  C   UNL     1      -6.470  14.649  69.385  1.00  0.00    -0.132 C  
HETATM    2  O   UNL     1      -7.596  14.320  68.583  1.00  0.00    -0.116 OA 
ENDROOT
BRANCH   2   3
HETATM    3  C   UNL     1      -8.322  15.358  68.070  1.00  0.00    -0.142 A  
HETATM    4  C   UNL     1      -8.789  15.150  66.775  1.00  0.00    -0.302 A  
HETATM    5  C   UNL     1      -9.583  16.099  66.113  1.00  0.00    -0.327 A  
HETATM    6  C   UNL     1     -10.301  19.768  68.004  1.00  0.00    -0.567 A  
HETATM    7  C   UNL     1      -9.861  17.337  66.744  1.00  0.00    -0.294 A  
HETATM    8  C   UNL     1      -9.607  18.777  68.681  1.00  0.00    -0.432 A  
HETATM    9  C   UNL     1      -8.622  16.550  68.716  1.00  0.00    -0.262 A  
HETATM   10  N   UNL     1     -10.562  18.302  66.103  1.00  0.00    -0.371 NA 
HETATM   11  C   UNL     1     -10.751  19.485  66.731  1.00  0.00    -0.460 A  
HETATM   12  C   UNL     1      -9.359  17.545  68.052  1.00  0.00    -0.272 A  
BRANCH   5  13
HETATM   13  N   UNL     1     -10.170  15.800  64.861  1.00  0.00    -0.503 NA 
HETATM   14  H   UNL     1      -9.781  16.203  64.008  1.00  0.00     0.000 HD 
BRANCH  13  15
HETATM   15  C   UNL     1     -11.334  14.913  64.783  1.00  0.00    -0.397 C  
HETATM   16  C   UNL     1     -10.882  13.552  64.242  1.00  0.00    -0.340 C  
BRANCH  15  17
HETATM   17  C   UNL     1     -11.949  14.711  66.183  1.00  0.00    -0.250 C  
BRANCH  17  18
HETATM   18  C   UNL     1     -11.975  13.259  66.682  1.00  0.00    -0.446 C  
BRANCH  18  19
HETATM   19  C   UNL     1     -11.984  13.083  68.201  1.00  0.00    -0.280 C  
HETATM   20  H1  UNL     1     -10.648  12.766  69.754  1.00  0.00     0.000 HD 
HETATM   21  N   UNL     1     -10.643  12.884  68.741  1.00  0.00    -0.357 NA 
HETATM   22  H2  UNL     1     -10.016  13.638  68.461  1.00  0.00     0.000 HD 
ENDBRANCH  18  19
ENDBRANCH  17  18
ENDBRANCH  15  17
ENDBRANCH  13  15
ENDBRANCH   5  13
ENDBRANCH   2   3
TORSDOF 6
ENDMDL
MODEL       73
REMARK 921   NORMALIZED FREE ENERGY PREDICTED BY IDOCK:   -4.62 KCAL/MOL
REMARK 922        TOTAL FREE ENERGY PREDICTED BY IDOCK:   -6.71 KCAL/MOL
REMARK 923 INTER-LIGAND FREE ENERGY PREDICTED BY IDOCK:   -6.52 KCAL/MOL
REMARK 924 INTRA-LIGAND FREE ENERGY PREDICTED BY IDOCK:   -0.19 KCAL/MOL
REMARK 927      BINDING AFFINITY PREDICTED BY RF-SCORE:    0.00 PKD
ROOT
HETATM    1  C   UNL     1     -11.069  15.588  69.363  1.00  0.00    -0.291 C  
HETATM    2  O   UNL     1     -12.050  14.614  69.037  1.00  0.00    -0.295 OA 
ENDROOT
BRANCH   2   3
HETATM    3  C   UNL     1     -11.736  13.716  68.056  1.00  0.00    -0.352 A  
HETATM    4  C   UNL     1     -11.675  12.392  68.484  1.00  0.00    -0.373 A  
HETATM    5  C   UNL     1     -11.403  11.339  67.598  1.00  0.00    -0.282 A  
HETATM    6  C   UNL     1     -10.466  12.269  63.621  1.00  0.00    -0.483 A  
HETATM    7  C   UNL     1     -11.108  11.628  66.242  1.00  0.00    -0.290 A  
HETATM    8  C   UNL     1     -10.840  13.284  64.489  1.00  0.00    -0.409 A  
HETATM    9  C   UNL     1     -11.491  14.008  66.721  1.00  0.00    -0.379 A  
HETATM   10  N   UNL     1     -10.770  10.641  65.379  1.00  0.00    -0.112 NA 
HETATM   11  C   UNL     1     -10.447  10.979  64.109  1.00  0.00    -0.366 A  
HETATM   12  C   UNL     1     -11.151  12.981  65.825  1.00  0.00    -0.302 A  
BRANCH   5  13
HETATM   13  N   UNL     1     -11.496   9.994  68.027  1.00  0.00    -0.610 NA 
HETATM   14  H   UNL     1     -12.225   9.389  67.649  1.00  0.00     0.000 HD 
BRANCH  13  15
HETATM   15  C   UNL     1     -10.549   9.466  69.013  1.00  0.00    -0.213 C  
HETATM   16  C   UNL     1      -9.131   9.881  68.607  1.00  0.00    -0.132 C  
BRANCH  15  17
HETATM   17  C   UNL     1     -10.854  10.041  70.412  1.00  0.00    -0.380 C  
BRANCH  17  18
HETATM   18  C   UNL     1     -11.487   9.051  71.401  1.00  0.00    -0.400 C  
BRANCH  18  19
HETATM   19  C   UNL     1     -11.455   7.583  70.974  1.00  0.00    -0.278 C  
HETATM   20  H1  UNL     1     -12.754   6.111  70.306  1.00  0.00     0.000 HD 
HETATM   21  N   UNL     1     -12.774   7.090  70.591  1.00  0.00    -0.575 NA 
HETATM   22  H2  UNL     1     -13.190   7.676  69.867  1.00  0.00     0.000 HD 
ENDBRANCH  18  19
ENDBRANCH  17  18
ENDBRANCH  15  17
ENDBRANCH  13  15
ENDBRANCH   5  13
ENDBRANCH   2   3
TORSDOF 6
ENDMDL
MODEL       74
REMARK 921   NORMALIZED FREE ENERGY PREDICTED BY IDOCK:   -4.60 KCAL/MOL
REMARK 922        TOTAL FREE ENERGY PREDICTED BY IDOCK:   -6.69 KCAL/MOL
REMARK 923 INTER-LIGAND FREE ENERGY PREDICTED BY IDOCK:   -6.15 KCAL/MOL
REMARK 924 INTRA-LIGAND FREE ENERGY PREDICTED BY IDOCK:   -0.54 KCAL/MOL
REMARK 927      BINDING AFFINITY PREDICTED BY RF-SCORE:    0.00 PKD
ROOT
HETATM    1  C   UNL     1      -8.211   8.888  70.824  1.00  0.00    -0.171 C  
HETATM    2  O   UNL     1      -9.305   9.650  70.334  1.00  0.00    -0.251 OA 
ENDROOT
BRANCH   2   3
HETATM    3  C   UNL     1      -9.328   9.918  68.993  1.00  0.00    -0.174 A  
HETATM    4  C   UNL     1      -9.919  11.133  68.658  1.00  0.00    -0.210 A  
HETATM    5  C   UNL     1      -9.991  11.580  67.330  1.00  0.00    -0.191 A  
HETATM    6  C   UNL     1      -8.644   9.030  64.291  1.00  0.00    -0.171 A  
HETATM    7  C   UNL     1      -9.518  10.745  66.287  1.00  0.00    -0.181 A  
HETATM    8  C   UNL     1      -8.487   8.654  65.615  1.00  0.00    -0.171 A  
HETATM    9  C   UNL     1      -8.822   9.109  67.984  1.00  0.00    -0.129 A  
HETATM   10  N   UNL     1      -9.640  11.116  64.991  1.00  0.00    -0.230 NA 
HETATM   11  C   UNL     1      -9.220  10.257  64.033  1.00  0.00    -0.271 A  
HETATM   12  C   UNL     1      -8.940   9.501  66.641  1.00  0.00    -0.168 A  
BRANCH   5  13
HETATM   13  N   UNL     1     -10.458  12.883  67.033  1.00  0.00    -0.238 NA 
HETATM   14  H   UNL     1      -9.815  13.579  66.654  1.00  0.00     0.000 HD 
BRANCH  13  15
HETATM   15  C   UNL     1     -11.861  13.236  67.265  1.00  0.00    -0.372 C  
HETATM   16  C   UNL     1     -11.932  14.236  68.424  1.00  0.00    -0.344 C  
BRANCH  15  17
HETATM   17  C   UNL     1     -12.465  13.891  66.006  1.00  0.00    -0.501 C  
BRANCH  17  18
HETATM   18  C   UNL     1     -11.448  14.285  64.924  1.00  0.00    -0.378 C  
BRANCH  18  19
HETATM   19  C   UNL     1     -10.903  15.710  65.021  1.00  0.00    -0.450 C  
HETATM   20  H1  UNL     1     -11.162  17.558  64.119  1.00  0.00     0.000 HD 
HETATM   21  N   UNL     1     -11.526  16.608  64.054  1.00  0.00    -1.551 NA 
HETATM   22  H2  UNL     1     -12.542  16.595  64.141  1.00  0.00     0.000 HD 
ENDBRANCH  18  19
ENDBRANCH  17  18
ENDBRANCH  15  17
ENDBRANCH  13  15
ENDBRANCH   5  13
ENDBRANCH   2   3
TORSDOF 6
ENDMDL
MODEL       75
REMARK 921   NORMALIZED FREE ENERGY PREDICTED BY IDOCK:   -4.60 KCAL/MOL
REMARK 922        TOTAL FREE ENERGY PREDICTED BY IDOCK:   -6.68 KCAL/MOL
REMARK 923 INTER-LIGAND FREE ENERGY PREDICTED BY IDOCK:   -6.03 KCAL/MOL
REMARK 924 INTRA-LIGAND FREE ENERGY PREDICTED BY IDOCK:   -0.65 KCAL/MOL
REMARK 927      BINDING AFFINITY PREDICTED BY RF-SCORE:    0.00 PKD
ROOT
HETATM    1  C   UNL     1     -10.556  12.704  65.098  1.00  0.00    -0.298 C  
HETATM    2  O   UNL     1     -11.110  13.348  66.237  1.00  0.00    -0.290 OA 
ENDROOT
BRANCH   2   3
HETATM    3  C   UNL     1     -11.345  12.573  67.339  1.00  0.00    -0.313 A  
HETATM    4  C   UNL     1     -10.938  11.248  67.208  1.00  0.00    -0.342 A  
HETATM    5  C   UNL     1     -11.069  10.326  68.258  1.00  0.00    -0.254 A  
HETATM    6  C   UNL     1     -13.013  11.555  71.760  1.00  0.00    -0.500 A  
HETATM    7  C   UNL     1     -11.701  10.726  69.462  1.00  0.00    -0.312 A  
HETATM    8  C   UNL     1     -12.779  12.476  70.752  1.00  0.00    -0.209 A  
HETATM    9  C   UNL     1     -11.927  12.989  68.529  1.00  0.00    -0.296 A  
HETATM   10  N   UNL     1     -11.909   9.841  70.465  1.00  0.00    -0.260 NA 
HETATM   11  C   UNL     1     -12.565  10.264  71.571  1.00  0.00    -0.440 A  
HETATM   12  C   UNL     1     -12.132  12.071  69.572  1.00  0.00    -0.273 A  
BRANCH   5  13
HETATM   13  N   UNL     1     -10.511   9.030  68.154  1.00  0.00    -0.279 NA 
HETATM   14  H   UNL     1     -10.071   8.599  68.967  1.00  0.00     0.000 HD 
BRANCH  13  15
HETATM   15  C   UNL     1     -10.561   8.304  66.881  1.00  0.00    -0.232 C  
HETATM   16  C   UNL     1      -9.206   8.445  66.179  1.00  0.00    -0.263 C  
BRANCH  15  17
HETATM   17  C   UNL     1     -10.839   6.807  67.129  1.00  0.00    -0.462 C  
BRANCH  17  18
HETATM   18  C   UNL     1      -9.887   6.122  68.120  1.00  0.00    -0.142 C  
BRANCH  18  19
HETATM   19  C   UNL     1     -10.313   6.176  69.588  1.00  0.00    -0.218 C  
HETATM   20  H1  UNL     1     -11.982   6.643  70.724  1.00  0.00     0.000 HD 
HETATM   21  N   UNL     1     -11.698   6.607  69.745  1.00  0.00    -0.650 NA 
HETATM   22  H2  UNL     1     -12.330   6.021  69.199  1.00  0.00     0.000 HD 
ENDBRANCH  18  19
ENDBRANCH  17  18
ENDBRANCH  15  17
ENDBRANCH  13  15
ENDBRANCH   5  13
ENDBRANCH   2   3
TORSDOF 6
ENDMDL
MODEL       76
REMARK 921   NORMALIZED FREE ENERGY PREDICTED BY IDOCK:   -4.58 KCAL/MOL
REMARK 922        TOTAL FREE ENERGY PREDICTED BY IDOCK:   -6.66 KCAL/MOL
REMARK 923 INTER-LIGAND FREE ENERGY PREDICTED BY IDOCK:   -6.62 KCAL/MOL
REMARK 924 INTRA-LIGAND FREE ENERGY PREDICTED BY IDOCK:   -0.04 KCAL/MOL
REMARK 927      BINDING AFFINITY PREDICTED BY RF-SCORE:    0.00 PKD
ROOT
HETATM    1  C   UNL     1      -7.353  16.496  67.797  1.00  0.00    -0.138 C  
HETATM    2  O   UNL     1      -8.596  16.296  68.456  1.00  0.00    -0.191 OA 
ENDROOT
BRANCH   2   3
HETATM    3  C   UNL     1      -9.494  15.461  67.853  1.00  0.00    -0.197 A  
HETATM    4  C   UNL     1      -9.975  14.444  68.673  1.00  0.00    -0.241 A  
HETATM    5  C   UNL     1     -10.933  13.521  68.224  1.00  0.00    -0.258 A  
HETATM    6  C   UNL     1     -12.136  13.685  64.214  1.00  0.00    -0.480 A  
HETATM    7  C   UNL     1     -11.374  13.573  66.879  1.00  0.00    -0.326 A  
HETATM    8  C   UNL     1     -11.270  14.649  64.706  1.00  0.00    -0.395 A  
HETATM    9  C   UNL     1      -9.950  15.549  66.544  1.00  0.00    -0.283 A  
HETATM   10  N   UNL     1     -12.241  12.653  66.396  1.00  0.00    -0.543 NA 
HETATM   11  C   UNL     1     -12.587  12.718  65.089  1.00  0.00    -0.444 A  
HETATM   12  C   UNL     1     -10.858  14.599  66.049  1.00  0.00    -0.318 A  
BRANCH   5  13
HETATM   13  N   UNL     1     -11.515  12.594  69.121  1.00  0.00    -0.288 NA 
HETATM   14  H   UNL     1     -12.200  12.913  69.807  1.00  0.00     0.000 HD 
BRANCH  13  15
HETATM   15  C   UNL     1     -11.140  11.179  69.068  1.00  0.00    -0.242 C  
HETATM   16  C   UNL     1      -9.713  11.067  68.521  1.00  0.00    -0.189 C  
BRANCH  15  17
HETATM   17  C   UNL     1     -11.181  10.560  70.481  1.00  0.00    -0.348 C  
BRANCH  17  18
HETATM   18  C   UNL     1     -12.544  10.631  71.185  1.00  0.00    -0.526 C  
BRANCH  18  19
HETATM   19  C   UNL     1     -13.126   9.289  71.629  1.00  0.00    -0.382 C  
HETATM   20  H1  UNL     1     -14.420   8.533  73.061  1.00  0.00     0.000 HD 
HETATM   21  N   UNL     1     -14.031   9.428  72.765  1.00  0.00    -0.837 NA 
HETATM   22  H2  UNL     1     -14.770  10.103  72.568  1.00  0.00     0.000 HD 
ENDBRANCH  18  19
ENDBRANCH  17  18
ENDBRANCH  15  17
ENDBRANCH  13  15
ENDBRANCH   5  13
ENDBRANCH   2   3
TORSDOF 6
ENDMDL
MODEL       77
REMARK 921   NORMALIZED FREE ENERGY PREDICTED BY IDOCK:   -4.58 KCAL/MOL
REMARK 922        TOTAL FREE ENERGY PREDICTED BY IDOCK:   -6.66 KCAL/MOL
REMARK 923 INTER-LIGAND FREE ENERGY PREDICTED BY IDOCK:   -6.17 KCAL/MOL
REMARK 924 INTRA-LIGAND FREE ENERGY PREDICTED BY IDOCK:   -0.49 KCAL/MOL
REMARK 927      BINDING AFFINITY PREDICTED BY RF-SCORE:    0.00 PKD
ROOT
HETATM    1  C   UNL     1      -9.944  10.564  64.565  1.00  0.00    -0.345 C  
HETATM    2  O   UNL     1      -9.753   9.511  65.500  1.00  0.00    -0.283 OA 
ENDROOT
BRANCH   2   3
HETATM    3  C   UNL     1     -10.223   9.709  66.768  1.00  0.00    -0.239 A  
HETATM    4  C   UNL     1     -10.678  11.002  67.018  1.00  0.00    -0.319 A  
HETATM    5  C   UNL     1     -11.229  11.366  68.256  1.00  0.00    -0.263 A  
HETATM    6  C   UNL     1     -11.218   8.543  71.353  1.00  0.00    -0.327 A  
HETATM    7  C   UNL     1     -11.259  10.420  69.311  1.00  0.00    -0.248 A  
HETATM    8  C   UNL     1     -10.775   8.174  70.092  1.00  0.00    -0.243 A  
HETATM    9  C   UNL     1     -10.287   8.761  67.780  1.00  0.00    -0.297 A  
HETATM   10  N   UNL     1     -11.716  10.762  70.539  1.00  0.00    -0.333 NA 
HETATM   11  C   UNL     1     -11.673   9.835  71.523  1.00  0.00    -0.375 A  
HETATM   12  C   UNL     1     -10.772   9.116  69.049  1.00  0.00    -0.176 A  
BRANCH   5  13
HETATM   13  N   UNL     1     -11.820  12.639  68.435  1.00  0.00    -0.322 NA 
HETATM   14  H   UNL     1     -12.746  12.714  68.858  1.00  0.00     0.000 HD 
BRANCH  13  15
HETATM   15  C   UNL     1     -11.110  13.850  68.015  1.00  0.00    -0.259 C  
HETATM   16  C   UNL     1     -11.807  14.427  66.778  1.00  0.00    -0.431 C  
BRANCH  15  17
HETATM   17  C   UNL     1     -11.139  14.906  69.140  1.00  0.00    -0.279 C  
BRANCH  17  18
HETATM   18  C   UNL     1     -12.205  14.678  70.221  1.00  0.00    -0.389 C  
BRANCH  18  19
HETATM   19  C   UNL     1     -11.822  15.131  71.630  1.00  0.00    -0.387 C  
HETATM   20  H1  UNL     1     -11.607  16.884  72.714  1.00  0.00     0.000 HD 
HETATM   21  N   UNL     1     -11.862  16.582  71.774  1.00  0.00    -0.652 NA 
HETATM   22  H2  UNL     1     -12.772  16.955  71.502  1.00  0.00     0.000 HD 
ENDBRANCH  18  19
ENDBRANCH  17  18
ENDBRANCH  15  17
ENDBRANCH  13  15
ENDBRANCH   5  13
ENDBRANCH   2   3
TORSDOF 6
ENDMDL
MODEL       78
REMARK 921   NORMALIZED FREE ENERGY PREDICTED BY IDOCK:   -4.57 KCAL/MOL
REMARK 922        TOTAL FREE ENERGY PREDICTED BY IDOCK:   -6.64 KCAL/MOL
REMARK 923 INTER-LIGAND FREE ENERGY PREDICTED BY IDOCK:   -6.65 KCAL/MOL
REMARK 924 INTRA-LIGAND FREE ENERGY PREDICTED BY IDOCK:    0.01 KCAL/MOL
REMARK 927      BINDING AFFINITY PREDICTED BY RF-SCORE:    0.00 PKD
ROOT
HETATM    1  C   UNL     1     -10.404  18.260  66.045  1.00  0.00    -0.363 C  
HETATM    2  O   UNL     1     -10.986  17.632  64.910  1.00  0.00    -0.886 OA 
ENDROOT
BRANCH   2   3
HETATM    3  C   UNL     1     -10.936  16.267  64.858  1.00  0.00    -0.307 A  
HETATM    4  C   UNL     1      -9.935  15.697  65.641  1.00  0.00    -0.388 A  
HETATM    5  C   UNL     1      -9.770  14.306  65.733  1.00  0.00    -0.234 A  
HETATM    6  C   UNL     1     -12.179  11.848  63.345  1.00  0.00    -0.561 A  
HETATM    7  C   UNL     1     -10.591  13.454  64.953  1.00  0.00    -0.385 A  
HETATM    8  C   UNL     1     -12.396  13.216  63.349  1.00  0.00    -0.443 A  
HETATM    9  C   UNL     1     -11.775  15.441  64.123  1.00  0.00    -0.109 A  
HETATM   10  N   UNL     1     -10.407  12.112  64.964  1.00  0.00    -0.279 NA 
HETATM   11  C   UNL     1     -11.184  11.350  64.160  1.00  0.00    -0.250 A  
HETATM   12  C   UNL     1     -11.589  14.049  64.144  1.00  0.00    -0.289 A  
BRANCH   5  13
HETATM   13  N   UNL     1      -8.847  13.750  66.650  1.00  0.00    -0.438 NA 
HETATM   14  H   UNL     1      -7.942  14.199  66.795  1.00  0.00     0.000 HD 
BRANCH  13  15
HETATM   15  C   UNL     1      -9.184  12.532  67.391  1.00  0.00    -0.186 C  
HETATM   16  C   UNL     1      -7.893  11.916  67.942  1.00  0.00    -0.138 C  
BRANCH  15  17
HETATM   17  C   UNL     1     -10.119  12.866  68.573  1.00  0.00    -0.193 C  
BRANCH  17  18
HETATM   18  C   UNL     1     -11.571  12.395  68.409  1.00  0.00    -0.373 C  
BRANCH  18  19
HETATM   19  C   UNL     1     -11.979  11.201  69.273  1.00  0.00    -0.351 C  
HETATM   20  H1  UNL     1     -11.664   9.155  69.378  1.00  0.00     0.000 HD 
HETATM   21  N   UNL     1     -11.392   9.951  68.801  1.00  0.00    -0.481 NA 
HETATM   22  H2  UNL     1     -10.377  10.024  68.729  1.00  0.00     0.000 HD 
ENDBRANCH  18  19
ENDBRANCH  17  18
ENDBRANCH  15  17
ENDBRANCH  13  15
ENDBRANCH   5  13
ENDBRANCH   2   3
TORSDOF 6
ENDMDL
MODEL       79
REMARK 921   NORMALIZED FREE ENERGY PREDICTED BY IDOCK:   -4.57 KCAL/MOL
REMARK 922        TOTAL FREE ENERGY PREDICTED BY IDOCK:   -6.64 KCAL/MOL
REMARK 923 INTER-LIGAND FREE ENERGY PREDICTED BY IDOCK:   -5.97 KCAL/MOL
REMARK 924 INTRA-LIGAND FREE ENERGY PREDICTED BY IDOCK:   -0.68 KCAL/MOL
REMARK 927      BINDING AFFINITY PREDICTED BY RF-SCORE:    0.00 PKD
ROOT
HETATM    1  C   UNL     1     -12.542   9.298  72.009  1.00  0.00    -0.390 C  
HETATM    2  O   UNL     1     -12.064  10.442  71.316  1.00  0.00    -0.360 OA 
ENDROOT
BRANCH   2   3
HETATM    3  C   UNL     1     -11.502  10.238  70.087  1.00  0.00    -0.309 A  
HETATM    4  C   UNL     1     -11.986  11.077  69.086  1.00  0.00    -0.394 A  
HETATM    5  C   UNL     1     -11.490  11.027  67.774  1.00  0.00    -0.261 A  
HETATM    6  C   UNL     1      -8.689   8.063  66.812  1.00  0.00    -0.142 A  
HETATM    7  C   UNL     1     -10.523  10.049  67.431  1.00  0.00    -0.260 A  
HETATM    8  C   UNL     1      -9.115   8.198  68.124  1.00  0.00    -0.134 A  
HETATM    9  C   UNL     1     -10.524   9.304  69.774  1.00  0.00    -0.235 A  
HETATM   10  N   UNL     1     -10.079   9.927  66.158  1.00  0.00    -0.255 NA 
HETATM   11  C   UNL     1      -9.195   8.942  65.876  1.00  0.00    -0.229 A  
HETATM   12  C   UNL     1     -10.057   9.187  68.454  1.00  0.00    -0.220 A  
BRANCH   5  13
HETATM   13  N   UNL     1     -11.889  11.989  66.816  1.00  0.00    -0.614 NA 
HETATM   14  H   UNL     1     -12.690  11.803  66.212  1.00  0.00     0.000 HD 
BRANCH  13  15
HETATM   15  C   UNL     1     -11.156  13.252  66.687  1.00  0.00    -0.291 C  
HETATM   16  C   UNL     1     -10.942  13.548  65.199  1.00  0.00    -0.328 C  
BRANCH  15  17
HETATM   17  C   UNL     1     -11.964  14.407  67.314  1.00  0.00    -0.409 C  
BRANCH  17  18
HETATM   18  C   UNL     1     -11.439  14.912  68.666  1.00  0.00    -0.326 C  
BRANCH  18  19
HETATM   19  C   UNL     1     -12.373  14.695  69.857  1.00  0.00    -0.294 C  
HETATM   20  H1  UNL     1     -12.308  13.947  71.789  1.00  0.00     0.000 HD 
HETATM   21  N   UNL     1     -11.686  14.092  70.995  1.00  0.00    -0.512 NA 
HETATM   22  H2  UNL     1     -10.867  14.638  71.263  1.00  0.00     0.000 HD 
ENDBRANCH  18  19
ENDBRANCH  17  18
ENDBRANCH  15  17
ENDBRANCH  13  15
ENDBRANCH   5  13
ENDBRANCH   2   3
TORSDOF 6
ENDMDL
MODEL       80
REMARK 921   NORMALIZED FREE ENERGY PREDICTED BY IDOCK:   -4.56 KCAL/MOL
REMARK 922        TOTAL FREE ENERGY PREDICTED BY IDOCK:   -6.63 KCAL/MOL
REMARK 923 INTER-LIGAND FREE ENERGY PREDICTED BY IDOCK:   -6.45 KCAL/MOL
REMARK 924 INTRA-LIGAND FREE ENERGY PREDICTED BY IDOCK:   -0.18 KCAL/MOL
REMARK 927      BINDING AFFINITY PREDICTED BY RF-SCORE:    0.00 PKD
ROOT
HETATM    1  C   UNL     1     -10.922  11.557  66.101  1.00  0.00    -0.266 C  
HETATM    2  O   UNL     1     -10.513  12.751  65.448  1.00  0.00    -0.276 OA 
ENDROOT
BRANCH   2   3
HETATM    3  C   UNL     1     -10.545  13.905  66.180  1.00  0.00    -0.291 A  
HETATM    4  C   UNL     1     -11.508  13.922  67.186  1.00  0.00    -0.370 A  
HETATM    5  C   UNL     1     -11.651  15.014  68.056  1.00  0.00    -0.338 A  
HETATM    6  C   UNL     1      -9.299  18.417  67.389  1.00  0.00    -0.275 A  
HETATM    7  C   UNL     1     -10.848  16.167  67.865  1.00  0.00    -0.332 A  
HETATM    8  C   UNL     1      -9.102  17.289  66.609  1.00  0.00    -0.286 A  
HETATM    9  C   UNL     1      -9.723  15.011  66.010  1.00  0.00    -0.359 A  
HETATM   10  N   UNL     1     -11.014  17.264  68.641  1.00  0.00    -0.195 NA 
HETATM   11  C   UNL     1     -10.257  18.356  68.381  1.00  0.00    -0.378 A  
HETATM   12  C   UNL     1      -9.890  16.145  66.823  1.00  0.00    -0.255 A  
BRANCH   5  13
HETATM   13  N   UNL     1     -12.531  14.944  69.162  1.00  0.00    -0.587 NA 
HETATM   14  H   UNL     1     -13.416  15.452  69.140  1.00  0.00     0.000 HD 
BRANCH  13  15
HETATM   15  C   UNL     1     -12.178  14.144  70.338  1.00  0.00    -0.356 C  
HETATM   16  C   UNL     1     -13.174  14.453  71.461  1.00  0.00    -0.419 C  
BRANCH  15  17
HETATM   17  C   UNL     1     -12.255  12.639  70.006  1.00  0.00    -0.267 C  
BRANCH  17  18
HETATM   18  C   UNL     1     -12.452  11.713  71.215  1.00  0.00    -0.371 C  
BRANCH  18  19
HETATM   19  C   UNL     1     -12.258  10.222  70.941  1.00  0.00    -0.365 C  
HETATM   20  H1  UNL     1     -11.665   8.970  69.399  1.00  0.00     0.000 HD 
HETATM   21  N   UNL     1     -11.794   9.965  69.582  1.00  0.00    -0.462 NA 
HETATM   22  H2  UNL     1     -10.945  10.491  69.377  1.00  0.00     0.000 HD 
ENDBRANCH  18  19
ENDBRANCH  17  18
ENDBRANCH  15  17
ENDBRANCH  13  15
ENDBRANCH   5  13
ENDBRANCH   2   3
TORSDOF 6
ENDMDL
MODEL       81
REMARK 921   NORMALIZED FREE ENERGY PREDICTED BY IDOCK:   -4.54 KCAL/MOL
REMARK 922        TOTAL FREE ENERGY PREDICTED BY IDOCK:   -6.60 KCAL/MOL
REMARK 923 INTER-LIGAND FREE ENERGY PREDICTED BY IDOCK:   -6.13 KCAL/MOL
REMARK 924 INTRA-LIGAND FREE ENERGY PREDICTED BY IDOCK:   -0.46 KCAL/MOL
REMARK 927      BINDING AFFINITY PREDICTED BY RF-SCORE:    0.00 PKD
ROOT
HETATM    1  C   UNL     1      -8.661  12.745  67.050  1.00  0.00    -0.197 C  
HETATM    2  O   UNL     1      -9.696  11.931  66.517  1.00  0.00    -0.200 OA 
ENDROOT
BRANCH   2   3
HETATM    3  C   UNL     1     -10.053  10.825  67.237  1.00  0.00    -0.196 A  
HETATM    4  C   UNL     1     -10.356  11.079  68.572  1.00  0.00    -0.204 A  
HETATM    5  C   UNL     1     -10.778  10.062  69.443  1.00  0.00    -0.233 A  
HETATM    6  C   UNL     1     -10.833   6.120  68.027  1.00  0.00    -0.398 A  
HETATM    7  C   UNL     1     -10.829   8.724  68.978  1.00  0.00    -0.027 A  
HETATM    8  C   UNL     1     -10.520   7.152  67.157  1.00  0.00    -0.389 A  
HETATM    9  C   UNL     1     -10.140   9.524  66.759  1.00  0.00    -0.312 A  
HETATM   10  N   UNL     1     -11.161   7.712  69.813  1.00  0.00    -0.167 NA 
HETATM   11  C   UNL     1     -11.142   6.447  69.331  1.00  0.00    -0.387 A  
HETATM   12  C   UNL     1     -10.495   8.477  67.624  1.00  0.00    -0.308 A  
BRANCH   5  13
HETATM   13  N   UNL     1     -11.224  10.372  70.749  1.00  0.00    -0.381 NA 
HETATM   14  H   UNL     1     -10.557  10.401  71.520  1.00  0.00     0.000 HD 
BRANCH  13  15
HETATM   15  C   UNL     1     -12.641  10.651  71.000  1.00  0.00    -0.416 C  
HETATM   16  C   UNL     1     -13.162   9.660  72.046  1.00  0.00    -0.546 C  
BRANCH  15  17
HETATM   17  C   UNL     1     -12.817  12.085  71.543  1.00  0.00    -0.403 C  
BRANCH  17  18
HETATM   18  C   UNL     1     -12.361  13.203  70.593  1.00  0.00    -0.405 C  
BRANCH  18  19
HETATM   19  C   UNL     1     -12.987  14.575  70.842  1.00  0.00    -0.361 C  
HETATM   20  H1  UNL     1     -13.094  16.441  69.944  1.00  0.00     0.000 HD 
HETATM   21  N   UNL     1     -12.676  15.525  69.779  1.00  0.00    -0.602 NA 
HETATM   22  H2  UNL     1     -12.944  15.158  68.866  1.00  0.00     0.000 HD 
ENDBRANCH  18  19
ENDBRANCH  17  18
ENDBRANCH  15  17
ENDBRANCH  13  15
ENDBRANCH   5  13
ENDBRANCH   2   3
TORSDOF 6
ENDMDL
MODEL       82
REMARK 921   NORMALIZED FREE ENERGY PREDICTED BY IDOCK:   -4.52 KCAL/MOL
REMARK 922        TOTAL FREE ENERGY PREDICTED BY IDOCK:   -6.57 KCAL/MOL
REMARK 923 INTER-LIGAND FREE ENERGY PREDICTED BY IDOCK:   -6.10 KCAL/MOL
REMARK 924 INTRA-LIGAND FREE ENERGY PREDICTED BY IDOCK:   -0.47 KCAL/MOL
REMARK 927      BINDING AFFINITY PREDICTED BY RF-SCORE:    0.00 PKD
ROOT
HETATM    1  C   UNL     1     -10.500  11.333  64.635  1.00  0.00    -0.325 C  
HETATM    2  O   UNL     1     -10.741  12.675  65.035  1.00  0.00    -0.277 OA 
ENDROOT
BRANCH   2   3
HETATM    3  C   UNL     1     -11.143  12.880  66.325  1.00  0.00    -0.288 A  
HETATM    4  C   UNL     1     -11.490  11.719  67.011  1.00  0.00    -0.368 A  
HETATM    5  C   UNL     1     -11.887  11.745  68.357  1.00  0.00    -0.282 A  
HETATM    6  C   UNL     1     -12.308  15.464  70.241  1.00  0.00    -0.425 A  
HETATM    7  C   UNL     1     -12.012  12.990  69.023  1.00  0.00    -0.267 A  
HETATM    8  C   UNL     1     -11.818  15.408  68.946  1.00  0.00    -0.350 A  
HETATM    9  C   UNL     1     -11.219  14.102  66.979  1.00  0.00    -0.328 A  
HETATM   10  N   UNL     1     -12.463  13.054  70.298  1.00  0.00    -0.205 NA 
HETATM   11  C   UNL     1     -12.613  14.273  70.867  1.00  0.00    -0.356 A  
HETATM   12  C   UNL     1     -11.677  14.165  68.305  1.00  0.00    -0.383 A  
BRANCH   5  13
HETATM   13  N   UNL     1     -12.088  10.541  69.072  1.00  0.00    -0.713 NA 
HETATM   14  H   UNL     1     -12.983  10.056  69.009  1.00  0.00     0.000 HD 
BRANCH  13  15
HETATM   15  C   UNL     1     -11.015   9.987  69.904  1.00  0.00    -0.293 C  
HETATM   16  C   UNL     1     -11.592   9.626  71.277  1.00  0.00    -0.466 C  
BRANCH  15  17
HETATM   17  C   UNL     1     -10.440   8.711  69.255  1.00  0.00    -0.226 C  
BRANCH  17  18
HETATM   18  C   UNL     1     -10.943   7.390  69.856  1.00  0.00    -0.239 C  
BRANCH  18  19
HETATM   19  C   UNL     1      -9.869   6.335  70.121  1.00  0.00    -0.170 C  
HETATM   20  H1  UNL     1      -7.933   6.211  70.850  1.00  0.00     0.000 HD 
HETATM   21  N   UNL     1      -8.650   6.914  70.673  1.00  0.00    -0.140 NA 
HETATM   22  H2  UNL     1      -8.847   7.458  71.513  1.00  0.00     0.000 HD 
ENDBRANCH  18  19
ENDBRANCH  17  18
ENDBRANCH  15  17
ENDBRANCH  13  15
ENDBRANCH   5  13
ENDBRANCH   2   3
TORSDOF 6
ENDMDL
MODEL       83
REMARK 921   NORMALIZED FREE ENERGY PREDICTED BY IDOCK:   -4.49 KCAL/MOL
REMARK 922        TOTAL FREE ENERGY PREDICTED BY IDOCK:   -6.54 KCAL/MOL
REMARK 923 INTER-LIGAND FREE ENERGY PREDICTED BY IDOCK:   -6.08 KCAL/MOL
REMARK 924 INTRA-LIGAND FREE ENERGY PREDICTED BY IDOCK:   -0.46 KCAL/MOL
REMARK 927      BINDING AFFINITY PREDICTED BY RF-SCORE:    0.00 PKD
ROOT
HETATM    1  C   UNL     1      -8.714   9.328  62.653  1.00  0.00    -0.223 C  
HETATM    2  O   UNL     1      -9.784  10.259  62.567  1.00  0.00    -0.262 OA 
ENDROOT
BRANCH   2   3
HETATM    3  C   UNL     1      -9.995  11.068  63.649  1.00  0.00    -0.361 A  
HETATM    4  C   UNL     1      -9.797  10.448  64.879  1.00  0.00    -0.400 A  
HETATM    5  C   UNL     1      -9.933  11.144  66.090  1.00  0.00    -0.229 A  
HETATM    6  C   UNL     1     -11.258  15.117  65.968  1.00  0.00    -0.275 A  
HETATM    7  C   UNL     1     -10.356  12.497  66.072  1.00  0.00    -0.256 A  
HETATM    8  C   UNL     1     -11.016  14.443  64.781  1.00  0.00    -0.409 A  
HETATM    9  C   UNL     1     -10.368  12.405  63.616  1.00  0.00    -0.434 A  
HETATM   10  N   UNL     1     -10.567  13.174  67.225  1.00  0.00    -0.246 NA 
HETATM   11  C   UNL     1     -11.022  14.447  67.150  1.00  0.00    -0.303 A  
HETATM   12  C   UNL     1     -10.576  13.109  64.813  1.00  0.00    -0.390 A  
BRANCH   5  13
HETATM   13  N   UNL     1      -9.580  10.533  67.316  1.00  0.00    -0.161 NA 
HETATM   14  H   UNL     1      -8.609  10.545  67.629  1.00  0.00     0.000 HD 
BRANCH  13  15
HETATM   15  C   UNL     1     -10.603   9.883  68.140  1.00  0.00    -0.227 C  
HETATM   16  C   UNL     1     -10.344   8.373  68.149  1.00  0.00    -0.255 C  
BRANCH  15  17
HETATM   17  C   UNL     1     -10.537  10.407  69.590  1.00  0.00    -0.289 C  
BRANCH  17  18
HETATM   18  C   UNL     1     -11.868  10.915  70.162  1.00  0.00    -0.438 C  
BRANCH  18  19
HETATM   19  C   UNL     1     -12.489  10.047  71.257  1.00  0.00    -0.392 C  
HETATM   20  H1  UNL     1     -14.199   8.924  71.592  1.00  0.00     0.000 HD 
HETATM   21  N   UNL     1     -13.785   9.504  70.862  1.00  0.00    -0.534 NA 
HETATM   22  H2  UNL     1     -13.719   8.994  69.981  1.00  0.00     0.000 HD 
ENDBRANCH  18  19
ENDBRANCH  17  18
ENDBRANCH  15  17
ENDBRANCH  13  15
ENDBRANCH   5  13
ENDBRANCH   2   3
TORSDOF 6
ENDMDL
MODEL       84
REMARK 921   NORMALIZED FREE ENERGY PREDICTED BY IDOCK:   -4.48 KCAL/MOL
REMARK 922        TOTAL FREE ENERGY PREDICTED BY IDOCK:   -6.52 KCAL/MOL
REMARK 923 INTER-LIGAND FREE ENERGY PREDICTED BY IDOCK:   -6.16 KCAL/MOL
REMARK 924 INTRA-LIGAND FREE ENERGY PREDICTED BY IDOCK:   -0.36 KCAL/MOL
REMARK 927      BINDING AFFINITY PREDICTED BY RF-SCORE:    0.00 PKD
ROOT
HETATM    1  C   UNL     1     -10.759  15.850  67.218  1.00  0.00    -0.306 C  
HETATM    2  O   UNL     1     -10.634  14.461  66.945  1.00  0.00    -0.274 OA 
ENDROOT
BRANCH   2   3
HETATM    3  C   UNL     1     -11.136  13.595  67.875  1.00  0.00    -0.261 A  
HETATM    4  C   UNL     1     -11.175  12.265  67.463  1.00  0.00    -0.354 A  
HETATM    5  C   UNL     1     -11.625  11.240  68.309  1.00  0.00    -0.300 A  
HETATM    6  C   UNL     1     -13.164  12.285  72.064  1.00  0.00    -0.508 A  
HETATM    7  C   UNL     1     -12.127  11.567  69.594  1.00  0.00    -0.296 A  
HETATM    8  C   UNL     1     -12.618  13.268  71.254  1.00  0.00    -0.398 A  
HETATM    9  C   UNL     1     -11.585  13.923  69.148  1.00  0.00    -0.359 A  
HETATM   10  N   UNL     1     -12.637  10.610  70.405  1.00  0.00    -0.340 NA 
HETATM   11  C   UNL     1     -13.151  10.986  71.599  1.00  0.00    -0.438 A  
HETATM   12  C   UNL     1     -12.104  12.927  69.991  1.00  0.00    -0.357 A  
BRANCH   5  13
HETATM   13  N   UNL     1     -11.512   9.884  67.922  1.00  0.00    -0.563 NA 
HETATM   14  H   UNL     1     -12.181   9.487  67.262  1.00  0.00     0.000 HD 
BRANCH  13  15
HETATM   15  C   UNL     1     -10.438   9.047  68.464  1.00  0.00    -0.196 C  
HETATM   16  C   UNL     1     -10.356   7.756  67.643  1.00  0.00    -0.305 C  
BRANCH  15  17
HETATM   17  C   UNL     1      -9.085   9.783  68.369  1.00  0.00    -0.123 C  
BRANCH  17  18
HETATM   18  C   UNL     1      -8.365  10.000  69.708  1.00  0.00    -0.187 C  
BRANCH  18  19
HETATM   19  C   UNL     1      -6.863  10.271  69.612  1.00  0.00    -0.094 C  
HETATM   20  H1  UNL     1      -5.458  11.611  70.338  1.00  0.00     0.000 HD 
HETATM   21  N   UNL     1      -6.459  11.430  70.402  1.00  0.00    -0.500 NA 
HETATM   22  H2  UNL     1      -6.755  11.335  71.373  1.00  0.00     0.000 HD 
ENDBRANCH  18  19
ENDBRANCH  17  18
ENDBRANCH  15  17
ENDBRANCH  13  15
ENDBRANCH   5  13
ENDBRANCH   2   3
TORSDOF 6
ENDMDL
MODEL       85
REMARK 921   NORMALIZED FREE ENERGY PREDICTED BY IDOCK:   -4.48 KCAL/MOL
REMARK 922        TOTAL FREE ENERGY PREDICTED BY IDOCK:   -6.52 KCAL/MOL
REMARK 923 INTER-LIGAND FREE ENERGY PREDICTED BY IDOCK:   -5.57 KCAL/MOL
REMARK 924 INTRA-LIGAND FREE ENERGY PREDICTED BY IDOCK:   -0.94 KCAL/MOL
REMARK 927      BINDING AFFINITY PREDICTED BY RF-SCORE:    0.00 PKD
ROOT
HETATM    1  C   UNL     1     -11.248   7.754  72.767  1.00  0.00    -0.398 C  
HETATM    2  O   UNL     1     -12.334   8.592  72.398  1.00  0.00    -0.379 OA 
ENDROOT
BRANCH   2   3
HETATM    3  C   UNL     1     -12.112   9.497  71.398  1.00  0.00    -0.378 A  
HETATM    4  C   UNL     1     -11.577   8.950  70.234  1.00  0.00    -0.049 A  
HETATM    5  C   UNL     1     -11.324   9.732  69.097  1.00  0.00     0.015 A  
HETATM    6  C   UNL     1     -11.931  13.870  69.345  1.00  0.00    -0.402 A  
HETATM    7  C   UNL     1     -11.546  11.131  69.149  1.00  0.00    -0.324 A  
HETATM    8  C   UNL     1     -12.272  13.066  70.421  1.00  0.00    -0.386 A  
HETATM    9  C   UNL     1     -12.374  10.860  71.448  1.00  0.00    -0.403 A  
HETATM   10  N   UNL     1     -11.242  11.923  68.094  1.00  0.00    -0.237 NA 
HETATM   11  C   UNL     1     -11.424  13.258  68.217  1.00  0.00    -0.316 A  
HETATM   12  C   UNL     1     -12.068  11.677  70.347  1.00  0.00    -0.462 A  
BRANCH   5  13
HETATM   13  N   UNL     1     -10.924   9.128  67.881  1.00  0.00    -0.498 NA 
HETATM   14  H   UNL     1     -11.092   9.607  66.996  1.00  0.00     0.000 HD 
BRANCH  13  15
HETATM   15  C   UNL     1     -10.270   7.816  67.888  1.00  0.00    -0.206 C  
HETATM   16  C   UNL     1     -11.146   6.824  67.115  1.00  0.00    -0.404 C  
BRANCH  15  17
HETATM   17  C   UNL     1      -8.891   7.902  67.201  1.00  0.00    -0.137 C  
BRANCH  17  18
HETATM   18  C   UNL     1      -8.927   8.250  65.706  1.00  0.00    -0.185 C  
BRANCH  18  19
HETATM   19  C   UNL     1      -8.693   9.723  65.367  1.00  0.00    -0.154 C  
HETATM   20  H1  UNL     1      -9.766  11.489  65.208  1.00  0.00     0.000 HD 
HETATM   21  N   UNL     1      -9.921  10.507  65.434  1.00  0.00    -0.270 NA 
HETATM   22  H2  UNL     1     -10.374  10.406  66.343  1.00  0.00     0.000 HD 
ENDBRANCH  18  19
ENDBRANCH  17  18
ENDBRANCH  15  17
ENDBRANCH  13  15
ENDBRANCH   5  13
ENDBRANCH   2   3
TORSDOF 6
ENDMDL
MODEL       86
REMARK 921   NORMALIZED FREE ENERGY PREDICTED BY IDOCK:   -4.47 KCAL/MOL
REMARK 922        TOTAL FREE ENERGY PREDICTED BY IDOCK:   -6.51 KCAL/MOL
REMARK 923 INTER-LIGAND FREE ENERGY PREDICTED BY IDOCK:   -5.95 KCAL/MOL
REMARK 924 INTRA-LIGAND FREE ENERGY PREDICTED BY IDOCK:   -0.56 KCAL/MOL
REMARK 927      BINDING AFFINITY PREDICTED BY RF-SCORE:    0.00 PKD
ROOT
HETATM    1  C   UNL     1     -12.609  11.918  63.338  1.00  0.00    -0.431 C  
HETATM    2  O   UNL     1     -13.055  12.313  64.627  1.00  0.00    -0.770 OA 
ENDROOT
BRANCH   2   3
HETATM    3  C   UNL     1     -12.224  13.119  65.355  1.00  0.00    -0.461 A  
HETATM    4  C   UNL     1     -11.760  12.549  66.538  1.00  0.00    -0.454 A  
HETATM    5  C   UNL     1     -10.867  13.224  67.384  1.00  0.00    -0.267 A  
HETATM    6  C   UNL     1      -9.826  17.172  66.445  1.00  0.00    -0.312 A  
HETATM    7  C   UNL     1     -10.481  14.551  67.073  1.00  0.00    -0.268 A  
HETATM    8  C   UNL     1     -10.622  16.451  65.569  1.00  0.00    -0.346 A  
HETATM    9  C   UNL     1     -11.819  14.403  65.017  1.00  0.00    -0.400 A  
HETATM   10  N   UNL     1      -9.680  15.256  67.908  1.00  0.00    -0.211 NA 
HETATM   11  C   UNL     1      -9.385  16.537  67.588  1.00  0.00    -0.212 A  
HETATM   12  C   UNL     1     -10.980  15.127  65.879  1.00  0.00    -0.339 A  
BRANCH   5  13
HETATM   13  N   UNL     1     -10.294  12.566  68.498  1.00  0.00    -0.261 NA 
HETATM   14  H   UNL     1     -10.700  12.690  69.426  1.00  0.00     0.000 HD 
BRANCH  13  15
HETATM   15  C   UNL     1      -9.119  11.708  68.326  1.00  0.00    -0.187 C  
HETATM   16  C   UNL     1      -9.568  10.243  68.362  1.00  0.00    -0.155 C  
BRANCH  15  17
HETATM   17  C   UNL     1      -8.446  11.988  66.966  1.00  0.00    -0.183 C  
BRANCH  17  18
HETATM   18  C   UNL     1      -8.279  10.761  66.056  1.00  0.00    -0.164 C  
BRANCH  18  19
HETATM   19  C   UNL     1      -9.059  10.805  64.742  1.00  0.00    -0.200 C  
HETATM   20  H1  UNL     1     -10.629   9.822  63.813  1.00  0.00     0.000 HD 
HETATM   21  N   UNL     1     -10.109   9.793  64.689  1.00  0.00    -0.326 NA 
HETATM   22  H2  UNL     1     -10.734   9.868  65.491  1.00  0.00     0.000 HD 
ENDBRANCH  18  19
ENDBRANCH  17  18
ENDBRANCH  15  17
ENDBRANCH  13  15
ENDBRANCH   5  13
ENDBRANCH   2   3
TORSDOF 6
ENDMDL
MODEL       87
REMARK 921   NORMALIZED FREE ENERGY PREDICTED BY IDOCK:   -4.46 KCAL/MOL
REMARK 922        TOTAL FREE ENERGY PREDICTED BY IDOCK:   -6.50 KCAL/MOL
REMARK 923 INTER-LIGAND FREE ENERGY PREDICTED BY IDOCK:   -5.96 KCAL/MOL
REMARK 924 INTRA-LIGAND FREE ENERGY PREDICTED BY IDOCK:   -0.54 KCAL/MOL
REMARK 927      BINDING AFFINITY PREDICTED BY RF-SCORE:    0.00 PKD
ROOT
HETATM    1  C   UNL     1      -6.976  12.238  68.840  1.00  0.00    -0.098 C  
HETATM    2  O   UNL     1      -7.996  11.471  68.214  1.00  0.00    -0.126 OA 
ENDROOT
BRANCH   2   3
HETATM    3  C   UNL     1      -8.851  12.134  67.379  1.00  0.00    -0.181 A  
HETATM    4  C   UNL     1      -9.161  13.431  67.783  1.00  0.00    -0.202 A  
HETATM    5  C   UNL     1      -9.994  14.264  67.021  1.00  0.00    -0.258 A  
HETATM    6  C   UNL     1     -11.814  12.675  63.598  1.00  0.00    -0.606 A  
HETATM    7  C   UNL     1     -10.600  13.756  65.845  1.00  0.00    -0.289 A  
HETATM    8  C   UNL     1     -10.907  11.904  64.308  1.00  0.00    -0.396 A  
HETATM    9  C   UNL     1      -9.405  11.639  66.206  1.00  0.00    -0.228 A  
HETATM   10  N   UNL     1     -11.466  14.511  65.128  1.00  0.00    -0.354 NA 
HETATM   11  C   UNL     1     -12.058  13.958  64.044  1.00  0.00    -0.396 A  
HETATM   12  C   UNL     1     -10.295  12.428  65.459  1.00  0.00    -0.298 A  
BRANCH   5  13
HETATM   13  N   UNL     1     -10.170  15.623  67.373  1.00  0.00    -0.259 NA 
HETATM   14  H   UNL     1     -11.111  15.998  67.498  1.00  0.00     0.000 HD 
BRANCH  13  15
HETATM   15  C   UNL     1      -9.007  16.495  67.561  1.00  0.00    -0.196 C  
HETATM   16  C   UNL     1      -8.185  16.506  66.267  1.00  0.00    -0.360 C  
BRANCH  15  17
HETATM   17  C   UNL     1      -9.462  17.936  67.873  1.00  0.00    -0.272 C  
BRANCH  17  18
HETATM   18  C   UNL     1     -10.522  18.506  66.919  1.00  0.00    -0.434 C  
BRANCH  18  19
HETATM   19  C   UNL     1     -10.220  19.893  66.351  1.00  0.00    -0.500 C  
HETATM   20  H1  UNL     1      -8.677  20.902  65.403  1.00  0.00     0.000 HD 
HETATM   21  N   UNL     1      -8.879  19.977  65.782  1.00  0.00    -0.506 NA 
HETATM   22  H2  UNL     1      -8.729  19.251  65.082  1.00  0.00     0.000 HD 
ENDBRANCH  18  19
ENDBRANCH  17  18
ENDBRANCH  15  17
ENDBRANCH  13  15
ENDBRANCH   5  13
ENDBRANCH   2   3
TORSDOF 6
ENDMDL
MODEL       88
REMARK 921   NORMALIZED FREE ENERGY PREDICTED BY IDOCK:   -4.46 KCAL/MOL
REMARK 922        TOTAL FREE ENERGY PREDICTED BY IDOCK:   -6.50 KCAL/MOL
REMARK 923 INTER-LIGAND FREE ENERGY PREDICTED BY IDOCK:   -6.08 KCAL/MOL
REMARK 924 INTRA-LIGAND FREE ENERGY PREDICTED BY IDOCK:   -0.42 KCAL/MOL
REMARK 927      BINDING AFFINITY PREDICTED BY RF-SCORE:    0.00 PKD
ROOT
HETATM    1  C   UNL     1     -11.745  13.716  67.759  1.00  0.00    -0.362 C  
HETATM    2  O   UNL     1     -10.671  12.853  68.108  1.00  0.00    -0.226 OA 
ENDROOT
BRANCH   2   3
HETATM    3  C   UNL     1     -10.944  11.843  68.988  1.00  0.00    -0.219 A  
HETATM    4  C   UNL     1     -10.057  10.771  68.926  1.00  0.00    -0.217 A  
HETATM    5  C   UNL     1     -10.169   9.668  69.787  1.00  0.00    -0.237 A  
HETATM    6  C   UNL     1     -13.443   9.496  72.396  1.00  0.00    -0.475 A  
HETATM    7  C   UNL     1     -11.254   9.600  70.696  1.00  0.00    -0.320 A  
HETATM    8  C   UNL     1     -13.255  10.623  71.612  1.00  0.00    -0.495 A  
HETATM    9  C   UNL     1     -11.987  11.808  69.904  1.00  0.00    -0.405 A  
HETATM   10  N   UNL     1     -11.431   8.515  71.487  1.00  0.00    -0.270 NA 
HETATM   11  C   UNL     1     -12.514   8.480  72.298  1.00  0.00    -0.387 A  
HETATM   12  C   UNL     1     -12.162  10.687  70.731  1.00  0.00    -0.474 A  
BRANCH   5  13
HETATM   13  N   UNL     1      -9.170   8.666  69.807  1.00  0.00    -0.152 NA 
HETATM   14  H   UNL     1      -8.552   8.581  70.615  1.00  0.00     0.000 HD 
BRANCH  13  15
HETATM   15  C   UNL     1      -9.018   7.750  68.673  1.00  0.00    -0.133 C  
HETATM   16  C   UNL     1      -8.270   6.499  69.146  1.00  0.00    -0.116 C  
BRANCH  15  17
HETATM   17  C   UNL     1     -10.402   7.329  68.136  1.00  0.00    -0.234 C  
BRANCH  17  18
HETATM   18  C   UNL     1     -10.509   5.863  67.688  1.00  0.00    -0.301 C  
BRANCH  18  19
HETATM   19  C   UNL     1     -10.218   5.604  66.209  1.00  0.00    -0.113 C  
HETATM   20  H1  UNL     1     -11.097   4.684  64.573  1.00  0.00     0.000 HD 
HETATM   21  N   UNL     1     -11.290   4.857  65.559  1.00  0.00    -0.942 NA 
HETATM   22  H2  UNL     1     -12.190   5.321  65.681  1.00  0.00     0.000 HD 
ENDBRANCH  18  19
ENDBRANCH  17  18
ENDBRANCH  15  17
ENDBRANCH  13  15
ENDBRANCH   5  13
ENDBRANCH   2   3
TORSDOF 6
ENDMDL
MODEL       89
REMARK 921   NORMALIZED FREE ENERGY PREDICTED BY IDOCK:   -4.46 KCAL/MOL
REMARK 922        TOTAL FREE ENERGY PREDICTED BY IDOCK:   -6.49 KCAL/MOL
REMARK 923 INTER-LIGAND FREE ENERGY PREDICTED BY IDOCK:   -5.46 KCAL/MOL
REMARK 924 INTRA-LIGAND FREE ENERGY PREDICTED BY IDOCK:   -1.03 KCAL/MOL
REMARK 927      BINDING AFFINITY PREDICTED BY RF-SCORE:    0.00 PKD
ROOT
HETATM    1  C   UNL     1      -9.934  18.431  66.253  1.00  0.00    -0.366 C  
HETATM    2  O   UNL     1     -10.778  17.719  65.359  1.00  0.00    -0.626 OA 
ENDROOT
BRANCH   2   3
HETATM    3  C   UNL     1     -10.765  16.354  65.443  1.00  0.00    -0.296 A  
HETATM    4  C   UNL     1     -10.039  15.850  66.519  1.00  0.00    -0.293 A  
HETATM    5  C   UNL     1      -9.955  14.473  66.775  1.00  0.00    -0.264 A  
HETATM    6  C   UNL     1     -11.703  11.824  64.039  1.00  0.00    -0.421 A  
HETATM    7  C   UNL     1     -10.561  13.559  65.877  1.00  0.00    -0.284 A  
HETATM    8  C   UNL     1     -11.863  13.190  63.863  1.00  0.00    -0.533 A  
HETATM    9  C   UNL     1     -11.399  15.471  64.579  1.00  0.00    -0.322 A  
HETATM   10  N   UNL     1     -10.435  12.223  66.056  1.00  0.00    -0.247 NA 
HETATM   11  C   UNL     1     -10.988  11.396  65.139  1.00  0.00    -0.192 A  
HETATM   12  C   UNL     1     -11.276  14.085  64.773  1.00  0.00    -0.375 A  
BRANCH   5  13
HETATM   13  N   UNL     1      -9.341  13.996  67.957  1.00  0.00    -0.198 NA 
HETATM   14  H   UNL     1      -9.892  13.481  68.644  1.00  0.00     0.000 HD 
BRANCH  13  15
HETATM   15  C   UNL     1      -7.916  14.240  68.199  1.00  0.00    -0.140 C  
HETATM   16  C   UNL     1      -7.776  15.287  69.309  1.00  0.00    -0.214 C  
BRANCH  15  17
HETATM   17  C   UNL     1      -7.219  12.939  68.653  1.00  0.00    -0.098 C  
BRANCH  17  18
HETATM   18  C   UNL     1      -7.357  11.754  67.685  1.00  0.00    -0.119 C  
BRANCH  18  19
HETATM   19  C   UNL     1      -8.201  10.584  68.193  1.00  0.00    -0.114 C  
HETATM   20  H1  UNL     1      -9.924  10.250  69.294  1.00  0.00     0.000 HD 
HETATM   21  N   UNL     1      -9.362  11.030  68.956  1.00  0.00    -0.360 NA 
HETATM   22  H2  UNL     1      -9.927  11.686  68.417  1.00  0.00     0.000 HD 
ENDBRANCH  18  19
ENDBRANCH  17  18
ENDBRANCH  15  17
ENDBRANCH  13  15
ENDBRANCH   5  13
ENDBRANCH   2   3
TORSDOF 6
ENDMDL
MODEL       90
REMARK 921   NORMALIZED FREE ENERGY PREDICTED BY IDOCK:   -4.45 KCAL/MOL
REMARK 922        TOTAL FREE ENERGY PREDICTED BY IDOCK:   -6.49 KCAL/MOL
REMARK 923 INTER-LIGAND FREE ENERGY PREDICTED BY IDOCK:   -6.44 KCAL/MOL
REMARK 924 INTRA-LIGAND FREE ENERGY PREDICTED BY IDOCK:   -0.04 KCAL/MOL
REMARK 927      BINDING AFFINITY PREDICTED BY RF-SCORE:    0.00 PKD
ROOT
HETATM    1  C   UNL     1     -11.069   9.568  70.757  1.00  0.00    -0.323 C  
HETATM    2  O   UNL     1     -11.725  10.747  70.313  1.00  0.00    -0.295 OA 
ENDROOT
BRANCH   2   3
HETATM    3  C   UNL     1     -11.508  11.133  69.020  1.00  0.00    -0.296 A  
HETATM    4  C   UNL     1     -11.949  12.419  68.721  1.00  0.00    -0.276 A  
HETATM    5  C   UNL     1     -11.770  12.987  67.450  1.00  0.00    -0.374 A  
HETATM    6  C   UNL     1     -10.122  10.610  64.418  1.00  0.00    -0.418 A  
HETATM    7  C   UNL     1     -11.191  12.210  66.415  1.00  0.00    -0.331 A  
HETATM    8  C   UNL     1     -10.213  10.106  65.706  1.00  0.00    -0.283 A  
HETATM    9  C   UNL     1     -10.901  10.377  68.027  1.00  0.00    -0.319 A  
HETATM   10  N   UNL     1     -11.072  12.703  65.160  1.00  0.00    -0.287 NA 
HETATM   11  C   UNL     1     -10.561  11.899  64.199  1.00  0.00    -0.350 A  
HETATM   12  C   UNL     1     -10.768  10.895  66.728  1.00  0.00    -0.309 A  
BRANCH   5  13
HETATM   13  N   UNL     1     -12.089  14.346  67.216  1.00  0.00    -0.573 NA 
HETATM   14  H   UNL     1     -13.003  14.595  66.838  1.00  0.00     0.000 HD 
BRANCH  13  15
HETATM   15  C   UNL     1     -11.112  15.397  67.515  1.00  0.00    -0.315 C  
HETATM   16  C   UNL     1     -10.017  14.811  68.412  1.00  0.00    -0.223 C  
BRANCH  15  17
HETATM   17  C   UNL     1     -10.465  15.913  66.213  1.00  0.00    -0.324 C  
BRANCH  17  18
HETATM   18  C   UNL     1     -10.358  17.441  66.100  1.00  0.00    -0.329 C  
BRANCH  18  19
HETATM   19  C   UNL     1      -9.132  18.067  66.766  1.00  0.00    -0.273 C  
HETATM   20  H1  UNL     1      -7.145  18.472  66.337  1.00  0.00     0.000 HD 
HETATM   21  N   UNL     1      -7.963  18.055  65.893  1.00  0.00    -0.544 NA 
HETATM   22  H2  UNL     1      -8.165  18.502  64.999  1.00  0.00     0.000 HD 
ENDBRANCH  18  19
ENDBRANCH  17  18
ENDBRANCH  15  17
ENDBRANCH  13  15
ENDBRANCH   5  13
ENDBRANCH   2   3
TORSDOF 6
ENDMDL
MODEL       91
REMARK 921   NORMALIZED FREE ENERGY PREDICTED BY IDOCK:   -4.45 KCAL/MOL
REMARK 922        TOTAL FREE ENERGY PREDICTED BY IDOCK:   -6.48 KCAL/MOL
REMARK 923 INTER-LIGAND FREE ENERGY PREDICTED BY IDOCK:   -6.26 KCAL/MOL
REMARK 924 INTRA-LIGAND FREE ENERGY PREDICTED BY IDOCK:   -0.22 KCAL/MOL
REMARK 927      BINDING AFFINITY PREDICTED BY RF-SCORE:    0.00 PKD
ROOT
HETATM    1  C   UNL     1      -8.203   6.425  68.774  1.00  0.00    -0.121 C  
HETATM    2  O   UNL     1      -8.570   6.621  70.133  1.00  0.00    -0.137 OA 
ENDROOT
BRANCH   2   3
HETATM    3  C   UNL     1      -9.513   7.575  70.393  1.00  0.00    -0.161 A  
HETATM    4  C   UNL     1      -9.211   8.837  69.886  1.00  0.00    -0.160 A  
HETATM    5  C   UNL     1     -10.089   9.922  70.030  1.00  0.00    -0.260 A  
HETATM    6  C   UNL     1     -13.567   9.387  72.303  1.00  0.00    -0.532 A  
HETATM    7  C   UNL     1     -11.284   9.758  70.773  1.00  0.00    -0.348 A  
HETATM    8  C   UNL     1     -12.738   8.303  72.061  1.00  0.00    -0.376 A  
HETATM    9  C   UNL     1     -10.701   7.390  71.087  1.00  0.00    -0.246 A  
HETATM   10  N   UNL     1     -12.116  10.803  70.992  1.00  0.00    -0.352 NA 
HETATM   11  C   UNL     1     -13.216  10.602  71.754  1.00  0.00    -0.421 A  
HETATM   12  C   UNL     1     -11.567   8.475  71.303  1.00  0.00    -0.332 A  
BRANCH   5  13
HETATM   13  N   UNL     1      -9.829  11.150  69.376  1.00  0.00    -0.425 NA 
HETATM   14  H   UNL     1      -9.637  11.987  69.927  1.00  0.00     0.000 HD 
BRANCH  13  15
HETATM   15  C   UNL     1      -9.835  11.225  67.913  1.00  0.00    -0.176 C  
HETATM   16  C   UNL     1     -10.830  10.193  67.370  1.00  0.00    -0.323 C  
BRANCH  15  17
HETATM   17  C   UNL     1     -10.275  12.629  67.450  1.00  0.00    -0.219 C  
BRANCH  17  18
HETATM   18  C   UNL     1     -11.686  12.706  66.849  1.00  0.00    -0.453 C  
BRANCH  18  19
HETATM   19  C   UNL     1     -12.076  14.059  66.253  1.00  0.00    -0.456 C  
HETATM   20  H1  UNL     1     -13.333  14.833  64.797  1.00  0.00     0.000 HD 
HETATM   21  N   UNL     1     -13.073  13.930  65.195  1.00  0.00    -0.764 NA 
HETATM   22  H2  UNL     1     -13.894  13.421  65.521  1.00  0.00     0.000 HD 
ENDBRANCH  18  19
ENDBRANCH  17  18
ENDBRANCH  15  17
ENDBRANCH  13  15
ENDBRANCH   5  13
ENDBRANCH   2   3
TORSDOF 6
ENDMDL
MODEL       92
REMARK 921   NORMALIZED FREE ENERGY PREDICTED BY IDOCK:   -4.43 KCAL/MOL
REMARK 922        TOTAL FREE ENERGY PREDICTED BY IDOCK:   -6.46 KCAL/MOL
REMARK 923 INTER-LIGAND FREE ENERGY PREDICTED BY IDOCK:   -6.20 KCAL/MOL
REMARK 924 INTRA-LIGAND FREE ENERGY PREDICTED BY IDOCK:   -0.25 KCAL/MOL
REMARK 927      BINDING AFFINITY PREDICTED BY RF-SCORE:    0.00 PKD
ROOT
HETATM    1  C   UNL     1     -10.453  11.168  66.889  1.00  0.00    -0.246 C  
HETATM    2  O   UNL     1     -10.791  10.922  68.247  1.00  0.00    -0.192 OA 
ENDROOT
BRANCH   2   3
HETATM    3  C   UNL     1     -11.337  11.958  68.952  1.00  0.00    -0.278 A  
HETATM    4  C   UNL     1     -11.117  13.214  68.393  1.00  0.00    -0.298 A  
HETATM    5  C   UNL     1     -11.642  14.382  68.968  1.00  0.00    -0.296 A  
HETATM    6  C   UNL     1     -13.667  14.071  72.622  1.00  0.00    -0.586 A  
HETATM    7  C   UNL     1     -12.352  14.298  70.191  1.00  0.00    -0.353 A  
HETATM    8  C   UNL     1     -13.232  12.920  71.984  1.00  0.00    -0.549 A  
HETATM    9  C   UNL     1     -12.068  11.857  70.128  1.00  0.00    -0.382 A  
HETATM   10  N   UNL     1     -12.807  15.414  70.808  1.00  0.00    -0.459 NA 
HETATM   11  C   UNL     1     -13.433  15.281  72.001  1.00  0.00    -0.448 A  
HETATM   12  C   UNL     1     -12.548  13.016  70.761  1.00  0.00    -0.321 A  
BRANCH   5  13
HETATM   13  N   UNL     1     -11.533  15.625  68.300  1.00  0.00    -0.362 NA 
HETATM   14  H   UNL     1     -12.354  16.037  67.856  1.00  0.00     0.000 HD 
BRANCH  13  15
HETATM   15  C   UNL     1     -10.246  16.324  68.244  1.00  0.00    -0.253 C  
HETATM   16  C   UNL     1     -10.450  17.772  68.702  1.00  0.00    -0.295 C  
BRANCH  15  17
HETATM   17  C   UNL     1      -9.226  15.645  69.181  1.00  0.00    -0.254 C  
BRANCH  17  18
HETATM   18  C   UNL     1      -7.764  16.065  68.968  1.00  0.00    -0.216 C  
BRANCH  18  19
HETATM   19  C   UNL     1      -6.714  15.042  69.404  1.00  0.00    -0.158 C  
HETATM   20  H1  UNL     1      -6.329  13.761  70.988  1.00  0.00     0.000 HD 
HETATM   21  N   UNL     1      -7.029  14.444  70.697  1.00  0.00    -0.259 NA 
HETATM   22  H2  UNL     1      -7.964  14.036  70.697  1.00  0.00     0.000 HD 
ENDBRANCH  18  19
ENDBRANCH  17  18
ENDBRANCH  15  17
ENDBRANCH  13  15
ENDBRANCH   5  13
ENDBRANCH   2   3
TORSDOF 6
ENDMDL
MODEL       93
REMARK 921   NORMALIZED FREE ENERGY PREDICTED BY IDOCK:   -4.41 KCAL/MOL
REMARK 922        TOTAL FREE ENERGY PREDICTED BY IDOCK:   -6.43 KCAL/MOL
REMARK 923 INTER-LIGAND FREE ENERGY PREDICTED BY IDOCK:   -5.89 KCAL/MOL
REMARK 924 INTRA-LIGAND FREE ENERGY PREDICTED BY IDOCK:   -0.55 KCAL/MOL
REMARK 927      BINDING AFFINITY PREDICTED BY RF-SCORE:    0.00 PKD
ROOT
HETATM    1  C   UNL     1     -13.596   9.358  72.132  1.00  0.00    -0.457 C  
HETATM    2  O   UNL     1     -12.198   9.516  71.933  1.00  0.00    -0.374 OA 
ENDROOT
BRANCH   2   3
HETATM    3  C   UNL     1     -11.802  10.363  70.936  1.00  0.00    -0.377 A  
HETATM    4  C   UNL     1     -10.775   9.870  70.135  1.00  0.00    -0.361 A  
HETATM    5  C   UNL     1     -10.275  10.595  69.043  1.00  0.00    -0.215 A  
HETATM    6  C   UNL     1     -11.732  14.468  68.384  1.00  0.00    -0.367 A  
HETATM    7  C   UNL     1     -10.771  11.898  68.785  1.00  0.00    -0.224 A  
HETATM    8  C   UNL     1     -12.285  13.695  69.392  1.00  0.00    -0.307 A  
HETATM    9  C   UNL     1     -12.326  11.621  70.668  1.00  0.00    -0.437 A  
HETATM   10  N   UNL     1     -10.257  12.651  67.784  1.00  0.00    -0.217 NA 
HETATM   11  C   UNL     1     -10.731  13.908  67.616  1.00  0.00    -0.249 A  
HETATM   12  C   UNL     1     -11.799  12.396  69.622  1.00  0.00    -0.380 A  
BRANCH   5  13
HETATM   13  N   UNL     1      -9.340  10.010  68.157  1.00  0.00    -0.131 NA 
HETATM   14  H   UNL     1      -8.383  10.363  68.121  1.00  0.00     0.000 HD 
BRANCH  13  15
HETATM   15  C   UNL     1      -9.740   8.898  67.289  1.00  0.00    -0.181 C  
HETATM   16  C   UNL     1      -9.820   9.404  65.845  1.00  0.00    -0.362 C  
BRANCH  15  17
HETATM   17  C   UNL     1      -8.699   7.761  67.360  1.00  0.00    -0.128 C  
BRANCH  17  18
HETATM   18  C   UNL     1      -8.968   6.571  66.428  1.00  0.00    -0.158 C  
BRANCH  18  19
HETATM   19  C   UNL     1     -10.068   5.611  66.884  1.00  0.00    -0.193 C  
HETATM   20  H1  UNL     1     -11.781   4.714  66.139  1.00  0.00     0.000 HD 
HETATM   21  N   UNL     1     -11.048   5.354  65.835  1.00  0.00    -0.769 NA 
HETATM   22  H2  UNL     1     -10.597   5.020  64.983  1.00  0.00     0.000 HD 
ENDBRANCH  18  19
ENDBRANCH  17  18
ENDBRANCH  15  17
ENDBRANCH  13  15
ENDBRANCH   5  13
ENDBRANCH   2   3
TORSDOF 6
ENDMDL
MODEL       94
REMARK 921   NORMALIZED FREE ENERGY PREDICTED BY IDOCK:   -4.40 KCAL/MOL
REMARK 922        TOTAL FREE ENERGY PREDICTED BY IDOCK:   -6.41 KCAL/MOL
REMARK 923 INTER-LIGAND FREE ENERGY PREDICTED BY IDOCK:   -5.54 KCAL/MOL
REMARK 924 INTRA-LIGAND FREE ENERGY PREDICTED BY IDOCK:   -0.87 KCAL/MOL
REMARK 927      BINDING AFFINITY PREDICTED BY RF-SCORE:    0.00 PKD
ROOT
HETATM    1  C   UNL     1     -13.346   9.136  71.671  1.00  0.00    -0.383 C  
HETATM    2  O   UNL     1     -12.018   9.623  71.537  1.00  0.00    -0.358 OA 
ENDROOT
BRANCH   2   3
HETATM    3  C   UNL     1     -11.843  10.769  70.814  1.00  0.00    -0.339 A  
HETATM    4  C   UNL     1     -11.005  10.633  69.711  1.00  0.00    -0.340 A  
HETATM    5  C   UNL     1     -10.749  11.702  68.838  1.00  0.00    -0.207 A  
HETATM    6  C   UNL     1     -12.333  15.465  69.775  1.00  0.00    -0.288 A  
HETATM    7  C   UNL     1     -11.295  12.978  69.121  1.00  0.00    -0.273 A  
HETATM    8  C   UNL     1     -12.658  14.374  70.565  1.00  0.00    -0.417 A  
HETATM    9  C   UNL     1     -12.420  12.005  71.078  1.00  0.00    -0.376 A  
HETATM   10  N   UNL     1     -11.007  14.046  68.340  1.00  0.00    -0.243 NA 
HETATM   11  C   UNL     1     -11.513  15.252  68.687  1.00  0.00    -0.337 A  
HETATM   12  C   UNL     1     -12.127  13.109  70.260  1.00  0.00    -0.399 A  
BRANCH   5  13
HETATM   13  N   UNL     1     -10.017  11.498  67.644  1.00  0.00    -0.182 NA 
HETATM   14  H   UNL     1      -9.071  11.869  67.559  1.00  0.00     0.000 HD 
BRANCH  13  15
HETATM   15  C   UNL     1     -10.613  10.756  66.530  1.00  0.00    -0.218 C  
HETATM   16  C   UNL     1     -10.893  11.731  65.381  1.00  0.00    -0.347 C  
BRANCH  15  17
HETATM   17  C   UNL     1      -9.642   9.666  66.031  1.00  0.00    -0.305 C  
BRANCH  17  18
HETATM   18  C   UNL     1      -8.374   9.485  66.878  1.00  0.00    -0.116 C  
BRANCH  18  19
HETATM   19  C   UNL     1      -7.109  10.138  66.319  1.00  0.00    -0.110 C  
HETATM   20  H1  UNL     1      -6.195  11.997  66.259  1.00  0.00     0.000 HD 
HETATM   21  N   UNL     1      -7.038  11.561  66.632  1.00  0.00    -0.302 NA 
HETATM   22  H2  UNL     1      -7.123  11.723  67.635  1.00  0.00     0.000 HD 
ENDBRANCH  18  19
ENDBRANCH  17  18
ENDBRANCH  15  17
ENDBRANCH  13  15
ENDBRANCH   5  13
ENDBRANCH   2   3
TORSDOF 6
ENDMDL
MODEL       95
REMARK 921   NORMALIZED FREE ENERGY PREDICTED BY IDOCK:   -4.39 KCAL/MOL
REMARK 922        TOTAL FREE ENERGY PREDICTED BY IDOCK:   -6.40 KCAL/MOL
REMARK 923 INTER-LIGAND FREE ENERGY PREDICTED BY IDOCK:   -6.25 KCAL/MOL
REMARK 924 INTRA-LIGAND FREE ENERGY PREDICTED BY IDOCK:   -0.15 KCAL/MOL
REMARK 927      BINDING AFFINITY PREDICTED BY RF-SCORE:    0.00 PKD
ROOT
HETATM    1  C   UNL     1     -12.575  15.144  71.139  1.00  0.00    -0.367 C  
HETATM    2  O   UNL     1     -11.482  15.140  70.231  1.00  0.00    -0.247 OA 
ENDROOT
BRANCH   2   3
HETATM    3  C   UNL     1     -11.647  14.456  69.059  1.00  0.00    -0.296 A  
HETATM    4  C   UNL     1     -11.679  13.072  69.199  1.00  0.00    -0.378 A  
HETATM    5  C   UNL     1     -11.881  12.221  68.102  1.00  0.00    -0.311 A  
HETATM    6  C   UNL     1     -12.091  13.915  64.276  1.00  0.00    -0.477 A  
HETATM    7  C   UNL     1     -11.980  12.773  66.800  1.00  0.00    -0.319 A  
HETATM    8  C   UNL     1     -11.997  14.743  65.383  1.00  0.00    -0.209 A  
HETATM    9  C   UNL     1     -11.786  15.013  67.794  1.00  0.00    -0.294 A  
HETATM   10  N   UNL     1     -12.101  11.975  65.714  1.00  0.00    -0.489 NA 
HETATM   11  C   UNL     1     -12.138  12.553  64.491  1.00  0.00    -0.425 A  
HETATM   12  C   UNL     1     -11.921  14.183  66.670  1.00  0.00    -0.470 A  
BRANCH   5  13
HETATM   13  N   UNL     1     -12.061  10.830  68.292  1.00  0.00    -0.807 NA 
HETATM   14  H   UNL     1     -13.003  10.447  68.375  1.00  0.00     0.000 HD 
BRANCH  13  15
HETATM   15  C   UNL     1     -10.901   9.938  68.370  1.00  0.00    -0.221 C  
HETATM   16  C   UNL     1     -10.783   9.165  67.051  1.00  0.00    -0.189 C  
BRANCH  15  17
HETATM   17  C   UNL     1      -9.610  10.755  68.584  1.00  0.00    -0.187 C  
BRANCH  17  18
HETATM   18  C   UNL     1      -8.804  11.047  67.310  1.00  0.00    -0.135 C  
BRANCH  18  19
HETATM   19  C   UNL     1      -7.313  10.714  67.382  1.00  0.00    -0.093 C  
HETATM   20  H1  UNL     1      -5.546  11.193  66.410  1.00  0.00     0.000 HD 
HETATM   21  N   UNL     1      -6.541  11.415  66.362  1.00  0.00    -0.334 NA 
HETATM   22  H2  UNL     1      -6.696  12.422  66.409  1.00  0.00     0.000 HD 
ENDBRANCH  18  19
ENDBRANCH  17  18
ENDBRANCH  15  17
ENDBRANCH  13  15
ENDBRANCH   5  13
ENDBRANCH   2   3
TORSDOF 6
ENDMDL
MODEL       96
REMARK 921   NORMALIZED FREE ENERGY PREDICTED BY IDOCK:   -4.37 KCAL/MOL
REMARK 922        TOTAL FREE ENERGY PREDICTED BY IDOCK:   -6.37 KCAL/MOL
REMARK 923 INTER-LIGAND FREE ENERGY PREDICTED BY IDOCK:   -6.18 KCAL/MOL
REMARK 924 INTRA-LIGAND FREE ENERGY PREDICTED BY IDOCK:   -0.19 KCAL/MOL
REMARK 927      BINDING AFFINITY PREDICTED BY RF-SCORE:    0.00 PKD
ROOT
HETATM    1  C   UNL     1     -11.927  13.927  67.145  1.00  0.00    -0.420 C  
HETATM    2  O   UNL     1     -11.639  13.909  68.536  1.00  0.00    -0.288 OA 
ENDROOT
BRANCH   2   3
HETATM    3  C   UNL     1     -11.547  12.685  69.139  1.00  0.00    -0.320 A  
HETATM    4  C   UNL     1     -10.549  11.863  68.624  1.00  0.00    -0.259 A  
HETATM    5  C   UNL     1     -10.293  10.588  69.153  1.00  0.00    -0.220 A  
HETATM    6  C   UNL     1     -12.816   9.136  72.166  1.00  0.00    -0.486 A  
HETATM    7  C   UNL     1     -11.117  10.086  70.190  1.00  0.00    -0.310 A  
HETATM    8  C   UNL     1     -12.984  10.431  71.702  1.00  0.00    -0.581 A  
HETATM    9  C   UNL     1     -12.335  12.222  70.184  1.00  0.00    -0.212 A  
HETATM   10  N   UNL     1     -10.943   8.833  70.671  1.00  0.00    -0.231 NA 
HETATM   11  C   UNL     1     -11.793   8.385  71.625  1.00  0.00    -0.304 A  
HETATM   12  C   UNL     1     -12.145  10.925  70.688  1.00  0.00    -0.468 A  
BRANCH   5  13
HETATM   13  N   UNL     1      -9.177   9.837  68.714  1.00  0.00    -0.139 NA 
HETATM   14  H   UNL     1      -8.361   9.740  69.318  1.00  0.00     0.000 HD 
BRANCH  13  15
HETATM   15  C   UNL     1      -9.190   9.197  67.395  1.00  0.00    -0.130 C  
HETATM   16  C   UNL     1     -10.529   8.476  67.210  1.00  0.00    -0.366 C  
BRANCH  15  17
HETATM   17  C   UNL     1      -9.038  10.256  66.284  1.00  0.00    -0.178 C  
BRANCH  17  18
HETATM   18  C   UNL     1     -10.132  10.233  65.207  1.00  0.00    -0.359 C  
BRANCH  18  19
HETATM   19  C   UNL     1      -9.693  10.677  63.811  1.00  0.00    -0.327 C  
HETATM   20  H1  UNL     1      -9.550  12.411  62.685  1.00  0.00     0.000 HD 
HETATM   21  N   UNL     1      -9.843  12.115  63.615  1.00  0.00    -0.579 NA 
HETATM   22  H2  UNL     1      -9.353  12.639  64.340  1.00  0.00     0.000 HD 
ENDBRANCH  18  19
ENDBRANCH  17  18
ENDBRANCH  15  17
ENDBRANCH  13  15
ENDBRANCH   5  13
ENDBRANCH   2   3
TORSDOF 6
ENDMDL
MODEL       97
REMARK 921   NORMALIZED FREE ENERGY PREDICTED BY IDOCK:   -4.37 KCAL/MOL
REMARK 922        TOTAL FREE ENERGY PREDICTED BY IDOCK:   -6.37 KCAL/MOL
REMARK 923 INTER-LIGAND FREE ENERGY PREDICTED BY IDOCK:   -6.10 KCAL/MOL
REMARK 924 INTRA-LIGAND FREE ENERGY PREDICTED BY IDOCK:   -0.27 KCAL/MOL
REMARK 927      BINDING AFFINITY PREDICTED BY RF-SCORE:    0.00 PKD
ROOT
HETATM    1  C   UNL     1     -11.714  15.868  71.947  1.00  0.00    -0.499 C  
HETATM    2  O   UNL     1     -11.859  14.641  71.245  1.00  0.00    -0.333 OA 
ENDROOT
BRANCH   2   3
HETATM    3  C   UNL     1     -11.646  14.665  69.895  1.00  0.00    -0.285 A  
HETATM    4  C   UNL     1     -11.510  15.941  69.356  1.00  0.00    -0.351 A  
HETATM    5  C   UNL     1     -11.249  16.145  67.992  1.00  0.00    -0.291 A  
HETATM    6  C   UNL     1     -11.177  12.812  65.455  1.00  0.00    -0.329 A  
HETATM    7  C   UNL     1     -11.195  15.030  67.119  1.00  0.00    -0.336 A  
HETATM    8  C   UNL     1     -11.329  12.626  66.820  1.00  0.00    -0.373 A  
HETATM    9  C   UNL     1     -11.553  13.561  69.057  1.00  0.00    -0.356 A  
HETATM   10  N   UNL     1     -11.018  15.199  65.787  1.00  0.00    -0.344 NA 
HETATM   11  C   UNL     1     -11.028  14.103  64.993  1.00  0.00    -0.384 A  
HETATM   12  C   UNL     1     -11.359  13.739  67.678  1.00  0.00    -0.331 A  
BRANCH   5  13
HETATM   13  N   UNL     1     -10.965  17.440  67.499  1.00  0.00    -0.189 NA 
HETATM   14  H   UNL     1     -11.722  18.027  67.146  1.00  0.00     0.000 HD 
BRANCH  13  15
HETATM   15  C   UNL     1      -9.589  17.944  67.493  1.00  0.00    -0.269 C  
HETATM   16  C   UNL     1      -9.416  18.922  68.659  1.00  0.00    -0.427 C  
BRANCH  15  17
HETATM   17  C   UNL     1      -8.591  16.779  67.669  1.00  0.00    -0.211 C  
BRANCH  17  18
HETATM   18  C   UNL     1      -7.509  17.004  68.735  1.00  0.00    -0.242 C  
BRANCH  18  19
HETATM   19  C   UNL     1      -6.749  15.752  69.176  1.00  0.00    -0.154 C  
HETATM   20  H1  UNL     1      -7.101  13.967  70.168  1.00  0.00     0.000 HD 
HETATM   21  N   UNL     1      -7.608  14.801  69.873  1.00  0.00    -0.396 NA 
HETATM   22  H2  UNL     1      -8.423  14.558  69.310  1.00  0.00     0.000 HD 
ENDBRANCH  18  19
ENDBRANCH  17  18
ENDBRANCH  15  17
ENDBRANCH  13  15
ENDBRANCH   5  13
ENDBRANCH   2   3
TORSDOF 6
ENDMDL
MODEL       98
REMARK 921   NORMALIZED FREE ENERGY PREDICTED BY IDOCK:   -4.37 KCAL/MOL
REMARK 922        TOTAL FREE ENERGY PREDICTED BY IDOCK:   -6.37 KCAL/MOL
REMARK 923 INTER-LIGAND FREE ENERGY PREDICTED BY IDOCK:   -5.90 KCAL/MOL
REMARK 924 INTRA-LIGAND FREE ENERGY PREDICTED BY IDOCK:   -0.47 KCAL/MOL
REMARK 927      BINDING AFFINITY PREDICTED BY RF-SCORE:    0.00 PKD
ROOT
HETATM    1  C   UNL     1     -12.367  12.328  63.525  1.00  0.00    -0.565 C  
HETATM    2  O   UNL     1     -12.836  12.616  64.835  1.00  0.00    -0.763 OA 
ENDROOT
BRANCH   2   3
HETATM    3  C   UNL     1     -11.981  13.274  65.674  1.00  0.00    -0.412 A  
HETATM    4  C   UNL     1     -11.766  12.638  66.894  1.00  0.00    -0.453 A  
HETATM    5  C   UNL     1     -10.886  13.158  67.855  1.00  0.00    -0.242 A  
HETATM    6  C   UNL     1      -9.100  16.876  67.123  1.00  0.00    -0.228 A  
HETATM    7  C   UNL     1     -10.251  14.402  67.618  1.00  0.00    -0.229 A  
HETATM    8  C   UNL     1      -9.890  16.295  66.144  1.00  0.00    -0.358 A  
HETATM    9  C   UNL     1     -11.331  14.473  65.411  1.00  0.00    -0.341 A  
HETATM   10  N   UNL     1      -9.455  14.965  68.557  1.00  0.00    -0.204 NA 
HETATM   11  C   UNL     1      -8.916  16.180  68.300  1.00  0.00    -0.189 A  
HETATM   12  C   UNL     1     -10.496  15.050  66.383  1.00  0.00    -0.296 A  
BRANCH   5  13
HETATM   13  N   UNL     1     -10.572  12.416  69.019  1.00  0.00    -0.410 NA 
HETATM   14  H   UNL     1     -10.916  12.727  69.928  1.00  0.00     0.000 HD 
BRANCH  13  15
HETATM   15  C   UNL     1      -9.753  11.204  68.924  1.00  0.00    -0.150 C  
HETATM   16  C   UNL     1     -10.573  10.107  68.237  1.00  0.00    -0.262 C  
BRANCH  15  17
HETATM   17  C   UNL     1      -8.486  11.477  68.086  1.00  0.00    -0.154 C  
BRANCH  17  18
HETATM   18  C   UNL     1      -7.204  11.712  68.899  1.00  0.00    -0.113 C  
BRANCH  18  19
HETATM   19  C   UNL     1      -6.458  13.010  68.590  1.00  0.00    -0.087 C  
HETATM   20  H1  UNL     1      -6.253  14.378  67.046  1.00  0.00     0.000 HD 
HETATM   21  N   UNL     1      -6.751  13.512  67.252  1.00  0.00    -0.440 NA 
HETATM   22  H2  UNL     1      -7.755  13.623  67.111  1.00  0.00     0.000 HD 
ENDBRANCH  18  19
ENDBRANCH  17  18
ENDBRANCH  15  17
ENDBRANCH  13  15
ENDBRANCH   5  13
ENDBRANCH   2   3
TORSDOF 6
ENDMDL
MODEL       99
REMARK 921   NORMALIZED FREE ENERGY PREDICTED BY IDOCK:   -4.36 KCAL/MOL
REMARK 922        TOTAL FREE ENERGY PREDICTED BY IDOCK:   -6.36 KCAL/MOL
REMARK 923 INTER-LIGAND FREE ENERGY PREDICTED BY IDOCK:   -5.81 KCAL/MOL
REMARK 924 INTRA-LIGAND FREE ENERGY PREDICTED BY IDOCK:   -0.56 KCAL/MOL
REMARK 927      BINDING AFFINITY PREDICTED BY RF-SCORE:    0.00 PKD
ROOT
HETATM    1  C   UNL     1     -10.656  12.163  64.395  1.00  0.00    -0.323 C  
HETATM    2  O   UNL     1     -11.077  12.915  65.524  1.00  0.00    -0.274 OA 
ENDROOT
BRANCH   2   3
HETATM    3  C   UNL     1     -11.096  12.271  66.730  1.00  0.00    -0.296 A  
HETATM    4  C   UNL     1     -11.377  13.094  67.818  1.00  0.00    -0.326 A  
HETATM    5  C   UNL     1     -11.474  12.588  69.123  1.00  0.00    -0.305 A  
HETATM    6  C   UNL     1     -10.596   8.543  69.766  1.00  0.00    -0.224 A  
HETATM    7  C   UNL     1     -11.206  11.217  69.361  1.00  0.00    -0.280 A  
HETATM    8  C   UNL     1     -10.609   9.040  68.472  1.00  0.00    -0.196 A  
HETATM    9  C   UNL     1     -10.873  10.917  66.944  1.00  0.00    -0.307 A  
HETATM   10  N   UNL     1     -11.219  10.715  70.618  1.00  0.00    -0.218 NA 
HETATM   11  C   UNL     1     -10.904   9.410  70.793  1.00  0.00    -0.305 A  
HETATM   12  C   UNL     1     -10.898  10.397  68.248  1.00  0.00    -0.299 A  
BRANCH   5  13
HETATM   13  N   UNL     1     -11.910  13.416  70.186  1.00  0.00    -0.472 NA 
HETATM   14  H   UNL     1     -12.065  13.015  71.111  1.00  0.00     0.000 HD 
BRANCH  13  15
HETATM   15  C   UNL     1     -12.139  14.846  69.963  1.00  0.00    -0.338 C  
HETATM   16  C   UNL     1     -13.389  15.272  70.740  1.00  0.00    -0.402 C  
BRANCH  15  17
HETATM   17  C   UNL     1     -10.935  15.667  70.470  1.00  0.00    -0.371 C  
BRANCH  17  18
HETATM   18  C   UNL     1      -9.952  16.123  69.381  1.00  0.00    -0.243 C  
BRANCH  18  19
HETATM   19  C   UNL     1     -10.435  17.274  68.497  1.00  0.00    -0.375 C  
HETATM   20  H1  UNL     1      -9.777  18.404  66.890  1.00  0.00     0.000 HD 
HETATM   21  N   UNL     1      -9.455  17.637  67.479  1.00  0.00    -0.254 NA 
HETATM   22  H2  UNL     1      -9.189  16.828  66.918  1.00  0.00     0.000 HD 
ENDBRANCH  18  19
ENDBRANCH  17  18
ENDBRANCH  15  17
ENDBRANCH  13  15
ENDBRANCH   5  13
ENDBRANCH   2   3
TORSDOF 6
ENDMDL
MODEL      100
REMARK 921   NORMALIZED FREE ENERGY PREDICTED BY IDOCK:   -4.35 KCAL/MOL
REMARK 922        TOTAL FREE ENERGY PREDICTED BY IDOCK:   -6.35 KCAL/MOL
REMARK 923 INTER-LIGAND FREE ENERGY PREDICTED BY IDOCK:   -6.01 KCAL/MOL
REMARK 924 INTRA-LIGAND FREE ENERGY PREDICTED BY IDOCK:   -0.34 KCAL/MOL
REMARK 927      BINDING AFFINITY PREDICTED BY RF-SCORE:    0.00 PKD
ROOT
HETATM    1  C   UNL     1     -14.284  15.111  72.405  1.00  0.00    -0.445 C  
HETATM    2  O   UNL     1     -13.146  15.639  71.739  1.00  0.00    -0.436 OA 
ENDROOT
BRANCH   2   3
HETATM    3  C   UNL     1     -12.584  14.870  70.758  1.00  0.00    -0.354 A  
HETATM    4  C   UNL     1     -12.083  15.591  69.677  1.00  0.00    -0.352 A  
HETATM    5  C   UNL     1     -11.439  14.960  68.602  1.00  0.00    -0.306 A  
HETATM    6  C   UNL     1     -11.301  10.773  68.537  1.00  0.00    -0.360 A  
HETATM    7  C   UNL     1     -11.358  13.545  68.571  1.00  0.00    -0.292 A  
HETATM    8  C   UNL     1     -11.839  11.420  69.638  1.00  0.00    -0.431 A  
HETATM    9  C   UNL     1     -12.473  13.486  70.760  1.00  0.00    -0.428 A  
HETATM   10  N   UNL     1     -10.809  12.904  67.512  1.00  0.00    -0.232 NA 
HETATM   11  C   UNL     1     -10.805  11.551  67.511  1.00  0.00    -0.237 A  
HETATM   12  C   UNL     1     -11.893  12.824  69.666  1.00  0.00    -0.384 A  
BRANCH   5  13
HETATM   13  N   UNL     1     -10.807  15.724  67.592  1.00  0.00    -0.308 NA 
HETATM   14  H   UNL     1     -11.370  16.277  66.946  1.00  0.00     0.000 HD 
BRANCH  13  15
HETATM   15  C   UNL     1      -9.346  15.724  67.471  1.00  0.00    -0.209 C  
HETATM   16  C   UNL     1      -8.952  16.563  66.251  1.00  0.00    -0.359 C  
BRANCH  15  17
HETATM   17  C   UNL     1      -8.704  16.345  68.729  1.00  0.00    -0.246 C  
BRANCH  17  18
HETATM   18  C   UNL     1      -7.364  15.725  69.152  1.00  0.00    -0.194 C  
BRANCH  18  19
HETATM   19  C   UNL     1      -7.297  14.198  69.095  1.00  0.00    -0.067 C  
HETATM   20  H1  UNL     1      -6.374  12.627  70.082  1.00  0.00     0.000 HD 
HETATM   21  N   UNL     1      -6.419  13.645  70.120  1.00  0.00    -0.366 NA 
HETATM   22  H2  UNL     1      -6.687  13.968  71.049  1.00  0.00     0.000 HD 
ENDBRANCH  18  19
ENDBRANCH  17  18
ENDBRANCH  15  17
ENDBRANCH  13  15
ENDBRANCH   5  13
ENDBRANCH   2   3
TORSDOF 6
ENDMDL
MODEL      101
REMARK 921   NORMALIZED FREE ENERGY PREDICTED BY IDOCK:   -4.34 KCAL/MOL
REMARK 922        TOTAL FREE ENERGY PREDICTED BY IDOCK:   -6.33 KCAL/MOL
REMARK 923 INTER-LIGAND FREE ENERGY PREDICTED BY IDOCK:   -5.77 KCAL/MOL
REMARK 924 INTRA-LIGAND FREE ENERGY PREDICTED BY IDOCK:   -0.56 KCAL/MOL
REMARK 927      BINDING AFFINITY PREDICTED BY RF-SCORE:    0.00 PKD
ROOT
HETATM    1  C   UNL     1     -14.372   8.401  71.631  1.00  0.00    -0.448 C  
HETATM    2  O   UNL     1     -13.429   9.009  72.502  1.00  0.00    -0.454 OA 
ENDROOT
BRANCH   2   3
HETATM    3  C   UNL     1     -12.115   8.969  72.125  1.00  0.00    -0.342 A  
HETATM    4  C   UNL     1     -11.788   9.832  71.083  1.00  0.00    -0.466 A  
HETATM    5  C   UNL     1     -10.476   9.945  70.599  1.00  0.00    -0.231 A  
HETATM    6  C   UNL     1      -7.547   7.387  72.159  1.00  0.00    -0.086 A  
HETATM    7  C   UNL     1      -9.463   9.107  71.130  1.00  0.00    -0.261 A  
HETATM    8  C   UNL     1      -8.826   7.365  72.694  1.00  0.00    -0.163 A  
HETATM    9  C   UNL     1     -11.123   8.173  72.683  1.00  0.00    -0.450 A  
HETATM   10  N   UNL     1      -8.204   9.140  70.633  1.00  0.00    -0.175 NA 
HETATM   11  C   UNL     1      -7.289   8.281  71.141  1.00  0.00    -0.070 A  
HETATM   12  C   UNL     1      -9.815   8.217  72.174  1.00  0.00    -0.342 A  
BRANCH   5  13
HETATM   13  N   UNL     1     -10.142  10.936  69.645  1.00  0.00    -0.439 NA 
HETATM   14  H   UNL     1      -9.164  11.175  69.483  1.00  0.00     0.000 HD 
BRANCH  13  15
HETATM   15  C   UNL     1     -11.196  11.619  68.891  1.00  0.00    -0.246 C  
HETATM   16  C   UNL     1     -10.941  13.130  68.945  1.00  0.00    -0.270 C  
BRANCH  15  17
HETATM   17  C   UNL     1     -11.180  11.165  67.416  1.00  0.00    -0.363 C  
BRANCH  17  18
HETATM   18  C   UNL     1      -9.814  10.694  66.894  1.00  0.00    -0.228 C  
BRANCH  18  19
HETATM   19  C   UNL     1      -9.796   9.301  66.262  1.00  0.00    -0.291 C  
HETATM   20  H1  UNL     1      -9.438   8.414  64.423  1.00  0.00     0.000 HD 
HETATM   21  N   UNL     1      -9.450   9.342  64.845  1.00  0.00    -0.451 NA 
HETATM   22  H2  UNL     1      -8.565   9.826  64.695  1.00  0.00     0.000 HD 
ENDBRANCH  18  19
ENDBRANCH  17  18
ENDBRANCH  15  17
ENDBRANCH  13  15
ENDBRANCH   5  13
ENDBRANCH   2   3
TORSDOF 6
ENDMDL
MODEL      102
REMARK 921   NORMALIZED FREE ENERGY PREDICTED BY IDOCK:   -4.33 KCAL/MOL
REMARK 922        TOTAL FREE ENERGY PREDICTED BY IDOCK:   -6.32 KCAL/MOL
REMARK 923 INTER-LIGAND FREE ENERGY PREDICTED BY IDOCK:   -5.99 KCAL/MOL
REMARK 924 INTRA-LIGAND FREE ENERGY PREDICTED BY IDOCK:   -0.33 KCAL/MOL
REMARK 927      BINDING AFFINITY PREDICTED BY RF-SCORE:    0.00 PKD
ROOT
HETATM    1  C   UNL     1     -10.545  12.145  64.603  1.00  0.00    -0.300 C  
HETATM    2  O   UNL     1     -10.944  12.849  65.772  1.00  0.00    -0.274 OA 
ENDROOT
BRANCH   2   3
HETATM    3  C   UNL     1     -10.989  12.141  66.941  1.00  0.00    -0.270 A  
HETATM    4  C   UNL     1     -11.326  12.898  68.060  1.00  0.00    -0.333 A  
HETATM    5  C   UNL     1     -11.455  12.321  69.332  1.00  0.00    -0.277 A  
HETATM    6  C   UNL     1     -10.506   8.266  69.790  1.00  0.00    -0.220 A  
HETATM    7  C   UNL     1     -11.164  10.945  69.506  1.00  0.00    -0.277 A  
HETATM    8  C   UNL     1     -10.487   8.831  68.525  1.00  0.00    -0.212 A  
HETATM    9  C   UNL     1     -10.743  10.782  67.090  1.00  0.00    -0.324 A  
HETATM   10  N   UNL     1     -11.207  10.375  70.734  1.00  0.00    -0.296 NA 
HETATM   11  C   UNL     1     -10.868   9.070  70.851  1.00  0.00    -0.258 A  
HETATM   12  C   UNL     1     -10.799  10.192  68.363  1.00  0.00    -0.284 A  
BRANCH   5  13
HETATM   13  N   UNL     1     -11.944  13.081  70.421  1.00  0.00    -0.517 NA 
HETATM   14  H   UNL     1     -12.257  12.608  71.270  1.00  0.00     0.000 HD 
BRANCH  13  15
HETATM   15  C   UNL     1     -12.004  14.542  70.335  1.00  0.00    -0.318 C  
HETATM   16  C   UNL     1     -13.474  14.977  70.334  1.00  0.00     0.055 C  
BRANCH  15  17
HETATM   17  C   UNL     1     -11.299  15.180  71.551  1.00  0.00    -0.388 C  
BRANCH  17  18
HETATM   18  C   UNL     1     -12.095  16.284  72.262  1.00  0.00    -0.567 C  
BRANCH  18  19
HETATM   19  C   UNL     1     -12.860  15.844  73.511  1.00  0.00    -0.590 C  
HETATM   20  H1  UNL     1     -13.219  14.124  74.610  1.00  0.00     0.000 HD 
HETATM   21  N   UNL     1     -12.709  14.418  73.777  1.00  0.00    -0.341 NA 
HETATM   22  H2  UNL     1     -11.725  14.156  73.837  1.00  0.00     0.000 HD 
ENDBRANCH  18  19
ENDBRANCH  17  18
ENDBRANCH  15  17
ENDBRANCH  13  15
ENDBRANCH   5  13
ENDBRANCH   2   3
TORSDOF 6
ENDMDL
MODEL      103
REMARK 921   NORMALIZED FREE ENERGY PREDICTED BY IDOCK:   -4.33 KCAL/MOL
REMARK 922        TOTAL FREE ENERGY PREDICTED BY IDOCK:   -6.32 KCAL/MOL
REMARK 923 INTER-LIGAND FREE ENERGY PREDICTED BY IDOCK:   -5.71 KCAL/MOL
REMARK 924 INTRA-LIGAND FREE ENERGY PREDICTED BY IDOCK:   -0.60 KCAL/MOL
REMARK 927      BINDING AFFINITY PREDICTED BY RF-SCORE:    0.00 PKD
ROOT
HETATM    1  C   UNL     1     -12.298  12.850  63.332  1.00  0.00    -0.410 C  
HETATM    2  O   UNL     1     -12.170  14.172  63.837  1.00  0.00    -0.567 OA 
ENDROOT
BRANCH   2   3
HETATM    3  C   UNL     1     -11.329  14.356  64.898  1.00  0.00    -0.380 A  
HETATM    4  C   UNL     1     -11.136  15.688  65.256  1.00  0.00    -0.310 A  
HETATM    5  C   UNL     1     -10.333  16.053  66.348  1.00  0.00    -0.305 A  
HETATM    6  C   UNL     1      -8.242  13.044  68.379  1.00  0.00    -0.123 A  
HETATM    7  C   UNL     1      -9.636  15.049  67.066  1.00  0.00    -0.225 A  
HETATM    8  C   UNL     1      -9.121  12.697  67.366  1.00  0.00    -0.191 A  
HETATM    9  C   UNL     1     -10.685  13.360  65.621  1.00  0.00    -0.283 A  
HETATM   10  N   UNL     1      -8.796  15.375  68.077  1.00  0.00    -0.164 NA 
HETATM   11  C   UNL     1      -8.116  14.381  68.694  1.00  0.00    -0.146 A  
HETATM   12  C   UNL     1      -9.823  13.700  66.676  1.00  0.00    -0.284 A  
BRANCH   5  13
HETATM   13  N   UNL     1     -10.275  17.398  66.782  1.00  0.00    -0.311 NA 
HETATM   14  H   UNL     1     -10.605  17.646  67.715  1.00  0.00     0.000 HD 
BRANCH  13  15
HETATM   15  C   UNL     1      -9.743  18.438  65.897  1.00  0.00     0.056 C  
HETATM   16  C   UNL     1     -10.598  19.701  66.050  1.00  0.00    -0.584 C  
BRANCH  15  17
HETATM   17  C   UNL     1      -8.287  18.774  66.280  1.00  0.00    -0.262 C  
BRANCH  17  18
HETATM   18  C   UNL     1      -8.036  18.969  67.783  1.00  0.00    -0.292 C  
BRANCH  18  19
HETATM   19  C   UNL     1      -6.973  20.007  68.145  1.00  0.00    -0.295 C  
HETATM   20  H1  UNL     1      -6.413  21.932  67.620  1.00  0.00     0.000 HD 
HETATM   21  N   UNL     1      -7.122  21.240  67.379  1.00  0.00    -0.639 NA 
HETATM   22  H2  UNL     1      -8.061  21.624  67.478  1.00  0.00     0.000 HD 
ENDBRANCH  18  19
ENDBRANCH  17  18
ENDBRANCH  15  17
ENDBRANCH  13  15
ENDBRANCH   5  13
ENDBRANCH   2   3
TORSDOF 6
ENDMDL
MODEL      104
REMARK 921   NORMALIZED FREE ENERGY PREDICTED BY IDOCK:   -4.32 KCAL/MOL
REMARK 922        TOTAL FREE ENERGY PREDICTED BY IDOCK:   -6.30 KCAL/MOL
REMARK 923 INTER-LIGAND FREE ENERGY PREDICTED BY IDOCK:   -5.77 KCAL/MOL
REMARK 924 INTRA-LIGAND FREE ENERGY PREDICTED BY IDOCK:   -0.53 KCAL/MOL
REMARK 927      BINDING AFFINITY PREDICTED BY RF-SCORE:    0.00 PKD
ROOT
HETATM    1  C   UNL     1     -12.451  12.455  64.302  1.00  0.00    -0.437 C  
HETATM    2  O   UNL     1     -11.560  13.496  63.924  1.00  0.00    -0.376 OA 
ENDROOT
BRANCH   2   3
HETATM    3  C   UNL     1     -10.970  14.208  64.930  1.00  0.00    -0.397 A  
HETATM    4  C   UNL     1     -10.402  13.426  65.933  1.00  0.00    -0.290 A  
HETATM    5  C   UNL     1      -9.721  13.996  67.020  1.00  0.00    -0.256 A  
HETATM    6  C   UNL     1      -9.674  18.170  67.378  1.00  0.00    -0.296 A  
HETATM    7  C   UNL     1      -9.670  15.407  67.148  1.00  0.00    -0.216 A  
HETATM    8  C   UNL     1     -10.250  17.589  66.259  1.00  0.00    -0.356 A  
HETATM    9  C   UNL     1     -10.890  15.591  65.022  1.00  0.00    -0.468 A  
HETATM   10  N   UNL     1      -9.086  15.986  68.223  1.00  0.00    -0.188 NA 
HETATM   11  C   UNL     1      -9.113  17.335  68.321  1.00  0.00    -0.262 A  
HETATM   12  C   UNL     1     -10.273  16.189  66.133  1.00  0.00    -0.351 A  
BRANCH   5  13
HETATM   13  N   UNL     1      -9.024  13.180  67.941  1.00  0.00    -0.190 NA 
HETATM   14  H   UNL     1      -8.745  13.559  68.847  1.00  0.00     0.000 HD 
BRANCH  13  15
HETATM   15  C   UNL     1      -8.700  11.791  67.601  1.00  0.00    -0.159 C  
HETATM   16  C   UNL     1      -7.272  11.739  67.049  1.00  0.00    -0.134 C  
BRANCH  15  17
HETATM   17  C   UNL     1      -8.780  10.899  68.858  1.00  0.00    -0.144 C  
BRANCH  17  18
HETATM   18  C   UNL     1     -10.118  10.171  69.057  1.00  0.00    -0.216 C  
BRANCH  18  19
HETATM   19  C   UNL     1     -11.254  10.617  68.136  1.00  0.00    -0.302 C  
HETATM   20  H1  UNL     1     -13.285  11.019  68.226  1.00  0.00     0.000 HD 
HETATM   21  N   UNL     1     -12.527  10.722  68.840  1.00  0.00    -0.731 NA 
HETATM   22  H2  UNL     1     -12.450  11.333  69.652  1.00  0.00     0.000 HD 
ENDBRANCH  18  19
ENDBRANCH  17  18
ENDBRANCH  15  17
ENDBRANCH  13  15
ENDBRANCH   5  13
ENDBRANCH   2   3
TORSDOF 6
ENDMDL
MODEL      105
REMARK 921   NORMALIZED FREE ENERGY PREDICTED BY IDOCK:   -4.31 KCAL/MOL
REMARK 922        TOTAL FREE ENERGY PREDICTED BY IDOCK:   -6.29 KCAL/MOL
REMARK 923 INTER-LIGAND FREE ENERGY PREDICTED BY IDOCK:   -5.65 KCAL/MOL
REMARK 924 INTRA-LIGAND FREE ENERGY PREDICTED BY IDOCK:   -0.64 KCAL/MOL
REMARK 927      BINDING AFFINITY PREDICTED BY RF-SCORE:    0.00 PKD
ROOT
HETATM    1  C   UNL     1     -10.349  11.754  63.144  1.00  0.00    -0.317 C  
HETATM    2  O   UNL     1     -10.222  10.481  63.763  1.00  0.00    -0.281 OA 
ENDROOT
BRANCH   2   3
HETATM    3  C   UNL     1     -10.192  10.451  65.129  1.00  0.00    -0.256 A  
HETATM    4  C   UNL     1      -9.955  11.686  65.727  1.00  0.00    -0.270 A  
HETATM    5  C   UNL     1      -9.932  11.841  67.122  1.00  0.00    -0.203 A  
HETATM    6  C   UNL     1     -10.297   8.421  69.515  1.00  0.00    -0.219 A  
HETATM    7  C   UNL     1     -10.078  10.701  67.952  1.00  0.00    -0.168 A  
HETATM    8  C   UNL     1     -10.421   8.306  68.139  1.00  0.00    -0.226 A  
HETATM    9  C   UNL     1     -10.381   9.334  65.932  1.00  0.00     0.126 A  
HETATM   10  N   UNL     1      -9.987  10.807  69.299  1.00  0.00    -0.196 NA 
HETATM   11  C   UNL     1     -10.082   9.678  70.040  1.00  0.00    -0.252 A  
HETATM   12  C   UNL     1     -10.296   9.448  67.329  1.00  0.00    -0.325 A  
BRANCH   5  13
HETATM   13  N   UNL     1      -9.840  13.128  67.702  1.00  0.00    -0.214 NA 
HETATM   14  H   UNL     1      -9.093  13.333  68.367  1.00  0.00     0.000 HD 
BRANCH  13  15
HETATM   15  C   UNL     1     -10.812  14.167  67.353  1.00  0.00    -0.287 C  
HETATM   16  C   UNL     1     -11.828  14.295  68.494  1.00  0.00    -0.382 C  
BRANCH  15  17
HETATM   17  C   UNL     1     -10.103  15.524  67.165  1.00  0.00    -0.254 C  
BRANCH  17  18
HETATM   18  C   UNL     1     -10.527  16.315  65.919  1.00  0.00    -0.359 C  
BRANCH  18  19
HETATM   19  C   UNL     1     -11.038  15.475  64.748  1.00  0.00    -0.407 C  
HETATM   20  H1  UNL     1     -12.494  15.553  63.275  1.00  0.00     0.000 HD 
HETATM   21  N   UNL     1     -12.153  16.113  64.056  1.00  0.00    -1.159 NA 
HETATM   22  H2  UNL     1     -11.909  17.056  63.754  1.00  0.00     0.000 HD 
ENDBRANCH  18  19
ENDBRANCH  17  18
ENDBRANCH  15  17
ENDBRANCH  13  15
ENDBRANCH   5  13
ENDBRANCH   2   3
TORSDOF 6
ENDMDL
MODEL      106
REMARK 921   NORMALIZED FREE ENERGY PREDICTED BY IDOCK:   -4.30 KCAL/MOL
REMARK 922        TOTAL FREE ENERGY PREDICTED BY IDOCK:   -6.28 KCAL/MOL
REMARK 923 INTER-LIGAND FREE ENERGY PREDICTED BY IDOCK:   -5.82 KCAL/MOL
REMARK 924 INTRA-LIGAND FREE ENERGY PREDICTED BY IDOCK:   -0.46 KCAL/MOL
REMARK 927      BINDING AFFINITY PREDICTED BY RF-SCORE:    0.00 PKD
ROOT
HETATM    1  C   UNL     1     -10.569  18.636  65.877  1.00  0.00    -0.321 C  
HETATM    2  O   UNL     1     -11.116  17.860  64.819  1.00  0.00    -0.785 OA 
ENDROOT
BRANCH   2   3
HETATM    3  C   UNL     1     -10.977  16.503  64.905  1.00  0.00    -0.209 A  
HETATM    4  C   UNL     1      -9.989  16.080  65.791  1.00  0.00    -0.382 A  
HETATM    5  C   UNL     1      -9.741  14.719  66.029  1.00  0.00    -0.321 A  
HETATM    6  C   UNL     1     -11.848  11.884  63.776  1.00  0.00    -0.558 A  
HETATM    7  C   UNL     1     -10.460  13.741  65.297  1.00  0.00    -0.363 A  
HETATM    8  C   UNL     1     -12.151  13.229  63.633  1.00  0.00    -0.551 A  
HETATM    9  C   UNL     1     -11.718  15.554  64.213  1.00  0.00    -0.194 A  
HETATM   10  N   UNL     1     -10.193  12.423  65.449  1.00  0.00    -0.276 NA 
HETATM   11  C   UNL     1     -10.872  11.536  64.686  1.00  0.00    -0.310 A  
HETATM   12  C   UNL     1     -11.446  14.187  64.381  1.00  0.00    -0.344 A  
BRANCH   5  13
HETATM   13  N   UNL     1      -8.840  14.317  67.043  1.00  0.00    -0.224 NA 
HETATM   14  H   UNL     1      -8.476  13.364  67.051  1.00  0.00     0.000 HD 
BRANCH  13  15
HETATM   15  C   UNL     1      -8.426  15.265  68.082  1.00  0.00    -0.151 C  
HETATM   16  C   UNL     1      -9.218  14.971  69.361  1.00  0.00    -0.114 C  
BRANCH  15  17
HETATM   17  C   UNL     1      -6.921  15.108  68.382  1.00  0.00    -0.108 C  
BRANCH  17  18
HETATM   18  C   UNL     1      -6.334  16.154  69.341  1.00  0.00    -0.179 C  
BRANCH  18  19
HETATM   19  C   UNL     1      -6.745  17.602  69.067  1.00  0.00    -0.250 C  
HETATM   20  H1  UNL     1      -6.604  19.018  67.560  1.00  0.00     0.000 HD 
HETATM   21  N   UNL     1      -6.331  18.053  67.743  1.00  0.00    -0.176 NA 
HETATM   22  H2  UNL     1      -6.677  17.428  67.015  1.00  0.00     0.000 HD 
ENDBRANCH  18  19
ENDBRANCH  17  18
ENDBRANCH  15  17
ENDBRANCH  13  15
ENDBRANCH   5  13
ENDBRANCH   2   3
TORSDOF 6
ENDMDL
MODEL      107
REMARK 921   NORMALIZED FREE ENERGY PREDICTED BY IDOCK:   -4.30 KCAL/MOL
REMARK 922        TOTAL FREE ENERGY PREDICTED BY IDOCK:   -6.28 KCAL/MOL
REMARK 923 INTER-LIGAND FREE ENERGY PREDICTED BY IDOCK:   -5.83 KCAL/MOL
REMARK 924 INTRA-LIGAND FREE ENERGY PREDICTED BY IDOCK:   -0.45 KCAL/MOL
REMARK 927      BINDING AFFINITY PREDICTED BY RF-SCORE:    0.00 PKD
ROOT
HETATM    1  C   UNL     1     -12.903  12.234  71.257  1.00  0.00    -0.239 C  
HETATM    2  O   UNL     1     -12.735  10.958  71.859  1.00  0.00    -0.374 OA 
ENDROOT
BRANCH   2   3
HETATM    3  C   UNL     1     -12.132   9.988  71.109  1.00  0.00    -0.380 A  
HETATM    4  C   UNL     1     -11.676  10.421  69.866  1.00  0.00    -0.341 A  
HETATM    5  C   UNL     1     -10.999   9.563  68.986  1.00  0.00    -0.100 A  
HETATM    6  C   UNL     1     -10.616   5.525  70.033  1.00  0.00    -0.384 A  
HETATM    7  C   UNL     1     -10.835   8.199  69.330  1.00  0.00    -0.086 A  
HETATM    8  C   UNL     1     -11.189   6.411  70.933  1.00  0.00    -0.384 A  
HETATM    9  C   UNL     1     -11.940   8.663  71.477  1.00  0.00    -0.362 A  
HETATM   10  N   UNL     1     -10.252   7.330  68.471  1.00  0.00    -0.176 NA 
HETATM   11  C   UNL     1     -10.169   6.028  68.829  1.00  0.00    -0.188 A  
HETATM   12  C   UNL     1     -11.325   7.766  70.587  1.00  0.00    -0.275 A  
BRANCH   5  13
HETATM   13  N   UNL     1     -10.414  10.065  67.799  1.00  0.00    -0.216 NA 
HETATM   14  H   UNL     1      -9.949   9.427  67.152  1.00  0.00     0.000 HD 
BRANCH  13  15
HETATM   15  C   UNL     1     -10.474  11.497  67.493  1.00  0.00    -0.199 C  
HETATM   16  C   UNL     1      -9.077  12.100  67.680  1.00  0.00    -0.181 C  
BRANCH  15  17
HETATM   17  C   UNL     1     -10.918  11.716  66.032  1.00  0.00    -0.338 C  
BRANCH  17  18
HETATM   18  C   UNL     1     -11.430  13.128  65.710  1.00  0.00    -0.355 C  
BRANCH  18  19
HETATM   19  C   UNL     1     -12.766  13.191  64.968  1.00  0.00    -0.392 C  
HETATM   20  H1  UNL     1     -13.520  13.808  63.139  1.00  0.00     0.000 HD 
HETATM   21  N   UNL     1     -12.630  13.766  63.634  1.00  0.00    -0.857 NA 
HETATM   22  H2  UNL     1     -11.928  13.268  63.087  1.00  0.00     0.000 HD 
ENDBRANCH  18  19
ENDBRANCH  17  18
ENDBRANCH  15  17
ENDBRANCH  13  15
ENDBRANCH   5  13
ENDBRANCH   2   3
TORSDOF 6
ENDMDL
MODEL      108
REMARK 921   NORMALIZED FREE ENERGY PREDICTED BY IDOCK:   -4.28 KCAL/MOL
REMARK 922        TOTAL FREE ENERGY PREDICTED BY IDOCK:   -6.25 KCAL/MOL
REMARK 923 INTER-LIGAND FREE ENERGY PREDICTED BY IDOCK:   -5.80 KCAL/MOL
REMARK 924 INTRA-LIGAND FREE ENERGY PREDICTED BY IDOCK:   -0.46 KCAL/MOL
REMARK 927      BINDING AFFINITY PREDICTED BY RF-SCORE:    0.00 PKD
ROOT
HETATM    1  C   UNL     1      -9.506  17.509  66.541  1.00  0.00    -0.272 C  
HETATM    2  O   UNL     1     -10.634  16.881  65.946  1.00  0.00    -0.322 OA 
ENDROOT
BRANCH   2   3
HETATM    3  C   UNL     1     -10.608  15.518  65.845  1.00  0.00    -0.339 A  
HETATM    4  C   UNL     1     -10.505  14.851  67.063  1.00  0.00    -0.272 A  
HETATM    5  C   UNL     1     -10.504  13.450  67.142  1.00  0.00    -0.249 A  
HETATM    6  C   UNL     1     -10.515  11.250  63.576  1.00  0.00    -0.457 A  
HETATM    7  C   UNL     1     -10.533  12.685  65.950  1.00  0.00    -0.274 A  
HETATM    8  C   UNL     1     -10.621  12.631  63.525  1.00  0.00    -0.301 A  
HETATM    9  C   UNL     1     -10.680  14.779  64.671  1.00  0.00    -0.279 A  
HETATM   10  N   UNL     1     -10.459  11.333  65.990  1.00  0.00    -0.251 NA 
HETATM   11  C   UNL     1     -10.437  10.655  64.819  1.00  0.00    -0.210 A  
HETATM   12  C   UNL     1     -10.614  13.377  64.716  1.00  0.00    -0.420 A  
BRANCH   5  13
HETATM   13  N   UNL     1     -10.552  12.800  68.398  1.00  0.00    -0.243 NA 
HETATM   14  H   UNL     1      -9.686  12.596  68.897  1.00  0.00     0.000 HD 
BRANCH  13  15
HETATM   15  C   UNL     1     -11.840  12.418  68.984  1.00  0.00    -0.300 C  
HETATM   16  C   UNL     1     -12.025  10.905  68.825  1.00  0.00    -0.230 C  
BRANCH  15  17
HETATM   17  C   UNL     1     -11.869  12.768  70.487  1.00  0.00    -0.142 C  
BRANCH  17  18
HETATM   18  C   UNL     1     -12.697  14.009  70.852  1.00  0.00    -0.420 C  
BRANCH  18  19
HETATM   19  C   UNL     1     -11.988  15.351  70.666  1.00  0.00    -0.356 C  
HETATM   20  H1  UNL     1     -12.128  17.055  69.494  1.00  0.00     0.000 HD 
HETATM   21  N   UNL     1     -12.600  16.160  69.618  1.00  0.00    -0.461 NA 
HETATM   22  H2  UNL     1     -13.598  16.290  69.788  1.00  0.00     0.000 HD 
ENDBRANCH  18  19
ENDBRANCH  17  18
ENDBRANCH  15  17
ENDBRANCH  13  15
ENDBRANCH   5  13
ENDBRANCH   2   3
TORSDOF 6
ENDMDL
MODEL      109
REMARK 921   NORMALIZED FREE ENERGY PREDICTED BY IDOCK:   -4.28 KCAL/MOL
REMARK 922        TOTAL FREE ENERGY PREDICTED BY IDOCK:   -6.25 KCAL/MOL
REMARK 923 INTER-LIGAND FREE ENERGY PREDICTED BY IDOCK:   -5.69 KCAL/MOL
REMARK 924 INTRA-LIGAND FREE ENERGY PREDICTED BY IDOCK:   -0.56 KCAL/MOL
REMARK 927      BINDING AFFINITY PREDICTED BY RF-SCORE:    0.00 PKD
ROOT
HETATM    1  C   UNL     1     -12.398  12.508  63.980  1.00  0.00    -0.469 C  
HETATM    2  O   UNL     1     -12.561  12.304  65.377  1.00  0.00    -0.572 OA 
ENDROOT
BRANCH   2   3
HETATM    3  C   UNL     1     -11.760  13.033  66.211  1.00  0.00    -0.387 A  
HETATM    4  C   UNL     1     -11.002  12.270  67.095  1.00  0.00    -0.308 A  
HETATM    5  C   UNL     1     -10.098  12.857  67.994  1.00  0.00    -0.235 A  
HETATM    6  C   UNL     1      -9.921  17.037  68.200  1.00  0.00    -0.287 A  
HETATM    7  C   UNL     1     -10.003  14.269  68.063  1.00  0.00    -0.220 A  
HETATM    8  C   UNL     1     -10.729  16.436  67.248  1.00  0.00    -0.257 A  
HETATM    9  C   UNL     1     -11.644  14.417  66.239  1.00  0.00    -0.377 A  
HETATM   10  N   UNL     1      -9.195  14.867  68.971  1.00  0.00    -0.195 NA 
HETATM   11  C   UNL     1      -9.182  16.219  69.029  1.00  0.00    -0.253 A  
HETATM   12  C   UNL     1     -10.797  15.034  67.175  1.00  0.00    -0.314 A  
BRANCH   5  13
HETATM   13  N   UNL     1      -9.232  12.053  68.772  1.00  0.00    -0.394 NA 
HETATM   14  H   UNL     1      -8.621  12.487  69.464  1.00  0.00     0.000 HD 
BRANCH  13  15
HETATM   15  C   UNL     1      -9.209  10.599  68.589  1.00  0.00    -0.181 C  
HETATM   16  C   UNL     1      -7.763  10.156  68.340  1.00  0.00    -0.089 C  
BRANCH  15  17
HETATM   17  C   UNL     1      -9.734   9.891  69.856  1.00  0.00    -0.274 C  
BRANCH  17  18
HETATM   18  C   UNL     1     -10.909   8.929  69.625  1.00  0.00    -0.186 C  
BRANCH  18  19
HETATM   19  C   UNL     1     -10.524   7.491  69.273  1.00  0.00    -0.214 C  
HETATM   20  H1  UNL     1     -10.773   6.129  67.731  1.00  0.00     0.000 HD 
HETATM   21  N   UNL     1     -11.030   7.088  67.966  1.00  0.00    -0.479 NA 
HETATM   22  H2  UNL     1     -10.731   7.738  67.239  1.00  0.00     0.000 HD 
ENDBRANCH  18  19
ENDBRANCH  17  18
ENDBRANCH  15  17
ENDBRANCH  13  15
ENDBRANCH   5  13
ENDBRANCH   2   3
TORSDOF 6
ENDMDL
MODEL      110
REMARK 921   NORMALIZED FREE ENERGY PREDICTED BY IDOCK:   -4.25 KCAL/MOL
REMARK 922        TOTAL FREE ENERGY PREDICTED BY IDOCK:   -6.21 KCAL/MOL
REMARK 923 INTER-LIGAND FREE ENERGY PREDICTED BY IDOCK:   -5.75 KCAL/MOL
REMARK 924 INTRA-LIGAND FREE ENERGY PREDICTED BY IDOCK:   -0.46 KCAL/MOL
REMARK 927      BINDING AFFINITY PREDICTED BY RF-SCORE:    0.00 PKD
ROOT
HETATM    1  C   UNL     1      -8.062   5.609  70.606  1.00  0.00    -0.116 C  
HETATM    2  O   UNL     1      -8.264   6.538  71.662  1.00  0.00    -0.111 OA 
ENDROOT
BRANCH   2   3
HETATM    3  C   UNL     1      -9.192   7.521  71.460  1.00  0.00    -0.135 A  
HETATM    4  C   UNL     1      -8.761   8.559  70.638  1.00  0.00    -0.171 A  
HETATM    5  C   UNL     1      -9.602   9.630  70.296  1.00  0.00    -0.254 A  
HETATM    6  C   UNL     1     -13.402   9.823  72.049  1.00  0.00    -0.547 A  
HETATM    7  C   UNL     1     -10.901   9.703  70.857  1.00  0.00    -0.339 A  
HETATM    8  C   UNL     1     -12.596   8.722  72.290  1.00  0.00    -0.460 A  
HETATM    9  C   UNL     1     -10.478   7.559  71.982  1.00  0.00    -0.245 A  
HETATM   10  N   UNL     1     -11.709  10.760  70.604  1.00  0.00    -0.342 NA 
HETATM   11  C   UNL     1     -12.919  10.804  71.209  1.00  0.00    -0.402 A  
HETATM   12  C   UNL     1     -11.318   8.652  71.710  1.00  0.00    -0.393 A  
BRANCH   5  13
HETATM   13  N   UNL     1      -9.192  10.590  69.341  1.00  0.00    -0.364 NA 
HETATM   14  H   UNL     1      -8.778  11.470  69.650  1.00  0.00     0.000 HD 
BRANCH  13  15
HETATM   15  C   UNL     1      -9.360  10.327  67.909  1.00  0.00    -0.138 C  
HETATM   16  C   UNL     1      -8.047   9.765  67.353  1.00  0.00    -0.114 C  
BRANCH  15  17
HETATM   17  C   UNL     1     -10.480   9.290  67.682  1.00  0.00    -0.325 C  
BRANCH  17  18
HETATM   18  C   UNL     1     -10.053   8.024  66.925  1.00  0.00    -0.362 C  
BRANCH  18  19
HETATM   19  C   UNL     1     -10.993   6.826  67.061  1.00  0.00    -0.368 C  
HETATM   20  H1  UNL     1     -12.011   5.787  68.537  1.00  0.00     0.000 HD 
HETATM   21  N   UNL     1     -11.384   6.586  68.446  1.00  0.00    -0.566 NA 
HETATM   22  H2  UNL     1     -11.791   7.422  68.865  1.00  0.00     0.000 HD 
ENDBRANCH  18  19
ENDBRANCH  17  18
ENDBRANCH  15  17
ENDBRANCH  13  15
ENDBRANCH   5  13
ENDBRANCH   2   3
TORSDOF 6
ENDMDL
MODEL      111
REMARK 921   NORMALIZED FREE ENERGY PREDICTED BY IDOCK:   -4.24 KCAL/MOL
REMARK 922        TOTAL FREE ENERGY PREDICTED BY IDOCK:   -6.19 KCAL/MOL
REMARK 923 INTER-LIGAND FREE ENERGY PREDICTED BY IDOCK:   -5.68 KCAL/MOL
REMARK 924 INTRA-LIGAND FREE ENERGY PREDICTED BY IDOCK:   -0.51 KCAL/MOL
REMARK 927      BINDING AFFINITY PREDICTED BY RF-SCORE:    0.00 PKD
ROOT
HETATM    1  C   UNL     1      -9.403   5.829  65.952  1.00  0.00    -0.077 C  
HETATM    2  O   UNL     1     -10.406   5.517  66.908  1.00  0.00    -0.209 OA 
ENDROOT
BRANCH   2   3
HETATM    3  C   UNL     1     -10.555   6.377  67.960  1.00  0.00    -0.254 A  
HETATM    4  C   UNL     1     -10.176   7.689  67.689  1.00  0.00    -0.277 A  
HETATM    5  C   UNL     1     -10.301   8.708  68.646  1.00  0.00    -0.193 A  
HETATM    6  C   UNL     1     -11.576   7.680  72.502  1.00  0.00    -0.382 A  
HETATM    7  C   UNL     1     -10.755   8.388  69.950  1.00  0.00    -0.227 A  
HETATM    8  C   UNL     1     -11.545   6.709  71.514  1.00  0.00    -0.357 A  
HETATM    9  C   UNL     1     -11.042   6.058  69.221  1.00  0.00    -0.424 A  
HETATM   10  N   UNL     1     -10.816   9.335  70.916  1.00  0.00    -0.269 NA 
HETATM   11  C   UNL     1     -11.205   8.963  72.158  1.00  0.00    -0.292 A  
HETATM   12  C   UNL     1     -11.114   7.045  70.219  1.00  0.00    -0.323 A  
BRANCH   5  13
HETATM   13  N   UNL     1     -10.052  10.057  68.298  1.00  0.00    -0.153 NA 
HETATM   14  H   UNL     1      -9.304  10.572  68.763  1.00  0.00     0.000 HD 
BRANCH  13  15
HETATM   15  C   UNL     1     -10.865  10.718  67.273  1.00  0.00    -0.288 C  
HETATM   16  C   UNL     1     -11.738  11.782  67.946  1.00  0.00    -0.347 C  
BRANCH  15  17
HETATM   17  C   UNL     1      -9.958  11.406  66.231  1.00  0.00    -0.259 C  
BRANCH  17  18
HETATM   18  C   UNL     1     -10.694  12.269  65.195  1.00  0.00    -0.330 C  
BRANCH  18  19
HETATM   19  C   UNL     1     -11.130  11.544  63.922  1.00  0.00    -0.380 C  
HETATM   20  H1  UNL     1     -10.461  11.226  61.986  1.00  0.00     0.000 HD 
HETATM   21  N   UNL     1     -10.170  11.710  62.835  1.00  0.00    -0.643 NA 
HETATM   22  H2  UNL     1      -9.235  11.422  63.122  1.00  0.00     0.000 HD 
ENDBRANCH  18  19
ENDBRANCH  17  18
ENDBRANCH  15  17
ENDBRANCH  13  15
ENDBRANCH   5  13
ENDBRANCH   2   3
TORSDOF 6
ENDMDL
MODEL      112
REMARK 921   NORMALIZED FREE ENERGY PREDICTED BY IDOCK:   -4.23 KCAL/MOL
REMARK 922        TOTAL FREE ENERGY PREDICTED BY IDOCK:   -6.18 KCAL/MOL
REMARK 923 INTER-LIGAND FREE ENERGY PREDICTED BY IDOCK:   -5.88 KCAL/MOL
REMARK 924 INTRA-LIGAND FREE ENERGY PREDICTED BY IDOCK:   -0.30 KCAL/MOL
REMARK 927      BINDING AFFINITY PREDICTED BY RF-SCORE:    0.00 PKD
ROOT
HETATM    1  C   UNL     1      -7.643  17.024  67.803  1.00  0.00    -0.170 C  
HETATM    2  O   UNL     1      -8.703  16.383  68.500  1.00  0.00    -0.204 OA 
ENDROOT
BRANCH   2   3
HETATM    3  C   UNL     1      -9.360  15.377  67.848  1.00  0.00    -0.192 A  
HETATM    4  C   UNL     1      -9.623  14.258  68.633  1.00  0.00    -0.192 A  
HETATM    5  C   UNL     1     -10.324  13.150  68.132  1.00  0.00    -0.244 A  
HETATM    6  C   UNL     1     -11.377  13.123  64.077  1.00  0.00    -0.437 A  
HETATM    7  C   UNL     1     -10.713  13.129  66.769  1.00  0.00    -0.267 A  
HETATM    8  C   UNL     1     -10.777  14.250  64.618  1.00  0.00    -0.384 A  
HETATM    9  C   UNL     1      -9.773  15.388  66.522  1.00  0.00    -0.292 A  
HETATM   10  N   UNL     1     -11.324  12.045  66.238  1.00  0.00    -0.347 NA 
HETATM   11  C   UNL     1     -11.626  12.058  64.918  1.00  0.00    -0.273 A  
HETATM   12  C   UNL     1     -10.417  14.265  65.976  1.00  0.00    -0.306 A  
BRANCH   5  13
HETATM   13  N   UNL     1     -10.710  12.093  68.991  1.00  0.00    -0.375 NA 
HETATM   14  H   UNL     1     -10.048  11.348  69.208  1.00  0.00     0.000 HD 
BRANCH  13  15
HETATM   15  C   UNL     1     -12.056  12.064  69.568  1.00  0.00    -0.212 C  
HETATM   16  C   UNL     1     -12.051  11.134  70.786  1.00  0.00    -0.458 C  
BRANCH  15  17
HETATM   17  C   UNL     1     -12.474  13.478  70.025  1.00  0.00    -0.231 C  
BRANCH  17  18
HETATM   18  C   UNL     1     -12.540  13.679  71.546  1.00  0.00    -0.385 C  
BRANCH  18  19
HETATM   19  C   UNL     1     -12.392  15.124  72.026  1.00  0.00    -0.356 C  
HETATM   20  H1  UNL     1     -12.757  17.050  71.354  1.00  0.00     0.000 HD 
HETATM   21  N   UNL     1     -12.856  16.087  71.033  1.00  0.00    -0.554 NA 
HETATM   22  H2  UNL     1     -13.816  15.890  70.749  1.00  0.00     0.000 HD 
ENDBRANCH  18  19
ENDBRANCH  17  18
ENDBRANCH  15  17
ENDBRANCH  13  15
ENDBRANCH   5  13
ENDBRANCH   2   3
TORSDOF 6
ENDMDL
MODEL      113
REMARK 921   NORMALIZED FREE ENERGY PREDICTED BY IDOCK:   -4.22 KCAL/MOL
REMARK 922        TOTAL FREE ENERGY PREDICTED BY IDOCK:   -6.17 KCAL/MOL
REMARK 923 INTER-LIGAND FREE ENERGY PREDICTED BY IDOCK:   -5.63 KCAL/MOL
REMARK 924 INTRA-LIGAND FREE ENERGY PREDICTED BY IDOCK:   -0.54 KCAL/MOL
REMARK 927      BINDING AFFINITY PREDICTED BY RF-SCORE:    0.00 PKD
ROOT
HETATM    1  C   UNL     1     -12.827  12.194  63.227  1.00  0.00    -0.173 C  
HETATM    2  O   UNL     1     -12.981  12.476  64.611  1.00  0.00    -0.803 OA 
ENDROOT
BRANCH   2   3
HETATM    3  C   UNL     1     -11.842  12.558  65.361  1.00  0.00    -0.428 A  
HETATM    4  C   UNL     1     -11.082  13.702  65.134  1.00  0.00    -0.324 A  
HETATM    5  C   UNL     1      -9.902  13.962  65.848  1.00  0.00    -0.267 A  
HETATM    6  C   UNL     1      -8.504  11.051  68.517  1.00  0.00    -0.153 A  
HETATM    7  C   UNL     1      -9.424  13.003  66.775  1.00  0.00    -0.250 A  
HETATM    8  C   UNL     1      -9.720  10.863  67.879  1.00  0.00    -0.178 A  
HETATM    9  C   UNL     1     -11.406  11.630  66.298  1.00  0.00    -0.293 A  
HETATM   10  N   UNL     1      -8.251  13.191  67.426  1.00  0.00    -0.181 NA 
HETATM   11  C   UNL     1      -7.815  12.218  68.260  1.00  0.00    -0.153 A  
HETATM   12  C   UNL     1     -10.194  11.832  66.979  1.00  0.00    -0.240 A  
BRANCH   5  13
HETATM   13  N   UNL     1      -9.233  15.201  65.707  1.00  0.00    -0.452 NA 
HETATM   14  H   UNL     1      -8.688  15.391  64.866  1.00  0.00     0.000 HD 
BRANCH  13  15
HETATM   15  C   UNL     1      -9.320  16.213  66.764  1.00  0.00    -0.234 C  
HETATM   16  C   UNL     1      -8.951  17.577  66.172  1.00  0.00    -0.156 C  
BRANCH  15  17
HETATM   17  C   UNL     1     -10.757  16.285  67.320  1.00  0.00    -0.265 C  
BRANCH  17  18
HETATM   18  C   UNL     1     -10.863  16.655  68.807  1.00  0.00    -0.331 C  
BRANCH  18  19
HETATM   19  C   UNL     1     -11.325  15.530  69.735  1.00  0.00    -0.319 C  
HETATM   20  H1  UNL     1     -10.697  13.661  70.373  1.00  0.00     0.000 HD 
HETATM   21  N   UNL     1     -10.389  14.411  69.754  1.00  0.00    -0.428 NA 
HETATM   22  H2  UNL     1      -9.447  14.722  69.992  1.00  0.00     0.000 HD 
ENDBRANCH  18  19
ENDBRANCH  17  18
ENDBRANCH  15  17
ENDBRANCH  13  15
ENDBRANCH   5  13
ENDBRANCH   2   3
TORSDOF 6
ENDMDL
MODEL      114
REMARK 921   NORMALIZED FREE ENERGY PREDICTED BY IDOCK:   -4.21 KCAL/MOL
REMARK 922        TOTAL FREE ENERGY PREDICTED BY IDOCK:   -6.16 KCAL/MOL
REMARK 923 INTER-LIGAND FREE ENERGY PREDICTED BY IDOCK:   -6.47 KCAL/MOL
REMARK 924 INTRA-LIGAND FREE ENERGY PREDICTED BY IDOCK:    0.31 KCAL/MOL
REMARK 927      BINDING AFFINITY PREDICTED BY RF-SCORE:    0.00 PKD
ROOT
HETATM    1  C   UNL     1     -11.680  12.955  63.568  1.00  0.00    -0.512 C  
HETATM    2  O   UNL     1     -12.504  13.856  64.296  1.00  0.00    -0.638 OA 
ENDROOT
BRANCH   2   3
HETATM    3  C   UNL     1     -12.041  14.282  65.510  1.00  0.00    -0.394 A  
HETATM    4  C   UNL     1     -10.997  15.200  65.438  1.00  0.00    -0.381 A  
HETATM    5  C   UNL     1     -10.431  15.769  66.589  1.00  0.00    -0.302 A  
HETATM    6  C   UNL     1     -11.745  14.423  70.333  1.00  0.00    -0.346 A  
HETATM    7  C   UNL     1     -10.877  15.348  67.867  1.00  0.00    -0.300 A  
HETATM    8  C   UNL     1     -12.362  13.952  69.185  1.00  0.00    -0.159 A  
HETATM    9  C   UNL     1     -12.517  13.893  66.755  1.00  0.00    -0.254 A  
HETATM   10  N   UNL     1     -10.300  15.823  68.996  1.00  0.00    -0.211 NA 
HETATM   11  C   UNL     1     -10.730  15.346  70.187  1.00  0.00    -0.308 A  
HETATM   12  C   UNL     1     -11.924  14.395  67.925  1.00  0.00    -0.348 A  
BRANCH   5  13
HETATM   13  N   UNL     1      -9.477  16.810  66.485  1.00  0.00    -0.253 NA 
HETATM   14  H   UNL     1      -9.641  17.585  65.842  1.00  0.00     0.000 HD 
BRANCH  13  15
HETATM   15  C   UNL     1      -8.256  16.777  67.294  1.00  0.00    -0.176 C  
HETATM   16  C   UNL     1      -7.547  15.438  67.065  1.00  0.00    -0.195 C  
BRANCH  15  17
HETATM   17  C   UNL     1      -7.307  17.920  66.878  1.00  0.00    -0.229 C  
BRANCH  17  18
HETATM   18  C   UNL     1      -8.001  19.192  66.368  1.00  0.00    -0.306 C  
BRANCH  18  19
HETATM   19  C   UNL     1      -8.121  20.329  67.383  1.00  0.00    -0.336 C  
HETATM   20  H1  UNL     1      -7.181  22.111  67.867  1.00  0.00     0.000 HD 
HETATM   21  N   UNL     1      -7.100  21.353  67.190  1.00  0.00    -0.823 NA 
HETATM   22  H2  UNL     1      -7.112  21.710  66.235  1.00  0.00     0.000 HD 
ENDBRANCH  18  19
ENDBRANCH  17  18
ENDBRANCH  15  17
ENDBRANCH  13  15
ENDBRANCH   5  13
ENDBRANCH   2   3
TORSDOF 6
ENDMDL
MODEL      115
REMARK 921   NORMALIZED FREE ENERGY PREDICTED BY IDOCK:   -4.20 KCAL/MOL
REMARK 922        TOTAL FREE ENERGY PREDICTED BY IDOCK:   -6.14 KCAL/MOL
REMARK 923 INTER-LIGAND FREE ENERGY PREDICTED BY IDOCK:   -5.92 KCAL/MOL
REMARK 924 INTRA-LIGAND FREE ENERGY PREDICTED BY IDOCK:   -0.22 KCAL/MOL
REMARK 927      BINDING AFFINITY PREDICTED BY RF-SCORE:    0.00 PKD
ROOT
HETATM    1  C   UNL     1      -7.772   7.920  63.629  1.00  0.00    -0.136 C  
HETATM    2  O   UNL     1      -8.070   8.406  64.930  1.00  0.00    -0.134 OA 
ENDROOT
BRANCH   2   3
HETATM    3  C   UNL     1      -9.058   9.345  65.035  1.00  0.00    -0.215 A  
HETATM    4  C   UNL     1      -9.734   9.336  66.252  1.00  0.00    -0.340 A  
HETATM    5  C   UNL     1     -10.751  10.259  66.541  1.00  0.00    -0.078 A  
HETATM    6  C   UNL     1     -11.959  12.905  63.526  1.00  0.00    -0.629 A  
HETATM    7  C   UNL     1     -11.159  11.181  65.545  1.00  0.00    -0.003 A  
HETATM    8  C   UNL     1     -10.887  12.056  63.298  1.00  0.00    -0.400 A  
HETATM    9  C   UNL     1      -9.419  10.271  64.066  1.00  0.00    -0.356 A  
HETATM   10  N   UNL     1     -12.186  12.034  65.767  1.00  0.00    -0.431 NA 
HETATM   11  C   UNL     1     -12.569  12.856  64.762  1.00  0.00    -0.425 A  
HETATM   12  C   UNL     1     -10.479  11.163  64.303  1.00  0.00    -0.427 A  
BRANCH   5  13
HETATM   13  N   UNL     1     -11.316  10.327  67.837  1.00  0.00    -0.575 NA 
HETATM   14  H   UNL     1     -11.693   9.485  68.271  1.00  0.00     0.000 HD 
BRANCH  13  15
HETATM   15  C   UNL     1     -11.361  11.602  68.558  1.00  0.00    -0.274 C  
HETATM   16  C   UNL     1     -11.653  11.323  70.036  1.00  0.00    -0.404 C  
BRANCH  15  17
HETATM   17  C   UNL     1     -10.004  12.328  68.448  1.00  0.00    -0.210 C  
BRANCH  17  18
HETATM   18  C   UNL     1     -10.065  13.854  68.611  1.00  0.00    -0.203 C  
BRANCH  18  19
HETATM   19  C   UNL     1     -10.431  14.638  67.350  1.00  0.00    -0.255 C  
HETATM   20  H1  UNL     1      -9.899  14.733  65.349  1.00  0.00     0.000 HD 
HETATM   21  N   UNL     1      -9.655  14.211  66.190  1.00  0.00    -0.422 NA 
HETATM   22  H2  UNL     1      -9.741  13.206  66.038  1.00  0.00     0.000 HD 
ENDBRANCH  18  19
ENDBRANCH  17  18
ENDBRANCH  15  17
ENDBRANCH  13  15
ENDBRANCH   5  13
ENDBRANCH   2   3
TORSDOF 6
ENDMDL
MODEL      116
REMARK 921   NORMALIZED FREE ENERGY PREDICTED BY IDOCK:   -4.19 KCAL/MOL
REMARK 922        TOTAL FREE ENERGY PREDICTED BY IDOCK:   -6.13 KCAL/MOL
REMARK 923 INTER-LIGAND FREE ENERGY PREDICTED BY IDOCK:   -5.41 KCAL/MOL
REMARK 924 INTRA-LIGAND FREE ENERGY PREDICTED BY IDOCK:   -0.72 KCAL/MOL
REMARK 927      BINDING AFFINITY PREDICTED BY RF-SCORE:    0.00 PKD
ROOT
HETATM    1  C   UNL     1      -6.635  13.408  68.831  1.00  0.00    -0.107 C  
HETATM    2  O   UNL     1      -7.436  14.385  68.180  1.00  0.00    -0.107 OA 
ENDROOT
BRANCH   2   3
HETATM    3  C   UNL     1      -8.589  13.952  67.587  1.00  0.00    -0.190 A  
HETATM    4  C   UNL     1      -9.034  12.710  68.032  1.00  0.00    -0.200 A  
HETATM    5  C   UNL     1     -10.223  12.136  67.555  1.00  0.00    -0.199 A  
HETATM    6  C   UNL     1     -12.304  14.106  64.499  1.00  0.00    -0.419 A  
HETATM    7  C   UNL     1     -10.958  12.797  66.539  1.00  0.00    -0.262 A  
HETATM    8  C   UNL     1     -11.186  14.705  65.057  1.00  0.00    -0.388 A  
HETATM    9  C   UNL     1      -9.322  14.630  66.623  1.00  0.00    -0.293 A  
HETATM   10  N   UNL     1     -12.068  12.234  66.007  1.00  0.00    -0.630 NA 
HETATM   11  C   UNL     1     -12.700  12.884  65.002  1.00  0.00    -0.404 A  
HETATM   12  C   UNL     1     -10.480  14.049  66.079  1.00  0.00    -0.307 A  
BRANCH   5  13
HETATM   13  N   UNL     1     -10.731  10.948  68.132  1.00  0.00    -0.198 NA 
HETATM   14  H   UNL     1     -11.608  10.971  68.652  1.00  0.00     0.000 HD 
BRANCH  13  15
HETATM   15  C   UNL     1     -10.002   9.685  67.986  1.00  0.00    -0.160 C  
HETATM   16  C   UNL     1     -10.581   8.664  68.972  1.00  0.00    -0.179 C  
BRANCH  15  17
HETATM   17  C   UNL     1     -10.161   9.137  66.552  1.00  0.00    -0.357 C  
BRANCH  17  18
HETATM   18  C   UNL     1      -9.041   9.528  65.576  1.00  0.00    -0.262 C  
BRANCH  18  19
HETATM   19  C   UNL     1      -9.502  10.179  64.272  1.00  0.00    -0.305 C  
HETATM   20  H1  UNL     1      -9.647   9.725  62.254  1.00  0.00     0.000 HD 
HETATM   21  N   UNL     1      -9.340   9.291  63.125  1.00  0.00    -0.449 NA 
HETATM   22  H2  UNL     1      -9.811   8.400  63.279  1.00  0.00     0.000 HD 
ENDBRANCH  18  19
ENDBRANCH  17  18
ENDBRANCH  15  17
ENDBRANCH  13  15
ENDBRANCH   5  13
ENDBRANCH   2   3
TORSDOF 6
ENDMDL
MODEL      117
REMARK 921   NORMALIZED FREE ENERGY PREDICTED BY IDOCK:   -4.19 KCAL/MOL
REMARK 922        TOTAL FREE ENERGY PREDICTED BY IDOCK:   -6.13 KCAL/MOL
REMARK 923 INTER-LIGAND FREE ENERGY PREDICTED BY IDOCK:   -5.65 KCAL/MOL
REMARK 924 INTRA-LIGAND FREE ENERGY PREDICTED BY IDOCK:   -0.48 KCAL/MOL
REMARK 927      BINDING AFFINITY PREDICTED BY RF-SCORE:    0.00 PKD
ROOT
HETATM    1  C   UNL     1     -11.021   8.401  70.810  1.00  0.00    -0.247 C  
HETATM    2  O   UNL     1     -11.572   9.548  70.180  1.00  0.00    -0.215 OA 
ENDROOT
BRANCH   2   3
HETATM    3  C   UNL     1     -11.134   9.839  68.918  1.00  0.00    -0.099 A  
HETATM    4  C   UNL     1     -11.590  11.055  68.416  1.00  0.00    -0.372 A  
HETATM    5  C   UNL     1     -11.204  11.525  67.151  1.00  0.00    -0.301 A  
HETATM    6  C   UNL     1      -8.855   9.039  64.730  1.00  0.00    -0.165 A  
HETATM    7  C   UNL     1     -10.389  10.712  66.324  1.00  0.00    -0.234 A  
HETATM    8  C   UNL     1      -9.161   8.640  66.022  1.00  0.00    -0.276 A  
HETATM    9  C   UNL     1     -10.300   9.052  68.135  1.00  0.00    -0.262 A  
HETATM   10  N   UNL     1     -10.060  11.104  65.071  1.00  0.00    -0.264 NA 
HETATM   11  C   UNL     1      -9.324  10.265  64.306  1.00  0.00    -0.277 A  
HETATM   12  C   UNL     1      -9.952   9.466  66.839  1.00  0.00    -0.293 A  
BRANCH   5  13
HETATM   13  N   UNL     1     -11.557  12.828  66.728  1.00  0.00    -0.350 NA 
HETATM   14  H   UNL     1     -12.212  12.951  65.954  1.00  0.00     0.000 HD 
BRANCH  13  15
HETATM   15  C   UNL     1     -10.988  14.002  67.395  1.00  0.00    -0.293 C  
HETATM   16  C   UNL     1     -10.667  15.063  66.338  1.00  0.00    -0.322 C  
BRANCH  15  17
HETATM   17  C   UNL     1     -12.001  14.591  68.399  1.00  0.00    -0.309 C  
BRANCH  17  18
HETATM   18  C   UNL     1     -11.492  14.715  69.843  1.00  0.00    -0.320 C  
BRANCH  18  19
HETATM   19  C   UNL     1     -11.233  16.141  70.330  1.00  0.00    -0.381 C  
HETATM   20  H1  UNL     1     -11.705  17.364  71.935  1.00  0.00     0.000 HD 
HETATM   21  N   UNL     1     -11.878  16.413  71.610  1.00  0.00    -0.674 NA 
HETATM   22  H2  UNL     1     -11.604  15.728  72.314  1.00  0.00     0.000 HD 
ENDBRANCH  18  19
ENDBRANCH  17  18
ENDBRANCH  15  17
ENDBRANCH  13  15
ENDBRANCH   5  13
ENDBRANCH   2   3
TORSDOF 6
ENDMDL
MODEL      118
REMARK 921   NORMALIZED FREE ENERGY PREDICTED BY IDOCK:   -4.19 KCAL/MOL
REMARK 922        TOTAL FREE ENERGY PREDICTED BY IDOCK:   -6.13 KCAL/MOL
REMARK 923 INTER-LIGAND FREE ENERGY PREDICTED BY IDOCK:   -5.40 KCAL/MOL
REMARK 924 INTRA-LIGAND FREE ENERGY PREDICTED BY IDOCK:   -0.73 KCAL/MOL
REMARK 927      BINDING AFFINITY PREDICTED BY RF-SCORE:    0.00 PKD
ROOT
HETATM    1  C   UNL     1     -10.111  17.952  67.144  1.00  0.00    -0.340 C  
HETATM    2  O   UNL     1     -10.392  17.504  65.825  1.00  0.00    -0.560 OA 
ENDROOT
BRANCH   2   3
HETATM    3  C   UNL     1     -10.900  16.242  65.689  1.00  0.00    -0.208 A  
HETATM    4  C   UNL     1     -11.251  15.631  66.889  1.00  0.00    -0.106 A  
HETATM    5  C   UNL     1     -11.824  14.350  66.928  1.00  0.00    -0.410 A  
HETATM    6  C   UNL     1     -12.196  12.223  63.337  1.00  0.00    -0.630 A  
HETATM    7  C   UNL     1     -11.983  13.621  65.723  1.00  0.00    -0.395 A  
HETATM    8  C   UNL     1     -11.731  13.528  63.311  1.00  0.00     0.061 A  
HETATM    9  C   UNL     1     -11.090  15.556  64.497  1.00  0.00    -0.290 A  
HETATM   10  N   UNL     1     -12.463  12.355  65.734  1.00  0.00    -0.513 NA 
HETATM   11  C   UNL     1     -12.544  11.687  64.560  1.00  0.00     0.469 A  
HETATM   12  C   UNL     1     -11.599  14.247  64.511  1.00  0.00    -0.397 A  
BRANCH   5  13
HETATM   13  N   UNL     1     -12.310  13.814  68.144  1.00  0.00    -0.395 NA 
HETATM   14  H   UNL     1     -13.315  13.715  68.289  1.00  0.00     0.000 HD 
BRANCH  13  15
HETATM   15  C   UNL     1     -11.377  13.401  69.196  1.00  0.00    -0.280 C  
HETATM   16  C   UNL     1     -11.937  13.841  70.553  1.00  0.00    -0.367 C  
BRANCH  15  17
HETATM   17  C   UNL     1     -11.217  11.866  69.198  1.00  0.00    -0.314 C  
BRANCH  17  18
HETATM   18  C   UNL     1     -10.220  11.313  68.169  1.00  0.00    -0.196 C  
BRANCH  18  19
HETATM   19  C   UNL     1      -8.999  12.192  67.896  1.00  0.00    -0.184 C  
HETATM   20  H1  UNL     1      -7.233  12.762  68.820  1.00  0.00     0.000 HD 
HETATM   21  N   UNL     1      -8.047  12.175  69.002  1.00  0.00    -0.346 NA 
HETATM   22  H2  UNL     1      -7.770  11.222  69.235  1.00  0.00     0.000 HD 
ENDBRANCH  18  19
ENDBRANCH  17  18
ENDBRANCH  15  17
ENDBRANCH  13  15
ENDBRANCH   5  13
ENDBRANCH   2   3
TORSDOF 6
ENDMDL
MODEL      119
REMARK 921   NORMALIZED FREE ENERGY PREDICTED BY IDOCK:   -4.19 KCAL/MOL
REMARK 922        TOTAL FREE ENERGY PREDICTED BY IDOCK:   -6.13 KCAL/MOL
REMARK 923 INTER-LIGAND FREE ENERGY PREDICTED BY IDOCK:   -5.60 KCAL/MOL
REMARK 924 INTRA-LIGAND FREE ENERGY PREDICTED BY IDOCK:   -0.53 KCAL/MOL
REMARK 927      BINDING AFFINITY PREDICTED BY RF-SCORE:    0.00 PKD
ROOT
HETATM    1  C   UNL     1     -10.570   8.063  69.371  1.00  0.00    -0.205 C  
HETATM    2  O   UNL     1     -10.252   9.424  69.119  1.00  0.00    -0.187 OA 
ENDROOT
BRANCH   2   3
HETATM    3  C   UNL     1     -10.194   9.820  67.812  1.00  0.00    -0.208 A  
HETATM    4  C   UNL     1     -11.101  10.821  67.473  1.00  0.00    -0.374 A  
HETATM    5  C   UNL     1     -11.149  11.371  66.182  1.00  0.00    -0.198 A  
HETATM    6  C   UNL     1      -8.685   9.724  63.220  1.00  0.00    -0.232 A  
HETATM    7  C   UNL     1     -10.306  10.847  65.170  1.00  0.00    -0.278 A  
HETATM    8  C   UNL     1      -8.580   9.268  64.525  1.00  0.00    -0.217 A  
HETATM    9  C   UNL     1      -9.333   9.328  66.840  1.00  0.00    -0.193 A  
HETATM   10  N   UNL     1     -10.381  11.305  63.898  1.00  0.00    -0.348 NA 
HETATM   11  C   UNL     1      -9.591  10.732  62.961  1.00  0.00    -0.353 A  
HETATM   12  C   UNL     1      -9.406   9.812  65.524  1.00  0.00    -0.299 A  
BRANCH   5  13
HETATM   13  N   UNL     1     -11.971  12.488  65.905  1.00  0.00    -0.544 NA 
HETATM   14  H   UNL     1     -12.956  12.350  65.678  1.00  0.00     0.000 HD 
BRANCH  13  15
HETATM   15  C   UNL     1     -11.415  13.843  65.943  1.00  0.00    -0.325 C  
HETATM   16  C   UNL     1     -12.087  14.683  64.851  1.00  0.00    -0.386 C  
BRANCH  15  17
HETATM   17  C   UNL     1     -11.690  14.498  67.313  1.00  0.00    -0.429 C  
BRANCH  17  18
HETATM   18  C   UNL     1     -10.438  14.906  68.103  1.00  0.00    -0.242 C  
BRANCH  18  19
HETATM   19  C   UNL     1      -9.759  16.197  67.642  1.00  0.00    -0.233 C  
HETATM   20  H1  UNL     1     -10.231  18.186  67.302  1.00  0.00     0.000 HD 
HETATM   21  N   UNL     1     -10.683  17.325  67.609  1.00  0.00    -0.343 NA 
HETATM   22  H2  UNL     1     -11.143  17.452  68.511  1.00  0.00     0.000 HD 
ENDBRANCH  18  19
ENDBRANCH  17  18
ENDBRANCH  15  17
ENDBRANCH  13  15
ENDBRANCH   5  13
ENDBRANCH   2   3
TORSDOF 6
ENDMDL
MODEL      120
REMARK 921   NORMALIZED FREE ENERGY PREDICTED BY IDOCK:   -4.18 KCAL/MOL
REMARK 922        TOTAL FREE ENERGY PREDICTED BY IDOCK:   -6.12 KCAL/MOL
REMARK 923 INTER-LIGAND FREE ENERGY PREDICTED BY IDOCK:   -5.39 KCAL/MOL
REMARK 924 INTRA-LIGAND FREE ENERGY PREDICTED BY IDOCK:   -0.73 KCAL/MOL
REMARK 927      BINDING AFFINITY PREDICTED BY RF-SCORE:    0.00 PKD
ROOT
HETATM    1  C   UNL     1     -10.180   6.159  74.081  1.00  0.00    -0.309 C  
HETATM    2  O   UNL     1     -10.907   5.308  73.206  1.00  0.00    -0.247 OA 
ENDROOT
BRANCH   2   3
HETATM    3  C   UNL     1     -10.615   5.388  71.873  1.00  0.00    -0.226 A  
HETATM    4  C   UNL     1     -11.123   6.518  71.239  1.00  0.00    -0.321 A  
HETATM    5  C   UNL     1     -10.884   6.776  69.880  1.00  0.00    -0.266 A  
HETATM    6  C   UNL     1      -8.829   3.895  67.636  1.00  0.00    -0.133 A  
HETATM    7  C   UNL     1     -10.169   5.827  69.107  1.00  0.00    -0.223 A  
HETATM    8  C   UNL     1      -8.987   3.711  69.001  1.00  0.00    -0.179 A  
HETATM    9  C   UNL     1      -9.877   4.471  71.136  1.00  0.00    -0.263 A  
HETATM   10  N   UNL     1      -9.985   6.011  67.778  1.00  0.00    -0.123 NA 
HETATM   11  C   UNL     1      -9.342   5.048  67.078  1.00  0.00    -0.128 A  
HETATM   12  C   UNL     1      -9.678   4.670  69.760  1.00  0.00    -0.280 A  
BRANCH   5  13
HETATM   13  N   UNL     1     -11.281   8.003  69.299  1.00  0.00    -0.418 NA 
HETATM   14  H   UNL     1     -12.254   8.144  69.025  1.00  0.00     0.000 HD 
BRANCH  13  15
HETATM   15  C   UNL     1     -10.302   9.072  69.087  1.00  0.00    -0.219 C  
HETATM   16  C   UNL     1     -10.414   9.565  67.640  1.00  0.00    -0.321 C  
BRANCH  15  17
HETATM   17  C   UNL     1     -10.585  10.254  70.038  1.00  0.00    -0.321 C  
BRANCH  17  18
HETATM   18  C   UNL     1     -12.012  10.818  69.971  1.00  0.00    -0.427 C  
BRANCH  18  19
HETATM   19  C   UNL     1     -12.913  10.473  71.157  1.00  0.00    -0.411 C  
HETATM   20  H1  UNL     1     -14.209   8.973  71.762  1.00  0.00     0.000 HD 
HETATM   21  N   UNL     1     -13.607   9.203  70.972  1.00  0.00    -0.573 NA 
HETATM   22  H2  UNL     1     -12.950   8.448  70.777  1.00  0.00     0.000 HD 
ENDBRANCH  18  19
ENDBRANCH  17  18
ENDBRANCH  15  17
ENDBRANCH  13  15
ENDBRANCH   5  13
ENDBRANCH   2   3
TORSDOF 6
ENDMDL
MODEL      121
REMARK 921   NORMALIZED FREE ENERGY PREDICTED BY IDOCK:   -4.16 KCAL/MOL
REMARK 922        TOTAL FREE ENERGY PREDICTED BY IDOCK:   -6.09 KCAL/MOL
REMARK 923 INTER-LIGAND FREE ENERGY PREDICTED BY IDOCK:   -5.62 KCAL/MOL
REMARK 924 INTRA-LIGAND FREE ENERGY PREDICTED BY IDOCK:   -0.47 KCAL/MOL
REMARK 927      BINDING AFFINITY PREDICTED BY RF-SCORE:    0.00 PKD
ROOT
HETATM    1  C   UNL     1     -10.509  19.911  65.803  1.00  0.00    -0.414 C  
HETATM    2  O   UNL     1     -10.410  18.496  65.889  1.00  0.00    -0.543 OA 
ENDROOT
BRANCH   2   3
HETATM    3  C   UNL     1      -9.518  17.986  66.791  1.00  0.00    -0.293 A  
HETATM    4  C   UNL     1      -9.735  16.652  67.125  1.00  0.00    -0.250 A  
HETATM    5  C   UNL     1      -8.888  15.963  68.007  1.00  0.00    -0.178 A  
HETATM    6  C   UNL     1      -5.810  18.091  69.891  1.00  0.00    -0.237 A  
HETATM    7  C   UNL     1      -7.824  16.656  68.637  1.00  0.00    -0.234 A  
HETATM    8  C   UNL     1      -6.593  18.725  68.939  1.00  0.00    -0.286 A  
HETATM    9  C   UNL     1      -8.453  18.665  67.368  1.00  0.00    -0.277 A  
HETATM   10  N   UNL     1      -7.036  16.038  69.548  1.00  0.00    -0.209 NA 
HETATM   11  C   UNL     1      -6.069  16.762  70.158  1.00  0.00    -0.054 A  
HETATM   12  C   UNL     1      -7.630  18.019  68.305  1.00  0.00    -0.278 A  
BRANCH   5  13
HETATM   13  N   UNL     1      -9.041  14.571  68.211  1.00  0.00    -0.190 NA 
HETATM   14  H   UNL     1      -9.286  14.217  69.137  1.00  0.00     0.000 HD 
BRANCH  13  15
HETATM   15  C   UNL     1      -8.848  13.635  67.100  1.00  0.00    -0.230 C  
HETATM   16  C   UNL     1      -7.792  12.600  67.504  1.00  0.00    -0.175 C  
BRANCH  15  17
HETATM   17  C   UNL     1     -10.167  12.901  66.783  1.00  0.00    -0.243 C  
BRANCH  17  18
HETATM   18  C   UNL     1     -11.199  13.723  65.996  1.00  0.00    -0.307 C  
BRANCH  18  19
HETATM   19  C   UNL     1     -11.182  13.524  64.480  1.00  0.00    -0.375 C  
HETATM   20  H1  UNL     1     -11.950  14.409  62.770  1.00  0.00     0.000 HD 
HETATM   21  N   UNL     1     -11.961  14.541  63.781  1.00  0.00    -0.845 NA 
HETATM   22  H2  UNL     1     -11.652  15.480  64.033  1.00  0.00     0.000 HD 
ENDBRANCH  18  19
ENDBRANCH  17  18
ENDBRANCH  15  17
ENDBRANCH  13  15
ENDBRANCH   5  13
ENDBRANCH   2   3
TORSDOF 6
ENDMDL
MODEL      122
REMARK 921   NORMALIZED FREE ENERGY PREDICTED BY IDOCK:   -4.15 KCAL/MOL
REMARK 922        TOTAL FREE ENERGY PREDICTED BY IDOCK:   -6.08 KCAL/MOL
REMARK 923 INTER-LIGAND FREE ENERGY PREDICTED BY IDOCK:   -5.35 KCAL/MOL
REMARK 924 INTRA-LIGAND FREE ENERGY PREDICTED BY IDOCK:   -0.73 KCAL/MOL
REMARK 927      BINDING AFFINITY PREDICTED BY RF-SCORE:    0.00 PKD
ROOT
HETATM    1  C   UNL     1     -12.763  12.098  63.242  1.00  0.00    -0.285 C  
HETATM    2  O   UNL     1     -12.867  12.515  64.597  1.00  0.00    -0.716 OA 
ENDROOT
BRANCH   2   3
HETATM    3  C   UNL     1     -11.709  12.579  65.321  1.00  0.00    -0.386 A  
HETATM    4  C   UNL     1     -11.295  11.362  65.854  1.00  0.00    -0.089 A  
HETATM    5  C   UNL     1     -10.107  11.242  66.591  1.00  0.00    -0.214 A  
HETATM    6  C   UNL     1      -7.927  14.718  67.440  1.00  0.00    -0.220 A  
HETATM    7  C   UNL     1      -9.339  12.401  66.869  1.00  0.00    -0.213 A  
HETATM    8  C   UNL     1      -9.047  14.797  66.626  1.00  0.00    -0.300 A  
HETATM    9  C   UNL     1     -10.944  13.715  65.550  1.00  0.00    -0.297 A  
HETATM   10  N   UNL     1      -8.228  12.330  67.639  1.00  0.00    -0.154 NA 
HETATM   11  C   UNL     1      -7.563  13.476  67.916  1.00  0.00    -0.151 A  
HETATM   12  C   UNL     1      -9.786  13.637  66.340  1.00  0.00    -0.300 A  
BRANCH   5  13
HETATM   13  N   UNL     1      -9.632   9.970  66.990  1.00  0.00    -0.166 NA 
HETATM   14  H   UNL     1      -8.681   9.686  66.753  1.00  0.00     0.000 HD 
BRANCH  13  15
HETATM   15  C   UNL     1     -10.499   9.060  67.743  1.00  0.00    -0.245 C  
HETATM   16  C   UNL     1     -10.397   7.660  67.129  1.00  0.00    -0.385 C  
BRANCH  15  17
HETATM   17  C   UNL     1     -10.051   8.990  69.218  1.00  0.00    -0.197 C  
BRANCH  17  18
HETATM   18  C   UNL     1     -10.142  10.314  69.991  1.00  0.00    -0.167 C  
BRANCH  18  19
HETATM   19  C   UNL     1     -11.552  10.876  70.172  1.00  0.00    -0.338 C  
HETATM   20  H1  UNL     1     -12.536  12.700  70.128  1.00  0.00     0.000 HD 
HETATM   21  N   UNL     1     -11.595  12.325  70.008  1.00  0.00    -0.524 NA 
HETATM   22  H2  UNL     1     -11.199  12.606  69.111  1.00  0.00     0.000 HD 
ENDBRANCH  18  19
ENDBRANCH  17  18
ENDBRANCH  15  17
ENDBRANCH  13  15
ENDBRANCH   5  13
ENDBRANCH   2   3
TORSDOF 6
ENDMDL
MODEL      123
REMARK 921   NORMALIZED FREE ENERGY PREDICTED BY IDOCK:   -4.14 KCAL/MOL
REMARK 922        TOTAL FREE ENERGY PREDICTED BY IDOCK:   -6.07 KCAL/MOL
REMARK 923 INTER-LIGAND FREE ENERGY PREDICTED BY IDOCK:   -5.51 KCAL/MOL
REMARK 924 INTRA-LIGAND FREE ENERGY PREDICTED BY IDOCK:   -0.56 KCAL/MOL
REMARK 927      BINDING AFFINITY PREDICTED BY RF-SCORE:    0.00 PKD
ROOT
HETATM    1  C   UNL     1      -7.376  11.538  68.727  1.00  0.00    -0.115 C  
HETATM    2  O   UNL     1      -6.386  12.506  68.409  1.00  0.00    -0.057 OA 
ENDROOT
BRANCH   2   3
HETATM    3  C   UNL     1      -6.821  13.701  67.907  1.00  0.00    -0.153 A  
HETATM    4  C   UNL     1      -8.176  13.733  67.588  1.00  0.00    -0.180 A  
HETATM    5  C   UNL     1      -8.794  14.894  67.099  1.00  0.00    -0.217 A  
HETATM    6  C   UNL     1      -6.406  18.245  66.310  1.00  0.00    -0.239 A  
HETATM    7  C   UNL     1      -8.011  16.048  66.848  1.00  0.00    -0.248 A  
HETATM    8  C   UNL     1      -5.836  17.124  66.891  1.00  0.00    -0.223 A  
HETATM    9  C   UNL     1      -6.050  14.839  67.707  1.00  0.00    -0.143 A  
HETATM   10  N   UNL     1      -8.564  17.159  66.307  1.00  0.00    -0.400 NA 
HETATM   11  C   UNL     1      -7.759  18.214  66.039  1.00  0.00    -0.169 A  
HETATM   12  C   UNL     1      -6.629  15.994  67.155  1.00  0.00    -0.177 A  
BRANCH   5  13
HETATM   13  N   UNL     1     -10.198  14.945  66.927  1.00  0.00    -0.251 NA 
HETATM   14  H   UNL     1     -10.661  15.844  66.793  1.00  0.00     0.000 HD 
BRANCH  13  15
HETATM   15  C   UNL     1     -10.989  13.712  66.940  1.00  0.00    -0.289 C  
HETATM   16  C   UNL     1     -11.432  13.425  68.378  1.00  0.00    -0.351 C  
BRANCH  15  17
HETATM   17  C   UNL     1     -12.244  13.871  66.056  1.00  0.00    -0.495 C  
BRANCH  17  18
HETATM   18  C   UNL     1     -11.966  14.084  64.560  1.00  0.00    -0.470 C  
BRANCH  18  19
HETATM   19  C   UNL     1     -12.449  15.415  63.983  1.00  0.00     0.239 C  
HETATM   20  H1  UNL     1     -11.758  17.347  63.694  1.00  0.00     0.000 HD 
HETATM   21  N   UNL     1     -11.436  16.459  64.079  1.00  0.00    -1.573 NA 
HETATM   22  H2  UNL     1     -10.561  16.166  63.644  1.00  0.00     0.000 HD 
ENDBRANCH  18  19
ENDBRANCH  17  18
ENDBRANCH  15  17
ENDBRANCH  13  15
ENDBRANCH   5  13
ENDBRANCH   2   3
TORSDOF 6
ENDMDL
MODEL      124
REMARK 921   NORMALIZED FREE ENERGY PREDICTED BY IDOCK:   -4.13 KCAL/MOL
REMARK 922        TOTAL FREE ENERGY PREDICTED BY IDOCK:   -6.05 KCAL/MOL
REMARK 923 INTER-LIGAND FREE ENERGY PREDICTED BY IDOCK:   -4.97 KCAL/MOL
REMARK 924 INTRA-LIGAND FREE ENERGY PREDICTED BY IDOCK:   -1.08 KCAL/MOL
REMARK 927      BINDING AFFINITY PREDICTED BY RF-SCORE:    0.00 PKD
ROOT
HETATM    1  C   UNL     1     -10.139   4.483  65.100  1.00  0.00    -0.127 C  
HETATM    2  O   UNL     1      -9.726   4.256  66.441  1.00  0.00    -0.186 OA 
ENDROOT
BRANCH   2   3
HETATM    3  C   UNL     1     -10.080   5.195  67.370  1.00  0.00    -0.179 A  
HETATM    4  C   UNL     1     -10.223   6.483  66.862  1.00  0.00    -0.279 A  
HETATM    5  C   UNL     1     -10.620   7.558  67.671  1.00  0.00    -0.233 A  
HETATM    6  C   UNL     1     -11.096   6.893  71.780  1.00  0.00    -0.275 A  
HETATM    7  C   UNL     1     -10.812   7.351  69.060  1.00  0.00    -0.086 A  
HETATM    8  C   UNL     1     -10.806   5.825  70.946  1.00  0.00    -0.326 A  
HETATM    9  C   UNL     1     -10.307   4.970  68.721  1.00  0.00    -0.109 A  
HETATM   10  N   UNL     1     -11.124   8.383  69.880  1.00  0.00    -0.170 NA 
HETATM   11  C   UNL     1     -11.243   8.138  71.206  1.00  0.00    -0.260 A  
HETATM   12  C   UNL     1     -10.641   6.040  69.567  1.00  0.00    -0.363 A  
BRANCH   5  13
HETATM   13  N   UNL     1     -10.904   8.823  67.102  1.00  0.00    -0.376 NA 
HETATM   14  H   UNL     1     -11.871   9.094  66.923  1.00  0.00     0.000 HD 
BRANCH  13  15
HETATM   15  C   UNL     1      -9.814   9.744  66.767  1.00  0.00    -0.208 C  
HETATM   16  C   UNL     1      -9.537   9.654  65.263  1.00  0.00    -0.347 C  
BRANCH  15  17
HETATM   17  C   UNL     1     -10.212  11.193  67.114  1.00  0.00    -0.235 C  
BRANCH  17  18
HETATM   18  C   UNL     1     -10.124  11.556  68.604  1.00  0.00    -0.214 C  
BRANCH  18  19
HETATM   19  C   UNL     1     -11.452  11.909  69.276  1.00  0.00    -0.306 C  
HETATM   20  H1  UNL     1     -13.365  11.137  69.479  1.00  0.00     0.000 HD 
HETATM   21  N   UNL     1     -12.479  10.902  69.031  1.00  0.00    -0.694 NA 
HETATM   22  H2  UNL     1     -12.161   9.974  69.310  1.00  0.00     0.000 HD 
ENDBRANCH  18  19
ENDBRANCH  17  18
ENDBRANCH  15  17
ENDBRANCH  13  15
ENDBRANCH   5  13
ENDBRANCH   2   3
TORSDOF 6
ENDMDL
MODEL      125
REMARK 921   NORMALIZED FREE ENERGY PREDICTED BY IDOCK:   -4.13 KCAL/MOL
REMARK 922        TOTAL FREE ENERGY PREDICTED BY IDOCK:   -6.05 KCAL/MOL
REMARK 923 INTER-LIGAND FREE ENERGY PREDICTED BY IDOCK:   -5.66 KCAL/MOL
REMARK 924 INTRA-LIGAND FREE ENERGY PREDICTED BY IDOCK:   -0.39 KCAL/MOL
REMARK 927      BINDING AFFINITY PREDICTED BY RF-SCORE:    0.00 PKD
ROOT
HETATM    1  C   UNL     1     -13.361  12.850  72.078  1.00  0.00    -0.482 C  
HETATM    2  O   UNL     1     -12.927  14.162  71.747  1.00  0.00    -0.316 OA 
ENDROOT
BRANCH   2   3
HETATM    3  C   UNL     1     -12.329  14.333  70.530  1.00  0.00    -0.360 A  
HETATM    4  C   UNL     1     -12.280  13.184  69.746  1.00  0.00    -0.266 A  
HETATM    5  C   UNL     1     -11.735  13.193  68.452  1.00  0.00    -0.351 A  
HETATM    6  C   UNL     1      -9.953  16.722  67.063  1.00  0.00    -0.269 A  
HETATM    7  C   UNL     1     -11.149  14.383  67.951  1.00  0.00    -0.274 A  
HETATM    8  C   UNL     1     -10.589  16.719  68.295  1.00  0.00    -0.352 A  
HETATM    9  C   UNL     1     -11.797  15.516  70.034  1.00  0.00    -0.379 A  
HETATM   10  N   UNL     1     -10.550  14.404  66.738  1.00  0.00    -0.279 NA 
HETATM   11  C   UNL     1      -9.960  15.552  66.331  1.00  0.00    -0.283 A  
HETATM   12  C   UNL     1     -11.186  15.538  68.770  1.00  0.00    -0.316 A  
BRANCH   5  13
HETATM   13  N   UNL     1     -11.834  12.053  67.621  1.00  0.00    -0.564 NA 
HETATM   14  H   UNL     1     -12.589  11.986  66.938  1.00  0.00     0.000 HD 
BRANCH  13  15
HETATM   15  C   UNL     1     -10.856  10.967  67.736  1.00  0.00    -0.259 C  
HETATM   16  C   UNL     1     -10.156  10.787  66.385  1.00  0.00    -0.278 C  
BRANCH  15  17
HETATM   17  C   UNL     1      -9.796  11.311  68.803  1.00  0.00    -0.194 C  
BRANCH  17  18
HETATM   18  C   UNL     1      -9.296  10.120  69.634  1.00  0.00    -0.215 C  
BRANCH  18  19
HETATM   19  C   UNL     1      -8.025   9.444  69.118  1.00  0.00    -0.091 C  
HETATM   20  H1  UNL     1      -7.466   7.783  68.011  1.00  0.00     0.000 HD 
HETATM   21  N   UNL     1      -8.313   8.234  68.356  1.00  0.00    -0.131 NA 
HETATM   22  H2  UNL     1      -8.965   8.423  67.594  1.00  0.00     0.000 HD 
ENDBRANCH  18  19
ENDBRANCH  17  18
ENDBRANCH  15  17
ENDBRANCH  13  15
ENDBRANCH   5  13
ENDBRANCH   2   3
TORSDOF 6
ENDMDL
MODEL      126
REMARK 921   NORMALIZED FREE ENERGY PREDICTED BY IDOCK:   -4.11 KCAL/MOL
REMARK 922        TOTAL FREE ENERGY PREDICTED BY IDOCK:   -6.02 KCAL/MOL
REMARK 923 INTER-LIGAND FREE ENERGY PREDICTED BY IDOCK:   -6.04 KCAL/MOL
REMARK 924 INTRA-LIGAND FREE ENERGY PREDICTED BY IDOCK:    0.02 KCAL/MOL
REMARK 927      BINDING AFFINITY PREDICTED BY RF-SCORE:    0.00 PKD
ROOT
HETATM    1  C   UNL     1      -8.758   7.424  66.185  1.00  0.00    -0.156 C  
HETATM    2  O   UNL     1      -8.505   8.518  65.315  1.00  0.00    -0.160 OA 
ENDROOT
BRANCH   2   3
HETATM    3  C   UNL     1      -9.309   9.616  65.442  1.00  0.00    -0.259 A  
HETATM    4  C   UNL     1      -9.450  10.078  66.748  1.00  0.00    -0.209 A  
HETATM    5  C   UNL     1     -10.209  11.218  67.053  1.00  0.00    -0.215 A  
HETATM    6  C   UNL     1     -12.331  13.085  63.960  1.00  0.00    -0.437 A  
HETATM    7  C   UNL     1     -10.915  11.882  66.018  1.00  0.00    -0.309 A  
HETATM    8  C   UNL     1     -11.494  12.021  63.666  1.00  0.00    -0.556 A  
HETATM    9  C   UNL     1      -9.961  10.283  64.414  1.00  0.00    -0.331 A  
HETATM   10  N   UNL     1     -11.715  12.940  66.291  1.00  0.00    -0.379 NA 
HETATM   11  C   UNL     1     -12.407  13.502  65.273  1.00  0.00    -0.467 A  
HETATM   12  C   UNL     1     -10.781  11.387  64.698  1.00  0.00    -0.378 A  
BRANCH   5  13
HETATM   13  N   UNL     1     -10.213  11.753  68.363  1.00  0.00    -0.201 NA 
HETATM   14  H   UNL     1      -9.329  11.962  68.828  1.00  0.00     0.000 HD 
BRANCH  13  15
HETATM   15  C   UNL     1     -11.480  12.006  69.054  1.00  0.00    -0.300 C  
HETATM   16  C   UNL     1     -11.859  10.760  69.862  1.00  0.00    -0.413 C  
BRANCH  15  17
HETATM   17  C   UNL     1     -11.333  13.199  70.022  1.00  0.00     0.025 C  
BRANCH  17  18
HETATM   18  C   UNL     1     -12.480  14.220  69.977  1.00  0.00    -0.355 C  
BRANCH  18  19
HETATM   19  C   UNL     1     -12.058  15.688  70.047  1.00  0.00    -0.359 C  
HETATM   20  H1  UNL     1     -11.510  17.100  71.462  1.00  0.00     0.000 HD 
HETATM   21  N   UNL     1     -11.791  16.121  71.415  1.00  0.00    -0.582 NA 
HETATM   22  H2  UNL     1     -11.103  15.518  71.865  1.00  0.00     0.000 HD 
ENDBRANCH  18  19
ENDBRANCH  17  18
ENDBRANCH  15  17
ENDBRANCH  13  15
ENDBRANCH   5  13
ENDBRANCH   2   3
TORSDOF 6
ENDMDL
MODEL      127
REMARK 921   NORMALIZED FREE ENERGY PREDICTED BY IDOCK:   -4.10 KCAL/MOL
REMARK 922        TOTAL FREE ENERGY PREDICTED BY IDOCK:   -6.01 KCAL/MOL
REMARK 923 INTER-LIGAND FREE ENERGY PREDICTED BY IDOCK:   -5.46 KCAL/MOL
REMARK 924 INTRA-LIGAND FREE ENERGY PREDICTED BY IDOCK:   -0.55 KCAL/MOL
REMARK 927      BINDING AFFINITY PREDICTED BY RF-SCORE:    0.00 PKD
ROOT
HETATM    1  C   UNL     1      -6.701  16.334  67.248  1.00  0.00    -0.193 C  
HETATM    2  O   UNL     1      -7.439  15.397  68.019  1.00  0.00    -0.116 OA 
ENDROOT
BRANCH   2   3
HETATM    3  C   UNL     1      -8.616  14.944  67.492  1.00  0.00    -0.184 A  
HETATM    4  C   UNL     1      -9.194  13.890  68.195  1.00  0.00    -0.202 A  
HETATM    5  C   UNL     1     -10.424  13.332  67.813  1.00  0.00    -0.239 A  
HETATM    6  C   UNL     1     -12.226  14.699  64.287  1.00  0.00    -0.432 A  
HETATM    7  C   UNL     1     -11.065  13.796  66.638  1.00  0.00    -0.311 A  
HETATM    8  C   UNL     1     -11.066  15.308  64.739  1.00  0.00    -0.407 A  
HETATM    9  C   UNL     1      -9.255  15.437  66.363  1.00  0.00    -0.339 A  
HETATM   10  N   UNL     1     -12.214  13.228  66.202  1.00  0.00    -0.420 NA 
HETATM   11  C   UNL     1     -12.755  13.675  65.045  1.00  0.00    -0.336 A  
HETATM   12  C   UNL     1     -10.453  14.852  65.919  1.00  0.00    -0.327 A  
BRANCH   5  13
HETATM   13  N   UNL     1     -11.062  12.368  68.629  1.00  0.00    -0.242 NA 
HETATM   14  H   UNL     1     -11.917  12.612  69.129  1.00  0.00     0.000 HD 
BRANCH  13  15
HETATM   15  C   UNL     1     -10.499  11.021  68.760  1.00  0.00    -0.198 C  
HETATM   16  C   UNL     1     -11.024  10.390  70.054  1.00  0.00    -0.370 C  
BRANCH  15  17
HETATM   17  C   UNL     1     -10.931  10.142  67.568  1.00  0.00    -0.319 C  
BRANCH  17  18
HETATM   18  C   UNL     1     -10.642   8.641  67.725  1.00  0.00    -0.249 C  
BRANCH  18  19
HETATM   19  C   UNL     1      -9.366   8.141  67.047  1.00  0.00    -0.155 C  
HETATM   20  H1  UNL     1      -8.450   8.192  65.188  1.00  0.00     0.000 HD 
HETATM   21  N   UNL     1      -9.301   8.526  65.641  1.00  0.00    -0.426 NA 
HETATM   22  H2  UNL     1      -9.408   9.534  65.529  1.00  0.00     0.000 HD 
ENDBRANCH  18  19
ENDBRANCH  17  18
ENDBRANCH  15  17
ENDBRANCH  13  15
ENDBRANCH   5  13
ENDBRANCH   2   3
TORSDOF 6
ENDMDL
MODEL      128
REMARK 921   NORMALIZED FREE ENERGY PREDICTED BY IDOCK:   -4.10 KCAL/MOL
REMARK 922        TOTAL FREE ENERGY PREDICTED BY IDOCK:   -6.00 KCAL/MOL
REMARK 923 INTER-LIGAND FREE ENERGY PREDICTED BY IDOCK:   -5.50 KCAL/MOL
REMARK 924 INTRA-LIGAND FREE ENERGY PREDICTED BY IDOCK:   -0.50 KCAL/MOL
REMARK 927      BINDING AFFINITY PREDICTED BY RF-SCORE:    0.00 PKD
ROOT
HETATM    1  C   UNL     1     -12.576  14.260  70.515  1.00  0.00    -0.353 C  
HETATM    2  O   UNL     1     -12.178  15.610  70.323  1.00  0.00    -0.385 OA 
ENDROOT
BRANCH   2   3
HETATM    3  C   UNL     1     -11.059  15.829  69.569  1.00  0.00    -0.306 A  
HETATM    4  C   UNL     1     -11.260  16.650  68.463  1.00  0.00    -0.239 A  
HETATM    5  C   UNL     1     -10.209  17.008  67.605  1.00  0.00    -0.317 A  
HETATM    6  C   UNL     1      -6.436  15.306  68.255  1.00  0.00    -0.115 A  
HETATM    7  C   UNL     1      -8.918  16.464  67.820  1.00  0.00    -0.198 A  
HETATM    8  C   UNL     1      -7.463  15.048  69.149  1.00  0.00    -0.169 A  
HETATM    9  C   UNL     1      -9.789  15.324  69.816  1.00  0.00    -0.188 A  
HETATM   10  N   UNL     1      -7.901  16.732  66.968  1.00  0.00    -0.176 NA 
HETATM   11  C   UNL     1      -6.702  16.144  67.192  1.00  0.00    -0.192 A  
HETATM   12  C   UNL     1      -8.733  15.612  68.936  1.00  0.00    -0.215 A  
BRANCH   5  13
HETATM   13  N   UNL     1     -10.409  17.962  66.579  1.00  0.00    -0.369 NA 
HETATM   14  H   UNL     1     -10.623  17.651  65.631  1.00  0.00     0.000 HD 
BRANCH  13  15
HETATM   15  C   UNL     1     -10.311  19.394  66.872  1.00  0.00    -0.437 C  
HETATM   16  C   UNL     1      -9.981  19.572  68.358  1.00  0.00    -0.540 C  
BRANCH  15  17
HETATM   17  C   UNL     1      -9.187  20.037  66.033  1.00  0.00    -0.326 C  
BRANCH  17  18
HETATM   18  C   UNL     1      -7.975  20.532  66.836  1.00  0.00    -0.295 C  
BRANCH  18  19
HETATM   19  C   UNL     1      -6.608  20.129  66.283  1.00  0.00    -0.216 C  
HETATM   20  H1  UNL     1      -5.806  18.909  64.811  1.00  0.00     0.000 HD 
HETATM   21  N   UNL     1      -6.717  19.179  65.181  1.00  0.00    -0.468 NA 
HETATM   22  H2  UNL     1      -7.322  19.538  64.442  1.00  0.00     0.000 HD 
ENDBRANCH  18  19
ENDBRANCH  17  18
ENDBRANCH  15  17
ENDBRANCH  13  15
ENDBRANCH   5  13
ENDBRANCH   2   3
TORSDOF 6
ENDMDL
MODEL      129
REMARK 921   NORMALIZED FREE ENERGY PREDICTED BY IDOCK:   -4.08 KCAL/MOL
REMARK 922        TOTAL FREE ENERGY PREDICTED BY IDOCK:   -5.98 KCAL/MOL
REMARK 923 INTER-LIGAND FREE ENERGY PREDICTED BY IDOCK:   -5.50 KCAL/MOL
REMARK 924 INTRA-LIGAND FREE ENERGY PREDICTED BY IDOCK:   -0.49 KCAL/MOL
REMARK 927      BINDING AFFINITY PREDICTED BY RF-SCORE:    0.00 PKD
ROOT
HETATM    1  C   UNL     1      -7.535   6.845  70.336  1.00  0.00    -0.086 C  
HETATM    2  O   UNL     1      -8.318   7.503  69.350  1.00  0.00    -0.128 OA 
ENDROOT
BRANCH   2   3
HETATM    3  C   UNL     1      -9.332   8.306  69.792  1.00  0.00    -0.158 A  
HETATM    4  C   UNL     1      -9.252   9.627  69.358  1.00  0.00    -0.196 A  
HETATM    5  C   UNL     1     -10.233  10.575  69.688  1.00  0.00    -0.168 A  
HETATM    6  C   UNL     1     -13.313   9.438  72.290  1.00  0.00    -0.539 A  
HETATM    7  C   UNL     1     -11.299  10.206  70.546  1.00  0.00    -0.338 A  
HETATM    8  C   UNL     1     -12.393   8.491  71.868  1.00  0.00    -0.407 A  
HETATM    9  C   UNL     1     -10.395   7.921  70.599  1.00  0.00    -0.205 A  
HETATM   10  N   UNL     1     -12.219  11.116  70.941  1.00  0.00    -0.369 NA 
HETATM   11  C   UNL     1     -13.185  10.722  71.804  1.00  0.00    -0.418 A  
HETATM   12  C   UNL     1     -11.355   8.865  70.999  1.00  0.00    -0.350 A  
BRANCH   5  13
HETATM   13  N   UNL     1     -10.208  11.867  69.111  1.00  0.00    -0.417 NA 
HETATM   14  H   UNL     1     -10.160  12.690  69.712  1.00  0.00     0.000 HD 
BRANCH  13  15
HETATM   15  C   UNL     1     -10.252  12.028  67.655  1.00  0.00    -0.199 C  
HETATM   16  C   UNL     1     -11.374  11.146  67.095  1.00  0.00    -0.257 C  
BRANCH  15  17
HETATM   17  C   UNL     1     -10.544  13.497  67.286  1.00  0.00    -0.263 C  
BRANCH  17  18
HETATM   18  C   UNL     1     -11.731  14.132  68.027  1.00  0.00    -0.394 C  
BRANCH  18  19
HETATM   19  C   UNL     1     -11.463  15.504  68.647  1.00  0.00    -0.359 C  
HETATM   20  H1  UNL     1     -10.038  16.448  69.819  1.00  0.00     0.000 HD 
HETATM   21  N   UNL     1     -10.217  15.533  69.406  1.00  0.00    -0.244 NA 
HETATM   22  H2  UNL     1      -9.430  15.227  68.834  1.00  0.00     0.000 HD 
ENDBRANCH  18  19
ENDBRANCH  17  18
ENDBRANCH  15  17
ENDBRANCH  13  15
ENDBRANCH   5  13
ENDBRANCH   2   3
TORSDOF 6
ENDMDL
MODEL      130
REMARK 921   NORMALIZED FREE ENERGY PREDICTED BY IDOCK:   -4.08 KCAL/MOL
REMARK 922        TOTAL FREE ENERGY PREDICTED BY IDOCK:   -5.97 KCAL/MOL
REMARK 923 INTER-LIGAND FREE ENERGY PREDICTED BY IDOCK:   -5.58 KCAL/MOL
REMARK 924 INTRA-LIGAND FREE ENERGY PREDICTED BY IDOCK:   -0.40 KCAL/MOL
REMARK 927      BINDING AFFINITY PREDICTED BY RF-SCORE:    0.00 PKD
ROOT
HETATM    1  C   UNL     1     -12.619  14.088  65.686  1.00  0.00    -0.512 C  
HETATM    2  O   UNL     1     -11.369  13.744  65.105  1.00  0.00    -0.299 OA 
ENDROOT
BRANCH   2   3
HETATM    3  C   UNL     1     -10.257  13.893  65.886  1.00  0.00    -0.315 A  
HETATM    4  C   UNL     1      -9.832  15.210  66.037  1.00  0.00    -0.349 A  
HETATM    5  C   UNL     1      -8.728  15.545  66.838  1.00  0.00    -0.250 A  
HETATM    6  C   UNL     1      -6.502  12.444  68.564  1.00  0.00    -0.068 A  
HETATM    7  C   UNL     1      -7.975  14.514  67.453  1.00  0.00    -0.200 A  
HETATM    8  C   UNL     1      -7.655  12.143  67.856  1.00  0.00    -0.123 A  
HETATM    9  C   UNL     1      -9.553  12.877  66.518  1.00  0.00    -0.259 A  
HETATM   10  N   UNL     1      -6.863  14.799  68.170  1.00  0.00    -0.112 NA 
HETATM   11  C   UNL     1      -6.152  13.772  68.691  1.00  0.00    -0.088 A  
HETATM   12  C   UNL     1      -8.405  13.177  67.270  1.00  0.00    -0.182 A  
BRANCH   5  13
HETATM   13  N   UNL     1      -8.411  16.900  67.097  1.00  0.00    -0.186 NA 
HETATM   14  H   UNL     1      -8.015  17.479  66.356  1.00  0.00     0.000 HD 
BRANCH  13  15
HETATM   15  C   UNL     1      -8.648  17.474  68.424  1.00  0.00    -0.275 C  
HETATM   16  C   UNL     1      -7.723  18.681  68.611  1.00  0.00    -0.344 C  
BRANCH  15  17
HETATM   17  C   UNL     1     -10.112  17.945  68.551  1.00  0.00    -0.392 C  
BRANCH  17  18
HETATM   18  C   UNL     1     -10.370  19.395  68.117  1.00  0.00    -0.525 C  
BRANCH  18  19
HETATM   19  C   UNL     1     -10.632  19.600  66.625  1.00  0.00    -0.487 C  
HETATM   20  H1  UNL     1      -9.686  20.386  64.956  1.00  0.00     0.000 HD 
HETATM   21  N   UNL     1      -9.512  20.249  65.951  1.00  0.00    -0.611 NA 
HETATM   22  H2  UNL     1      -8.643  19.739  66.106  1.00  0.00     0.000 HD 
ENDBRANCH  18  19
ENDBRANCH  17  18
ENDBRANCH  15  17
ENDBRANCH  13  15
ENDBRANCH   5  13
ENDBRANCH   2   3
TORSDOF 6
ENDMDL
MODEL      131
REMARK 921   NORMALIZED FREE ENERGY PREDICTED BY IDOCK:   -4.07 KCAL/MOL
REMARK 922        TOTAL FREE ENERGY PREDICTED BY IDOCK:   -5.97 KCAL/MOL
REMARK 923 INTER-LIGAND FREE ENERGY PREDICTED BY IDOCK:   -5.50 KCAL/MOL
REMARK 924 INTRA-LIGAND FREE ENERGY PREDICTED BY IDOCK:   -0.48 KCAL/MOL
REMARK 927      BINDING AFFINITY PREDICTED BY RF-SCORE:    0.00 PKD
ROOT
HETATM    1  C   UNL     1      -7.939   9.201  67.419  1.00  0.00    -0.103 C  
HETATM    2  O   UNL     1      -7.651  10.592  67.455  1.00  0.00    -0.092 OA 
ENDROOT
BRANCH   2   3
HETATM    3  C   UNL     1      -8.528  11.427  66.820  1.00  0.00    -0.165 A  
HETATM    4  C   UNL     1      -8.472  12.751  67.246  1.00  0.00    -0.194 A  
HETATM    5  C   UNL     1      -9.276  13.748  66.671  1.00  0.00    -0.223 A  
HETATM    6  C   UNL     1     -12.116  12.614  63.806  1.00  0.00    -0.604 A  
HETATM    7  C   UNL     1     -10.227  13.392  65.681  1.00  0.00    -0.292 A  
HETATM    8  C   UNL     1     -11.241  11.665  64.310  1.00  0.00    -0.392 A  
HETATM    9  C   UNL     1      -9.424  11.073  65.821  1.00  0.00    -0.242 A  
HETATM   10  N   UNL     1     -11.067  14.317  65.161  1.00  0.00    -0.333 NA 
HETATM   11  C   UNL     1     -11.991  13.912  64.258  1.00  0.00    -0.444 A  
HETATM   12  C   UNL     1     -10.288  12.036  65.275  1.00  0.00    -0.311 A  
BRANCH   5  13
HETATM   13  N   UNL     1      -9.093  15.108  67.015  1.00  0.00    -0.216 NA 
HETATM   14  H   UNL     1      -8.732  15.763  66.321  1.00  0.00     0.000 HD 
BRANCH  13  15
HETATM   15  C   UNL     1      -9.420  15.580  68.363  1.00  0.00    -0.196 C  
HETATM   16  C   UNL     1      -9.453  17.113  68.355  1.00  0.00    -0.276 C  
BRANCH  15  17
HETATM   17  C   UNL     1     -10.806  15.056  68.793  1.00  0.00    -0.249 C  
BRANCH  17  18
HETATM   18  C   UNL     1     -11.206  15.381  70.240  1.00  0.00    -0.328 C  
BRANCH  18  19
HETATM   19  C   UNL     1     -12.406  14.603  70.783  1.00  0.00    -0.328 C  
HETATM   20  H1  UNL     1     -14.184  14.956  71.788  1.00  0.00     0.000 HD 
HETATM   21  N   UNL     1     -13.384  15.474  71.426  1.00  0.00    -0.510 NA 
HETATM   22  H2  UNL     1     -13.682  16.221  70.798  1.00  0.00     0.000 HD 
ENDBRANCH  18  19
ENDBRANCH  17  18
ENDBRANCH  15  17
ENDBRANCH  13  15
ENDBRANCH   5  13
ENDBRANCH   2   3
TORSDOF 6
ENDMDL
MODEL      132
REMARK 921   NORMALIZED FREE ENERGY PREDICTED BY IDOCK:   -4.07 KCAL/MOL
REMARK 922        TOTAL FREE ENERGY PREDICTED BY IDOCK:   -5.97 KCAL/MOL
REMARK 923 INTER-LIGAND FREE ENERGY PREDICTED BY IDOCK:   -5.75 KCAL/MOL
REMARK 924 INTRA-LIGAND FREE ENERGY PREDICTED BY IDOCK:   -0.22 KCAL/MOL
REMARK 927      BINDING AFFINITY PREDICTED BY RF-SCORE:    0.00 PKD
ROOT
HETATM    1  C   UNL     1     -13.930  15.184  71.463  1.00  0.00    -0.522 C  
HETATM    2  O   UNL     1     -12.633  15.668  71.145  1.00  0.00    -0.408 OA 
ENDROOT
BRANCH   2   3
HETATM    3  C   UNL     1     -11.984  15.074  70.099  1.00  0.00    -0.320 A  
HETATM    4  C   UNL     1     -11.038  15.882  69.474  1.00  0.00    -0.315 A  
HETATM    5  C   UNL     1     -10.254  15.415  68.407  1.00  0.00    -0.221 A  
HETATM    6  C   UNL     1     -11.015  11.580  66.902  1.00  0.00    -0.350 A  
HETATM    7  C   UNL     1     -10.476  14.111  67.898  1.00  0.00    -0.237 A  
HETATM    8  C   UNL     1     -11.704  12.022  68.020  1.00  0.00    -0.398 A  
HETATM    9  C   UNL     1     -12.181  13.779  69.637  1.00  0.00    -0.359 A  
HETATM   10  N   UNL     1      -9.788  13.659  66.823  1.00  0.00    -0.263 NA 
HETATM   11  C   UNL     1     -10.078  12.426  66.346  1.00  0.00    -0.236 A  
HETATM   12  C   UNL     1     -11.458  13.308  68.529  1.00  0.00    -0.347 A  
BRANCH   5  13
HETATM   13  N   UNL     1      -9.198  16.203  67.891  1.00  0.00    -0.199 NA 
HETATM   14  H   UNL     1      -8.334  16.305  68.423  1.00  0.00     0.000 HD 
BRANCH  13  15
HETATM   15  C   UNL     1      -9.341  16.871  66.594  1.00  0.00    -0.258 C  
HETATM   16  C   UNL     1     -10.311  18.048  66.751  1.00  0.00    -0.373 C  
BRANCH  15  17
HETATM   17  C   UNL     1      -7.977  17.411  66.117  1.00  0.00    -0.275 C  
BRANCH  17  18
HETATM   18  C   UNL     1      -7.865  18.942  66.061  1.00  0.00    -0.214 C  
BRANCH  18  19
HETATM   19  C   UNL     1      -6.899  19.568  67.068  1.00  0.00    -0.192 C  
HETATM   20  H1  UNL     1      -5.741  21.274  67.284  1.00  0.00     0.000 HD 
HETATM   21  N   UNL     1      -6.385  20.856  66.613  1.00  0.00    -0.262 NA 
HETATM   22  H2  UNL     1      -7.145  21.496  66.384  1.00  0.00     0.000 HD 
ENDBRANCH  18  19
ENDBRANCH  17  18
ENDBRANCH  15  17
ENDBRANCH  13  15
ENDBRANCH   5  13
ENDBRANCH   2   3
TORSDOF 6
ENDMDL
MODEL      133
REMARK 921   NORMALIZED FREE ENERGY PREDICTED BY IDOCK:   -4.07 KCAL/MOL
REMARK 922        TOTAL FREE ENERGY PREDICTED BY IDOCK:   -5.96 KCAL/MOL
REMARK 923 INTER-LIGAND FREE ENERGY PREDICTED BY IDOCK:   -5.30 KCAL/MOL
REMARK 924 INTRA-LIGAND FREE ENERGY PREDICTED BY IDOCK:   -0.66 KCAL/MOL
REMARK 927      BINDING AFFINITY PREDICTED BY RF-SCORE:    0.00 PKD
ROOT
HETATM    1  C   UNL     1     -12.235  14.310  70.303  1.00  0.00    -0.342 C  
HETATM    2  O   UNL     1     -11.679  15.600  70.515  1.00  0.00    -0.305 OA 
ENDROOT
BRANCH   2   3
HETATM    3  C   UNL     1     -11.035  16.183  69.460  1.00  0.00    -0.341 A  
HETATM    4  C   UNL     1     -10.780  15.324  68.395  1.00  0.00    -0.250 A  
HETATM    5  C   UNL     1     -10.162  15.769  67.216  1.00  0.00    -0.268 A  
HETATM    6  C   UNL     1      -8.796  19.726  67.052  1.00  0.00    -0.395 A  
HETATM    7  C   UNL     1      -9.714  17.111  67.128  1.00  0.00    -0.261 A  
HETATM    8  C   UNL     1      -9.501  19.295  68.164  1.00  0.00    -0.410 A  
HETATM    9  C   UNL     1     -10.640  17.511  69.369  1.00  0.00     0.095 A  
HETATM   10  N   UNL     1      -9.049  17.551  66.034  1.00  0.00    -0.514 NA 
HETATM   11  C   UNL     1      -8.597  18.827  66.025  1.00  0.00    -0.018 A  
HETATM   12  C   UNL     1      -9.959  17.968  68.229  1.00  0.00    -0.374 A  
BRANCH   5  13
HETATM   13  N   UNL     1     -10.051  14.915  66.093  1.00  0.00    -0.282 NA 
HETATM   14  H   UNL     1      -9.324  15.081  65.398  1.00  0.00     0.000 HD 
BRANCH  13  15
HETATM   15  C   UNL     1     -10.978  13.792  65.925  1.00  0.00    -0.283 C  
HETATM   16  C   UNL     1     -11.537  13.822  64.499  1.00  0.00    -0.413 C  
BRANCH  15  17
HETATM   17  C   UNL     1     -10.242  12.453  66.142  1.00  0.00    -0.262 C  
BRANCH  17  18
HETATM   18  C   UNL     1      -8.804  12.576  66.668  1.00  0.00    -0.142 C  
BRANCH  18  19
HETATM   19  C   UNL     1      -8.624  12.304  68.162  1.00  0.00    -0.181 C  
HETATM   20  H1  UNL     1      -9.686  11.508  69.755  1.00  0.00     0.000 HD 
HETATM   21  N   UNL     1      -9.806  11.690  68.758  1.00  0.00    -0.361 NA 
HETATM   22  H2  UNL     1     -10.073  10.842  68.259  1.00  0.00     0.000 HD 
ENDBRANCH  18  19
ENDBRANCH  17  18
ENDBRANCH  15  17
ENDBRANCH  13  15
ENDBRANCH   5  13
ENDBRANCH   2   3
TORSDOF 6
ENDMDL
MODEL      134
REMARK 921   NORMALIZED FREE ENERGY PREDICTED BY IDOCK:   -4.06 KCAL/MOL
REMARK 922        TOTAL FREE ENERGY PREDICTED BY IDOCK:   -5.96 KCAL/MOL
REMARK 923 INTER-LIGAND FREE ENERGY PREDICTED BY IDOCK:   -5.39 KCAL/MOL
REMARK 924 INTRA-LIGAND FREE ENERGY PREDICTED BY IDOCK:   -0.57 KCAL/MOL
REMARK 927      BINDING AFFINITY PREDICTED BY RF-SCORE:    0.00 PKD
ROOT
HETATM    1  C   UNL     1     -12.340  11.641  70.702  1.00  0.00    -0.344 C  
HETATM    2  O   UNL     1     -12.387  10.643  71.712  1.00  0.00    -0.302 OA 
ENDROOT
BRANCH   2   3
HETATM    3  C   UNL     1     -11.810   9.437  71.426  1.00  0.00    -0.374 A  
HETATM    4  C   UNL     1     -11.214   9.368  70.169  1.00  0.00    -0.253 A  
HETATM    5  C   UNL     1     -10.542   8.217  69.731  1.00  0.00    -0.231 A  
HETATM    6  C   UNL     1     -10.607   4.816  72.176  1.00  0.00    -0.204 A  
HETATM    7  C   UNL     1     -10.529   7.062  70.552  1.00  0.00    -0.208 A  
HETATM    8  C   UNL     1     -11.174   5.995  72.634  1.00  0.00    -0.326 A  
HETATM    9  C   UNL     1     -11.767   8.327  72.258  1.00  0.00    -0.453 A  
HETATM   10  N   UNL     1      -9.953   5.913  70.126  1.00  0.00    -0.182 NA 
HETATM   11  C   UNL     1     -10.017   4.825  70.930  1.00  0.00    -0.213 A  
HETATM   12  C   UNL     1     -11.160   7.139  71.818  1.00  0.00    -0.267 A  
BRANCH   5  13
HETATM   13  N   UNL     1      -9.817   8.225  68.515  1.00  0.00    -0.171 NA 
HETATM   14  H   UNL     1      -8.797   8.223  68.533  1.00  0.00     0.000 HD 
BRANCH  13  15
HETATM   15  C   UNL     1     -10.525   8.235  67.232  1.00  0.00    -0.303 C  
HETATM   16  C   UNL     1      -9.580   8.772  66.152  1.00  0.00    -0.323 C  
BRANCH  15  17
HETATM   17  C   UNL     1     -10.958   6.805  66.847  1.00  0.00    -0.370 C  
BRANCH  17  18
HETATM   18  C   UNL     1      -9.811   5.854  66.474  1.00  0.00    -0.189 C  
BRANCH  18  19
HETATM   19  C   UNL     1     -10.236   4.505  65.893  1.00  0.00    -0.263 C  
HETATM   20  H1  UNL     1      -9.990   2.482  66.271  1.00  0.00     0.000 HD 
HETATM   21  N   UNL     1      -9.707   3.382  66.658  1.00  0.00    -0.412 NA 
HETATM   22  H2  UNL     1      -9.960   3.455  67.644  1.00  0.00     0.000 HD 
ENDBRANCH  18  19
ENDBRANCH  17  18
ENDBRANCH  15  17
ENDBRANCH  13  15
ENDBRANCH   5  13
ENDBRANCH   2   3
TORSDOF 6
ENDMDL
MODEL      135
REMARK 921   NORMALIZED FREE ENERGY PREDICTED BY IDOCK:   -4.06 KCAL/MOL
REMARK 922        TOTAL FREE ENERGY PREDICTED BY IDOCK:   -5.96 KCAL/MOL
REMARK 923 INTER-LIGAND FREE ENERGY PREDICTED BY IDOCK:   -5.79 KCAL/MOL
REMARK 924 INTRA-LIGAND FREE ENERGY PREDICTED BY IDOCK:   -0.17 KCAL/MOL
REMARK 927      BINDING AFFINITY PREDICTED BY RF-SCORE:    0.00 PKD
ROOT
HETATM    1  C   UNL     1     -11.079   9.518  71.409  1.00  0.00    -0.368 C  
HETATM    2  O   UNL     1     -11.670  10.196  70.309  1.00  0.00    -0.263 OA 
ENDROOT
BRANCH   2   3
HETATM    3  C   UNL     1     -11.024  10.115  69.107  1.00  0.00    -0.230 A  
HETATM    4  C   UNL     1     -10.890  11.330  68.442  1.00  0.00    -0.248 A  
HETATM    5  C   UNL     1     -10.219  11.432  67.213  1.00  0.00    -0.199 A  
HETATM    6  C   UNL     1      -8.852   7.917  65.389  1.00  0.00    -0.020 A  
HETATM    7  C   UNL     1      -9.725  10.260  66.590  1.00  0.00    -0.185 A  
HETATM    8  C   UNL     1      -9.424   7.853  66.649  1.00  0.00    -0.270 A  
HETATM    9  C   UNL     1     -10.507   8.964  68.527  1.00  0.00    -0.218 A  
HETATM   10  N   UNL     1      -9.139  10.315  65.371  1.00  0.00    -0.173 NA 
HETATM   11  C   UNL     1      -8.733   9.158  64.798  1.00  0.00    -0.176 A  
HETATM   12  C   UNL     1      -9.889   9.026  67.267  1.00  0.00    -0.252 A  
BRANCH   5  13
HETATM   13  N   UNL     1      -9.965  12.698  66.634  1.00  0.00    -0.237 NA 
HETATM   14  H   UNL     1      -9.189  12.812  65.981  1.00  0.00     0.000 HD 
BRANCH  13  15
HETATM   15  C   UNL     1     -10.811  13.847  66.968  1.00  0.00    -0.285 C  
HETATM   16  C   UNL     1     -10.050  15.135  66.633  1.00  0.00    -0.271 C  
BRANCH  15  17
HETATM   17  C   UNL     1     -12.114  13.811  66.143  1.00  0.00    -0.477 C  
BRANCH  17  18
HETATM   18  C   UNL     1     -12.286  12.575  65.249  1.00  0.00    -0.469 C  
BRANCH  18  19
HETATM   19  C   UNL     1     -12.147  12.824  63.746  1.00  0.00    -0.517 C  
HETATM   20  H1  UNL     1     -12.428  11.822  61.954  1.00  0.00     0.000 HD 
HETATM   21  N   UNL     1     -12.520  11.656  62.956  1.00  0.00    -0.937 NA 
HETATM   22  H2  UNL     1     -13.460  11.337  63.191  1.00  0.00     0.000 HD 
ENDBRANCH  18  19
ENDBRANCH  17  18
ENDBRANCH  15  17
ENDBRANCH  13  15
ENDBRANCH   5  13
ENDBRANCH   2   3
TORSDOF 6
ENDMDL
MODEL      136
REMARK 921   NORMALIZED FREE ENERGY PREDICTED BY IDOCK:   -4.04 KCAL/MOL
REMARK 922        TOTAL FREE ENERGY PREDICTED BY IDOCK:   -5.93 KCAL/MOL
REMARK 923 INTER-LIGAND FREE ENERGY PREDICTED BY IDOCK:   -5.76 KCAL/MOL
REMARK 924 INTRA-LIGAND FREE ENERGY PREDICTED BY IDOCK:   -0.17 KCAL/MOL
REMARK 927      BINDING AFFINITY PREDICTED BY RF-SCORE:    0.00 PKD
ROOT
HETATM    1  C   UNL     1      -5.806  14.527  68.071  1.00  0.00    -0.143 C  
HETATM    2  O   UNL     1      -5.673  15.934  67.918  1.00  0.00    -0.120 OA 
ENDROOT
BRANCH   2   3
HETATM    3  C   UNL     1      -6.780  16.625  67.515  1.00  0.00    -0.154 A  
HETATM    4  C   UNL     1      -7.719  15.860  66.828  1.00  0.00    -0.245 A  
HETATM    5  C   UNL     1      -8.931  16.404  66.377  1.00  0.00    -0.305 A  
HETATM    6  C   UNL     1      -9.579  20.514  66.870  1.00  0.00    -0.496 A  
HETATM    7  C   UNL     1      -9.183  17.787  66.555  1.00  0.00    -0.265 A  
HETATM    8  C   UNL     1      -8.436  19.936  67.400  1.00  0.00    -0.377 A  
HETATM    9  C   UNL     1      -7.034  17.973  67.734  1.00  0.00    -0.209 A  
HETATM   10  N   UNL     1     -10.310  18.357  66.066  1.00  0.00    -0.548 NA 
HETATM   11  C   UNL     1     -10.475  19.692  66.219  1.00  0.00    -0.519 A  
HETATM   12  C   UNL     1      -8.209  18.559  67.235  1.00  0.00    -0.254 A  
BRANCH   5  13
HETATM   13  N   UNL     1      -9.930  15.573  65.817  1.00  0.00    -0.335 NA 
HETATM   14  H   UNL     1     -10.143  15.634  64.821  1.00  0.00     0.000 HD 
BRANCH  13  15
HETATM   15  C   UNL     1     -10.661  14.624  66.663  1.00  0.00    -0.305 C  
HETATM   16  C   UNL     1      -9.700  13.516  67.106  1.00  0.00    -0.244 C  
BRANCH  15  17
HETATM   17  C   UNL     1     -11.210  15.336  67.916  1.00  0.00    -0.333 C  
BRANCH  17  18
HETATM   18  C   UNL     1     -10.385  15.133  69.196  1.00  0.00    -0.249 C  
BRANCH  18  19
HETATM   19  C   UNL     1     -11.188  14.786  70.450  1.00  0.00    -0.169 C  
HETATM   20  H1  UNL     1     -12.438  13.290  71.152  1.00  0.00     0.000 HD 
HETATM   21  N   UNL     1     -11.902  13.521  70.316  1.00  0.00    -0.490 NA 
HETATM   22  H2  UNL     1     -11.267  12.764  70.064  1.00  0.00     0.000 HD 
ENDBRANCH  18  19
ENDBRANCH  17  18
ENDBRANCH  15  17
ENDBRANCH  13  15
ENDBRANCH   5  13
ENDBRANCH   2   3
TORSDOF 6
ENDMDL
MODEL      137
REMARK 921   NORMALIZED FREE ENERGY PREDICTED BY IDOCK:   -4.04 KCAL/MOL
REMARK 922        TOTAL FREE ENERGY PREDICTED BY IDOCK:   -5.92 KCAL/MOL
REMARK 923 INTER-LIGAND FREE ENERGY PREDICTED BY IDOCK:   -5.46 KCAL/MOL
REMARK 924 INTRA-LIGAND FREE ENERGY PREDICTED BY IDOCK:   -0.46 KCAL/MOL
REMARK 927      BINDING AFFINITY PREDICTED BY RF-SCORE:    0.00 PKD
ROOT
HETATM    1  C   UNL     1      -9.189   9.885  68.650  1.00  0.00    -0.139 C  
HETATM    2  O   UNL     1      -9.794  11.128  68.978  1.00  0.00    -0.189 OA 
ENDROOT
BRANCH   2   3
HETATM    3  C   UNL     1     -10.300  11.868  67.946  1.00  0.00    -0.198 A  
HETATM    4  C   UNL     1     -10.473  13.219  68.236  1.00  0.00    -0.257 A  
HETATM    5  C   UNL     1     -10.946  14.127  67.277  1.00  0.00    -0.297 A  
HETATM    6  C   UNL     1     -12.134  12.647  63.542  1.00  0.00    -0.648 A  
HETATM    7  C   UNL     1     -11.330  13.653  65.998  1.00  0.00    -0.312 A  
HETATM    8  C   UNL     1     -11.567  11.785  64.467  1.00  0.00    -0.299 A  
HETATM    9  C   UNL     1     -10.632  11.398  66.682  1.00  0.00    -0.302 A  
HETATM   10  N   UNL     1     -11.858  14.492  65.076  1.00  0.00    -0.386 NA 
HETATM   11  C   UNL     1     -12.257  13.977  63.890  1.00  0.00    -0.293 A  
HETATM   12  C   UNL     1     -11.170  12.273  65.724  1.00  0.00    -0.378 A  
BRANCH   5  13
HETATM   13  N   UNL     1     -10.969  15.516  67.550  1.00  0.00    -0.317 NA 
HETATM   14  H   UNL     1     -11.764  15.923  68.043  1.00  0.00     0.000 HD 
BRANCH  13  15
HETATM   15  C   UNL     1      -9.857  16.371  67.127  1.00  0.00    -0.249 C  
HETATM   16  C   UNL     1     -10.378  17.799  66.931  1.00  0.00    -0.344 C  
BRANCH  15  17
HETATM   17  C   UNL     1      -8.754  16.389  68.206  1.00  0.00    -0.201 C  
BRANCH  17  18
HETATM   18  C   UNL     1      -7.382  15.874  67.745  1.00  0.00    -0.162 C  
BRANCH  18  19
HETATM   19  C   UNL     1      -6.303  16.942  67.568  1.00  0.00    -0.155 C  
HETATM   20  H1  UNL     1      -4.512  17.216  66.561  1.00  0.00     0.000 HD 
HETATM   21  N   UNL     1      -5.232  16.504  66.679  1.00  0.00    -0.335 NA 
HETATM   22  H2  UNL     1      -5.602  16.201  65.778  1.00  0.00     0.000 HD 
ENDBRANCH  18  19
ENDBRANCH  17  18
ENDBRANCH  15  17
ENDBRANCH  13  15
ENDBRANCH   5  13
ENDBRANCH   2   3
TORSDOF 6
ENDMDL
MODEL      138
REMARK 921   NORMALIZED FREE ENERGY PREDICTED BY IDOCK:   -4.04 KCAL/MOL
REMARK 922        TOTAL FREE ENERGY PREDICTED BY IDOCK:   -5.92 KCAL/MOL
REMARK 923 INTER-LIGAND FREE ENERGY PREDICTED BY IDOCK:   -5.41 KCAL/MOL
REMARK 924 INTRA-LIGAND FREE ENERGY PREDICTED BY IDOCK:   -0.52 KCAL/MOL
REMARK 927      BINDING AFFINITY PREDICTED BY RF-SCORE:    0.00 PKD
ROOT
HETATM    1  C   UNL     1      -7.747  12.983  68.927  1.00  0.00     0.088 C  
HETATM    2  O   UNL     1      -7.339  13.876  67.900  1.00  0.00    -0.118 OA 
ENDROOT
BRANCH   2   3
HETATM    3  C   UNL     1      -8.314  14.372  67.081  1.00  0.00    -0.191 A  
HETATM    4  C   UNL     1      -8.282  15.755  66.920  1.00  0.00    -0.288 A  
HETATM    5  C   UNL     1      -9.188  16.424  66.082  1.00  0.00    -0.330 A  
HETATM    6  C   UNL     1     -12.239  14.202  64.263  1.00  0.00    -0.449 A  
HETATM    7  C   UNL     1     -10.213  15.689  65.436  1.00  0.00    -0.370 A  
HETATM    8  C   UNL     1     -11.272  13.548  65.010  1.00  0.00    -0.334 A  
HETATM    9  C   UNL     1      -9.287  13.635  66.419  1.00  0.00    -0.203 A  
HETATM   10  N   UNL     1     -11.146  16.315  64.680  1.00  0.00    -0.645 NA 
HETATM   11  C   UNL     1     -12.133  15.571  64.130  1.00  0.00    -0.045 A  
HETATM   12  C   UNL     1     -10.248  14.286  65.627  1.00  0.00    -0.366 A  
BRANCH   5  13
HETATM   13  N   UNL     1      -9.039  17.806  65.818  1.00  0.00    -0.408 NA 
HETATM   14  H   UNL     1      -8.563  18.113  64.970  1.00  0.00     0.000 HD 
BRANCH  13  15
HETATM   15  C   UNL     1      -9.566  18.799  66.759  1.00  0.00    -0.321 C  
HETATM   16  C   UNL     1     -10.604  18.122  67.660  1.00  0.00    -0.424 C  
BRANCH  15  17
HETATM   17  C   UNL     1      -8.430  19.357  67.641  1.00  0.00    -0.339 C  
BRANCH  17  18
HETATM   18  C   UNL     1      -7.384  20.204  66.900  1.00  0.00    -0.304 C  
BRANCH  18  19
HETATM   19  C   UNL     1      -6.010  19.554  66.731  1.00  0.00    -0.169 C  
HETATM   20  H1  UNL     1      -5.161  17.879  65.856  1.00  0.00     0.000 HD 
HETATM   21  N   UNL     1      -6.077  18.312  65.969  1.00  0.00    -0.191 NA 
HETATM   22  H2  UNL     1      -6.530  18.456  65.066  1.00  0.00     0.000 HD 
ENDBRANCH  18  19
ENDBRANCH  17  18
ENDBRANCH  15  17
ENDBRANCH  13  15
ENDBRANCH   5  13
ENDBRANCH   2   3
TORSDOF 6
ENDMDL
MODEL      139
REMARK 921   NORMALIZED FREE ENERGY PREDICTED BY IDOCK:   -4.03 KCAL/MOL
REMARK 922        TOTAL FREE ENERGY PREDICTED BY IDOCK:   -5.91 KCAL/MOL
REMARK 923 INTER-LIGAND FREE ENERGY PREDICTED BY IDOCK:   -5.58 KCAL/MOL
REMARK 924 INTRA-LIGAND FREE ENERGY PREDICTED BY IDOCK:   -0.33 KCAL/MOL
REMARK 927      BINDING AFFINITY PREDICTED BY RF-SCORE:    0.00 PKD
ROOT
HETATM    1  C   UNL     1     -11.656  14.802  71.329  1.00  0.00    -0.259 C  
HETATM    2  O   UNL     1     -12.236  13.556  70.969  1.00  0.00    -0.353 OA 
ENDROOT
BRANCH   2   3
HETATM    3  C   UNL     1     -11.903  13.042  69.747  1.00  0.00    -0.311 A  
HETATM    4  C   UNL     1     -12.156  13.894  68.676  1.00  0.00    -0.337 A  
HETATM    5  C   UNL     1     -11.838  13.539  67.356  1.00  0.00    -0.384 A  
HETATM    6  C   UNL     1     -10.360   9.687  66.628  1.00  0.00    -0.279 A  
HETATM    7  C   UNL     1     -11.313  12.250  67.088  1.00  0.00    -0.335 A  
HETATM    8  C   UNL     1     -10.583  10.096  67.933  1.00  0.00    -0.294 A  
HETATM    9  C   UNL     1     -11.349  11.792  69.503  1.00  0.00    -0.317 A  
HETATM   10  N   UNL     1     -11.065  11.851  65.819  1.00  0.00    -0.316 NA 
HETATM   11  C   UNL     1     -10.615  10.591  65.617  1.00  0.00    -0.062 A  
HETATM   12  C   UNL     1     -11.083  11.385  68.186  1.00  0.00    -0.306 A  
BRANCH   5  13
HETATM   13  N   UNL     1     -11.965  14.480  66.306  1.00  0.00    -0.361 NA 
HETATM   14  H   UNL     1     -12.817  14.504  65.746  1.00  0.00     0.000 HD 
BRANCH  13  15
HETATM   15  C   UNL     1     -10.876  15.418  66.020  1.00  0.00    -0.314 C  
HETATM   16  C   UNL     1     -10.695  16.347  67.226  1.00  0.00    -0.257 C  
BRANCH  15  17
HETATM   17  C   UNL     1      -9.558  14.654  65.779  1.00  0.00    -0.266 C  
BRANCH  17  18
HETATM   18  C   UNL     1      -8.473  14.873  66.844  1.00  0.00    -0.255 C  
BRANCH  18  19
HETATM   19  C   UNL     1      -8.044  13.623  67.615  1.00  0.00    -0.177 C  
HETATM   20  H1  UNL     1      -7.639  11.621  67.263  1.00  0.00     0.000 HD 
HETATM   21  N   UNL     1      -7.925  12.455  66.749  1.00  0.00    -0.394 NA 
HETATM   22  H2  UNL     1      -7.298  12.638  65.966  1.00  0.00     0.000 HD 
ENDBRANCH  18  19
ENDBRANCH  17  18
ENDBRANCH  15  17
ENDBRANCH  13  15
ENDBRANCH   5  13
ENDBRANCH   2   3
TORSDOF 6
ENDMDL
MODEL      140
REMARK 921   NORMALIZED FREE ENERGY PREDICTED BY IDOCK:   -4.02 KCAL/MOL
REMARK 922        TOTAL FREE ENERGY PREDICTED BY IDOCK:   -5.90 KCAL/MOL
REMARK 923 INTER-LIGAND FREE ENERGY PREDICTED BY IDOCK:   -5.42 KCAL/MOL
REMARK 924 INTRA-LIGAND FREE ENERGY PREDICTED BY IDOCK:   -0.48 KCAL/MOL
REMARK 927      BINDING AFFINITY PREDICTED BY RF-SCORE:    0.00 PKD
ROOT
HETATM    1  C   UNL     1     -12.775  12.152  63.333  1.00  0.00    -0.381 C  
HETATM    2  O   UNL     1     -13.074  12.580  64.655  1.00  0.00    -0.845 OA 
ENDROOT
BRANCH   2   3
HETATM    3  C   UNL     1     -12.018  12.780  65.499  1.00  0.00    -0.449 A  
HETATM    4  C   UNL     1     -12.314  13.556  66.617  1.00  0.00    -0.351 A  
HETATM    5  C   UNL     1     -11.354  13.827  67.605  1.00  0.00    -0.304 A  
HETATM    6  C   UNL     1      -7.430  12.495  66.994  1.00  0.00    -0.009 A  
HETATM    7  C   UNL     1     -10.026  13.365  67.432  1.00  0.00    -0.230 A  
HETATM    8  C   UNL     1      -8.416  12.150  66.083  1.00  0.00     0.241 A  
HETATM    9  C   UNL     1     -10.731  12.285  65.339  1.00  0.00    -0.320 A  
HETATM   10  N   UNL     1      -9.061  13.672  68.331  1.00  0.00    -0.189 NA 
HETATM   11  C   UNL     1      -7.798  13.249  68.089  1.00  0.00    -0.145 A  
HETATM   12  C   UNL     1      -9.734  12.596  66.279  1.00  0.00    -0.260 A  
BRANCH   5  13
HETATM   13  N   UNL     1     -11.720  14.488  68.802  1.00  0.00    -0.312 NA 
HETATM   14  H   UNL     1     -11.951  15.482  68.783  1.00  0.00     0.000 HD 
BRANCH  13  15
HETATM   15  C   UNL     1     -11.768  13.752  70.068  1.00  0.00    -0.257 C  
HETATM   16  C   UNL     1     -12.649  14.526  71.055  1.00  0.00    -0.410 C  
BRANCH  15  17
HETATM   17  C   UNL     1     -12.378  12.351  69.850  1.00  0.00    -0.117 C  
BRANCH  17  18
HETATM   18  C   UNL     1     -11.994  11.302  70.904  1.00  0.00    -0.319 C  
BRANCH  18  19
HETATM   19  C   UNL     1     -11.049  10.200  70.423  1.00  0.00    -0.324 C  
HETATM   20  H1  UNL     1      -9.293   9.997  69.340  1.00  0.00     0.000 HD 
HETATM   21  N   UNL     1      -9.924  10.732  69.661  1.00  0.00    -0.442 NA 
HETATM   22  H2  UNL     1      -9.421  11.442  70.193  1.00  0.00     0.000 HD 
ENDBRANCH  18  19
ENDBRANCH  17  18
ENDBRANCH  15  17
ENDBRANCH  13  15
ENDBRANCH   5  13
ENDBRANCH   2   3
TORSDOF 6
ENDMDL
MODEL      141
REMARK 921   NORMALIZED FREE ENERGY PREDICTED BY IDOCK:   -4.02 KCAL/MOL
REMARK 922        TOTAL FREE ENERGY PREDICTED BY IDOCK:   -5.90 KCAL/MOL
REMARK 923 INTER-LIGAND FREE ENERGY PREDICTED BY IDOCK:   -5.39 KCAL/MOL
REMARK 924 INTRA-LIGAND FREE ENERGY PREDICTED BY IDOCK:   -0.51 KCAL/MOL
REMARK 927      BINDING AFFINITY PREDICTED BY RF-SCORE:    0.00 PKD
ROOT
HETATM    1  C   UNL     1      -8.648   5.692  70.145  1.00  0.00    -0.127 C  
HETATM    2  O   UNL     1      -8.278   7.053  70.316  1.00  0.00    -0.124 OA 
ENDROOT
BRANCH   2   3
HETATM    3  C   UNL     1      -9.235   7.996  70.063  1.00  0.00    -0.156 A  
HETATM    4  C   UNL     1      -9.347   8.358  68.723  1.00  0.00    -0.143 A  
HETATM    5  C   UNL     1     -10.306   9.285  68.284  1.00  0.00    -0.217 A  
HETATM    6  C   UNL     1     -12.680  11.209  71.151  1.00  0.00    -0.510 A  
HETATM    7  C   UNL     1     -11.138   9.929  69.233  1.00  0.00    -0.181 A  
HETATM    8  C   UNL     1     -11.799  10.216  71.550  1.00  0.00    -0.356 A  
HETATM    9  C   UNL     1     -10.073   8.589  70.998  1.00  0.00    -0.257 A  
HETATM   10  N   UNL     1     -12.021  10.881  68.850  1.00  0.00    -0.444 NA 
HETATM   11  C   UNL     1     -12.752  11.502  69.805  1.00  0.00     0.204 A  
HETATM   12  C   UNL     1     -10.997   9.568  70.596  1.00  0.00    -0.370 A  
BRANCH   5  13
HETATM   13  N   UNL     1     -10.499   9.521  66.902  1.00  0.00    -0.230 NA 
HETATM   14  H   UNL     1     -11.274   9.071  66.414  1.00  0.00     0.000 HD 
BRANCH  13  15
HETATM   15  C   UNL     1      -9.593  10.410  66.170  1.00  0.00    -0.196 C  
HETATM   16  C   UNL     1      -8.995   9.639  64.988  1.00  0.00    -0.255 C  
BRANCH  15  17
HETATM   17  C   UNL     1     -10.362  11.632  65.629  1.00  0.00    -0.306 C  
BRANCH  17  18
HETATM   18  C   UNL     1     -10.716  11.571  64.135  1.00  0.00    -0.428 C  
BRANCH  18  19
HETATM   19  C   UNL     1     -12.108  12.085  63.766  1.00  0.00    -0.499 C  
HETATM   20  H1  UNL     1     -13.773  12.911  64.683  1.00  0.00     0.000 HD 
HETATM   21  N   UNL     1     -12.844  12.569  64.929  1.00  0.00    -0.800 NA 
HETATM   22  H2  UNL     1     -12.312  13.277  65.434  1.00  0.00     0.000 HD 
ENDBRANCH  18  19
ENDBRANCH  17  18
ENDBRANCH  15  17
ENDBRANCH  13  15
ENDBRANCH   5  13
ENDBRANCH   2   3
TORSDOF 6
ENDMDL
MODEL      142
REMARK 921   NORMALIZED FREE ENERGY PREDICTED BY IDOCK:   -4.02 KCAL/MOL
REMARK 922        TOTAL FREE ENERGY PREDICTED BY IDOCK:   -5.90 KCAL/MOL
REMARK 923 INTER-LIGAND FREE ENERGY PREDICTED BY IDOCK:   -5.50 KCAL/MOL
REMARK 924 INTRA-LIGAND FREE ENERGY PREDICTED BY IDOCK:   -0.40 KCAL/MOL
REMARK 927      BINDING AFFINITY PREDICTED BY RF-SCORE:    0.00 PKD
ROOT
HETATM    1  C   UNL     1      -8.170   8.657  62.758  1.00  0.00    -0.188 C  
HETATM    2  O   UNL     1      -8.372   8.791  64.158  1.00  0.00    -0.170 OA 
ENDROOT
BRANCH   2   3
HETATM    3  C   UNL     1      -9.280   9.726  64.570  1.00  0.00    -0.253 A  
HETATM    4  C   UNL     1      -9.680   9.595  65.897  1.00  0.00    -0.343 A  
HETATM    5  C   UNL     1     -10.578  10.495  66.493  1.00  0.00    -0.174 A  
HETATM    6  C   UNL     1     -12.302  13.470  64.100  1.00  0.00    -0.387 A  
HETATM    7  C   UNL     1     -11.154  11.525  65.709  1.00  0.00    -0.210 A  
HETATM    8  C   UNL     1     -11.336  12.636  63.560  1.00  0.00    -0.527 A  
HETATM    9  C   UNL     1      -9.805  10.758  63.803  1.00  0.00    -0.396 A  
HETATM   10  N   UNL     1     -12.078  12.363  66.235  1.00  0.00    -0.630 NA 
HETATM   11  C   UNL     1     -12.636  13.295  65.428  1.00  0.00    -0.468 A  
HETATM   12  C   UNL     1     -10.756  11.633  64.354  1.00  0.00    -0.387 A  
BRANCH   5  13
HETATM   13  N   UNL     1     -10.850  10.428  67.880  1.00  0.00    -0.259 NA 
HETATM   14  H   UNL     1     -11.710   9.988  68.209  1.00  0.00     0.000 HD 
BRANCH  13  15
HETATM   15  C   UNL     1      -9.902  10.989  68.847  1.00  0.00    -0.177 C  
HETATM   16  C   UNL     1      -9.066   9.848  69.437  1.00  0.00    -0.216 C  
BRANCH  15  17
HETATM   17  C   UNL     1      -8.956  11.990  68.152  1.00  0.00    -0.190 C  
BRANCH  17  18
HETATM   18  C   UNL     1      -7.460  11.659  68.263  1.00  0.00    -0.097 C  
BRANCH  18  19
HETATM   19  C   UNL     1      -6.607  12.703  68.986  1.00  0.00    -0.100 C  
HETATM   20  H1  UNL     1      -6.823  14.549  69.903  1.00  0.00     0.000 HD 
HETATM   21  N   UNL     1      -7.392  13.853  69.421  1.00  0.00    -0.328 NA 
HETATM   22  H2  UNL     1      -8.183  13.563  69.995  1.00  0.00     0.000 HD 
ENDBRANCH  18  19
ENDBRANCH  17  18
ENDBRANCH  15  17
ENDBRANCH  13  15
ENDBRANCH   5  13
ENDBRANCH   2   3
TORSDOF 6
ENDMDL
MODEL      143
REMARK 921   NORMALIZED FREE ENERGY PREDICTED BY IDOCK:   -4.02 KCAL/MOL
REMARK 922        TOTAL FREE ENERGY PREDICTED BY IDOCK:   -5.90 KCAL/MOL
REMARK 923 INTER-LIGAND FREE ENERGY PREDICTED BY IDOCK:   -5.65 KCAL/MOL
REMARK 924 INTRA-LIGAND FREE ENERGY PREDICTED BY IDOCK:   -0.25 KCAL/MOL
REMARK 927      BINDING AFFINITY PREDICTED BY RF-SCORE:    0.00 PKD
ROOT
HETATM    1  C   UNL     1     -12.554  12.870  71.087  1.00  0.00    -0.281 C  
HETATM    2  O   UNL     1     -12.589  14.242  70.717  1.00  0.00    -0.319 OA 
ENDROOT
BRANCH   2   3
HETATM    3  C   UNL     1     -11.806  14.624  69.664  1.00  0.00    -0.320 A  
HETATM    4  C   UNL     1     -12.273  14.211  68.419  1.00  0.00    -0.200 A  
HETATM    5  C   UNL     1     -11.610  14.551  67.230  1.00  0.00    -0.385 A  
HETATM    6  C   UNL     1      -7.972  16.613  67.492  1.00  0.00    -0.186 A  
HETATM    7  C   UNL     1     -10.391  15.270  67.292  1.00  0.00    -0.264 A  
HETATM    8  C   UNL     1      -8.696  16.358  68.646  1.00  0.00    -0.234 A  
HETATM    9  C   UNL     1     -10.635  15.366  69.737  1.00  0.00    -0.304 A  
HETATM   10  N   UNL     1      -9.690  15.549  66.168  1.00  0.00    -0.293 NA 
HETATM   11  C   UNL     1      -8.505  16.192  66.291  1.00  0.00    -0.322 A  
HETATM   12  C   UNL     1      -9.915  15.663  68.567  1.00  0.00    -0.211 A  
BRANCH   5  13
HETATM   13  N   UNL     1     -12.186  14.249  65.972  1.00  0.00    -0.421 NA 
HETATM   14  H   UNL     1     -12.644  14.985  65.434  1.00  0.00     0.000 HD 
BRANCH  13  15
HETATM   15  C   UNL     1     -12.127  12.885  65.441  1.00  0.00    -0.454 C  
HETATM   16  C   UNL     1     -11.387  12.910  64.099  1.00  0.00    -0.442 C  
BRANCH  15  17
HETATM   17  C   UNL     1     -11.361  11.963  66.413  1.00  0.00    -0.400 C  
BRANCH  17  18
HETATM   18  C   UNL     1     -10.286  11.079  65.764  1.00  0.00    -0.316 C  
BRANCH  18  19
HETATM   19  C   UNL     1      -9.088  10.740  66.651  1.00  0.00    -0.159 C  
HETATM   20  H1  UNL     1      -8.689   9.872  68.490  1.00  0.00     0.000 HD 
HETATM   21  N   UNL     1      -9.488  10.098  67.899  1.00  0.00    -0.141 NA 
HETATM   22  H2  UNL     1     -10.060   9.273  67.722  1.00  0.00     0.000 HD 
ENDBRANCH  18  19
ENDBRANCH  17  18
ENDBRANCH  15  17
ENDBRANCH  13  15
ENDBRANCH   5  13
ENDBRANCH   2   3
TORSDOF 6
ENDMDL
MODEL      144
REMARK 921   NORMALIZED FREE ENERGY PREDICTED BY IDOCK:   -4.01 KCAL/MOL
REMARK 922        TOTAL FREE ENERGY PREDICTED BY IDOCK:   -5.89 KCAL/MOL
REMARK 923 INTER-LIGAND FREE ENERGY PREDICTED BY IDOCK:   -5.47 KCAL/MOL
REMARK 924 INTRA-LIGAND FREE ENERGY PREDICTED BY IDOCK:   -0.42 KCAL/MOL
REMARK 927      BINDING AFFINITY PREDICTED BY RF-SCORE:    0.00 PKD
ROOT
HETATM    1  C   UNL     1     -12.496  12.993  63.515  1.00  0.00    -0.300 C  
HETATM    2  O   UNL     1     -12.688  13.327  64.883  1.00  0.00    -0.635 OA 
ENDROOT
BRANCH   2   3
HETATM    3  C   UNL     1     -11.651  13.077  65.738  1.00  0.00    -0.356 A  
HETATM    4  C   UNL     1     -10.814  14.167  65.963  1.00  0.00    -0.297 A  
HETATM    5  C   UNL     1      -9.724  14.094  66.844  1.00  0.00    -0.269 A  
HETATM    6  C   UNL     1      -8.821  10.398  68.599  1.00  0.00    -0.142 A  
HETATM    7  C   UNL     1      -9.415  12.860  67.469  1.00  0.00    -0.198 A  
HETATM    8  C   UNL     1      -9.953  10.518  67.808  1.00  0.00    -0.198 A  
HETATM    9  C   UNL     1     -11.384  11.873  66.377  1.00  0.00    -0.400 A  
HETATM   10  N   UNL     1      -8.327  12.739  68.266  1.00  0.00    -0.167 NA 
HETATM   11  C   UNL     1      -8.049  11.524  68.794  1.00  0.00    -0.093 A  
HETATM   12  C   UNL     1     -10.261  11.753  67.212  1.00  0.00    -0.226 A  
BRANCH   5  13
HETATM   13  N   UNL     1      -8.983  15.254  67.170  1.00  0.00    -0.197 NA 
HETATM   14  H   UNL     1      -8.299  15.622  66.509  1.00  0.00     0.000 HD 
BRANCH  13  15
HETATM   15  C   UNL     1      -9.194  15.929  68.454  1.00  0.00    -0.197 C  
HETATM   16  C   UNL     1      -7.856  16.498  68.937  1.00  0.00    -0.240 C  
BRANCH  15  17
HETATM   17  C   UNL     1     -10.197  17.090  68.290  1.00  0.00    -0.326 C  
BRANCH  17  18
HETATM   18  C   UNL     1     -10.007  17.944  67.028  1.00  0.00    -0.324 C  
BRANCH  18  19
HETATM   19  C   UNL     1     -10.800  19.251  66.991  1.00  0.00    -0.414 C  
HETATM   20  H1  UNL     1     -10.464  21.290  66.830  1.00  0.00     0.000 HD 
HETATM   21  N   UNL     1      -9.935  20.418  66.855  1.00  0.00    -0.497 NA 
HETATM   22  H2  UNL     1      -9.326  20.333  66.041  1.00  0.00     0.000 HD 
ENDBRANCH  18  19
ENDBRANCH  17  18
ENDBRANCH  15  17
ENDBRANCH  13  15
ENDBRANCH   5  13
ENDBRANCH   2   3
TORSDOF 6
ENDMDL
MODEL      145
REMARK 921   NORMALIZED FREE ENERGY PREDICTED BY IDOCK:   -4.00 KCAL/MOL
REMARK 922        TOTAL FREE ENERGY PREDICTED BY IDOCK:   -5.87 KCAL/MOL
REMARK 923 INTER-LIGAND FREE ENERGY PREDICTED BY IDOCK:   -5.67 KCAL/MOL
REMARK 924 INTRA-LIGAND FREE ENERGY PREDICTED BY IDOCK:   -0.20 KCAL/MOL
REMARK 927      BINDING AFFINITY PREDICTED BY RF-SCORE:    0.00 PKD
ROOT
HETATM    1  C   UNL     1      -6.186  11.542  69.265  1.00  0.00    -0.079 C  
HETATM    2  O   UNL     1      -6.729  10.885  68.128  1.00  0.00    -0.062 OA 
ENDROOT
BRANCH   2   3
HETATM    3  C   UNL     1      -7.908  11.368  67.633  1.00  0.00    -0.122 A  
HETATM    4  C   UNL     1      -8.719  11.990  68.579  1.00  0.00    -0.095 A  
HETATM    5  C   UNL     1      -9.947  12.575  68.232  1.00  0.00    -0.229 A  
HETATM    6  C   UNL     1     -11.312  12.161  64.292  1.00  0.00    -0.426 A  
HETATM    7  C   UNL     1     -10.417  12.470  66.899  1.00  0.00    -0.228 A  
HETATM    8  C   UNL     1     -10.056  11.683  64.632  1.00  0.00    -0.305 A  
HETATM    9  C   UNL     1      -8.338  11.296  66.314  1.00  0.00    -0.142 A  
HETATM   10  N   UNL     1     -11.630  12.959  66.550  1.00  0.00    -0.351 NA 
HETATM   11  C   UNL     1     -12.052  12.784  65.276  1.00  0.00    -0.457 A  
HETATM   12  C   UNL     1      -9.593  11.814  65.952  1.00  0.00    -0.249 A  
BRANCH   5  13
HETATM   13  N   UNL     1     -10.677  13.331  69.179  1.00  0.00    -0.436 NA 
HETATM   14  H   UNL     1     -10.354  14.261  69.446  1.00  0.00     0.000 HD 
BRANCH  13  15
HETATM   15  C   UNL     1     -11.898  12.783  69.779  1.00  0.00    -0.310 C  
HETATM   16  C   UNL     1     -11.596  11.381  70.318  1.00  0.00    -0.334 C  
BRANCH  15  17
HETATM   17  C   UNL     1     -12.367  13.675  70.947  1.00  0.00    -0.450 C  
BRANCH  17  18
HETATM   18  C   UNL     1     -11.716  15.064  71.011  1.00  0.00    -0.379 C  
BRANCH  18  19
HETATM   19  C   UNL     1     -11.962  15.849  72.299  1.00  0.00    -0.518 C  
HETATM   20  H1  UNL     1     -13.540  16.418  73.517  1.00  0.00     0.000 HD 
HETATM   21  N   UNL     1     -13.376  15.894  72.657  1.00  0.00    -0.495 NA 
HETATM   22  H2  UNL     1     -13.771  14.956  72.716  1.00  0.00     0.000 HD 
ENDBRANCH  18  19
ENDBRANCH  17  18
ENDBRANCH  15  17
ENDBRANCH  13  15
ENDBRANCH   5  13
ENDBRANCH   2   3
TORSDOF 6
ENDMDL
MODEL      146
REMARK 921   NORMALIZED FREE ENERGY PREDICTED BY IDOCK:   -3.99 KCAL/MOL
REMARK 922        TOTAL FREE ENERGY PREDICTED BY IDOCK:   -5.86 KCAL/MOL
REMARK 923 INTER-LIGAND FREE ENERGY PREDICTED BY IDOCK:   -4.99 KCAL/MOL
REMARK 924 INTRA-LIGAND FREE ENERGY PREDICTED BY IDOCK:   -0.87 KCAL/MOL
REMARK 927      BINDING AFFINITY PREDICTED BY RF-SCORE:    0.00 PKD
ROOT
HETATM    1  C   UNL     1      -7.509  11.932  68.668  1.00  0.00    -0.118 C  
HETATM    2  O   UNL     1      -6.984  13.131  68.115  1.00  0.00    -0.083 OA 
ENDROOT
BRANCH   2   3
HETATM    3  C   UNL     1      -7.846  13.923  67.410  1.00  0.00    -0.161 A  
HETATM    4  C   UNL     1      -7.684  15.288  67.629  1.00  0.00    -0.185 A  
HETATM    5  C   UNL     1      -8.461  16.244  66.956  1.00  0.00    -0.202 A  
HETATM    6  C   UNL     1     -11.539  14.905  64.449  1.00  0.00    -0.296 A  
HETATM    7  C   UNL     1      -9.492  15.815  66.083  1.00  0.00    -0.340 A  
HETATM    8  C   UNL     1     -10.693  13.981  65.042  1.00  0.00    -0.409 A  
HETATM    9  C   UNL     1      -8.824  13.490  66.524  1.00  0.00     0.005 A  
HETATM   10  N   UNL     1     -10.306  16.710  65.476  1.00  0.00    -0.588 NA 
HETATM   11  C   UNL     1     -11.308  16.243  64.695  1.00  0.00    -0.232 A  
HETATM   12  C   UNL     1      -9.661  14.422  65.888  1.00  0.00    -0.305 A  
BRANCH   5  13
HETATM   13  N   UNL     1      -8.174  17.624  67.082  1.00  0.00    -0.209 NA 
HETATM   14  H   UNL     1      -8.149  18.216  66.251  1.00  0.00     0.000 HD 
BRANCH  13  15
HETATM   15  C   UNL     1      -7.914  18.207  68.401  1.00  0.00    -0.302 C  
HETATM   16  C   UNL     1      -6.400  18.223  68.643  1.00  0.00    -0.209 C  
BRANCH  15  17
HETATM   17  C   UNL     1      -8.441  19.656  68.461  1.00  0.00    -0.334 C  
BRANCH  17  18
HETATM   18  C   UNL     1      -9.969  19.797  68.394  1.00  0.00    -0.549 C  
BRANCH  18  19
HETATM   19  C   UNL     1     -10.515  20.450  67.124  1.00  0.00    -0.048 C  
HETATM   20  H1  UNL     1     -10.516  20.145  65.074  1.00  0.00     0.000 HD 
HETATM   21  N   UNL     1     -10.151  19.709  65.921  1.00  0.00    -0.427 NA 
HETATM   22  H2  UNL     1     -10.441  18.734  65.987  1.00  0.00     0.000 HD 
ENDBRANCH  18  19
ENDBRANCH  17  18
ENDBRANCH  15  17
ENDBRANCH  13  15
ENDBRANCH   5  13
ENDBRANCH   2   3
TORSDOF 6
ENDMDL
MODEL      147
REMARK 921   NORMALIZED FREE ENERGY PREDICTED BY IDOCK:   -3.97 KCAL/MOL
REMARK 922        TOTAL FREE ENERGY PREDICTED BY IDOCK:   -5.84 KCAL/MOL
REMARK 923 INTER-LIGAND FREE ENERGY PREDICTED BY IDOCK:   -5.72 KCAL/MOL
REMARK 924 INTRA-LIGAND FREE ENERGY PREDICTED BY IDOCK:   -0.11 KCAL/MOL
REMARK 927      BINDING AFFINITY PREDICTED BY RF-SCORE:    0.00 PKD
ROOT
HETATM    1  C   UNL     1      -8.672   8.114  69.129  1.00  0.00    -0.140 C  
HETATM    2  O   UNL     1      -9.813   8.258  68.296  1.00  0.00    -0.161 OA 
ENDROOT
BRANCH   2   3
HETATM    3  C   UNL     1      -9.899   9.398  67.547  1.00  0.00    -0.173 A  
HETATM    4  C   UNL     1      -9.798  10.578  68.279  1.00  0.00    -0.162 A  
HETATM    5  C   UNL     1      -9.827  11.838  67.662  1.00  0.00    -0.185 A  
HETATM    6  C   UNL     1     -10.533  12.022  63.536  1.00  0.00    -0.505 A  
HETATM    7  C   UNL     1     -10.039  11.924  66.263  1.00  0.00    -0.220 A  
HETATM    8  C   UNL     1     -10.397  10.787  64.150  1.00  0.00    -0.382 A  
HETATM    9  C   UNL     1     -10.065   9.468  66.170  1.00  0.00    -0.326 A  
HETATM   10  N   UNL     1     -10.146  13.126  65.649  1.00  0.00    -0.285 NA 
HETATM   11  C   UNL     1     -10.402  13.149  64.320  1.00  0.00    -0.339 A  
HETATM   12  C   UNL     1     -10.164  10.716  65.534  1.00  0.00    -0.329 A  
BRANCH   5  13
HETATM   13  N   UNL     1      -9.571  13.012  68.409  1.00  0.00    -0.316 NA 
HETATM   14  H   UNL     1      -8.617  13.364  68.491  1.00  0.00     0.000 HD 
BRANCH  13  15
HETATM   15  C   UNL     1     -10.670  13.725  69.065  1.00  0.00    -0.182 C  
HETATM   16  C   UNL     1     -11.080  14.914  68.189  1.00  0.00    -0.290 C  
BRANCH  15  17
HETATM   17  C   UNL     1     -11.887  12.793  69.238  1.00  0.00    -0.358 C  
BRANCH  17  18
HETATM   18  C   UNL     1     -12.405  12.655  70.677  1.00  0.00    -0.375 C  
BRANCH  18  19
HETATM   19  C   UNL     1     -12.911  13.947  71.321  1.00  0.00    -0.341 C  
HETATM   20  H1  UNL     1     -14.163  14.551  72.859  1.00  0.00     0.000 HD 
HETATM   21  N   UNL     1     -13.825  13.690  72.429  1.00  0.00    -0.651 NA 
HETATM   22  H2  UNL     1     -13.400  13.074  73.123  1.00  0.00     0.000 HD 
ENDBRANCH  18  19
ENDBRANCH  17  18
ENDBRANCH  15  17
ENDBRANCH  13  15
ENDBRANCH   5  13
ENDBRANCH   2   3
TORSDOF 6
ENDMDL
MODEL      148
REMARK 921   NORMALIZED FREE ENERGY PREDICTED BY IDOCK:   -3.97 KCAL/MOL
REMARK 922        TOTAL FREE ENERGY PREDICTED BY IDOCK:   -5.83 KCAL/MOL
REMARK 923 INTER-LIGAND FREE ENERGY PREDICTED BY IDOCK:   -5.54 KCAL/MOL
REMARK 924 INTRA-LIGAND FREE ENERGY PREDICTED BY IDOCK:   -0.29 KCAL/MOL
REMARK 927      BINDING AFFINITY PREDICTED BY RF-SCORE:    0.00 PKD
ROOT
HETATM    1  C   UNL     1      -9.877   7.617  69.277  1.00  0.00    -0.168 C  
HETATM    2  O   UNL     1     -11.030   8.122  69.938  1.00  0.00    -0.240 OA 
ENDROOT
BRANCH   2   3
HETATM    3  C   UNL     1     -11.286   9.459  69.811  1.00  0.00    -0.042 A  
HETATM    4  C   UNL     1     -10.841  10.020  68.618  1.00  0.00    -0.265 A  
HETATM    5  C   UNL     1     -11.057  11.372  68.309  1.00  0.00    -0.244 A  
HETATM    6  C   UNL     1     -12.835  13.820  71.208  1.00  0.00    -0.434 A  
HETATM    7  C   UNL     1     -11.680  12.214  69.265  1.00  0.00    -0.328 A  
HETATM    8  C   UNL     1     -12.706  12.461  71.450  1.00  0.00    -0.346 A  
HETATM    9  C   UNL     1     -11.936  10.263  70.738  1.00  0.00    -0.456 A  
HETATM   10  N   UNL     1     -11.836  13.538  69.027  1.00  0.00    -0.326 NA 
HETATM   11  C   UNL     1     -12.389  14.304  69.996  1.00  0.00    -0.346 A  
HETATM   12  C   UNL     1     -12.107  11.634  70.484  1.00  0.00    -0.458 A  
BRANCH   5  13
HETATM   13  N   UNL     1     -10.730  11.881  67.030  1.00  0.00    -0.230 NA 
HETATM   14  H   UNL     1     -11.473  12.105  66.367  1.00  0.00     0.000 HD 
BRANCH  13  15
HETATM   15  C   UNL     1      -9.329  12.087  66.653  1.00  0.00    -0.219 C  
HETATM   16  C   UNL     1      -8.498  12.276  67.926  1.00  0.00    -0.165 C  
BRANCH  15  17
HETATM   17  C   UNL     1      -8.793  10.858  65.888  1.00  0.00    -0.197 C  
BRANCH  17  18
HETATM   18  C   UNL     1      -9.817  10.154  64.986  1.00  0.00    -0.392 C  
BRANCH  18  19
HETATM   19  C   UNL     1      -9.562  10.271  63.483  1.00  0.00    -0.266 C  
HETATM   20  H1  UNL     1      -8.857   9.115  61.913  1.00  0.00     0.000 HD 
HETATM   21  N   UNL     1      -9.027   9.037  62.916  1.00  0.00    -0.422 NA 
HETATM   22  H2  UNL     1      -9.631   8.242  63.126  1.00  0.00     0.000 HD 
ENDBRANCH  18  19
ENDBRANCH  17  18
ENDBRANCH  15  17
ENDBRANCH  13  15
ENDBRANCH   5  13
ENDBRANCH   2   3
TORSDOF 6
ENDMDL
MODEL      149
REMARK 921   NORMALIZED FREE ENERGY PREDICTED BY IDOCK:   -3.93 KCAL/MOL
REMARK 922        TOTAL FREE ENERGY PREDICTED BY IDOCK:   -5.79 KCAL/MOL
REMARK 923 INTER-LIGAND FREE ENERGY PREDICTED BY IDOCK:   -5.34 KCAL/MOL
REMARK 924 INTRA-LIGAND FREE ENERGY PREDICTED BY IDOCK:   -0.44 KCAL/MOL
REMARK 927      BINDING AFFINITY PREDICTED BY RF-SCORE:    0.00 PKD
ROOT
HETATM    1  C   UNL     1      -8.253   9.448  64.316  1.00  0.00    -0.153 C  
HETATM    2  O   UNL     1      -9.164   8.907  65.262  1.00  0.00    -0.189 OA 
ENDROOT
BRANCH   2   3
HETATM    3  C   UNL     1      -9.791   9.787  66.100  1.00  0.00    -0.263 A  
HETATM    4  C   UNL     1     -10.378   9.200  67.218  1.00  0.00    -0.338 A  
HETATM    5  C   UNL     1     -11.028   9.964  68.199  1.00  0.00    -0.207 A  
HETATM    6  C   UNL     1     -11.454  14.083  67.565  1.00  0.00    -0.369 A  
HETATM    7  C   UNL     1     -11.162  11.363  68.018  1.00  0.00    -0.281 A  
HETATM    8  C   UNL     1     -10.725  13.326  66.661  1.00  0.00    -0.284 A  
HETATM    9  C   UNL     1      -9.878  11.163  65.932  1.00  0.00    -0.275 A  
HETATM   10  N   UNL     1     -11.848  12.116  68.910  1.00  0.00    -0.313 NA 
HETATM   11  C   UNL     1     -11.990  13.439  68.661  1.00  0.00    -0.327 A  
HETATM   12  C   UNL     1     -10.581  11.943  66.864  1.00  0.00    -0.264 A  
BRANCH   5  13
HETATM   13  N   UNL     1     -11.482   9.362  69.397  1.00  0.00    -0.430 NA 
HETATM   14  H   UNL     1     -12.374   9.645  69.802  1.00  0.00     0.000 HD 
BRANCH  13  15
HETATM   15  C   UNL     1     -10.674   8.334  70.059  1.00  0.00    -0.239 C  
HETATM   16  C   UNL     1     -10.449   8.746  71.518  1.00  0.00    -0.373 C  
BRANCH  15  17
HETATM   17  C   UNL     1     -11.409   6.977  70.035  1.00  0.00    -0.293 C  
BRANCH  17  18
HETATM   18  C   UNL     1     -10.913   5.948  71.061  1.00  0.00    -0.335 C  
BRANCH  18  19
HETATM   19  C   UNL     1      -9.943   4.895  70.522  1.00  0.00    -0.241 C  
HETATM   20  H1  UNL     1      -9.137   3.069  71.078  1.00  0.00     0.000 HD 
HETATM   21  N   UNL     1      -9.784   3.770  71.437  1.00  0.00    -0.169 NA 
HETATM   22  H2  UNL     1     -10.685   3.355  71.671  1.00  0.00     0.000 HD 
ENDBRANCH  18  19
ENDBRANCH  17  18
ENDBRANCH  15  17
ENDBRANCH  13  15
ENDBRANCH   5  13
ENDBRANCH   2   3
TORSDOF 6
ENDMDL
MODEL      150
REMARK 921   NORMALIZED FREE ENERGY PREDICTED BY IDOCK:   -3.91 KCAL/MOL
REMARK 922        TOTAL FREE ENERGY PREDICTED BY IDOCK:   -5.75 KCAL/MOL
REMARK 923 INTER-LIGAND FREE ENERGY PREDICTED BY IDOCK:   -5.26 KCAL/MOL
REMARK 924 INTRA-LIGAND FREE ENERGY PREDICTED BY IDOCK:   -0.50 KCAL/MOL
REMARK 927      BINDING AFFINITY PREDICTED BY RF-SCORE:    0.00 PKD
ROOT
HETATM    1  C   UNL     1     -14.405   8.187  71.646  1.00  0.00    -0.469 C  
HETATM    2  O   UNL     1     -13.376   9.148  71.451  1.00  0.00    -0.345 OA 
ENDROOT
BRANCH   2   3
HETATM    3  C   UNL     1     -12.110   8.791  71.821  1.00  0.00    -0.350 A  
HETATM    4  C   UNL     1     -11.100   9.399  71.080  1.00  0.00    -0.432 A  
HETATM    5  C   UNL     1      -9.742   9.173  71.355  1.00  0.00    -0.268 A  
HETATM    6  C   UNL     1      -8.742   6.362  74.296  1.00  0.00    -0.145 A  
HETATM    7  C   UNL     1      -9.380   8.245  72.363  1.00  0.00    -0.268 A  
HETATM    8  C   UNL     1     -10.074   6.677  74.080  1.00  0.00    -0.373 A  
HETATM    9  C   UNL     1     -11.768   7.912  72.840  1.00  0.00    -0.239 A  
HETATM   10  N   UNL     1      -8.080   7.950  72.601  1.00  0.00    -0.118 NA 
HETATM   11  C   UNL     1      -7.793   7.018  73.538  1.00  0.00    -0.092 A  
HETATM   12  C   UNL     1     -10.418   7.616  73.092  1.00  0.00    -0.433 A  
BRANCH   5  13
HETATM   13  N   UNL     1      -8.739   9.917  70.689  1.00  0.00    -0.357 NA 
HETATM   14  H   UNL     1      -8.030  10.412  71.231  1.00  0.00     0.000 HD 
BRANCH  13  15
HETATM   15  C   UNL     1      -8.715   9.981  69.225  1.00  0.00    -0.177 C  
HETATM   16  C   UNL     1      -7.366  10.553  68.779  1.00  0.00    -0.092 C  
BRANCH  15  17
HETATM   17  C   UNL     1      -8.880   8.570  68.624  1.00  0.00    -0.136 C  
BRANCH  17  18
HETATM   18  C   UNL     1     -10.110   8.384  67.723  1.00  0.00    -0.263 C  
BRANCH  18  19
HETATM   19  C   UNL     1     -10.248   9.391  66.581  1.00  0.00    -0.249 C  
HETATM   20  H1  UNL     1      -9.604   9.651  64.628  1.00  0.00     0.000 HD 
HETATM   21  N   UNL     1      -9.513   8.980  65.390  1.00  0.00    -0.450 NA 
HETATM   22  H2  UNL     1      -9.788   8.044  65.091  1.00  0.00     0.000 HD 
ENDBRANCH  18  19
ENDBRANCH  17  18
ENDBRANCH  15  17
ENDBRANCH  13  15
ENDBRANCH   5  13
ENDBRANCH   2   3
TORSDOF 6
ENDMDL
MODEL      151
REMARK 921   NORMALIZED FREE ENERGY PREDICTED BY IDOCK:   -3.91 KCAL/MOL
REMARK 922        TOTAL FREE ENERGY PREDICTED BY IDOCK:   -5.75 KCAL/MOL
REMARK 923 INTER-LIGAND FREE ENERGY PREDICTED BY IDOCK:   -5.18 KCAL/MOL
REMARK 924 INTRA-LIGAND FREE ENERGY PREDICTED BY IDOCK:   -0.57 KCAL/MOL
REMARK 927      BINDING AFFINITY PREDICTED BY RF-SCORE:    0.00 PKD
ROOT
HETATM    1  C   UNL     1     -12.091  14.315  64.448  1.00  0.00    -0.468 C  
HETATM    2  O   UNL     1     -12.134  14.359  65.867  1.00  0.00    -0.384 OA 
ENDROOT
BRANCH   2   3
HETATM    3  C   UNL     1     -11.292  13.521  66.543  1.00  0.00    -0.319 A  
HETATM    4  C   UNL     1      -9.949  13.881  66.480  1.00  0.00    -0.288 A  
HETATM    5  C   UNL     1      -8.954  13.152  67.151  1.00  0.00    -0.228 A  
HETATM    6  C   UNL     1     -10.060   9.635  69.142  1.00  0.00    -0.196 A  
HETATM    7  C   UNL     1      -9.309  11.973  67.852  1.00  0.00    -0.190 A  
HETATM    8  C   UNL     1     -11.039  10.426  68.562  1.00  0.00    -0.318 A  
HETATM    9  C   UNL     1     -11.658  12.391  67.263  1.00  0.00    -0.435 A  
HETATM   10  N   UNL     1      -8.363  11.207  68.447  1.00  0.00    -0.142 NA 
HETATM   11  C   UNL     1      -8.751  10.064  69.058  1.00  0.00    -0.158 A  
HETATM   12  C   UNL     1     -10.676  11.605  67.888  1.00  0.00    -0.241 A  
BRANCH   5  13
HETATM   13  N   UNL     1      -7.621  13.624  67.195  1.00  0.00    -0.365 NA 
HETATM   14  H   UNL     1      -6.917  13.216  66.580  1.00  0.00     0.000 HD 
BRANCH  13  15
HETATM   15  C   UNL     1      -7.248  14.697  68.121  1.00  0.00    -0.124 C  
HETATM   16  C   UNL     1      -6.278  14.133  69.165  1.00  0.00    -0.101 C  
BRANCH  15  17
HETATM   17  C   UNL     1      -6.548  15.842  67.360  1.00  0.00    -0.222 C  
BRANCH  17  18
HETATM   18  C   UNL     1      -7.490  16.881  66.733  1.00  0.00    -0.276 C  
BRANCH  18  19
HETATM   19  C   UNL     1      -6.888  18.269  66.513  1.00  0.00    -0.215 C  
HETATM   20  H1  UNL     1      -6.301  19.499  64.952  1.00  0.00     0.000 HD 
HETATM   21  N   UNL     1      -6.702  18.573  65.099  1.00  0.00    -0.510 NA 
HETATM   22  H2  UNL     1      -7.574  18.463  64.580  1.00  0.00     0.000 HD 
ENDBRANCH  18  19
ENDBRANCH  17  18
ENDBRANCH  15  17
ENDBRANCH  13  15
ENDBRANCH   5  13
ENDBRANCH   2   3
TORSDOF 6
ENDMDL
MODEL      152
REMARK 921   NORMALIZED FREE ENERGY PREDICTED BY IDOCK:   -3.91 KCAL/MOL
REMARK 922        TOTAL FREE ENERGY PREDICTED BY IDOCK:   -5.75 KCAL/MOL
REMARK 923 INTER-LIGAND FREE ENERGY PREDICTED BY IDOCK:   -5.81 KCAL/MOL
REMARK 924 INTRA-LIGAND FREE ENERGY PREDICTED BY IDOCK:    0.06 KCAL/MOL
REMARK 927      BINDING AFFINITY PREDICTED BY RF-SCORE:    0.00 PKD
ROOT
HETATM    1  C   UNL     1      -8.572   1.599  72.750  1.00  0.00    -0.061 C  
HETATM    2  O   UNL     1      -9.165   2.806  73.209  1.00  0.00    -0.087 OA 
ENDROOT
BRANCH   2   3
HETATM    3  C   UNL     1      -9.635   3.671  72.261  1.00  0.00    -0.145 A  
HETATM    4  C   UNL     1     -10.471   4.668  72.754  1.00  0.00    -0.261 A  
HETATM    5  C   UNL     1     -11.009   5.663  71.922  1.00  0.00    -0.235 A  
HETATM    6  C   UNL     1     -10.295   5.416  67.801  1.00  0.00    -0.226 A  
HETATM    7  C   UNL     1     -10.760   5.614  70.528  1.00  0.00    -0.274 A  
HETATM    8  C   UNL     1      -9.689   4.507  68.653  1.00  0.00    -0.203 A  
HETATM    9  C   UNL     1      -9.348   3.637  70.902  1.00  0.00    -0.218 A  
HETATM   10  N   UNL     1     -11.324   6.515  69.690  1.00  0.00    -0.385 NA 
HETATM   11  C   UNL     1     -11.095   6.390  68.362  1.00  0.00    -0.285 A  
HETATM   12  C   UNL     1      -9.926   4.580  70.036  1.00  0.00    -0.280 A  
BRANCH   5  13
HETATM   13  N   UNL     1     -11.730   6.749  72.472  1.00  0.00    -0.463 NA 
HETATM   14  H   UNL     1     -12.746   6.697  72.549  1.00  0.00     0.000 HD 
BRANCH  13  15
HETATM   15  C   UNL     1     -11.024   7.949  72.930  1.00  0.00    -0.388 C  
HETATM   16  C   UNL     1      -9.613   7.550  73.375  1.00  0.00    -0.323 C  
BRANCH  15  17
HETATM   17  C   UNL     1     -10.911   8.975  71.783  1.00  0.00    -0.443 C  
BRANCH  17  18
HETATM   18  C   UNL     1     -12.223   9.683  71.410  1.00  0.00    -0.471 C  
BRANCH  18  19
HETATM   19  C   UNL     1     -13.498   9.036  71.952  1.00  0.00    -0.425 C  
HETATM   20  H1  UNL     1     -14.908   7.626  71.387  1.00  0.00     0.000 HD 
HETATM   21  N   UNL     1     -14.058   8.058  71.026  1.00  0.00    -0.632 NA 
HETATM   22  H2  UNL     1     -13.366   7.352  70.771  1.00  0.00     0.000 HD 
ENDBRANCH  18  19
ENDBRANCH  17  18
ENDBRANCH  15  17
ENDBRANCH  13  15
ENDBRANCH   5  13
ENDBRANCH   2   3
TORSDOF 6
ENDMDL
MODEL      153
REMARK 921   NORMALIZED FREE ENERGY PREDICTED BY IDOCK:   -3.90 KCAL/MOL
REMARK 922        TOTAL FREE ENERGY PREDICTED BY IDOCK:   -5.74 KCAL/MOL
REMARK 923 INTER-LIGAND FREE ENERGY PREDICTED BY IDOCK:   -5.09 KCAL/MOL
REMARK 924 INTRA-LIGAND FREE ENERGY PREDICTED BY IDOCK:   -0.65 KCAL/MOL
REMARK 927      BINDING AFFINITY PREDICTED BY RF-SCORE:    0.00 PKD
ROOT
HETATM    1  C   UNL     1      -7.500  13.304  68.058  1.00  0.00    -0.138 C  
HETATM    2  O   UNL     1      -8.547  12.994  67.150  1.00  0.00    -0.196 OA 
ENDROOT
BRANCH   2   3
HETATM    3  C   UNL     1      -9.097  11.745  67.234  1.00  0.00    -0.171 A  
HETATM    4  C   UNL     1     -10.123  11.629  68.168  1.00  0.00    -0.202 A  
HETATM    5  C   UNL     1     -10.822  10.426  68.355  1.00  0.00    -0.245 A  
HETATM    6  C   UNL     1      -9.563   7.038  66.237  1.00  0.00    -0.094 A  
HETATM    7  C   UNL     1     -10.430   9.273  67.630  1.00  0.00    -0.264 A  
HETATM    8  C   UNL     1      -8.955   8.259  65.991  1.00  0.00    -0.224 A  
HETATM    9  C   UNL     1      -8.732  10.633  66.487  1.00  0.00    -0.151 A  
HETATM   10  N   UNL     1     -11.036   8.081  67.842  1.00  0.00     0.048 NA 
HETATM   11  C   UNL     1     -10.586   7.001  67.161  1.00  0.00    -0.341 A  
HETATM   12  C   UNL     1      -9.369   9.400  66.700  1.00  0.00    -0.211 A  
BRANCH   5  13
HETATM   13  N   UNL     1     -11.957  10.376  69.198  1.00  0.00    -0.581 NA 
HETATM   14  H   UNL     1     -12.890  10.302  68.791  1.00  0.00     0.000 HD 
BRANCH  13  15
HETATM   15  C   UNL     1     -11.798  10.429  70.654  1.00  0.00    -0.350 C  
HETATM   16  C   UNL     1     -12.862  11.369  71.232  1.00  0.00    -0.481 C  
BRANCH  15  17
HETATM   17  C   UNL     1     -11.990   9.026  71.266  1.00  0.00    -0.374 C  
BRANCH  17  18
HETATM   18  C   UNL     1     -10.829   8.532  72.142  1.00  0.00    -0.427 C  
BRANCH  18  19
HETATM   19  C   UNL     1      -9.430   8.908  71.654  1.00  0.00    -0.281 C  
HETATM   20  H1  UNL     1      -7.468   8.868  72.323  1.00  0.00     0.000 HD 
HETATM   21  N   UNL     1      -8.402   8.617  72.648  1.00  0.00    -0.408 NA 
HETATM   22  H2  UNL     1      -8.439   7.642  72.942  1.00  0.00     0.000 HD 
ENDBRANCH  18  19
ENDBRANCH  17  18
ENDBRANCH  15  17
ENDBRANCH  13  15
ENDBRANCH   5  13
ENDBRANCH   2   3
TORSDOF 6
ENDMDL
MODEL      154
REMARK 921   NORMALIZED FREE ENERGY PREDICTED BY IDOCK:   -3.88 KCAL/MOL
REMARK 922        TOTAL FREE ENERGY PREDICTED BY IDOCK:   -5.71 KCAL/MOL
REMARK 923 INTER-LIGAND FREE ENERGY PREDICTED BY IDOCK:   -5.23 KCAL/MOL
REMARK 924 INTRA-LIGAND FREE ENERGY PREDICTED BY IDOCK:   -0.48 KCAL/MOL
REMARK 927      BINDING AFFINITY PREDICTED BY RF-SCORE:    0.00 PKD
ROOT
HETATM    1  C   UNL     1     -12.342  12.831  64.647  1.00  0.00    -0.459 C  
HETATM    2  O   UNL     1     -11.310  13.693  64.188  1.00  0.00    -0.374 OA 
ENDROOT
BRANCH   2   3
HETATM    3  C   UNL     1     -10.789  14.578  65.090  1.00  0.00    -0.395 A  
HETATM    4  C   UNL     1     -10.065  13.989  66.123  1.00  0.00    -0.319 A  
HETATM    5  C   UNL     1      -9.430  14.755  67.113  1.00  0.00    -0.227 A  
HETATM    6  C   UNL     1      -9.997  18.906  67.093  1.00  0.00    -0.382 A  
HETATM    7  C   UNL     1      -9.586  16.163  67.111  1.00  0.00    -0.229 A  
HETATM    8  C   UNL     1     -10.528  18.141  66.066  1.00  0.00    -0.346 A  
HETATM    9  C   UNL     1     -10.914  15.960  65.053  1.00  0.00    -0.426 A  
HETATM   10  N   UNL     1      -9.048  16.923  68.094  1.00  0.00    -0.225 NA 
HETATM   11  C   UNL     1      -9.274  18.257  68.073  1.00  0.00    -0.290 A  
HETATM   12  C   UNL     1     -10.346  16.747  66.068  1.00  0.00    -0.346 A  
BRANCH   5  13
HETATM   13  N   UNL     1      -8.577  14.142  68.061  1.00  0.00    -0.162 NA 
HETATM   14  H   UNL     1      -8.969  13.749  68.917  1.00  0.00     0.000 HD 
BRANCH  13  15
HETATM   15  C   UNL     1      -7.133  14.070  67.819  1.00  0.00    -0.173 C  
HETATM   16  C   UNL     1      -6.399  14.611  69.051  1.00  0.00    -0.094 C  
BRANCH  15  17
HETATM   17  C   UNL     1      -6.701  12.607  67.586  1.00  0.00    -0.144 C  
BRANCH  17  18
HETATM   18  C   UNL     1      -7.852  11.595  67.489  1.00  0.00    -0.137 C  
BRANCH  18  19
HETATM   19  C   UNL     1      -7.993  10.885  66.142  1.00  0.00    -0.155 C  
HETATM   20  H1  UNL     1      -6.821  10.339  64.522  1.00  0.00     0.000 HD 
HETATM   21  N   UNL     1      -6.727  10.812  65.421  1.00  0.00    -0.350 NA 
HETATM   22  H2  UNL     1      -6.002  10.377  65.991  1.00  0.00     0.000 HD 
ENDBRANCH  18  19
ENDBRANCH  17  18
ENDBRANCH  15  17
ENDBRANCH  13  15
ENDBRANCH   5  13
ENDBRANCH   2   3
TORSDOF 6
ENDMDL
MODEL      155
REMARK 921   NORMALIZED FREE ENERGY PREDICTED BY IDOCK:   -3.87 KCAL/MOL
REMARK 922        TOTAL FREE ENERGY PREDICTED BY IDOCK:   -5.70 KCAL/MOL
REMARK 923 INTER-LIGAND FREE ENERGY PREDICTED BY IDOCK:   -5.42 KCAL/MOL
REMARK 924 INTRA-LIGAND FREE ENERGY PREDICTED BY IDOCK:   -0.27 KCAL/MOL
REMARK 927      BINDING AFFINITY PREDICTED BY RF-SCORE:    0.00 PKD
ROOT
HETATM    1  C   UNL     1      -8.686   5.781  73.579  1.00  0.00    -0.123 C  
HETATM    2  O   UNL     1      -9.587   5.768  72.480  1.00  0.00    -0.155 OA 
ENDROOT
BRANCH   2   3
HETATM    3  C   UNL     1     -10.173   6.956  72.140  1.00  0.00    -0.193 A  
HETATM    4  C   UNL     1      -9.355   7.815  71.412  1.00  0.00    -0.165 A  
HETATM    5  C   UNL     1      -9.812   9.058  70.949  1.00  0.00    -0.264 A  
HETATM    6  C   UNL     1     -13.652  10.311  72.061  1.00  0.00    -0.287 A  
HETATM    7  C   UNL     1     -11.117   9.492  71.291  1.00  0.00    -0.379 A  
HETATM    8  C   UNL     1     -13.219   9.044  72.419  1.00  0.00    -0.507 A  
HETATM    9  C   UNL     1     -11.469   7.351  72.446  1.00  0.00    -0.343 A  
HETATM   10  N   UNL     1     -11.561  10.717  70.923  1.00  0.00    -0.293 NA 
HETATM   11  C   UNL     1     -12.796  11.101  71.322  1.00  0.00    -0.412 A  
HETATM   12  C   UNL     1     -11.930   8.618  72.053  1.00  0.00    -0.442 A  
BRANCH   5  13
HETATM   13  N   UNL     1      -9.013   9.843  70.084  1.00  0.00    -0.356 NA 
HETATM   14  H   UNL     1      -8.507  10.649  70.452  1.00  0.00     0.000 HD 
BRANCH  13  15
HETATM   15  C   UNL     1      -8.909   9.504  68.663  1.00  0.00    -0.132 C  
HETATM   16  C   UNL     1     -10.167   8.735  68.245  1.00  0.00    -0.240 C  
BRANCH  15  17
HETATM   17  C   UNL     1      -8.805  10.786  67.811  1.00  0.00    -0.130 C  
BRANCH  17  18
HETATM   18  C   UNL     1      -9.962  11.011  66.826  1.00  0.00    -0.240 C  
BRANCH  18  19
HETATM   19  C   UNL     1     -10.683  12.353  66.952  1.00  0.00    -0.240 C  
HETATM   20  H1  UNL     1     -12.587  13.087  67.317  1.00  0.00     0.000 HD 
HETATM   21  N   UNL     1     -12.106  12.192  67.233  1.00  0.00    -0.525 NA 
HETATM   22  H2  UNL     1     -12.255  11.614  68.060  1.00  0.00     0.000 HD 
ENDBRANCH  18  19
ENDBRANCH  17  18
ENDBRANCH  15  17
ENDBRANCH  13  15
ENDBRANCH   5  13
ENDBRANCH   2   3
TORSDOF 6
ENDMDL
MODEL      156
REMARK 921   NORMALIZED FREE ENERGY PREDICTED BY IDOCK:   -3.86 KCAL/MOL
REMARK 922        TOTAL FREE ENERGY PREDICTED BY IDOCK:   -5.68 KCAL/MOL
REMARK 923 INTER-LIGAND FREE ENERGY PREDICTED BY IDOCK:   -5.20 KCAL/MOL
REMARK 924 INTRA-LIGAND FREE ENERGY PREDICTED BY IDOCK:   -0.49 KCAL/MOL
REMARK 927      BINDING AFFINITY PREDICTED BY RF-SCORE:    0.00 PKD
ROOT
HETATM    1  C   UNL     1     -13.055  14.327  71.258  1.00  0.00    -0.355 C  
HETATM    2  O   UNL     1     -12.488  13.621  70.164  1.00  0.00    -0.308 OA 
ENDROOT
BRANCH   2   3
HETATM    3  C   UNL     1     -12.236  12.289  70.343  1.00  0.00    -0.288 A  
HETATM    4  C   UNL     1     -11.516  11.694  69.311  1.00  0.00    -0.364 A  
HETATM    5  C   UNL     1     -11.139  10.343  69.354  1.00  0.00    -0.254 A  
HETATM    6  C   UNL     1     -12.488   7.996  72.551  1.00  0.00    -0.193 A  
HETATM    7  C   UNL     1     -11.562   9.536  70.438  1.00  0.00    -0.212 A  
HETATM    8  C   UNL     1     -12.760   9.354  72.541  1.00  0.00    -0.263 A  
HETATM    9  C   UNL     1     -12.621  11.519  71.433  1.00  0.00    -0.419 A  
HETATM   10  N   UNL     1     -11.277   8.212  70.472  1.00  0.00    -0.263 NA 
HETATM   11  C   UNL     1     -11.752   7.478  71.505  1.00  0.00    -0.280 A  
HETATM   12  C   UNL     1     -12.315  10.148  71.470  1.00  0.00    -0.505 A  
BRANCH   5  13
HETATM   13  N   UNL     1     -10.279   9.804  68.367  1.00  0.00    -0.177 NA 
HETATM   14  H   UNL     1      -9.268   9.837  68.501  1.00  0.00     0.000 HD 
BRANCH  13  15
HETATM   15  C   UNL     1     -10.836   9.197  67.155  1.00  0.00    -0.024 C  
HETATM   16  C   UNL     1     -10.283   9.939  65.933  1.00  0.00    -0.264 C  
BRANCH  15  17
HETATM   17  C   UNL     1     -10.425   7.712  67.061  1.00  0.00    -0.419 C  
BRANCH  17  18
HETATM   18  C   UNL     1      -8.917   7.444  67.181  1.00  0.00    -0.134 C  
BRANCH  18  19
HETATM   19  C   UNL     1      -8.320   6.545  66.097  1.00  0.00    -0.129 C  
HETATM   20  H1  UNL     1      -8.187   6.450  64.031  1.00  0.00     0.000 HD 
HETATM   21  N   UNL     1      -8.585   7.049  64.754  1.00  0.00    -0.346 NA 
HETATM   22  H2  UNL     1      -8.266   8.012  64.651  1.00  0.00     0.000 HD 
ENDBRANCH  18  19
ENDBRANCH  17  18
ENDBRANCH  15  17
ENDBRANCH  13  15
ENDBRANCH   5  13
ENDBRANCH   2   3
TORSDOF 6
ENDMDL
MODEL      157
REMARK 921   NORMALIZED FREE ENERGY PREDICTED BY IDOCK:   -3.86 KCAL/MOL
REMARK 922        TOTAL FREE ENERGY PREDICTED BY IDOCK:   -5.68 KCAL/MOL
REMARK 923 INTER-LIGAND FREE ENERGY PREDICTED BY IDOCK:   -5.51 KCAL/MOL
REMARK 924 INTRA-LIGAND FREE ENERGY PREDICTED BY IDOCK:   -0.17 KCAL/MOL
REMARK 927      BINDING AFFINITY PREDICTED BY RF-SCORE:    0.00 PKD
ROOT
HETATM    1  C   UNL     1      -5.844   9.467  68.714  1.00  0.00    -0.040 C  
HETATM    2  O   UNL     1      -6.397  10.710  69.125  1.00  0.00    -0.047 OA 
ENDROOT
BRANCH   2   3
HETATM    3  C   UNL     1      -7.646  11.019  68.664  1.00  0.00    -0.124 A  
HETATM    4  C   UNL     1      -8.544   9.955  68.675  1.00  0.00    -0.119 A  
HETATM    5  C   UNL     1      -9.880  10.109  68.272  1.00  0.00    -0.145 A  
HETATM    6  C   UNL     1     -11.083  13.812  66.724  1.00  0.00    -0.316 A  
HETATM    7  C   UNL     1     -10.316  11.360  67.769  1.00  0.00    -0.182 A  
HETATM    8  C   UNL     1      -9.798  13.667  67.224  1.00  0.00    -0.241 A  
HETATM    9  C   UNL     1      -8.073  12.261  68.213  1.00  0.00    -0.166 A  
HETATM   10  N   UNL     1     -11.578  11.520  67.304  1.00  0.00    -0.560 NA 
HETATM   11  C   UNL     1     -11.925  12.720  66.785  1.00  0.00    -0.319 A  
HETATM   12  C   UNL     1      -9.385  12.427  67.741  1.00  0.00    -0.196 A  
BRANCH   5  13
HETATM   13  N   UNL     1     -10.808   9.053  68.436  1.00  0.00    -0.443 NA 
HETATM   14  H   UNL     1     -11.234   8.620  67.616  1.00  0.00     0.000 HD 
BRANCH  13  15
HETATM   15  C   UNL     1     -11.159   8.579  69.777  1.00  0.00    -0.062 C  
HETATM   16  C   UNL     1     -10.218   7.431  70.158  1.00  0.00    -0.207 C  
BRANCH  15  17
HETATM   17  C   UNL     1     -10.997   9.717  70.807  1.00  0.00    -0.397 C  
BRANCH  17  18
HETATM   18  C   UNL     1     -12.237   9.999  71.668  1.00  0.00    -0.456 C  
BRANCH  18  19
HETATM   19  C   UNL     1     -13.219   8.835  71.811  1.00  0.00    -0.367 C  
HETATM   20  H1  UNL     1     -14.862   8.296  72.954  1.00  0.00     0.000 HD 
HETATM   21  N   UNL     1     -14.207   9.072  72.858  1.00  0.00    -1.127 NA 
HETATM   22  H2  UNL     1     -14.699   9.953  72.708  1.00  0.00     0.000 HD 
ENDBRANCH  18  19
ENDBRANCH  17  18
ENDBRANCH  15  17
ENDBRANCH  13  15
ENDBRANCH   5  13
ENDBRANCH   2   3
TORSDOF 6
ENDMDL
MODEL      158
REMARK 921   NORMALIZED FREE ENERGY PREDICTED BY IDOCK:   -3.85 KCAL/MOL
REMARK 922        TOTAL FREE ENERGY PREDICTED BY IDOCK:   -5.67 KCAL/MOL
REMARK 923 INTER-LIGAND FREE ENERGY PREDICTED BY IDOCK:   -4.97 KCAL/MOL
REMARK 924 INTRA-LIGAND FREE ENERGY PREDICTED BY IDOCK:   -0.71 KCAL/MOL
REMARK 927      BINDING AFFINITY PREDICTED BY RF-SCORE:    0.00 PKD
ROOT
HETATM    1  C   UNL     1      -5.849  10.354  68.485  1.00  0.00    -0.040 C  
HETATM    2  O   UNL     1      -6.451  10.006  67.246  1.00  0.00    -0.067 OA 
ENDROOT
BRANCH   2   3
HETATM    3  C   UNL     1      -7.587  10.680  66.893  1.00  0.00    -0.115 A  
HETATM    4  C   UNL     1      -8.036  11.590  67.846  1.00  0.00    -0.126 A  
HETATM    5  C   UNL     1      -9.165  12.394  67.628  1.00  0.00    -0.185 A  
HETATM    6  C   UNL     1     -11.390  11.800  64.128  1.00  0.00    -0.430 A  
HETATM    7  C   UNL     1      -9.919  12.229  66.440  1.00  0.00    -0.228 A  
HETATM    8  C   UNL     1     -10.214  11.092  64.316  1.00  0.00    -0.399 A  
HETATM    9  C   UNL     1      -8.292  10.539  65.705  1.00  0.00    -0.166 A  
HETATM   10  N   UNL     1     -11.055  12.936  66.233  1.00  0.00    -0.281 NA 
HETATM   11  C   UNL     1     -11.764  12.700  65.105  1.00  0.00    -0.367 A  
HETATM   12  C   UNL     1      -9.464  11.282  65.489  1.00  0.00    -0.255 A  
BRANCH   5  13
HETATM   13  N   UNL     1      -9.511  13.415  68.545  1.00  0.00    -0.356 NA 
HETATM   14  H   UNL     1     -10.321  13.298  69.154  1.00  0.00     0.000 HD 
BRANCH  13  15
HETATM   15  C   UNL     1      -8.710  14.640  68.624  1.00  0.00    -0.174 C  
HETATM   16  C   UNL     1      -8.059  14.892  67.259  1.00  0.00    -0.234 C  
BRANCH  15  17
HETATM   17  C   UNL     1      -9.607  15.845  68.976  1.00  0.00    -0.247 C  
BRANCH  17  18
HETATM   18  C   UNL     1     -10.553  15.628  70.166  1.00  0.00    -0.348 C  
BRANCH  18  19
HETATM   19  C   UNL     1     -12.020  15.392  69.806  1.00  0.00    -0.358 C  
HETATM   20  H1  UNL     1     -13.166  14.805  68.182  1.00  0.00     0.000 HD 
HETATM   21  N   UNL     1     -12.188  14.963  68.422  1.00  0.00    -0.592 NA 
HETATM   22  H2  UNL     1     -11.622  14.138  68.221  1.00  0.00     0.000 HD 
ENDBRANCH  18  19
ENDBRANCH  17  18
ENDBRANCH  15  17
ENDBRANCH  13  15
ENDBRANCH   5  13
ENDBRANCH   2   3
TORSDOF 6
ENDMDL
MODEL      159
REMARK 921   NORMALIZED FREE ENERGY PREDICTED BY IDOCK:   -3.85 KCAL/MOL
REMARK 922        TOTAL FREE ENERGY PREDICTED BY IDOCK:   -5.67 KCAL/MOL
REMARK 923 INTER-LIGAND FREE ENERGY PREDICTED BY IDOCK:   -5.14 KCAL/MOL
REMARK 924 INTRA-LIGAND FREE ENERGY PREDICTED BY IDOCK:   -0.53 KCAL/MOL
REMARK 927      BINDING AFFINITY PREDICTED BY RF-SCORE:    0.00 PKD
ROOT
HETATM    1  C   UNL     1     -11.378   7.641  72.562  1.00  0.00    -0.355 C  
HETATM    2  O   UNL     1     -12.470   8.542  72.450  1.00  0.00    -0.373 OA 
ENDROOT
BRANCH   2   3
HETATM    3  C   UNL     1     -12.284   9.656  71.680  1.00  0.00    -0.402 A  
HETATM    4  C   UNL     1     -11.493   9.451  70.552  1.00  0.00    -0.317 A  
HETATM    5  C   UNL     1     -11.234  10.479  69.633  1.00  0.00    -0.282 A  
HETATM    6  C   UNL     1     -12.651  14.327  70.490  1.00  0.00    -0.418 A  
HETATM    7  C   UNL     1     -11.725  11.783  69.889  1.00  0.00    -0.323 A  
HETATM    8  C   UNL     1     -12.983  13.276  71.330  1.00  0.00    -0.398 A  
HETATM    9  C   UNL     1     -12.807  10.920  71.920  1.00  0.00    -0.432 A  
HETATM   10  N   UNL     1     -11.430  12.812  69.060  1.00  0.00    -0.290 NA 
HETATM   11  C   UNL     1     -11.880  14.047  69.381  1.00  0.00    -0.333 A  
HETATM   12  C   UNL     1     -12.508  11.983  71.052  1.00  0.00    -0.376 A  
BRANCH   5  13
HETATM   13  N   UNL     1     -10.556  10.207  68.421  1.00  0.00    -0.204 NA 
HETATM   14  H   UNL     1     -11.032  10.347  67.530  1.00  0.00     0.000 HD 
BRANCH  13  15
HETATM   15  C   UNL     1      -9.172   9.725  68.440  1.00  0.00    -0.130 C  
HETATM   16  C   UNL     1      -8.679   9.581  66.996  1.00  0.00    -0.135 C  
BRANCH  15  17
HETATM   17  C   UNL     1      -8.264  10.731  69.177  1.00  0.00    -0.124 C  
BRANCH  17  18
HETATM   18  C   UNL     1      -6.998  11.147  68.414  1.00  0.00    -0.072 C  
BRANCH  18  19
HETATM   19  C   UNL     1      -6.287  12.392  68.947  1.00  0.00    -0.085 C  
HETATM   20  H1  UNL     1      -4.814  13.730  68.367  1.00  0.00     0.000 HD 
HETATM   21  N   UNL     1      -5.288  12.900  68.012  1.00  0.00    -0.090 NA 
HETATM   22  H2  UNL     1      -5.697  13.074  67.094  1.00  0.00     0.000 HD 
ENDBRANCH  18  19
ENDBRANCH  17  18
ENDBRANCH  15  17
ENDBRANCH  13  15
ENDBRANCH   5  13
ENDBRANCH   2   3
TORSDOF 6
ENDMDL
MODEL      160
REMARK 921   NORMALIZED FREE ENERGY PREDICTED BY IDOCK:   -3.84 KCAL/MOL
REMARK 922        TOTAL FREE ENERGY PREDICTED BY IDOCK:   -5.66 KCAL/MOL
REMARK 923 INTER-LIGAND FREE ENERGY PREDICTED BY IDOCK:   -5.32 KCAL/MOL
REMARK 924 INTRA-LIGAND FREE ENERGY PREDICTED BY IDOCK:   -0.34 KCAL/MOL
REMARK 927      BINDING AFFINITY PREDICTED BY RF-SCORE:    0.00 PKD
ROOT
HETATM    1  C   UNL     1     -12.008  13.305  66.499  1.00  0.00    -0.391 C  
HETATM    2  O   UNL     1     -11.610  13.419  67.858  1.00  0.00    -0.297 OA 
ENDROOT
BRANCH   2   3
HETATM    3  C   UNL     1     -11.616  12.277  68.608  1.00  0.00    -0.323 A  
HETATM    4  C   UNL     1     -10.915  11.214  68.045  1.00  0.00    -0.307 A  
HETATM    5  C   UNL     1     -10.788   9.980  68.702  1.00  0.00    -0.229 A  
HETATM    6  C   UNL     1     -12.836   9.421  72.313  1.00  0.00    -0.452 A  
HETATM    7  C   UNL     1     -11.451   9.776  69.937  1.00  0.00    -0.140 A  
HETATM    8  C   UNL     1     -12.862  10.664  71.701  1.00  0.00    -0.570 A  
HETATM    9  C   UNL     1     -12.235  12.104  69.839  1.00  0.00    -0.240 A  
HETATM   10  N   UNL     1     -11.409   8.574  70.558  1.00  0.00    -0.249 NA 
HETATM   11  C   UNL     1     -12.104   8.419  71.709  1.00  0.00    -0.328 A  
HETATM   12  C   UNL     1     -12.181  10.859  70.487  1.00  0.00    -0.459 A  
BRANCH   5  13
HETATM   13  N   UNL     1      -9.945   8.970  68.180  1.00  0.00    -0.167 NA 
HETATM   14  H   UNL     1     -10.350   8.183  67.672  1.00  0.00     0.000 HD 
BRANCH  13  15
HETATM   15  C   UNL     1      -8.494   9.049  68.365  1.00  0.00    -0.129 C  
HETATM   16  C   UNL     1      -7.858   9.566  67.069  1.00  0.00    -0.098 C  
BRANCH  15  17
HETATM   17  C   UNL     1      -8.152  10.026  69.510  1.00  0.00    -0.166 C  
BRANCH  17  18
HETATM   18  C   UNL     1      -7.075  11.069  69.177  1.00  0.00    -0.116 C  
BRANCH  18  19
HETATM   19  C   UNL     1      -6.115  11.411  70.317  1.00  0.00    -0.145 C  
HETATM   20  H1  UNL     1      -5.532  13.050  71.444  1.00  0.00     0.000 HD 
HETATM   21  N   UNL     1      -6.172  12.822  70.684  1.00  0.00    -0.511 NA 
HETATM   22  H2  UNL     1      -7.126  13.106  70.908  1.00  0.00     0.000 HD 
ENDBRANCH  18  19
ENDBRANCH  17  18
ENDBRANCH  15  17
ENDBRANCH  13  15
ENDBRANCH   5  13
ENDBRANCH   2   3
TORSDOF 6
ENDMDL
MODEL      161
REMARK 921   NORMALIZED FREE ENERGY PREDICTED BY IDOCK:   -3.83 KCAL/MOL
REMARK 922        TOTAL FREE ENERGY PREDICTED BY IDOCK:   -5.64 KCAL/MOL
REMARK 923 INTER-LIGAND FREE ENERGY PREDICTED BY IDOCK:   -4.64 KCAL/MOL
REMARK 924 INTRA-LIGAND FREE ENERGY PREDICTED BY IDOCK:   -1.01 KCAL/MOL
REMARK 927      BINDING AFFINITY PREDICTED BY RF-SCORE:    0.00 PKD
ROOT
HETATM    1  C   UNL     1     -10.504   4.608  72.674  1.00  0.00    -0.199 C  
HETATM    2  O   UNL     1     -11.589   5.518  72.558  1.00  0.00    -0.283 OA 
ENDROOT
BRANCH   2   3
HETATM    3  C   UNL     1     -11.388   6.634  71.795  1.00  0.00    -0.279 A  
HETATM    4  C   UNL     1     -10.379   6.508  70.845  1.00  0.00    -0.243 A  
HETATM    5  C   UNL     1     -10.068   7.546  69.952  1.00  0.00    -0.193 A  
HETATM    6  C   UNL     1     -12.055  11.210  70.384  1.00  0.00    -0.475 A  
HETATM    7  C   UNL     1     -10.745   8.786  70.063  1.00  0.00    -0.228 A  
HETATM    8  C   UNL     1     -12.418  10.139  71.185  1.00  0.00    -0.490 A  
HETATM    9  C   UNL     1     -12.089   7.830  71.885  1.00  0.00    -0.341 A  
HETATM   10  N   UNL     1     -10.417   9.830  69.266  1.00  0.00    -0.208 NA 
HETATM   11  C   UNL     1     -11.059  11.007  69.451  1.00  0.00    -0.262 A  
HETATM   12  C   UNL     1     -11.754   8.908  71.050  1.00  0.00    -0.340 A  
BRANCH   5  13
HETATM   13  N   UNL     1      -9.144   7.340  68.901  1.00  0.00    -0.133 NA 
HETATM   14  H   UNL     1      -8.340   7.960  68.802  1.00  0.00     0.000 HD 
BRANCH  13  15
HETATM   15  C   UNL     1      -9.337   6.239  67.953  1.00  0.00    -0.114 C  
HETATM   16  C   UNL     1     -10.768   6.303  67.406  1.00  0.00    -0.409 C  
BRANCH  15  17
HETATM   17  C   UNL     1      -8.349   6.366  66.775  1.00  0.00    -0.111 C  
BRANCH  17  18
HETATM   18  C   UNL     1      -8.784   7.328  65.660  1.00  0.00    -0.092 C  
BRANCH  18  19
HETATM   19  C   UNL     1      -8.106   8.698  65.670  1.00  0.00    -0.110 C  
HETATM   20  H1  UNL     1      -7.993  10.387  66.867  1.00  0.00     0.000 HD 
HETATM   21  N   UNL     1      -8.445   9.473  66.859  1.00  0.00    -0.127 NA 
HETATM   22  H2  UNL     1      -8.236   8.952  67.711  1.00  0.00     0.000 HD 
ENDBRANCH  18  19
ENDBRANCH  17  18
ENDBRANCH  15  17
ENDBRANCH  13  15
ENDBRANCH   5  13
ENDBRANCH   2   3
TORSDOF 6
ENDMDL
MODEL      162
REMARK 921   NORMALIZED FREE ENERGY PREDICTED BY IDOCK:   -3.82 KCAL/MOL
REMARK 922        TOTAL FREE ENERGY PREDICTED BY IDOCK:   -5.62 KCAL/MOL
REMARK 923 INTER-LIGAND FREE ENERGY PREDICTED BY IDOCK:   -5.14 KCAL/MOL
REMARK 924 INTRA-LIGAND FREE ENERGY PREDICTED BY IDOCK:   -0.49 KCAL/MOL
REMARK 927      BINDING AFFINITY PREDICTED BY RF-SCORE:    0.00 PKD
ROOT
HETATM    1  C   UNL     1      -6.608  21.274  62.996  1.00  0.00    -0.138 C  
HETATM    2  O   UNL     1      -5.573  20.910  63.900  1.00  0.00    -0.222 OA 
ENDROOT
BRANCH   2   3
HETATM    3  C   UNL     1      -5.948  20.547  65.163  1.00  0.00    -0.239 A  
HETATM    4  C   UNL     1      -7.034  19.677  65.214  1.00  0.00    -0.206 A  
HETATM    5  C   UNL     1      -7.524  19.175  66.430  1.00  0.00    -0.258 A  
HETATM    6  C   UNL     1      -5.834  20.581  69.996  1.00  0.00    -0.349 A  
HETATM    7  C   UNL     1      -6.951  19.617  67.648  1.00  0.00    -0.240 A  
HETATM    8  C   UNL     1      -5.298  20.983  68.783  1.00  0.00    -0.367 A  
HETATM    9  C   UNL     1      -5.350  20.954  66.348  1.00  0.00    -0.233 A  
HETATM   10  N   UNL     1      -7.449  19.207  68.839  1.00  0.00    -0.346 NA 
HETATM   11  C   UNL     1      -6.898  19.703  69.971  1.00  0.00    -0.078 A  
HETATM   12  C   UNL     1      -5.862  20.520  67.582  1.00  0.00    -0.270 A  
BRANCH   5  13
HETATM   13  N   UNL     1      -8.528  18.178  66.445  1.00  0.00    -0.369 NA 
HETATM   14  H   UNL     1      -8.266  17.193  66.499  1.00  0.00     0.000 HD 
BRANCH  13  15
HETATM   15  C   UNL     1      -9.944  18.553  66.383  1.00  0.00    -0.379 C  
HETATM   16  C   UNL     1     -10.652  17.642  65.373  1.00  0.00     0.033 C  
BRANCH  15  17
HETATM   17  C   UNL     1     -10.607  18.374  67.764  1.00  0.00    -0.419 C  
BRANCH  17  18
HETATM   18  C   UNL     1     -10.309  17.039  68.463  1.00  0.00    -0.359 C  
BRANCH  18  19
HETATM   19  C   UNL     1     -11.510  16.354  69.116  1.00  0.00    -0.188 C  
HETATM   20  H1  UNL     1     -12.232  15.915  71.008  1.00  0.00     0.000 HD 
HETATM   21  N   UNL     1     -11.431  16.371  70.573  1.00  0.00    -0.509 NA 
HETATM   22  H2  UNL     1     -11.312  17.321  70.924  1.00  0.00     0.000 HD 
ENDBRANCH  18  19
ENDBRANCH  17  18
ENDBRANCH  15  17
ENDBRANCH  13  15
ENDBRANCH   5  13
ENDBRANCH   2   3
TORSDOF 6
ENDMDL
MODEL      163
REMARK 921   NORMALIZED FREE ENERGY PREDICTED BY IDOCK:   -3.82 KCAL/MOL
REMARK 922        TOTAL FREE ENERGY PREDICTED BY IDOCK:   -5.62 KCAL/MOL
REMARK 923 INTER-LIGAND FREE ENERGY PREDICTED BY IDOCK:   -5.20 KCAL/MOL
REMARK 924 INTRA-LIGAND FREE ENERGY PREDICTED BY IDOCK:   -0.42 KCAL/MOL
REMARK 927      BINDING AFFINITY PREDICTED BY RF-SCORE:    0.00 PKD
ROOT
HETATM    1  C   UNL     1     -11.801  14.950  69.763  1.00  0.00    -0.315 C  
HETATM    2  O   UNL     1     -12.142  13.907  68.860  1.00  0.00    -0.351 OA 
ENDROOT
BRANCH   2   3
HETATM    3  C   UNL     1     -11.408  12.755  68.931  1.00  0.00    -0.296 A  
HETATM    4  C   UNL     1     -12.075  11.683  69.517  1.00  0.00    -0.336 A  
HETATM    5  C   UNL     1     -11.481  10.416  69.633  1.00  0.00    -0.262 A  
HETATM    6  C   UNL     1      -7.490   9.967  68.442  1.00  0.00    -0.082 A  
HETATM    7  C   UNL     1     -10.140  10.234  69.213  1.00  0.00    -0.227 A  
HETATM    8  C   UNL     1      -8.128  11.180  68.240  1.00  0.00    -0.131 A  
HETATM    9  C   UNL     1     -10.108  12.579  68.476  1.00  0.00    -0.186 A  
HETATM   10  N   UNL     1      -9.515   9.045  69.380  1.00  0.00    -0.156 NA 
HETATM   11  C   UNL     1      -8.218   8.942  69.010  1.00  0.00    -0.116 A  
HETATM   12  C   UNL     1      -9.466  11.341  68.641  1.00  0.00    -0.179 A  
BRANCH   5  13
HETATM   13  N   UNL     1     -12.232   9.308  70.092  1.00  0.00    -0.319 NA 
HETATM   14  H   UNL     1     -12.818   8.786  69.440  1.00  0.00     0.000 HD 
BRANCH  13  15
HETATM   15  C   UNL     1     -12.172   8.907  71.501  1.00  0.00    -0.327 C  
HETATM   16  C   UNL     1     -13.333   9.569  72.251  1.00  0.00    -0.526 C  
BRANCH  15  17
HETATM   17  C   UNL     1     -12.307   7.376  71.628  1.00  0.00    -0.373 C  
BRANCH  17  18
HETATM   18  C   UNL     1     -10.991   6.623  71.875  1.00  0.00    -0.277 C  
BRANCH  18  19
HETATM   19  C   UNL     1     -10.733   6.206  73.323  1.00  0.00    -0.260 C  
HETATM   20  H1  UNL     1     -10.369   7.075  75.169  1.00  0.00     0.000 HD 
HETATM   21  N   UNL     1     -10.542   7.353  74.203  1.00  0.00    -0.485 NA 
HETATM   22  H2  UNL     1     -11.327   8.001  74.141  1.00  0.00     0.000 HD 
ENDBRANCH  18  19
ENDBRANCH  17  18
ENDBRANCH  15  17
ENDBRANCH  13  15
ENDBRANCH   5  13
ENDBRANCH   2   3
TORSDOF 6
ENDMDL
MODEL      164
REMARK 921   NORMALIZED FREE ENERGY PREDICTED BY IDOCK:   -3.81 KCAL/MOL
REMARK 922        TOTAL FREE ENERGY PREDICTED BY IDOCK:   -5.61 KCAL/MOL
REMARK 923 INTER-LIGAND FREE ENERGY PREDICTED BY IDOCK:   -5.39 KCAL/MOL
REMARK 924 INTRA-LIGAND FREE ENERGY PREDICTED BY IDOCK:   -0.23 KCAL/MOL
REMARK 927      BINDING AFFINITY PREDICTED BY RF-SCORE:    0.00 PKD
ROOT
HETATM    1  C   UNL     1     -11.334  16.432  68.779  1.00  0.00    -0.277 C  
HETATM    2  O   UNL     1     -10.198  16.079  69.555  1.00  0.00    -0.246 OA 
ENDROOT
BRANCH   2   3
HETATM    3  C   UNL     1      -9.312  15.198  68.999  1.00  0.00    -0.219 A  
HETATM    4  C   UNL     1      -9.828  14.449  67.946  1.00  0.00    -0.224 A  
HETATM    5  C   UNL     1      -9.043  13.526  67.238  1.00  0.00    -0.225 A  
HETATM    6  C   UNL     1      -5.126  12.823  68.548  1.00  0.00    -0.061 A  
HETATM    7  C   UNL     1      -7.706  13.290  67.647  1.00  0.00    -0.171 A  
HETATM    8  C   UNL     1      -5.885  13.804  69.166  1.00  0.00    -0.083 A  
HETATM    9  C   UNL     1      -7.991  15.008  69.383  1.00  0.00    -0.170 A  
HETATM   10  N   UNL     1      -6.946  12.354  67.032  1.00  0.00    -0.069 NA 
HETATM   11  C   UNL     1      -5.695  12.133  67.498  1.00  0.00    -0.117 A  
HETATM   12  C   UNL     1      -7.201  14.043  68.736  1.00  0.00    -0.113 A  
BRANCH   5  13
HETATM   13  N   UNL     1      -9.547  12.890  66.079  1.00  0.00    -0.404 NA 
HETATM   14  H   UNL     1      -9.826  13.451  65.273  1.00  0.00     0.000 HD 
BRANCH  13  15
HETATM   15  C   UNL     1      -9.670  11.431  66.030  1.00  0.00    -0.223 C  
HETATM   16  C   UNL     1     -10.603  10.977  67.158  1.00  0.00    -0.294 C  
BRANCH  15  17
HETATM   17  C   UNL     1     -10.269  10.988  64.680  1.00  0.00    -0.392 C  
BRANCH  17  18
HETATM   18  C   UNL     1     -10.507  12.119  63.669  1.00  0.00    -0.495 C  
BRANCH  18  19
HETATM   19  C   UNL     1     -11.972  12.462  63.396  1.00  0.00    -0.504 C  
HETATM   20  H1  UNL     1     -13.191  14.130  63.225  1.00  0.00     0.000 HD 
HETATM   21  N   UNL     1     -12.214  13.901  63.407  1.00  0.00    -1.102 NA 
HETATM   22  H2  UNL     1     -11.595  14.384  62.756  1.00  0.00     0.000 HD 
ENDBRANCH  18  19
ENDBRANCH  17  18
ENDBRANCH  15  17
ENDBRANCH  13  15
ENDBRANCH   5  13
ENDBRANCH   2   3
TORSDOF 6
ENDMDL
MODEL      165
REMARK 921   NORMALIZED FREE ENERGY PREDICTED BY IDOCK:   -3.79 KCAL/MOL
REMARK 922        TOTAL FREE ENERGY PREDICTED BY IDOCK:   -5.59 KCAL/MOL
REMARK 923 INTER-LIGAND FREE ENERGY PREDICTED BY IDOCK:   -5.26 KCAL/MOL
REMARK 924 INTRA-LIGAND FREE ENERGY PREDICTED BY IDOCK:   -0.33 KCAL/MOL
REMARK 927      BINDING AFFINITY PREDICTED BY RF-SCORE:    0.00 PKD
ROOT
HETATM    1  C   UNL     1     -10.637  13.172  64.202  1.00  0.00    -0.361 C  
HETATM    2  O   UNL     1     -10.963  11.795  64.069  1.00  0.00    -0.328 OA 
ENDROOT
BRANCH   2   3
HETATM    3  C   UNL     1     -10.500  10.948  65.038  1.00  0.00    -0.261 A  
HETATM    4  C   UNL     1     -11.141  11.075  66.268  1.00  0.00    -0.106 A  
HETATM    5  C   UNL     1     -10.816  10.256  67.360  1.00  0.00    -0.277 A  
HETATM    6  C   UNL     1      -7.628   7.568  66.958  1.00  0.00    -0.103 A  
HETATM    7  C   UNL     1      -9.758   9.321  67.239  1.00  0.00    -0.167 A  
HETATM    8  C   UNL     1      -8.033   8.312  65.862  1.00  0.00    -0.097 A  
HETATM    9  C   UNL     1      -9.490  10.006  64.894  1.00  0.00    -0.355 A  
HETATM   10  N   UNL     1      -9.372   8.568  68.296  1.00  0.00    -0.138 NA 
HETATM   11  C   UNL     1      -8.321   7.730  68.140  1.00  0.00    -0.124 A  
HETATM   12  C   UNL     1      -9.099   9.219  65.989  1.00  0.00    -0.235 A  
BRANCH   5  13
HETATM   13  N   UNL     1     -11.583  10.302  68.548  1.00  0.00    -0.606 NA 
HETATM   14  H   UNL     1     -12.505   9.865  68.575  1.00  0.00     0.000 HD 
BRANCH  13  15
HETATM   15  C   UNL     1     -11.060  10.974  69.740  1.00  0.00    -0.235 C  
HETATM   16  C   UNL     1     -11.974  12.156  70.082  1.00  0.00    -0.394 C  
BRANCH  15  17
HETATM   17  C   UNL     1     -11.037  10.002  70.938  1.00  0.00    -0.385 C  
BRANCH  17  18
HETATM   18  C   UNL     1     -12.202   9.003  70.989  1.00  0.00    -0.275 C  
BRANCH  18  19
HETATM   19  C   UNL     1     -11.835   7.583  71.422  1.00  0.00    -0.294 C  
HETATM   20  H1  UNL     1     -11.910   6.385  73.112  1.00  0.00     0.000 HD 
HETATM   21  N   UNL     1     -12.155   7.332  72.823  1.00  0.00    -0.519 NA 
HETATM   22  H2  UNL     1     -13.135   7.535  73.020  1.00  0.00     0.000 HD 
ENDBRANCH  18  19
ENDBRANCH  17  18
ENDBRANCH  15  17
ENDBRANCH  13  15
ENDBRANCH   5  13
ENDBRANCH   2   3
TORSDOF 6
ENDMDL
MODEL      166
REMARK 921   NORMALIZED FREE ENERGY PREDICTED BY IDOCK:   -3.78 KCAL/MOL
REMARK 922        TOTAL FREE ENERGY PREDICTED BY IDOCK:   -5.58 KCAL/MOL
REMARK 923 INTER-LIGAND FREE ENERGY PREDICTED BY IDOCK:   -5.30 KCAL/MOL
REMARK 924 INTRA-LIGAND FREE ENERGY PREDICTED BY IDOCK:   -0.28 KCAL/MOL
REMARK 927      BINDING AFFINITY PREDICTED BY RF-SCORE:    0.00 PKD
ROOT
HETATM    1  C   UNL     1      -8.282   8.538  66.153  1.00  0.00    -0.115 C  
HETATM    2  O   UNL     1      -7.986   9.875  66.532  1.00  0.00    -0.108 OA 
ENDROOT
BRANCH   2   3
HETATM    3  C   UNL     1      -8.828  10.853  66.079  1.00  0.00    -0.188 A  
HETATM    4  C   UNL     1      -8.776  12.039  66.806  1.00  0.00    -0.192 A  
HETATM    5  C   UNL     1      -9.546  13.158  66.453  1.00  0.00    -0.255 A  
HETATM    6  C   UNL     1     -12.282  12.782  63.302  1.00  0.00    -0.500 A  
HETATM    7  C   UNL     1     -10.460  13.062  65.374  1.00  0.00    -0.296 A  
HETATM    8  C   UNL     1     -11.437  11.725  63.600  1.00  0.00    -0.524 A  
HETATM    9  C   UNL     1      -9.688  10.760  64.993  1.00  0.00    -0.323 A  
HETATM   10  N   UNL     1     -11.270  14.099  65.055  1.00  0.00    -0.339 NA 
HETATM   11  C   UNL     1     -12.161  13.935  64.050  1.00  0.00    -0.369 A  
HETATM   12  C   UNL     1     -10.520  11.841  64.659  1.00  0.00    -0.347 A  
BRANCH   5  13
HETATM   13  N   UNL     1      -9.363  14.396  67.113  1.00  0.00    -0.211 NA 
HETATM   14  H   UNL     1      -9.753  14.538  68.045  1.00  0.00     0.000 HD 
BRANCH  13  15
HETATM   15  C   UNL     1      -8.615  15.476  66.463  1.00  0.00    -0.285 C  
HETATM   16  C   UNL     1      -9.520  16.709  66.358  1.00  0.00    -0.305 C  
BRANCH  15  17
HETATM   17  C   UNL     1      -7.370  15.843  67.297  1.00  0.00    -0.251 C  
BRANCH  17  18
HETATM   18  C   UNL     1      -6.708  14.669  68.033  1.00  0.00    -0.152 C  
BRANCH  18  19
HETATM   19  C   UNL     1      -6.871  14.667  69.553  1.00  0.00    -0.165 C  
HETATM   20  H1  UNL     1      -6.664  13.368  71.155  1.00  0.00     0.000 HD 
HETATM   21  N   UNL     1      -6.556  13.370  70.141  1.00  0.00    -0.371 NA 
HETATM   22  H2  UNL     1      -5.623  13.059  69.870  1.00  0.00     0.000 HD 
ENDBRANCH  18  19
ENDBRANCH  17  18
ENDBRANCH  15  17
ENDBRANCH  13  15
ENDBRANCH   5  13
ENDBRANCH   2   3
TORSDOF 6
ENDMDL
MODEL      167
REMARK 921   NORMALIZED FREE ENERGY PREDICTED BY IDOCK:   -3.78 KCAL/MOL
REMARK 922        TOTAL FREE ENERGY PREDICTED BY IDOCK:   -5.58 KCAL/MOL
REMARK 923 INTER-LIGAND FREE ENERGY PREDICTED BY IDOCK:   -4.91 KCAL/MOL
REMARK 924 INTRA-LIGAND FREE ENERGY PREDICTED BY IDOCK:   -0.66 KCAL/MOL
REMARK 927      BINDING AFFINITY PREDICTED BY RF-SCORE:    0.00 PKD
ROOT
HETATM    1  C   UNL     1     -13.395   9.973  72.076  1.00  0.00    -0.409 C  
HETATM    2  O   UNL     1     -12.460   8.920  72.268  1.00  0.00    -0.372 OA 
ENDROOT
BRANCH   2   3
HETATM    3  C   UNL     1     -11.788   8.473  71.165  1.00  0.00    -0.284 A  
HETATM    4  C   UNL     1     -11.491   9.462  70.231  1.00  0.00    -0.223 A  
HETATM    5  C   UNL     1     -10.772   9.183  69.060  1.00  0.00    -0.153 A  
HETATM    6  C   UNL     1      -9.762   5.200  68.241  1.00  0.00    -0.191 A  
HETATM    7  C   UNL     1     -10.397   7.846  68.774  1.00  0.00    -0.203 A  
HETATM    8  C   UNL     1     -10.380   5.513  69.441  1.00  0.00    -0.348 A  
HETATM    9  C   UNL     1     -11.389   7.166  70.918  1.00  0.00    -0.319 A  
HETATM   10  N   UNL     1      -9.767   7.533  67.617  1.00  0.00    -0.142 NA 
HETATM   11  C   UNL     1      -9.480   6.233  67.372  1.00  0.00    -0.115 A  
HETATM   12  C   UNL     1     -10.726   6.846  69.722  1.00  0.00    -0.276 A  
BRANCH   5  13
HETATM   13  N   UNL     1     -10.353  10.229  68.204  1.00  0.00    -0.167 NA 
HETATM   14  H   UNL     1     -10.531  10.168  67.201  1.00  0.00     0.000 HD 
BRANCH  13  15
HETATM   15  C   UNL     1      -9.665  11.401  68.753  1.00  0.00    -0.145 C  
HETATM   16  C   UNL     1      -8.161  11.254  68.500  1.00  0.00    -0.148 C  
BRANCH  15  17
HETATM   17  C   UNL     1     -10.161  12.687  68.059  1.00  0.00    -0.230 C  
BRANCH  17  18
HETATM   18  C   UNL     1     -11.608  13.087  68.384  1.00  0.00    -0.370 C  
BRANCH  18  19
HETATM   19  C   UNL     1     -12.005  12.983  69.857  1.00  0.00    -0.311 C  
HETATM   20  H1  UNL     1     -11.915  14.113  71.593  1.00  0.00     0.000 HD 
HETATM   21  N   UNL     1     -11.650  14.181  70.611  1.00  0.00    -0.507 NA 
HETATM   22  H2  UNL     1     -12.044  15.018  70.181  1.00  0.00     0.000 HD 
ENDBRANCH  18  19
ENDBRANCH  17  18
ENDBRANCH  15  17
ENDBRANCH  13  15
ENDBRANCH   5  13
ENDBRANCH   2   3
TORSDOF 6
ENDMDL
MODEL      168
REMARK 921   NORMALIZED FREE ENERGY PREDICTED BY IDOCK:   -3.78 KCAL/MOL
REMARK 922        TOTAL FREE ENERGY PREDICTED BY IDOCK:   -5.57 KCAL/MOL
REMARK 923 INTER-LIGAND FREE ENERGY PREDICTED BY IDOCK:   -5.35 KCAL/MOL
REMARK 924 INTRA-LIGAND FREE ENERGY PREDICTED BY IDOCK:   -0.22 KCAL/MOL
REMARK 927      BINDING AFFINITY PREDICTED BY RF-SCORE:    0.00 PKD
ROOT
HETATM    1  C   UNL     1      -7.137  11.087  68.997  1.00  0.00    -0.106 C  
HETATM    2  O   UNL     1      -7.461  11.277  67.626  1.00  0.00    -0.094 OA 
ENDROOT
BRANCH   2   3
HETATM    3  C   UNL     1      -8.632  11.923  67.346  1.00  0.00    -0.164 A  
HETATM    4  C   UNL     1      -9.248  12.505  68.451  1.00  0.00    -0.139 A  
HETATM    5  C   UNL     1     -10.437  13.241  68.334  1.00  0.00    -0.253 A  
HETATM    6  C   UNL     1     -12.313  13.418  64.592  1.00  0.00    -0.433 A  
HETATM    7  C   UNL     1     -11.077  13.336  67.072  1.00  0.00    -0.282 A  
HETATM    8  C   UNL     1     -11.085  12.786  64.709  1.00  0.00    -0.333 A  
HETATM    9  C   UNL     1      -9.226  12.045  66.097  1.00  0.00    -0.181 A  
HETATM   10  N   UNL     1     -12.263  13.975  66.941  1.00  0.00    -0.426 NA 
HETATM   11  C   UNL     1     -12.855  13.990  65.724  1.00  0.00    -0.377 A  
HETATM   12  C   UNL     1     -10.451  12.718  65.961  1.00  0.00    -0.291 A  
BRANCH   5  13
HETATM   13  N   UNL     1     -10.959  13.948  69.443  1.00  0.00    -0.407 NA 
HETATM   14  H   UNL     1     -11.279  13.437  70.266  1.00  0.00     0.000 HD 
BRANCH  13  15
HETATM   15  C   UNL     1     -11.042  15.411  69.414  1.00  0.00    -0.282 C  
HETATM   16  C   UNL     1     -11.607  15.899  70.753  1.00  0.00    -0.441 C  
BRANCH  15  17
HETATM   17  C   UNL     1      -9.640  16.023  69.213  1.00  0.00    -0.255 C  
BRANCH  17  18
HETATM   18  C   UNL     1      -9.626  17.440  68.621  1.00  0.00    -0.295 C  
BRANCH  18  19
HETATM   19  C   UNL     1      -8.315  17.864  67.957  1.00  0.00    -0.258 C  
HETATM   20  H1  UNL     1      -6.793  19.245  68.223  1.00  0.00     0.000 HD 
HETATM   21  N   UNL     1      -7.667  18.962  68.665  1.00  0.00    -0.331 NA 
HETATM   22  H2  UNL     1      -7.524  18.733  69.649  1.00  0.00     0.000 HD 
ENDBRANCH  18  19
ENDBRANCH  17  18
ENDBRANCH  15  17
ENDBRANCH  13  15
ENDBRANCH   5  13
ENDBRANCH   2   3
TORSDOF 6
ENDMDL
MODEL      169
REMARK 921   NORMALIZED FREE ENERGY PREDICTED BY IDOCK:   -3.75 KCAL/MOL
REMARK 922        TOTAL FREE ENERGY PREDICTED BY IDOCK:   -5.53 KCAL/MOL
REMARK 923 INTER-LIGAND FREE ENERGY PREDICTED BY IDOCK:   -5.31 KCAL/MOL
REMARK 924 INTRA-LIGAND FREE ENERGY PREDICTED BY IDOCK:   -0.23 KCAL/MOL
REMARK 927      BINDING AFFINITY PREDICTED BY RF-SCORE:    0.00 PKD
ROOT
HETATM    1  C   UNL     1      -8.770   9.365  64.301  1.00  0.00    -0.197 C  
HETATM    2  O   UNL     1      -8.643   8.205  65.112  1.00  0.00    -0.147 OA 
ENDROOT
BRANCH   2   3
HETATM    3  C   UNL     1      -9.174   8.261  66.370  1.00  0.00    -0.195 A  
HETATM    4  C   UNL     1     -10.077   9.303  66.567  1.00  0.00    -0.343 A  
HETATM    5  C   UNL     1     -10.744   9.483  67.789  1.00  0.00    -0.242 A  
HETATM    6  C   UNL     1      -9.748   6.975  70.994  1.00  0.00    -0.175 A  
HETATM    7  C   UNL     1     -10.442   8.630  68.880  1.00  0.00    -0.192 A  
HETATM    8  C   UNL     1      -9.179   6.750  69.751  1.00  0.00    -0.146 A  
HETATM    9  C   UNL     1      -8.902   7.392  67.418  1.00  0.00    -0.123 A  
HETATM   10  N   UNL     1     -11.014   8.824  70.092  1.00  0.00    -0.238 NA 
HETATM   11  C   UNL     1     -10.649   8.013  71.113  1.00  0.00    -0.203 A  
HETATM   12  C   UNL     1      -9.505   7.589  68.672  1.00  0.00    -0.146 A  
BRANCH   5  13
HETATM   13  N   UNL     1     -11.766  10.454  67.916  1.00  0.00    -0.680 NA 
HETATM   14  H   UNL     1     -12.729  10.159  68.080  1.00  0.00     0.000 HD 
BRANCH  13  15
HETATM   15  C   UNL     1     -11.447  11.880  67.811  1.00  0.00    -0.319 C  
HETATM   16  C   UNL     1      -9.972  12.084  68.175  1.00  0.00    -0.203 C  
BRANCH  15  17
HETATM   17  C   UNL     1     -11.676  12.377  66.369  1.00  0.00    -0.453 C  
BRANCH  17  18
HETATM   18  C   UNL     1     -10.398  12.667  65.568  1.00  0.00    -0.305 C  
BRANCH  18  19
HETATM   19  C   UNL     1     -10.604  12.956  64.080  1.00  0.00    -0.416 C  
HETATM   20  H1  UNL     1     -11.772  12.301  62.498  1.00  0.00     0.000 HD 
HETATM   21  N   UNL     1     -11.634  12.108  63.490  1.00  0.00    -0.583 NA 
HETATM   22  H2  UNL     1     -12.512  12.182  64.005  1.00  0.00     0.000 HD 
ENDBRANCH  18  19
ENDBRANCH  17  18
ENDBRANCH  15  17
ENDBRANCH  13  15
ENDBRANCH   5  13
ENDBRANCH   2   3
TORSDOF 6
ENDMDL
MODEL      170
REMARK 921   NORMALIZED FREE ENERGY PREDICTED BY IDOCK:   -3.74 KCAL/MOL
REMARK 922        TOTAL FREE ENERGY PREDICTED BY IDOCK:   -5.53 KCAL/MOL
REMARK 923 INTER-LIGAND FREE ENERGY PREDICTED BY IDOCK:   -4.68 KCAL/MOL
REMARK 924 INTRA-LIGAND FREE ENERGY PREDICTED BY IDOCK:   -0.85 KCAL/MOL
REMARK 927      BINDING AFFINITY PREDICTED BY RF-SCORE:    0.00 PKD
ROOT
HETATM    1  C   UNL     1     -14.094   8.532  71.743  1.00  0.00    -0.444 C  
HETATM    2  O   UNL     1     -12.729   8.565  71.351  1.00  0.00    -0.312 OA 
ENDROOT
BRANCH   2   3
HETATM    3  C   UNL     1     -12.030   7.393  71.423  1.00  0.00    -0.310 A  
HETATM    4  C   UNL     1     -11.534   6.941  70.203  1.00  0.00    -0.354 A  
HETATM    5  C   UNL     1     -10.761   5.774  70.104  1.00  0.00    -0.320 A  
HETATM    6  C   UNL     1     -10.202   3.454  73.547  1.00  0.00    -0.212 A  
HETATM    7  C   UNL     1     -10.537   4.986  71.261  1.00  0.00    -0.081 A  
HETATM    8  C   UNL     1     -10.872   4.663  73.642  1.00  0.00    -0.375 A  
HETATM    9  C   UNL     1     -11.782   6.652  72.572  1.00  0.00    -0.200 A  
HETATM   10  N   UNL     1      -9.859   3.817  71.184  1.00  0.00    -0.172 NA 
HETATM   11  C   UNL     1      -9.720   3.079  72.310  1.00  0.00    -0.154 A  
HETATM   12  C   UNL     1     -11.068   5.445  72.491  1.00  0.00    -0.310 A  
BRANCH   5  13
HETATM   13  N   UNL     1     -10.144   5.421  68.881  1.00  0.00    -0.183 NA 
HETATM   14  H   UNL     1     -10.224   4.466  68.528  1.00  0.00     0.000 HD 
BRANCH  13  15
HETATM   15  C   UNL     1      -9.390   6.419  68.118  1.00  0.00    -0.108 C  
HETATM   16  C   UNL     1      -7.894   6.114  68.249  1.00  0.00    -0.104 C  
BRANCH  15  17
HETATM   17  C   UNL     1      -9.781   6.361  66.626  1.00  0.00    -0.197 C  
BRANCH  17  18
HETATM   18  C   UNL     1     -10.616   5.139  66.218  1.00  0.00    -0.325 C  
BRANCH  18  19
HETATM   19  C   UNL     1      -9.821   3.938  65.705  1.00  0.00    -0.136 C  
HETATM   20  H1  UNL     1      -8.951   2.202  66.431  1.00  0.00     0.000 HD 
HETATM   21  N   UNL     1      -9.482   3.003  66.773  1.00  0.00    -0.386 NA 
HETATM   22  H2  UNL     1     -10.315   2.704  67.279  1.00  0.00     0.000 HD 
ENDBRANCH  18  19
ENDBRANCH  17  18
ENDBRANCH  15  17
ENDBRANCH  13  15
ENDBRANCH   5  13
ENDBRANCH   2   3
TORSDOF 6
ENDMDL
MODEL      171
REMARK 921   NORMALIZED FREE ENERGY PREDICTED BY IDOCK:   -3.74 KCAL/MOL
REMARK 922        TOTAL FREE ENERGY PREDICTED BY IDOCK:   -5.53 KCAL/MOL
REMARK 923 INTER-LIGAND FREE ENERGY PREDICTED BY IDOCK:   -5.35 KCAL/MOL
REMARK 924 INTRA-LIGAND FREE ENERGY PREDICTED BY IDOCK:   -0.18 KCAL/MOL
REMARK 927      BINDING AFFINITY PREDICTED BY RF-SCORE:    0.00 PKD
ROOT
HETATM    1  C   UNL     1     -12.593  13.451  70.926  1.00  0.00    -0.327 C  
HETATM    2  O   UNL     1     -12.391  14.313  69.815  1.00  0.00    -0.328 OA 
ENDROOT
BRANCH   2   3
HETATM    3  C   UNL     1     -11.121  14.404  69.318  1.00  0.00    -0.271 A  
HETATM    4  C   UNL     1     -10.662  13.246  68.696  1.00  0.00    -0.281 A  
HETATM    5  C   UNL     1      -9.394  13.180  68.098  1.00  0.00    -0.217 A  
HETATM    6  C   UNL     1      -6.838  16.478  68.470  1.00  0.00    -0.151 A  
HETATM    7  C   UNL     1      -8.522  14.293  68.189  1.00  0.00    -0.167 A  
HETATM    8  C   UNL     1      -8.131  16.559  68.963  1.00  0.00    -0.214 A  
HETATM    9  C   UNL     1     -10.292  15.516  69.377  1.00  0.00    -0.258 A  
HETATM   10  N   UNL     1      -7.266  14.234  67.686  1.00  0.00    -0.173 NA 
HETATM   11  C   UNL     1      -6.457  15.307  67.848  1.00  0.00    -0.156 A  
HETATM   12  C   UNL     1      -8.993  15.456  68.845  1.00  0.00    -0.208 A  
BRANCH   5  13
HETATM   13  N   UNL     1      -9.013  12.045  67.342  1.00  0.00    -0.170 NA 
HETATM   14  H   UNL     1      -8.275  11.431  67.687  1.00  0.00     0.000 HD 
BRANCH  13  15
HETATM   15  C   UNL     1      -9.673  11.750  66.068  1.00  0.00    -0.232 C  
HETATM   16  C   UNL     1     -10.535  10.494  66.238  1.00  0.00    -0.250 C  
BRANCH  15  17
HETATM   17  C   UNL     1     -10.582  12.924  65.650  1.00  0.00    -0.295 C  
BRANCH  17  18
HETATM   18  C   UNL     1     -11.944  12.519  65.066  1.00  0.00    -0.478 C  
BRANCH  18  19
HETATM   19  C   UNL     1     -12.879  13.676  64.711  1.00  0.00    -0.123 C  
HETATM   20  H1  UNL     1     -12.898  15.373  63.521  1.00  0.00     0.000 HD 
HETATM   21  N   UNL     1     -12.275  14.602  63.759  1.00  0.00    -1.048 NA 
HETATM   22  H2  UNL     1     -11.956  14.114  62.921  1.00  0.00     0.000 HD 
ENDBRANCH  18  19
ENDBRANCH  17  18
ENDBRANCH  15  17
ENDBRANCH  13  15
ENDBRANCH   5  13
ENDBRANCH   2   3
TORSDOF 6
ENDMDL
MODEL      172
REMARK 921   NORMALIZED FREE ENERGY PREDICTED BY IDOCK:   -3.73 KCAL/MOL
REMARK 922        TOTAL FREE ENERGY PREDICTED BY IDOCK:   -5.51 KCAL/MOL
REMARK 923 INTER-LIGAND FREE ENERGY PREDICTED BY IDOCK:   -5.21 KCAL/MOL
REMARK 924 INTRA-LIGAND FREE ENERGY PREDICTED BY IDOCK:   -0.30 KCAL/MOL
REMARK 927      BINDING AFFINITY PREDICTED BY RF-SCORE:    0.00 PKD
ROOT
HETATM    1  C   UNL     1      -8.490   5.400  69.877  1.00  0.00    -0.103 C  
HETATM    2  O   UNL     1      -9.842   5.575  69.476  1.00  0.00    -0.160 OA 
ENDROOT
BRANCH   2   3
HETATM    3  C   UNL     1     -10.498   6.674  69.957  1.00  0.00    -0.212 A  
HETATM    4  C   UNL     1      -9.833   7.879  69.748  1.00  0.00    -0.179 A  
HETATM    5  C   UNL     1     -10.384   9.107  70.144  1.00  0.00    -0.213 A  
HETATM    6  C   UNL     1     -13.995   9.082  72.269  1.00  0.00    -0.522 A  
HETATM    7  C   UNL     1     -11.617   9.125  70.842  1.00  0.00    -0.291 A  
HETATM    8  C   UNL     1     -13.485   7.891  71.778  1.00  0.00    -0.379 A  
HETATM    9  C   UNL     1     -11.728   6.681  70.601  1.00  0.00    -0.452 A  
HETATM   10  N   UNL     1     -12.138  10.287  71.302  1.00  0.00    -0.377 NA 
HETATM   11  C   UNL     1     -13.292  10.240  72.008  1.00  0.00    -0.361 A  
HETATM   12  C   UNL     1     -12.272   7.890  71.068  1.00  0.00    -0.214 A  
BRANCH   5  13
HETATM   13  N   UNL     1      -9.759  10.326  69.786  1.00  0.00    -0.393 NA 
HETATM   14  H   UNL     1      -9.291  10.885  70.500  1.00  0.00     0.000 HD 
BRANCH  13  15
HETATM   15  C   UNL     1      -9.781  10.787  68.395  1.00  0.00    -0.174 C  
HETATM   16  C   UNL     1     -11.199  10.610  67.840  1.00  0.00    -0.376 C  
BRANCH  15  17
HETATM   17  C   UNL     1      -9.401  12.280  68.320  1.00  0.00    -0.199 C  
BRANCH  17  18
HETATM   18  C   UNL     1      -8.040  12.575  67.671  1.00  0.00    -0.171 C  
BRANCH  18  19
HETATM   19  C   UNL     1      -7.230  13.697  68.321  1.00  0.00    -0.111 C  
HETATM   20  H1  UNL     1      -5.793  15.100  67.806  1.00  0.00     0.000 HD 
HETATM   21  N   UNL     1      -6.333  14.351  67.373  1.00  0.00    -0.326 NA 
HETATM   22  H2  UNL     1      -6.843  14.689  66.557  1.00  0.00     0.000 HD 
ENDBRANCH  18  19
ENDBRANCH  17  18
ENDBRANCH  15  17
ENDBRANCH  13  15
ENDBRANCH   5  13
ENDBRANCH   2   3
TORSDOF 6
ENDMDL
MODEL      173
REMARK 921   NORMALIZED FREE ENERGY PREDICTED BY IDOCK:   -3.73 KCAL/MOL
REMARK 922        TOTAL FREE ENERGY PREDICTED BY IDOCK:   -5.50 KCAL/MOL
REMARK 923 INTER-LIGAND FREE ENERGY PREDICTED BY IDOCK:   -4.87 KCAL/MOL
REMARK 924 INTRA-LIGAND FREE ENERGY PREDICTED BY IDOCK:   -0.64 KCAL/MOL
REMARK 927      BINDING AFFINITY PREDICTED BY RF-SCORE:    0.00 PKD
ROOT
HETATM    1  C   UNL     1      -7.197   7.944  73.878  1.00  0.00    -0.135 C  
HETATM    2  O   UNL     1      -7.297   7.920  72.461  1.00  0.00    -0.079 OA 
ENDROOT
BRANCH   2   3
HETATM    3  C   UNL     1      -8.435   8.437  71.907  1.00  0.00    -0.177 A  
HETATM    4  C   UNL     1      -8.239   9.094  70.696  1.00  0.00    -0.220 A  
HETATM    5  C   UNL     1      -9.306   9.649  69.973  1.00  0.00    -0.241 A  
HETATM    6  C   UNL     1     -13.130   9.566  71.682  1.00  0.00    -0.486 A  
HETATM    7  C   UNL     1     -10.613   9.610  70.520  1.00  0.00    -0.306 A  
HETATM    8  C   UNL     1     -12.081   8.933  72.329  1.00  0.00    -0.392 A  
HETATM    9  C   UNL     1      -9.717   8.354  72.434  1.00  0.00    -0.376 A  
HETATM   10  N   UNL     1     -11.650  10.202  69.882  1.00  0.00    -0.245 NA 
HETATM   11  C   UNL     1     -12.867  10.180  70.475  1.00  0.00    -0.180 A  
HETATM   12  C   UNL     1     -10.794   8.959  71.765  1.00  0.00    -0.436 A  
BRANCH   5  13
HETATM   13  N   UNL     1      -9.101  10.176  68.676  1.00  0.00    -0.137 NA 
HETATM   14  H   UNL     1      -9.068   9.548  67.872  1.00  0.00     0.000 HD 
BRANCH  13  15
HETATM   15  C   UNL     1      -8.935  11.619  68.482  1.00  0.00    -0.138 C  
HETATM   16  C   UNL     1      -7.438  11.939  68.417  1.00  0.00    -0.102 C  
BRANCH  15  17
HETATM   17  C   UNL     1      -9.595  12.061  67.159  1.00  0.00    -0.195 C  
BRANCH  17  18
HETATM   18  C   UNL     1     -10.637  11.086  66.592  1.00  0.00    -0.315 C  
BRANCH  18  19
HETATM   19  C   UNL     1     -10.174  10.249  65.398  1.00  0.00    -0.242 C  
HETATM   20  H1  UNL     1      -9.575   8.310  64.976  1.00  0.00     0.000 HD 
HETATM   21  N   UNL     1      -9.883   8.869  65.771  1.00  0.00    -0.465 NA 
HETATM   22  H2  UNL     1     -10.681   8.436  66.237  1.00  0.00     0.000 HD 
ENDBRANCH  18  19
ENDBRANCH  17  18
ENDBRANCH  15  17
ENDBRANCH  13  15
ENDBRANCH   5  13
ENDBRANCH   2   3
TORSDOF 6
ENDMDL
MODEL      174
REMARK 921   NORMALIZED FREE ENERGY PREDICTED BY IDOCK:   -3.72 KCAL/MOL
REMARK 922        TOTAL FREE ENERGY PREDICTED BY IDOCK:   -5.50 KCAL/MOL
REMARK 923 INTER-LIGAND FREE ENERGY PREDICTED BY IDOCK:   -5.25 KCAL/MOL
REMARK 924 INTRA-LIGAND FREE ENERGY PREDICTED BY IDOCK:   -0.24 KCAL/MOL
REMARK 927      BINDING AFFINITY PREDICTED BY RF-SCORE:    0.00 PKD
ROOT
HETATM    1  C   UNL     1     -11.378   7.641  72.562  1.00  0.00    -0.355 C  
HETATM    2  O   UNL     1     -12.470   8.542  72.450  1.00  0.00    -0.373 OA 
ENDROOT
BRANCH   2   3
HETATM    3  C   UNL     1     -12.284   9.656  71.680  1.00  0.00    -0.402 A  
HETATM    4  C   UNL     1     -11.493   9.451  70.552  1.00  0.00    -0.317 A  
HETATM    5  C   UNL     1     -11.234  10.479  69.633  1.00  0.00    -0.282 A  
HETATM    6  C   UNL     1     -12.651  14.327  70.490  1.00  0.00    -0.418 A  
HETATM    7  C   UNL     1     -11.725  11.783  69.889  1.00  0.00    -0.323 A  
HETATM    8  C   UNL     1     -12.983  13.276  71.330  1.00  0.00    -0.398 A  
HETATM    9  C   UNL     1     -12.807  10.920  71.920  1.00  0.00    -0.432 A  
HETATM   10  N   UNL     1     -11.430  12.812  69.060  1.00  0.00    -0.290 NA 
HETATM   11  C   UNL     1     -11.880  14.047  69.381  1.00  0.00    -0.333 A  
HETATM   12  C   UNL     1     -12.508  11.983  71.052  1.00  0.00    -0.376 A  
BRANCH   5  13
HETATM   13  N   UNL     1     -10.556  10.207  68.421  1.00  0.00    -0.204 NA 
HETATM   14  H   UNL     1     -11.032  10.347  67.530  1.00  0.00     0.000 HD 
BRANCH  13  15
HETATM   15  C   UNL     1      -9.172   9.725  68.440  1.00  0.00    -0.130 C  
HETATM   16  C   UNL     1      -8.408  10.464  69.544  1.00  0.00    -0.126 C  
BRANCH  15  17
HETATM   17  C   UNL     1      -9.136   8.211  68.739  1.00  0.00    -0.144 C  
BRANCH  17  18
HETATM   18  C   UNL     1      -8.186   7.793  69.872  1.00  0.00    -0.125 C  
BRANCH  18  19
HETATM   19  C   UNL     1      -8.401   6.383  70.423  1.00  0.00    -0.126 C  
HETATM   20  H1  UNL     1      -7.828   5.225  72.044  1.00  0.00     0.000 HD 
HETATM   21  N   UNL     1      -7.686   6.165  71.676  1.00  0.00    -0.100 NA 
HETATM   22  H2  UNL     1      -7.931   6.873  72.369  1.00  0.00     0.000 HD 
ENDBRANCH  18  19
ENDBRANCH  17  18
ENDBRANCH  15  17
ENDBRANCH  13  15
ENDBRANCH   5  13
ENDBRANCH   2   3
TORSDOF 6
ENDMDL
MODEL      175
REMARK 921   NORMALIZED FREE ENERGY PREDICTED BY IDOCK:   -3.71 KCAL/MOL
REMARK 922        TOTAL FREE ENERGY PREDICTED BY IDOCK:   -5.48 KCAL/MOL
REMARK 923 INTER-LIGAND FREE ENERGY PREDICTED BY IDOCK:   -4.81 KCAL/MOL
REMARK 924 INTRA-LIGAND FREE ENERGY PREDICTED BY IDOCK:   -0.67 KCAL/MOL
REMARK 927      BINDING AFFINITY PREDICTED BY RF-SCORE:    0.00 PKD
ROOT
HETATM    1  C   UNL     1      -9.291   6.726  69.018  1.00  0.00    -0.134 C  
HETATM    2  O   UNL     1     -10.478   6.992  69.754  1.00  0.00    -0.205 OA 
ENDROOT
BRANCH   2   3
HETATM    3  C   UNL     1     -10.906   8.290  69.799  1.00  0.00    -0.185 A  
HETATM    4  C   UNL     1     -10.581   9.043  68.674  1.00  0.00    -0.194 A  
HETATM    5  C   UNL     1     -10.978  10.382  68.539  1.00  0.00    -0.254 A  
HETATM    6  C   UNL     1     -12.940  12.214  71.757  1.00  0.00    -0.437 A  
HETATM    7  C   UNL     1     -11.666  11.016  69.605  1.00  0.00    -0.329 A  
HETATM    8  C   UNL     1     -12.631  10.865  71.826  1.00  0.00    -0.345 A  
HETATM    9  C   UNL     1     -11.617   8.886  70.832  1.00  0.00    -0.331 A  
HETATM   10  N   UNL     1     -11.997  12.327  69.536  1.00  0.00    -0.295 NA 
HETATM   11  C   UNL     1     -12.605  12.894  70.603  1.00  0.00    -0.177 A  
HETATM   12  C   UNL     1     -11.969  10.244  70.753  1.00  0.00    -0.456 A  
BRANCH   5  13
HETATM   13  N   UNL     1     -10.767  11.078  67.325  1.00  0.00    -0.249 NA 
HETATM   14  H   UNL     1     -11.551  11.535  66.859  1.00  0.00     0.000 HD 
BRANCH  13  15
HETATM   15  C   UNL     1      -9.427  11.145  66.735  1.00  0.00    -0.184 C  
HETATM   16  C   UNL     1      -9.542  11.702  65.312  1.00  0.00    -0.220 C  
BRANCH  15  17
HETATM   17  C   UNL     1      -8.523  12.081  67.564  1.00  0.00    -0.165 C  
BRANCH  17  18
HETATM   18  C   UNL     1      -7.123  11.530  67.873  1.00  0.00    -0.076 C  
BRANCH  18  19
HETATM   19  C   UNL     1      -6.003  12.023  66.955  1.00  0.00    -0.135 C  
HETATM   20  H1  UNL     1      -5.165  11.568  65.115  1.00  0.00     0.000 HD 
HETATM   21  N   UNL     1      -5.911  11.240  65.727  1.00  0.00    -0.442 NA 
HETATM   22  H2  UNL     1      -6.805  11.216  65.237  1.00  0.00     0.000 HD 
ENDBRANCH  18  19
ENDBRANCH  17  18
ENDBRANCH  15  17
ENDBRANCH  13  15
ENDBRANCH   5  13
ENDBRANCH   2   3
TORSDOF 6
ENDMDL
MODEL      176
REMARK 921   NORMALIZED FREE ENERGY PREDICTED BY IDOCK:   -3.71 KCAL/MOL
REMARK 922        TOTAL FREE ENERGY PREDICTED BY IDOCK:   -5.48 KCAL/MOL
REMARK 923 INTER-LIGAND FREE ENERGY PREDICTED BY IDOCK:   -4.70 KCAL/MOL
REMARK 924 INTRA-LIGAND FREE ENERGY PREDICTED BY IDOCK:   -0.78 KCAL/MOL
REMARK 927      BINDING AFFINITY PREDICTED BY RF-SCORE:    0.00 PKD
ROOT
HETATM    1  C   UNL     1      -6.948  18.407  65.528  1.00  0.00    -0.135 C  
HETATM    2  O   UNL     1      -8.196  17.806  65.842  1.00  0.00    -0.525 OA 
ENDROOT
BRANCH   2   3
HETATM    3  C   UNL     1      -8.170  16.519  66.303  1.00  0.00    -0.325 A  
HETATM    4  C   UNL     1      -9.281  15.758  65.948  1.00  0.00    -0.337 A  
HETATM    5  C   UNL     1      -9.397  14.405  66.306  1.00  0.00    -0.232 A  
HETATM    6  C   UNL     1      -6.440  12.730  68.757  1.00  0.00    -0.085 A  
HETATM    7  C   UNL     1      -8.396  13.810  67.114  1.00  0.00    -0.137 A  
HETATM    8  C   UNL     1      -6.294  14.032  68.305  1.00  0.00    -0.114 A  
HETATM    9  C   UNL     1      -7.162  15.935  67.058  1.00  0.00    -0.232 A  
HETATM   10  N   UNL     1      -8.515  12.530  67.537  1.00  0.00    -0.166 NA 
HETATM   11  C   UNL     1      -7.556  12.028  68.350  1.00  0.00    -0.128 A  
HETATM   12  C   UNL     1      -7.283  14.603  67.487  1.00  0.00    -0.216 A  
BRANCH   5  13
HETATM   13  N   UNL     1     -10.460  13.616  65.806  1.00  0.00    -0.287 NA 
HETATM   14  H   UNL     1     -10.280  12.663  65.491  1.00  0.00     0.000 HD 
BRANCH  13  15
HETATM   15  C   UNL     1     -11.818  14.163  65.738  1.00  0.00    -0.380 C  
HETATM   16  C   UNL     1     -12.489  13.659  64.455  1.00  0.00    -0.335 C  
BRANCH  15  17
HETATM   17  C   UNL     1     -12.647  13.692  66.951  1.00  0.00    -0.012 C  
BRANCH  17  18
HETATM   18  C   UNL     1     -12.018  12.555  67.769  1.00  0.00    -0.286 C  
BRANCH  18  19
HETATM   19  C   UNL     1     -11.689  12.893  69.223  1.00  0.00    -0.321 C  
HETATM   20  H1  UNL     1     -10.718  12.056  70.852  1.00  0.00     0.000 HD 
HETATM   21  N   UNL     1     -10.937  11.830  69.882  1.00  0.00    -0.443 NA 
HETATM   22  H2  UNL     1     -10.094  11.596  69.358  1.00  0.00     0.000 HD 
ENDBRANCH  18  19
ENDBRANCH  17  18
ENDBRANCH  15  17
ENDBRANCH  13  15
ENDBRANCH   5  13
ENDBRANCH   2   3
TORSDOF 6
ENDMDL
MODEL      177
REMARK 921   NORMALIZED FREE ENERGY PREDICTED BY IDOCK:   -3.70 KCAL/MOL
REMARK 922        TOTAL FREE ENERGY PREDICTED BY IDOCK:   -5.47 KCAL/MOL
REMARK 923 INTER-LIGAND FREE ENERGY PREDICTED BY IDOCK:   -5.02 KCAL/MOL
REMARK 924 INTRA-LIGAND FREE ENERGY PREDICTED BY IDOCK:   -0.44 KCAL/MOL
REMARK 927      BINDING AFFINITY PREDICTED BY RF-SCORE:    0.00 PKD
ROOT
HETATM    1  C   UNL     1     -12.329  13.157  64.523  1.00  0.00    -0.385 C  
HETATM    2  O   UNL     1     -12.328  12.488  65.777  1.00  0.00    -0.627 OA 
ENDROOT
BRANCH   2   3
HETATM    3  C   UNL     1     -11.132  12.393  66.432  1.00  0.00    -0.301 A  
HETATM    4  C   UNL     1     -10.930  11.182  67.089  1.00  0.00    -0.350 A  
HETATM    5  C   UNL     1      -9.740  10.903  67.778  1.00  0.00    -0.168 A  
HETATM    6  C   UNL     1      -6.858  13.928  68.090  1.00  0.00    -0.122 A  
HETATM    7  C   UNL     1      -8.740  11.902  67.875  1.00  0.00    -0.167 A  
HETATM    8  C   UNL     1      -7.995  14.146  67.327  1.00  0.00    -0.171 A  
HETATM    9  C   UNL     1     -10.142  13.365  66.483  1.00  0.00    -0.280 A  
HETATM   10  N   UNL     1      -7.613  11.690  68.594  1.00  0.00    -0.129 NA 
HETATM   11  C   UNL     1      -6.715  12.697  68.697  1.00  0.00    -0.088 A  
HETATM   12  C   UNL     1      -8.968  13.138  67.221  1.00  0.00    -0.216 A  
BRANCH   5  13
HETATM   13  N   UNL     1      -9.500   9.612  68.307  1.00  0.00    -0.136 NA 
HETATM   14  H   UNL     1      -8.578   9.186  68.207  1.00  0.00     0.000 HD 
BRANCH  13  15
HETATM   15  C   UNL     1     -10.569   8.886  68.999  1.00  0.00    -0.183 C  
HETATM   16  C   UNL     1     -10.485   7.404  68.617  1.00  0.00    -0.211 C  
BRANCH  15  17
HETATM   17  C   UNL     1     -10.403   9.016  70.527  1.00  0.00    -0.266 C  
BRANCH  17  18
HETATM   18  C   UNL     1     -10.933   7.829  71.344  1.00  0.00    -0.264 C  
BRANCH  18  19
HETATM   19  C   UNL     1     -11.449   8.169  72.743  1.00  0.00    -0.329 C  
HETATM   20  H1  UNL     1     -13.227   8.659  73.687  1.00  0.00     0.000 HD 
HETATM   21  N   UNL     1     -12.884   8.432  72.754  1.00  0.00    -0.629 NA 
HETATM   22  H2  UNL     1     -13.405   7.655  72.349  1.00  0.00     0.000 HD 
ENDBRANCH  18  19
ENDBRANCH  17  18
ENDBRANCH  15  17
ENDBRANCH  13  15
ENDBRANCH   5  13
ENDBRANCH   2   3
TORSDOF 6
ENDMDL
MODEL      178
REMARK 921   NORMALIZED FREE ENERGY PREDICTED BY IDOCK:   -3.69 KCAL/MOL
REMARK 922        TOTAL FREE ENERGY PREDICTED BY IDOCK:   -5.46 KCAL/MOL
REMARK 923 INTER-LIGAND FREE ENERGY PREDICTED BY IDOCK:   -5.18 KCAL/MOL
REMARK 924 INTRA-LIGAND FREE ENERGY PREDICTED BY IDOCK:   -0.28 KCAL/MOL
REMARK 927      BINDING AFFINITY PREDICTED BY RF-SCORE:    0.00 PKD
ROOT
HETATM    1  C   UNL     1      -8.601   8.351  67.213  1.00  0.00    -0.123 C  
HETATM    2  O   UNL     1      -8.123   9.646  66.876  1.00  0.00    -0.112 OA 
ENDROOT
BRANCH   2   3
HETATM    3  C   UNL     1      -9.050  10.570  66.481  1.00  0.00    -0.157 A  
HETATM    4  C   UNL     1      -9.435  11.462  67.477  1.00  0.00    -0.173 A  
HETATM    5  C   UNL     1     -10.350  12.498  67.230  1.00  0.00    -0.220 A  
HETATM    6  C   UNL     1     -12.168  12.698  63.461  1.00  0.00    -0.638 A  
HETATM    7  C   UNL     1     -10.958  12.601  65.955  1.00  0.00    -0.278 A  
HETATM    8  C   UNL     1     -11.186  11.748  63.695  1.00  0.00    -0.519 A  
HETATM    9  C   UNL     1      -9.607  10.686  65.214  1.00  0.00    -0.293 A  
HETATM   10  N   UNL     1     -11.898  13.544  65.708  1.00  0.00    -0.354 NA 
HETATM   11  C   UNL     1     -12.486  13.563  64.488  1.00  0.00    -0.291 A  
HETATM   12  C   UNL     1     -10.574  11.671  64.957  1.00  0.00    -0.342 A  
BRANCH   5  13
HETATM   13  N   UNL     1     -10.608  13.481  68.215  1.00  0.00    -0.243 NA 
HETATM   14  H   UNL     1     -11.140  13.235  69.051  1.00  0.00     0.000 HD 
BRANCH  13  15
HETATM   15  C   UNL     1     -10.115  14.850  68.041  1.00  0.00    -0.221 C  
HETATM   16  C   UNL     1      -9.772  15.429  69.418  1.00  0.00    -0.273 C  
BRANCH  15  17
HETATM   17  C   UNL     1      -8.842  14.854  67.169  1.00  0.00    -0.235 C  
BRANCH  17  18
HETATM   18  C   UNL     1      -8.871  15.823  65.978  1.00  0.00    -0.260 C  
BRANCH  18  19
HETATM   19  C   UNL     1      -8.288  17.211  66.243  1.00  0.00    -0.263 C  
HETATM   20  H1  UNL     1      -6.623  18.076  67.123  1.00  0.00     0.000 HD 
HETATM   21  N   UNL     1      -7.012  17.150  66.946  1.00  0.00    -0.189 NA 
HETATM   22  H2  UNL     1      -6.345  16.559  66.449  1.00  0.00     0.000 HD 
ENDBRANCH  18  19
ENDBRANCH  17  18
ENDBRANCH  15  17
ENDBRANCH  13  15
ENDBRANCH   5  13
ENDBRANCH   2   3
TORSDOF 6
ENDMDL
MODEL      179
REMARK 921   NORMALIZED FREE ENERGY PREDICTED BY IDOCK:   -3.69 KCAL/MOL
REMARK 922        TOTAL FREE ENERGY PREDICTED BY IDOCK:   -5.45 KCAL/MOL
REMARK 923 INTER-LIGAND FREE ENERGY PREDICTED BY IDOCK:   -5.08 KCAL/MOL
REMARK 924 INTRA-LIGAND FREE ENERGY PREDICTED BY IDOCK:   -0.37 KCAL/MOL
REMARK 927      BINDING AFFINITY PREDICTED BY RF-SCORE:    0.00 PKD
ROOT
HETATM    1  C   UNL     1      -9.672   6.204  66.459  1.00  0.00    -0.145 C  
HETATM    2  O   UNL     1      -9.345   6.617  67.779  1.00  0.00    -0.121 OA 
ENDROOT
BRANCH   2   3
HETATM    3  C   UNL     1      -9.865   7.806  68.208  1.00  0.00    -0.167 A  
HETATM    4  C   UNL     1     -10.042   7.894  69.586  1.00  0.00    -0.197 A  
HETATM    5  C   UNL     1     -10.529   9.060  70.197  1.00  0.00    -0.214 A  
HETATM    6  C   UNL     1     -11.750  12.234  67.750  1.00  0.00    -0.403 A  
HETATM    7  C   UNL     1     -10.925  10.156  69.391  1.00  0.00    -0.245 A  
HETATM    8  C   UNL     1     -11.170  11.115  67.175  1.00  0.00    -0.320 A  
HETATM    9  C   UNL     1     -10.209   8.889  67.410  1.00  0.00    -0.313 A  
HETATM   10  N   UNL     1     -11.467  11.266  69.945  1.00  0.00    -0.295 NA 
HETATM   11  C   UNL     1     -11.876  12.261  69.124  1.00  0.00    -0.301 A  
HETATM   12  C   UNL     1     -10.761  10.044  67.988  1.00  0.00    -0.303 A  
BRANCH   5  13
HETATM   13  N   UNL     1     -10.556   9.177  71.607  1.00  0.00    -0.362 NA 
HETATM   14  H   UNL     1      -9.833   9.714  72.086  1.00  0.00     0.000 HD 
BRANCH  13  15
HETATM   15  C   UNL     1     -11.618   8.529  72.382  1.00  0.00    -0.354 C  
HETATM   16  C   UNL     1     -12.672   7.981  71.414  1.00  0.00    -0.297 C  
BRANCH  15  17
HETATM   17  C   UNL     1     -11.042   7.357  73.205  1.00  0.00    -0.357 C  
BRANCH  17  18
HETATM   18  C   UNL     1     -11.212   5.969  72.571  1.00  0.00    -0.333 C  
BRANCH  18  19
HETATM   19  C   UNL     1      -9.916   5.265  72.167  1.00  0.00    -0.184 C  
HETATM   20  H1  UNL     1      -9.240   3.898  70.764  1.00  0.00     0.000 HD 
HETATM   21  N   UNL     1     -10.105   4.368  71.033  1.00  0.00    -0.166 NA 
HETATM   22  H2  UNL     1     -10.520   4.857  70.240  1.00  0.00     0.000 HD 
ENDBRANCH  18  19
ENDBRANCH  17  18
ENDBRANCH  15  17
ENDBRANCH  13  15
ENDBRANCH   5  13
ENDBRANCH   2   3
TORSDOF 6
ENDMDL
MODEL      180
REMARK 921   NORMALIZED FREE ENERGY PREDICTED BY IDOCK:   -3.68 KCAL/MOL
REMARK 922        TOTAL FREE ENERGY PREDICTED BY IDOCK:   -5.44 KCAL/MOL
REMARK 923 INTER-LIGAND FREE ENERGY PREDICTED BY IDOCK:   -4.82 KCAL/MOL
REMARK 924 INTRA-LIGAND FREE ENERGY PREDICTED BY IDOCK:   -0.61 KCAL/MOL
REMARK 927      BINDING AFFINITY PREDICTED BY RF-SCORE:    0.00 PKD
ROOT
HETATM    1  C   UNL     1     -10.727   5.447  71.822  1.00  0.00    -0.204 C  
HETATM    2  O   UNL     1     -11.636   6.451  72.252  1.00  0.00    -0.285 OA 
ENDROOT
BRANCH   2   3
HETATM    3  C   UNL     1     -11.547   7.673  71.647  1.00  0.00    -0.267 A  
HETATM    4  C   UNL     1     -10.555   7.764  70.675  1.00  0.00    -0.222 A  
HETATM    5  C   UNL     1     -10.354   8.936  69.928  1.00  0.00    -0.206 A  
HETATM    6  C   UNL     1     -12.626  12.324  70.885  1.00  0.00    -0.334 A  
HETATM    7  C   UNL     1     -11.129  10.087  70.217  1.00  0.00    -0.318 A  
HETATM    8  C   UNL     1     -12.879  11.127  71.537  1.00  0.00    -0.542 A  
HETATM    9  C   UNL     1     -12.342   8.781  71.910  1.00  0.00    -0.429 A  
HETATM   10  N   UNL     1     -10.909  11.253  69.566  1.00  0.00    -0.197 NA 
HETATM   11  C   UNL     1     -11.641  12.335  69.919  1.00  0.00    -0.203 A  
HETATM   12  C   UNL     1     -12.119   9.987  71.225  1.00  0.00    -0.487 A  
BRANCH   5  13
HETATM   13  N   UNL     1      -9.444   8.953  68.845  1.00  0.00    -0.151 NA 
HETATM   14  H   UNL     1      -8.440   8.909  69.025  1.00  0.00     0.000 HD 
BRANCH  13  15
HETATM   15  C   UNL     1      -9.935   9.035  67.467  1.00  0.00    -0.207 C  
HETATM   16  C   UNL     1      -9.142  10.114  66.724  1.00  0.00    -0.159 C  
BRANCH  15  17
HETATM   17  C   UNL     1      -9.735   7.685  66.746  1.00  0.00    -0.290 C  
BRANCH  17  18
HETATM   18  C   UNL     1      -8.272   7.277  66.520  1.00  0.00    -0.117 C  
BRANCH  18  19
HETATM   19  C   UNL     1      -7.853   5.950  67.155  1.00  0.00    -0.102 C  
HETATM   20  H1  UNL     1      -7.855   5.025  69.009  1.00  0.00     0.000 HD 
HETATM   21  N   UNL     1      -8.135   5.909  68.586  1.00  0.00    -0.102 NA 
HETATM   22  H2  UNL     1      -9.116   6.114  68.775  1.00  0.00     0.000 HD 
ENDBRANCH  18  19
ENDBRANCH  17  18
ENDBRANCH  15  17
ENDBRANCH  13  15
ENDBRANCH   5  13
ENDBRANCH   2   3
TORSDOF 6
ENDMDL
MODEL      181
REMARK 921   NORMALIZED FREE ENERGY PREDICTED BY IDOCK:   -3.67 KCAL/MOL
REMARK 922        TOTAL FREE ENERGY PREDICTED BY IDOCK:   -5.42 KCAL/MOL
REMARK 923 INTER-LIGAND FREE ENERGY PREDICTED BY IDOCK:   -4.96 KCAL/MOL
REMARK 924 INTRA-LIGAND FREE ENERGY PREDICTED BY IDOCK:   -0.46 KCAL/MOL
REMARK 927      BINDING AFFINITY PREDICTED BY RF-SCORE:    0.00 PKD
ROOT
HETATM    1  C   UNL     1     -11.657  15.811  68.336  1.00  0.00    -0.338 C  
HETATM    2  O   UNL     1     -12.004  14.840  67.358  1.00  0.00    -0.357 OA 
ENDROOT
BRANCH   2   3
HETATM    3  C   UNL     1     -11.588  13.557  67.578  1.00  0.00    -0.350 A  
HETATM    4  C   UNL     1     -10.869  12.996  66.526  1.00  0.00    -0.294 A  
HETATM    5  C   UNL     1     -10.335  11.700  66.602  1.00  0.00    -0.222 A  
HETATM    6  C   UNL     1     -11.200   9.381  69.983  1.00  0.00    -0.217 A  
HETATM    7  C   UNL     1     -10.593  10.906  67.747  1.00  0.00    -0.217 A  
HETATM    8  C   UNL     1     -11.628  10.698  69.932  1.00  0.00    -0.396 A  
HETATM    9  C   UNL     1     -11.812  12.805  68.724  1.00  0.00    -0.346 A  
HETATM   10  N   UNL     1     -10.155   9.627  67.819  1.00  0.00    -0.175 NA 
HETATM   11  C   UNL     1     -10.475   8.897  68.913  1.00  0.00    -0.205 A  
HETATM   12  C   UNL     1     -11.346  11.481  68.800  1.00  0.00    -0.327 A  
BRANCH   5  13
HETATM   13  N   UNL     1      -9.482  11.212  65.584  1.00  0.00    -0.216 NA 
HETATM   14  H   UNL     1      -8.477  11.374  65.643  1.00  0.00     0.000 HD 
BRANCH  13  15
HETATM   15  C   UNL     1     -10.037  10.474  64.446  1.00  0.00    -0.325 C  
HETATM   16  C   UNL     1     -10.380  11.470  63.332  1.00  0.00    -0.469 C  
BRANCH  15  17
HETATM   17  C   UNL     1      -9.003   9.463  63.907  1.00  0.00    -0.166 C  
BRANCH  17  18
HETATM   18  C   UNL     1      -8.035   8.898  64.957  1.00  0.00    -0.125 C  
BRANCH  18  19
HETATM   19  C   UNL     1      -8.430   7.550  65.560  1.00  0.00    -0.119 C  
HETATM   20  H1  UNL     1      -7.985   5.538  65.341  1.00  0.00     0.000 HD 
HETATM   21  N   UNL     1      -7.721   6.437  64.938  1.00  0.00    -0.097 NA 
HETATM   22  H2  UNL     1      -6.711   6.576  64.976  1.00  0.00     0.000 HD 
ENDBRANCH  18  19
ENDBRANCH  17  18
ENDBRANCH  15  17
ENDBRANCH  13  15
ENDBRANCH   5  13
ENDBRANCH   2   3
TORSDOF 6
ENDMDL
MODEL      182
REMARK 921   NORMALIZED FREE ENERGY PREDICTED BY IDOCK:   -3.65 KCAL/MOL
REMARK 922        TOTAL FREE ENERGY PREDICTED BY IDOCK:   -5.41 KCAL/MOL
REMARK 923 INTER-LIGAND FREE ENERGY PREDICTED BY IDOCK:   -4.88 KCAL/MOL
REMARK 924 INTRA-LIGAND FREE ENERGY PREDICTED BY IDOCK:   -0.53 KCAL/MOL
REMARK 927      BINDING AFFINITY PREDICTED BY RF-SCORE:    0.00 PKD
ROOT
HETATM    1  C   UNL     1     -11.037   6.426  71.292  1.00  0.00    -0.282 C  
HETATM    2  O   UNL     1     -11.486   6.957  70.053  1.00  0.00    -0.306 OA 
ENDROOT
BRANCH   2   3
HETATM    3  C   UNL     1     -10.846   6.530  68.923  1.00  0.00    -0.301 A  
HETATM    4  C   UNL     1     -10.660   7.517  67.959  1.00  0.00    -0.217 A  
HETATM    5  C   UNL     1      -9.987   7.258  66.755  1.00  0.00    -0.217 A  
HETATM    6  C   UNL     1      -8.779   3.327  65.950  1.00  0.00    -0.127 A  
HETATM    7  C   UNL     1      -9.546   5.941  66.472  1.00  0.00    -0.156 A  
HETATM    8  C   UNL     1      -9.352   3.627  67.176  1.00  0.00    -0.228 A  
HETATM    9  C   UNL     1     -10.381   5.245  68.677  1.00  0.00    -0.193 A  
HETATM   10  N   UNL     1      -8.960   5.643  65.289  1.00  0.00    -0.087 NA 
HETATM   11  C   UNL     1      -8.607   4.359  65.050  1.00  0.00    -0.128 A  
HETATM   12  C   UNL     1      -9.764   4.942  67.452  1.00  0.00    -0.195 A  
BRANCH   5  13
HETATM   13  N   UNL     1      -9.678   8.311  65.861  1.00  0.00    -0.456 NA 
HETATM   14  H   UNL     1      -9.996   8.264  64.892  1.00  0.00     0.000 HD 
BRANCH  13  15
HETATM   15  C   UNL     1      -8.905   9.467  66.320  1.00  0.00    -0.149 C  
HETATM   16  C   UNL     1      -7.447   9.039  66.519  1.00  0.00    -0.089 C  
BRANCH  15  17
HETATM   17  C   UNL     1      -8.952  10.596  65.269  1.00  0.00    -0.209 C  
BRANCH  17  18
HETATM   18  C   UNL     1     -10.340  10.877  64.675  1.00  0.00    -0.407 C  
BRANCH  18  19
HETATM   19  C   UNL     1     -10.346  11.494  63.276  1.00  0.00    -0.384 C  
HETATM   20  H1  UNL     1     -11.357  12.952  62.205  1.00  0.00     0.000 HD 
HETATM   21  N   UNL     1     -11.353  12.540  63.138  1.00  0.00    -0.747 NA 
HETATM   22  H2  UNL     1     -11.242  13.256  63.856  1.00  0.00     0.000 HD 
ENDBRANCH  18  19
ENDBRANCH  17  18
ENDBRANCH  15  17
ENDBRANCH  13  15
ENDBRANCH   5  13
ENDBRANCH   2   3
TORSDOF 6
ENDMDL
MODEL      183
REMARK 921   NORMALIZED FREE ENERGY PREDICTED BY IDOCK:   -3.65 KCAL/MOL
REMARK 922        TOTAL FREE ENERGY PREDICTED BY IDOCK:   -5.41 KCAL/MOL
REMARK 923 INTER-LIGAND FREE ENERGY PREDICTED BY IDOCK:   -4.83 KCAL/MOL
REMARK 924 INTRA-LIGAND FREE ENERGY PREDICTED BY IDOCK:   -0.58 KCAL/MOL
REMARK 927      BINDING AFFINITY PREDICTED BY RF-SCORE:    0.00 PKD
ROOT
HETATM    1  C   UNL     1     -13.816   9.147  71.980  1.00  0.00    -0.420 C  
HETATM    2  O   UNL     1     -12.623   8.645  72.565  1.00  0.00    -0.392 OA 
ENDROOT
BRANCH   2   3
HETATM    3  C   UNL     1     -11.505   8.620  71.778  1.00  0.00    -0.324 A  
HETATM    4  C   UNL     1     -11.345   9.743  70.970  1.00  0.00    -0.460 A  
HETATM    5  C   UNL     1     -10.231   9.898  70.129  1.00  0.00    -0.273 A  
HETATM    6  C   UNL     1      -7.488   6.744  69.852  1.00  0.00    -0.095 A  
HETATM    7  C   UNL     1      -9.277   8.854  70.039  1.00  0.00    -0.174 A  
HETATM    8  C   UNL     1      -8.537   6.656  70.753  1.00  0.00    -0.135 A  
HETATM    9  C   UNL     1     -10.554   7.610  71.730  1.00  0.00    -0.250 A  
HETATM   10  N   UNL     1      -8.231   8.942  69.183  1.00  0.00    -0.116 NA 
HETATM   11  C   UNL     1      -7.380   7.894  69.098  1.00  0.00    -0.083 A  
HETATM   12  C   UNL     1      -9.465   7.708  70.849  1.00  0.00    -0.166 A  
BRANCH   5  13
HETATM   13  N   UNL     1     -10.016  11.112  69.435  1.00  0.00    -0.428 NA 
HETATM   14  H   UNL     1      -9.493  11.866  69.880  1.00  0.00     0.000 HD 
BRANCH  13  15
HETATM   15  C   UNL     1     -10.542  11.291  68.079  1.00  0.00    -0.195 C  
HETATM   16  C   UNL     1     -11.825  12.126  68.154  1.00  0.00    -0.362 C  
BRANCH  15  17
HETATM   17  C   UNL     1      -9.516  12.035  67.200  1.00  0.00    -0.187 C  
BRANCH  17  18
HETATM   18  C   UNL     1      -8.521  12.920  67.966  1.00  0.00    -0.178 C  
BRANCH  18  19
HETATM   19  C   UNL     1      -8.878  14.405  68.034  1.00  0.00    -0.178 C  
HETATM   20  H1  UNL     1      -9.286  15.861  69.452  1.00  0.00     0.000 HD 
HETATM   21  N   UNL     1      -9.048  14.870  69.406  1.00  0.00    -0.415 NA 
HETATM   22  H2  UNL     1      -8.225  14.663  69.971  1.00  0.00     0.000 HD 
ENDBRANCH  18  19
ENDBRANCH  17  18
ENDBRANCH  15  17
ENDBRANCH  13  15
ENDBRANCH   5  13
ENDBRANCH   2   3
TORSDOF 6
ENDMDL
MODEL      184
REMARK 921   NORMALIZED FREE ENERGY PREDICTED BY IDOCK:   -3.64 KCAL/MOL
REMARK 922        TOTAL FREE ENERGY PREDICTED BY IDOCK:   -5.38 KCAL/MOL
REMARK 923 INTER-LIGAND FREE ENERGY PREDICTED BY IDOCK:   -5.43 KCAL/MOL
REMARK 924 INTRA-LIGAND FREE ENERGY PREDICTED BY IDOCK:    0.05 KCAL/MOL
REMARK 927      BINDING AFFINITY PREDICTED BY RF-SCORE:    0.00 PKD
ROOT
HETATM    1  C   UNL     1     -14.131   8.544  71.792  1.00  0.00    -0.444 C  
HETATM    2  O   UNL     1     -13.412   9.557  71.103  1.00  0.00    -0.341 OA 
ENDROOT
BRANCH   2   3
HETATM    3  C   UNL     1     -12.047   9.479  71.127  1.00  0.00    -0.347 A  
HETATM    4  C   UNL     1     -11.409  10.254  70.161  1.00  0.00    -0.388 A  
HETATM    5  C   UNL     1     -10.010  10.320  70.071  1.00  0.00    -0.071 A  
HETATM    6  C   UNL     1      -7.730   7.879  72.600  1.00  0.00    -0.145 A  
HETATM    7  C   UNL     1      -9.218   9.522  70.933  1.00  0.00    -0.055 A  
HETATM    8  C   UNL     1      -9.108   7.908  72.742  1.00  0.00    -0.272 A  
HETATM    9  C   UNL     1     -11.281   8.726  72.006  1.00  0.00    -0.443 A  
HETATM   10  N   UNL     1      -7.868   9.507  70.822  1.00  0.00    -0.296 NA 
HETATM   11  C   UNL     1      -7.164   8.687  71.636  1.00  0.00    -0.091 A  
HETATM   12  C   UNL     1      -9.881   8.721  71.895  1.00  0.00    -0.395 A  
BRANCH   5  13
HETATM   13  N   UNL     1      -9.388  11.229  69.183  1.00  0.00    -0.407 NA 
HETATM   14  H   UNL     1      -8.984  12.094  69.542  1.00  0.00     0.000 HD 
BRANCH  13  15
HETATM   15  C   UNL     1      -9.321  10.932  67.749  1.00  0.00    -0.157 C  
HETATM   16  C   UNL     1     -10.706  10.481  67.273  1.00  0.00    -0.333 C  
BRANCH  15  17
HETATM   17  C   UNL     1      -8.911  12.193  66.960  1.00  0.00    -0.203 C  
BRANCH  17  18
HETATM   18  C   UNL     1     -10.072  13.107  66.540  1.00  0.00    -0.280 C  
BRANCH  18  19
HETATM   19  C   UNL     1     -10.502  14.144  67.578  1.00  0.00    -0.249 C  
HETATM   20  H1  UNL     1     -12.226  15.088  68.236  1.00  0.00     0.000 HD 
HETATM   21  N   UNL     1     -11.939  14.396  67.544  1.00  0.00    -0.517 NA 
HETATM   22  H2  UNL     1     -12.468  13.531  67.648  1.00  0.00     0.000 HD 
ENDBRANCH  18  19
ENDBRANCH  17  18
ENDBRANCH  15  17
ENDBRANCH  13  15
ENDBRANCH   5  13
ENDBRANCH   2   3
TORSDOF 6
ENDMDL
MODEL      185
REMARK 921   NORMALIZED FREE ENERGY PREDICTED BY IDOCK:   -3.59 KCAL/MOL
REMARK 922        TOTAL FREE ENERGY PREDICTED BY IDOCK:   -5.32 KCAL/MOL
REMARK 923 INTER-LIGAND FREE ENERGY PREDICTED BY IDOCK:   -4.71 KCAL/MOL
REMARK 924 INTRA-LIGAND FREE ENERGY PREDICTED BY IDOCK:   -0.62 KCAL/MOL
REMARK 927      BINDING AFFINITY PREDICTED BY RF-SCORE:    0.00 PKD
ROOT
HETATM    1  C   UNL     1     -11.993  11.651  68.738  1.00  0.00    -0.264 C  
HETATM    2  O   UNL     1     -11.461  10.440  68.219  1.00  0.00    -0.273 OA 
ENDROOT
BRANCH   2   3
HETATM    3  C   UNL     1     -10.964   9.540  69.121  1.00  0.00    -0.125 A  
HETATM    4  C   UNL     1      -9.930   8.746  68.631  1.00  0.00    -0.197 A  
HETATM    5  C   UNL     1      -9.281   7.798  69.436  1.00  0.00    -0.149 A  
HETATM    6  C   UNL     1     -10.713   7.162  73.322  1.00  0.00    -0.403 A  
HETATM    7  C   UNL     1      -9.731   7.584  70.763  1.00  0.00    -0.174 A  
HETATM    8  C   UNL     1     -11.271   8.165  72.546  1.00  0.00    -0.459 A  
HETATM    9  C   UNL     1     -11.387   9.370  70.432  1.00  0.00    -0.295 A  
HETATM   10  N   UNL     1      -9.174   6.625  71.540  1.00  0.00    -0.147 NA 
HETATM   11  C   UNL     1      -9.679   6.427  72.780  1.00  0.00    -0.157 A  
HETATM   12  C   UNL     1     -10.800   8.382  71.240  1.00  0.00    -0.293 A  
BRANCH   5  13
HETATM   13  N   UNL     1      -8.137   7.113  68.962  1.00  0.00    -0.120 NA 
HETATM   14  H   UNL     1      -7.471   6.716  69.626  1.00  0.00     0.000 HD 
BRANCH  13  15
HETATM   15  C   UNL     1      -7.904   6.971  67.522  1.00  0.00    -0.112 C  
HETATM   16  C   UNL     1      -6.464   7.395  67.211  1.00  0.00    -0.060 C  
BRANCH  15  17
HETATM   17  C   UNL     1      -8.094   5.503  67.090  1.00  0.00    -0.101 C  
BRANCH  17  18
HETATM   18  C   UNL     1      -9.498   4.928  67.333  1.00  0.00    -0.156 C  
BRANCH  18  19
HETATM   19  C   UNL     1     -10.625   5.584  66.535  1.00  0.00    -0.279 C  
HETATM   20  H1  UNL     1     -11.939   5.123  64.999  1.00  0.00     0.000 HD 
HETATM   21  N   UNL     1     -11.187   4.686  65.531  1.00  0.00    -0.946 NA 
HETATM   22  H2  UNL     1     -11.495   3.809  65.952  1.00  0.00     0.000 HD 
ENDBRANCH  18  19
ENDBRANCH  17  18
ENDBRANCH  15  17
ENDBRANCH  13  15
ENDBRANCH   5  13
ENDBRANCH   2   3
TORSDOF 6
ENDMDL
MODEL      186
REMARK 921   NORMALIZED FREE ENERGY PREDICTED BY IDOCK:   -3.59 KCAL/MOL
REMARK 922        TOTAL FREE ENERGY PREDICTED BY IDOCK:   -5.32 KCAL/MOL
REMARK 923 INTER-LIGAND FREE ENERGY PREDICTED BY IDOCK:   -4.80 KCAL/MOL
REMARK 924 INTRA-LIGAND FREE ENERGY PREDICTED BY IDOCK:   -0.52 KCAL/MOL
REMARK 927      BINDING AFFINITY PREDICTED BY RF-SCORE:    0.00 PKD
ROOT
HETATM    1  C   UNL     1      -8.198   5.734  71.643  1.00  0.00    -0.119 C  
HETATM    2  O   UNL     1      -7.898   7.123  71.640  1.00  0.00    -0.095 OA 
ENDROOT
BRANCH   2   3
HETATM    3  C   UNL     1      -8.921   7.981  71.345  1.00  0.00    -0.141 A  
HETATM    4  C   UNL     1      -8.689   8.794  70.239  1.00  0.00    -0.170 A  
HETATM    5  C   UNL     1      -9.651   9.705  69.775  1.00  0.00    -0.219 A  
HETATM    6  C   UNL     1     -13.184  10.171  71.978  1.00  0.00    -0.534 A  
HETATM    7  C   UNL     1     -10.865   9.861  70.490  1.00  0.00    -0.326 A  
HETATM    8  C   UNL     1     -12.267   9.204  72.358  1.00  0.00    -0.263 A  
HETATM    9  C   UNL     1     -10.124   8.094  72.029  1.00  0.00    -0.304 A  
HETATM   10  N   UNL     1     -11.780  10.783  70.110  1.00  0.00    -0.309 NA 
HETATM   11  C   UNL     1     -12.898  10.927  70.860  1.00  0.00    -0.326 A  
HETATM   12  C   UNL     1     -11.077   9.044  71.627  1.00  0.00    -0.433 A  
BRANCH   5  13
HETATM   13  N   UNL     1      -9.451  10.408  68.563  1.00  0.00    -0.153 NA 
HETATM   14  H   UNL     1      -9.916  10.094  67.711  1.00  0.00     0.000 HD 
BRANCH  13  15
HETATM   15  C   UNL     1      -8.581  11.587  68.527  1.00  0.00    -0.140 C  
HETATM   16  C   UNL     1      -7.469  11.347  67.500  1.00  0.00    -0.113 C  
BRANCH  15  17
HETATM   17  C   UNL     1      -9.385  12.835  68.107  1.00  0.00    -0.214 C  
BRANCH  17  18
HETATM   18  C   UNL     1      -8.656  14.173  68.292  1.00  0.00    -0.175 C  
BRANCH  18  19
HETATM   19  C   UNL     1      -8.628  15.084  67.064  1.00  0.00    -0.239 C  
HETATM   20  H1  UNL     1      -9.299  15.099  65.102  1.00  0.00     0.000 HD 
HETATM   21  N   UNL     1      -9.317  14.492  65.922  1.00  0.00    -0.527 NA 
HETATM   22  H2  UNL     1     -10.272  14.228  66.163  1.00  0.00     0.000 HD 
ENDBRANCH  18  19
ENDBRANCH  17  18
ENDBRANCH  15  17
ENDBRANCH  13  15
ENDBRANCH   5  13
ENDBRANCH   2   3
TORSDOF 6
ENDMDL
MODEL      187
REMARK 921   NORMALIZED FREE ENERGY PREDICTED BY IDOCK:   -3.59 KCAL/MOL
REMARK 922        TOTAL FREE ENERGY PREDICTED BY IDOCK:   -5.32 KCAL/MOL
REMARK 923 INTER-LIGAND FREE ENERGY PREDICTED BY IDOCK:   -4.64 KCAL/MOL
REMARK 924 INTRA-LIGAND FREE ENERGY PREDICTED BY IDOCK:   -0.68 KCAL/MOL
REMARK 927      BINDING AFFINITY PREDICTED BY RF-SCORE:    0.00 PKD
ROOT
HETATM    1  C   UNL     1     -14.409   8.427  71.631  1.00  0.00    -0.448 C  
HETATM    2  O   UNL     1     -13.429   9.328  71.134  1.00  0.00    -0.289 OA 
ENDROOT
BRANCH   2   3
HETATM    3  C   UNL     1     -12.125   9.068  71.451  1.00  0.00    -0.327 A  
HETATM    4  C   UNL     1     -11.196   9.679  70.613  1.00  0.00    -0.385 A  
HETATM    5  C   UNL     1      -9.814   9.549  70.820  1.00  0.00    -0.239 A  
HETATM    6  C   UNL     1      -8.485   7.007  73.874  1.00  0.00    -0.172 A  
HETATM    7  C   UNL     1      -9.341   8.714  71.863  1.00  0.00    -0.287 A  
HETATM    8  C   UNL     1      -9.844   7.233  73.718  1.00  0.00    -0.358 A  
HETATM    9  C   UNL     1     -11.675   8.282  72.504  1.00  0.00    -0.451 A  
HETATM   10  N   UNL     1      -8.015   8.510  72.043  1.00  0.00    -0.234 NA 
HETATM   11  C   UNL     1      -7.621   7.661  73.021  1.00  0.00    -0.098 A  
HETATM   12  C   UNL     1     -10.298   8.080  72.694  1.00  0.00    -0.398 A  
BRANCH   5  13
HETATM   13  N   UNL     1      -8.896  10.300  70.048  1.00  0.00    -0.359 NA 
HETATM   14  H   UNL     1      -8.147  10.817  70.511  1.00  0.00     0.000 HD 
BRANCH  13  15
HETATM   15  C   UNL     1      -9.015  10.339  68.588  1.00  0.00    -0.144 C  
HETATM   16  C   UNL     1      -9.047  11.802  68.135  1.00  0.00    -0.185 C  
BRANCH  15  17
HETATM   17  C   UNL     1      -7.805   9.642  67.933  1.00  0.00    -0.087 C  
BRANCH  17  18
HETATM   18  C   UNL     1      -6.471  10.392  68.063  1.00  0.00    -0.060 C  
BRANCH  18  19
HETATM   19  C   UNL     1      -5.590   9.969  69.239  1.00  0.00    -0.038 C  
HETATM   20  H1  UNL     1      -4.950  10.705  71.068  1.00  0.00     0.000 HD 
HETATM   21  N   UNL     1      -5.537  10.986  70.284  1.00  0.00    -0.088 NA 
HETATM   22  H2  UNL     1      -6.473  11.241  70.598  1.00  0.00     0.000 HD 
ENDBRANCH  18  19
ENDBRANCH  17  18
ENDBRANCH  15  17
ENDBRANCH  13  15
ENDBRANCH   5  13
ENDBRANCH   2   3
TORSDOF 6
ENDMDL
MODEL      188
REMARK 921   NORMALIZED FREE ENERGY PREDICTED BY IDOCK:   -3.59 KCAL/MOL
REMARK 922        TOTAL FREE ENERGY PREDICTED BY IDOCK:   -5.32 KCAL/MOL
REMARK 923 INTER-LIGAND FREE ENERGY PREDICTED BY IDOCK:   -4.82 KCAL/MOL
REMARK 924 INTRA-LIGAND FREE ENERGY PREDICTED BY IDOCK:   -0.50 KCAL/MOL
REMARK 927      BINDING AFFINITY PREDICTED BY RF-SCORE:    0.00 PKD
ROOT
HETATM    1  C   UNL     1     -10.623  11.545  64.693  1.00  0.00    -0.311 C  
HETATM    2  O   UNL     1     -11.126  12.235  65.829  1.00  0.00    -0.298 OA 
ENDROOT
BRANCH   2   3
HETATM    3  C   UNL     1     -11.126  11.562  67.019  1.00  0.00    -0.307 A  
HETATM    4  C   UNL     1     -10.311  10.433  67.042  1.00  0.00    -0.295 A  
HETATM    5  C   UNL     1     -10.165   9.649  68.197  1.00  0.00    -0.190 A  
HETATM    6  C   UNL     1     -12.485  10.592  71.555  1.00  0.00    -0.493 A  
HETATM    7  C   UNL     1     -10.921   9.964  69.353  1.00  0.00    -0.230 A  
HETATM    8  C   UNL     1     -12.535  11.413  70.440  1.00  0.00    -0.345 A  
HETATM    9  C   UNL     1     -11.839  11.906  68.159  1.00  0.00    -0.338 A  
HETATM   10  N   UNL     1     -10.857   9.184  70.458  1.00  0.00    -0.240 NA 
HETATM   11  C   UNL     1     -11.641   9.502  71.516  1.00  0.00    -0.395 A  
HETATM   12  C   UNL     1     -11.764  11.102  69.308  1.00  0.00    -0.401 A  
BRANCH   5  13
HETATM   13  N   UNL     1      -9.217   8.599  68.239  1.00  0.00    -0.138 NA 
HETATM   14  H   UNL     1      -8.220   8.816  68.273  1.00  0.00     0.000 HD 
BRANCH  13  15
HETATM   15  C   UNL     1      -9.660   7.202  68.235  1.00  0.00    -0.136 C  
HETATM   16  C   UNL     1     -10.510   6.958  66.983  1.00  0.00    -0.374 C  
BRANCH  15  17
HETATM   17  C   UNL     1      -8.443   6.254  68.202  1.00  0.00    -0.114 C  
BRANCH  17  18
HETATM   18  C   UNL     1      -8.050   5.745  66.808  1.00  0.00    -0.102 C  
BRANCH  18  19
HETATM   19  C   UNL     1      -6.825   6.413  66.184  1.00  0.00    -0.057 C  
HETATM   20  H1  UNL     1      -6.040   8.311  65.904  1.00  0.00     0.000 HD 
HETATM   21  N   UNL     1      -6.858   7.865  66.320  1.00  0.00    -0.058 NA 
HETATM   22  H2  UNL     1      -6.972   8.142  67.295  1.00  0.00     0.000 HD 
ENDBRANCH  18  19
ENDBRANCH  17  18
ENDBRANCH  15  17
ENDBRANCH  13  15
ENDBRANCH   5  13
ENDBRANCH   2   3
TORSDOF 6
ENDMDL
MODEL      189
REMARK 921   NORMALIZED FREE ENERGY PREDICTED BY IDOCK:   -3.59 KCAL/MOL
REMARK 922        TOTAL FREE ENERGY PREDICTED BY IDOCK:   -5.32 KCAL/MOL
REMARK 923 INTER-LIGAND FREE ENERGY PREDICTED BY IDOCK:   -5.23 KCAL/MOL
REMARK 924 INTRA-LIGAND FREE ENERGY PREDICTED BY IDOCK:   -0.09 KCAL/MOL
REMARK 927      BINDING AFFINITY PREDICTED BY RF-SCORE:    0.00 PKD
ROOT
HETATM    1  C   UNL     1      -8.833  10.579  64.803  1.00  0.00    -0.196 C  
HETATM    2  O   UNL     1      -9.945   9.800  65.224  1.00  0.00    -0.318 OA 
ENDROOT
BRANCH   2   3
HETATM    3  C   UNL     1     -10.384   9.981  66.506  1.00  0.00    -0.198 A  
HETATM    4  C   UNL     1     -10.872  11.257  66.773  1.00  0.00    -0.334 A  
HETATM    5  C   UNL     1     -11.398  11.601  68.028  1.00  0.00    -0.296 A  
HETATM    6  C   UNL     1     -11.207   8.774  71.114  1.00  0.00    -0.339 A  
HETATM    7  C   UNL     1     -11.367  10.652  69.080  1.00  0.00    -0.277 A  
HETATM    8  C   UNL     1     -10.789   8.422  69.840  1.00  0.00    -0.207 A  
HETATM    9  C   UNL     1     -10.388   9.029  67.516  1.00  0.00    -0.328 A  
HETATM   10  N   UNL     1     -11.799  10.977  70.321  1.00  0.00    -0.339 NA 
HETATM   11  C   UNL     1     -11.698  10.050  71.301  1.00  0.00    -0.369 A  
HETATM   12  C   UNL     1     -10.846   9.365  68.800  1.00  0.00    -0.147 A  
BRANCH   5  13
HETATM   13  N   UNL     1     -12.025  12.854  68.227  1.00  0.00    -0.311 NA 
HETATM   14  H   UNL     1     -12.987  12.995  67.920  1.00  0.00     0.000 HD 
BRANCH  13  15
HETATM   15  C   UNL     1     -11.297  13.950  68.873  1.00  0.00    -0.282 C  
HETATM   16  C   UNL     1      -9.804  13.605  68.896  1.00  0.00     0.019 C  
BRANCH  15  17
HETATM   17  C   UNL     1     -11.492  15.262  68.084  1.00  0.00    -0.357 C  
BRANCH  17  18
HETATM   18  C   UNL     1     -10.226  15.813  67.412  1.00  0.00    -0.270 C  
BRANCH  18  19
HETATM   19  C   UNL     1     -10.452  16.571  66.103  1.00  0.00    -0.294 C  
HETATM   20  H1  UNL     1     -10.471  18.520  65.398  1.00  0.00     0.000 HD 
HETATM   21  N   UNL     1     -10.320  18.014  66.271  1.00  0.00    -0.393 NA 
HETATM   22  H2  UNL     1      -9.421  18.257  66.687  1.00  0.00     0.000 HD 
ENDBRANCH  18  19
ENDBRANCH  17  18
ENDBRANCH  15  17
ENDBRANCH  13  15
ENDBRANCH   5  13
ENDBRANCH   2   3
TORSDOF 6
ENDMDL
MODEL      190
REMARK 921   NORMALIZED FREE ENERGY PREDICTED BY IDOCK:   -3.56 KCAL/MOL
REMARK 922        TOTAL FREE ENERGY PREDICTED BY IDOCK:   -5.28 KCAL/MOL
REMARK 923 INTER-LIGAND FREE ENERGY PREDICTED BY IDOCK:   -5.37 KCAL/MOL
REMARK 924 INTRA-LIGAND FREE ENERGY PREDICTED BY IDOCK:    0.09 KCAL/MOL
REMARK 927      BINDING AFFINITY PREDICTED BY RF-SCORE:    0.00 PKD
ROOT
HETATM    1  C   UNL     1      -6.928  18.380  65.500  1.00  0.00    -0.135 C  
HETATM    2  O   UNL     1      -8.099  17.923  66.163  1.00  0.00    -0.421 OA 
ENDROOT
BRANCH   2   3
HETATM    3  C   UNL     1      -8.043  16.690  66.749  1.00  0.00    -0.246 A  
HETATM    4  C   UNL     1      -9.279  16.181  67.140  1.00  0.00    -0.220 A  
HETATM    5  C   UNL     1      -9.406  14.910  67.722  1.00  0.00    -0.194 A  
HETATM    6  C   UNL     1      -5.921  12.741  68.559  1.00  0.00    -0.062 A  
HETATM    7  C   UNL     1      -8.243  14.147  67.991  1.00  0.00    -0.152 A  
HETATM    8  C   UNL     1      -5.826  13.952  67.891  1.00  0.00    -0.132 A  
HETATM    9  C   UNL     1      -6.899  15.934  66.968  1.00  0.00    -0.130 A  
HETATM   10  N   UNL     1      -8.326  12.951  68.619  1.00  0.00    -0.038 NA 
HETATM   11  C   UNL     1      -7.179  12.289  68.899  1.00  0.00    -0.069 A  
HETATM   12  C   UNL     1      -6.990  14.687  67.610  1.00  0.00    -0.205 A  
BRANCH   5  13
HETATM   13  N   UNL     1     -10.685  14.356  67.970  1.00  0.00    -0.239 NA 
HETATM   14  H   UNL     1     -11.430  14.945  68.342  1.00  0.00     0.000 HD 
BRANCH  13  15
HETATM   15  C   UNL     1     -10.943  12.940  67.695  1.00  0.00    -0.247 C  
HETATM   16  C   UNL     1     -11.808  12.368  68.823  1.00  0.00    -0.358 C  
BRANCH  15  17
HETATM   17  C   UNL     1     -11.699  12.783  66.359  1.00  0.00    -0.464 C  
BRANCH  17  18
HETATM   18  C   UNL     1     -12.297  14.079  65.792  1.00  0.00    -0.506 C  
BRANCH  18  19
HETATM   19  C   UNL     1     -11.675  14.575  64.485  1.00  0.00    -0.410 C  
HETATM   20  H1  UNL     1     -11.893  14.309  62.441  1.00  0.00     0.000 HD 
HETATM   21  N   UNL     1     -12.307  13.979  63.313  1.00  0.00    -1.145 NA 
HETATM   22  H2  UNL     1     -13.316  14.129  63.321  1.00  0.00     0.000 HD 
ENDBRANCH  18  19
ENDBRANCH  17  18
ENDBRANCH  15  17
ENDBRANCH  13  15
ENDBRANCH   5  13
ENDBRANCH   2   3
TORSDOF 6
ENDMDL
MODEL      191
REMARK 921   NORMALIZED FREE ENERGY PREDICTED BY IDOCK:   -3.55 KCAL/MOL
REMARK 922        TOTAL FREE ENERGY PREDICTED BY IDOCK:   -5.27 KCAL/MOL
REMARK 923 INTER-LIGAND FREE ENERGY PREDICTED BY IDOCK:   -5.37 KCAL/MOL
REMARK 924 INTRA-LIGAND FREE ENERGY PREDICTED BY IDOCK:    0.11 KCAL/MOL
REMARK 927      BINDING AFFINITY PREDICTED BY RF-SCORE:    0.00 PKD
ROOT
HETATM    1  C   UNL     1      -9.597   3.548  64.528  1.00  0.00    -0.167 C  
HETATM    2  O   UNL     1      -8.776   4.208  65.482  1.00  0.00    -0.116 OA 
ENDROOT
BRANCH   2   3
HETATM    3  C   UNL     1      -9.168   5.453  65.888  1.00  0.00    -0.156 A  
HETATM    4  C   UNL     1     -10.209   5.456  66.812  1.00  0.00    -0.282 A  
HETATM    5  C   UNL     1     -10.707   6.647  67.362  1.00  0.00    -0.339 A  
HETATM    6  C   UNL     1      -9.196  10.287  65.941  1.00  0.00    -0.205 A  
HETATM    7  C   UNL     1     -10.193   7.890  66.915  1.00  0.00    -0.310 A  
HETATM    8  C   UNL     1      -8.646   9.097  65.488  1.00  0.00    -0.192 A  
HETATM    9  C   UNL     1      -8.626   6.662  65.473  1.00  0.00    -0.101 A  
HETATM   10  N   UNL     1     -10.704   9.058  67.372  1.00  0.00    -0.232 NA 
HETATM   11  C   UNL     1     -10.211  10.215  66.871  1.00  0.00    -0.236 A  
HETATM   12  C   UNL     1      -9.150   7.872  65.957  1.00  0.00    -0.181 A  
BRANCH   5  13
HETATM   13  N   UNL     1     -11.659   6.614  68.409  1.00  0.00    -0.426 NA 
HETATM   14  H   UNL     1     -12.646   6.772  68.203  1.00  0.00     0.000 HD 
BRANCH  13  15
HETATM   15  C   UNL     1     -11.233   6.355  69.787  1.00  0.00    -0.419 C  
HETATM   16  C   UNL     1     -10.102   5.322  69.768  1.00  0.00    -0.334 C  
BRANCH  15  17
HETATM   17  C   UNL     1     -10.711   7.652  70.440  1.00  0.00    -0.241 C  
BRANCH  17  18
HETATM   18  C   UNL     1     -11.779   8.506  71.139  1.00  0.00    -0.322 C  
BRANCH  18  19
HETATM   19  C   UNL     1     -12.354   7.917  72.428  1.00  0.00    -0.208 C  
HETATM   20  H1  UNL     1     -13.773   8.373  73.869  1.00  0.00     0.000 HD 
HETATM   21  N   UNL     1     -13.389   8.765  73.010  1.00  0.00    -0.903 NA 
HETATM   22  H2  UNL     1     -14.127   8.963  72.334  1.00  0.00     0.000 HD 
ENDBRANCH  18  19
ENDBRANCH  17  18
ENDBRANCH  15  17
ENDBRANCH  13  15
ENDBRANCH   5  13
ENDBRANCH   2   3
TORSDOF 6
ENDMDL
MODEL      192
REMARK 921   NORMALIZED FREE ENERGY PREDICTED BY IDOCK:   -3.54 KCAL/MOL
REMARK 922        TOTAL FREE ENERGY PREDICTED BY IDOCK:   -5.26 KCAL/MOL
REMARK 923 INTER-LIGAND FREE ENERGY PREDICTED BY IDOCK:   -4.60 KCAL/MOL
REMARK 924 INTRA-LIGAND FREE ENERGY PREDICTED BY IDOCK:   -0.65 KCAL/MOL
REMARK 927      BINDING AFFINITY PREDICTED BY RF-SCORE:    0.00 PKD
ROOT
HETATM    1  C   UNL     1     -14.281   8.502  71.854  1.00  0.00    -0.455 C  
HETATM    2  O   UNL     1     -12.918   8.666  71.489  1.00  0.00    -0.324 OA 
ENDROOT
BRANCH   2   3
HETATM    3  C   UNL     1     -12.164   7.532  71.369  1.00  0.00    -0.335 A  
HETATM    4  C   UNL     1     -11.636   7.324  70.097  1.00  0.00    -0.149 A  
HETATM    5  C   UNL     1     -10.806   6.228  69.810  1.00  0.00    -0.336 A  
HETATM    6  C   UNL     1     -10.164   3.373  72.808  1.00  0.00    -0.244 A  
HETATM    7  C   UNL     1     -10.554   5.263  70.817  1.00  0.00    -0.186 A  
HETATM    8  C   UNL     1     -10.894   4.514  73.100  1.00  0.00    -0.331 A  
HETATM    9  C   UNL     1     -11.889   6.616  72.375  1.00  0.00    -0.226 A  
HETATM   10  N   UNL     1      -9.819   4.158  70.550  1.00  0.00    -0.206 NA 
HETATM   11  C   UNL     1      -9.654   3.242  71.533  1.00  0.00    -0.164 A  
HETATM   12  C   UNL     1     -11.117   5.475  72.099  1.00  0.00    -0.272 A  
BRANCH   5  13
HETATM   13  N   UNL     1     -10.162   6.122  68.555  1.00  0.00    -0.167 NA 
HETATM   14  H   UNL     1     -10.460   5.409  67.890  1.00  0.00     0.000 HD 
BRANCH  13  15
HETATM   15  C   UNL     1      -9.067   7.033  68.207  1.00  0.00    -0.126 C  
HETATM   16  C   UNL     1      -7.760   6.236  68.154  1.00  0.00    -0.104 C  
BRANCH  15  17
HETATM   17  C   UNL     1      -9.318   7.668  66.823  1.00  0.00    -0.218 C  
BRANCH  17  18
HETATM   18  C   UNL     1     -10.518   8.625  66.752  1.00  0.00    -0.298 C  
BRANCH  18  19
HETATM   19  C   UNL     1     -10.472   9.811  67.716  1.00  0.00    -0.246 C  
HETATM   20  H1  UNL     1     -10.334  11.879  67.658  1.00  0.00     0.000 HD 
HETATM   21  N   UNL     1     -10.365  11.087  67.016  1.00  0.00    -0.218 NA 
HETATM   22  H2  UNL     1     -11.113  11.197  66.332  1.00  0.00     0.000 HD 
ENDBRANCH  18  19
ENDBRANCH  17  18
ENDBRANCH  15  17
ENDBRANCH  13  15
ENDBRANCH   5  13
ENDBRANCH   2   3
TORSDOF 6
ENDMDL
MODEL      193
REMARK 921   NORMALIZED FREE ENERGY PREDICTED BY IDOCK:   -3.53 KCAL/MOL
REMARK 922        TOTAL FREE ENERGY PREDICTED BY IDOCK:   -5.24 KCAL/MOL
REMARK 923 INTER-LIGAND FREE ENERGY PREDICTED BY IDOCK:   -4.16 KCAL/MOL
REMARK 924 INTRA-LIGAND FREE ENERGY PREDICTED BY IDOCK:   -1.08 KCAL/MOL
REMARK 927      BINDING AFFINITY PREDICTED BY RF-SCORE:    0.00 PKD
ROOT
HETATM    1  C   UNL     1     -10.314   4.747  65.509  1.00  0.00    -0.133 C  
HETATM    2  O   UNL     1     -10.438   4.712  66.924  1.00  0.00    -0.163 OA 
ENDROOT
BRANCH   2   3
HETATM    3  C   UNL     1     -10.549   5.912  67.570  1.00  0.00    -0.273 A  
HETATM    4  C   UNL     1     -10.212   7.018  66.793  1.00  0.00    -0.282 A  
HETATM    5  C   UNL     1     -10.307   8.327  67.289  1.00  0.00    -0.302 A  
HETATM    6  C   UNL     1     -11.352   8.867  71.310  1.00  0.00    -0.371 A  
HETATM    7  C   UNL     1     -10.684   8.536  68.639  1.00  0.00    -0.041 A  
HETATM    8  C   UNL     1     -11.354   7.590  70.772  1.00  0.00    -0.300 A  
HETATM    9  C   UNL     1     -10.960   6.105  68.882  1.00  0.00    -0.424 A  
HETATM   10  N   UNL     1     -10.713   9.782  69.168  1.00  0.00    -0.217 NA 
HETATM   11  C   UNL     1     -11.028   9.918  70.477  1.00  0.00    -0.326 A  
HETATM   12  C   UNL     1     -11.000   7.400  69.425  1.00  0.00    -0.126 A  
BRANCH   5  13
HETATM   13  N   UNL     1     -10.106   9.437  66.435  1.00  0.00    -0.272 NA 
HETATM   14  H   UNL     1     -10.668  10.280  66.556  1.00  0.00     0.000 HD 
BRANCH  13  15
HETATM   15  C   UNL     1      -9.094   9.381  65.376  1.00  0.00    -0.226 C  
HETATM   16  C   UNL     1      -9.644  10.083  64.130  1.00  0.00    -0.274 C  
BRANCH  15  17
HETATM   17  C   UNL     1      -7.808  10.104  65.826  1.00  0.00    -0.139 C  
BRANCH  17  18
HETATM   18  C   UNL     1      -7.084   9.466  67.021  1.00  0.00    -0.086 C  
BRANCH  18  19
HETATM   19  C   UNL     1      -6.902  10.370  68.241  1.00  0.00    -0.065 C  
HETATM   20  H1  UNL     1      -7.944  11.821  69.292  1.00  0.00     0.000 HD 
HETATM   21  N   UNL     1      -8.065  11.218  68.479  1.00  0.00    -0.142 NA 
HETATM   22  H2  UNL     1      -8.917  10.662  68.556  1.00  0.00     0.000 HD 
ENDBRANCH  18  19
ENDBRANCH  17  18
ENDBRANCH  15  17
ENDBRANCH  13  15
ENDBRANCH   5  13
ENDBRANCH   2   3
TORSDOF 6
ENDMDL
MODEL      194
REMARK 921   NORMALIZED FREE ENERGY PREDICTED BY IDOCK:   -3.53 KCAL/MOL
REMARK 922        TOTAL FREE ENERGY PREDICTED BY IDOCK:   -5.24 KCAL/MOL
REMARK 923 INTER-LIGAND FREE ENERGY PREDICTED BY IDOCK:   -5.20 KCAL/MOL
REMARK 924 INTRA-LIGAND FREE ENERGY PREDICTED BY IDOCK:   -0.04 KCAL/MOL
REMARK 927      BINDING AFFINITY PREDICTED BY RF-SCORE:    0.00 PKD
ROOT
HETATM    1  C   UNL     1     -12.518  12.092  63.269  1.00  0.00    -0.425 C  
HETATM    2  O   UNL     1     -13.021  12.190  64.594  1.00  0.00    -0.651 OA 
ENDROOT
BRANCH   2   3
HETATM    3  C   UNL     1     -12.237  12.831  65.513  1.00  0.00    -0.463 A  
HETATM    4  C   UNL     1     -11.636  11.989  66.444  1.00  0.00    -0.381 A  
HETATM    5  C   UNL     1     -10.769  12.478  67.434  1.00  0.00    -0.229 A  
HETATM    6  C   UNL     1     -10.232  16.621  67.745  1.00  0.00    -0.292 A  
HETATM    7  C   UNL     1     -10.552  13.874  67.542  1.00  0.00    -0.256 A  
HETATM    8  C   UNL     1     -11.001  16.110  66.712  1.00  0.00    -0.080 A  
HETATM    9  C   UNL     1     -11.999  14.197  65.582  1.00  0.00    -0.401 A  
HETATM   10  N   UNL     1      -9.780  14.383  68.531  1.00  0.00    -0.222 NA 
HETATM   11  C   UNL     1      -9.650  15.727  68.620  1.00  0.00    -0.207 A  
HETATM   12  C   UNL     1     -11.189  14.721  66.603  1.00  0.00    -0.346 A  
BRANCH   5  13
HETATM   13  N   UNL     1     -10.054  11.587  68.270  1.00  0.00    -0.193 NA 
HETATM   14  H   UNL     1      -9.096  11.328  68.034  1.00  0.00     0.000 HD 
BRANCH  13  15
HETATM   15  C   UNL     1     -10.685  11.035  69.472  1.00  0.00    -0.183 C  
HETATM   16  C   UNL     1     -12.206  11.152  69.329  1.00  0.00    -0.295 C  
BRANCH  15  17
HETATM   17  C   UNL     1     -10.314   9.546  69.636  1.00  0.00    -0.236 C  
BRANCH  17  18
HETATM   18  C   UNL     1      -8.808   9.252  69.706  1.00  0.00    -0.174 C  
BRANCH  18  19
HETATM   19  C   UNL     1      -8.185   9.336  71.099  1.00  0.00     0.008 C  
HETATM   20  H1  UNL     1      -6.313   9.469  71.978  1.00  0.00     0.000 HD 
HETATM   21  N   UNL     1      -6.729   9.414  71.049  1.00  0.00    -0.178 NA 
HETATM   22  H2  UNL     1      -6.421  10.188  70.461  1.00  0.00     0.000 HD 
ENDBRANCH  18  19
ENDBRANCH  17  18
ENDBRANCH  15  17
ENDBRANCH  13  15
ENDBRANCH   5  13
ENDBRANCH   2   3
TORSDOF 6
ENDMDL
MODEL      195
REMARK 921   NORMALIZED FREE ENERGY PREDICTED BY IDOCK:   -3.52 KCAL/MOL
REMARK 922        TOTAL FREE ENERGY PREDICTED BY IDOCK:   -5.23 KCAL/MOL
REMARK 923 INTER-LIGAND FREE ENERGY PREDICTED BY IDOCK:   -4.90 KCAL/MOL
REMARK 924 INTRA-LIGAND FREE ENERGY PREDICTED BY IDOCK:   -0.33 KCAL/MOL
REMARK 927      BINDING AFFINITY PREDICTED BY RF-SCORE:    0.00 PKD
ROOT
HETATM    1  C   UNL     1      -5.959  11.630  70.148  1.00  0.00    -0.161 C  
HETATM    2  O   UNL     1      -6.056  11.913  68.759  1.00  0.00    -0.051 OA 
ENDROOT
BRANCH   2   3
HETATM    3  C   UNL     1      -7.244  12.416  68.306  1.00  0.00    -0.103 A  
HETATM    4  C   UNL     1      -7.142  13.651  67.671  1.00  0.00    -0.179 A  
HETATM    5  C   UNL     1      -8.260  14.291  67.113  1.00  0.00    -0.160 A  
HETATM    6  C   UNL     1     -12.031  12.546  67.647  1.00  0.00    -0.287 A  
HETATM    7  C   UNL     1      -9.543  13.706  67.259  1.00  0.00    -0.238 A  
HETATM    8  C   UNL     1     -10.903  11.880  68.099  1.00  0.00    -0.259 A  
HETATM    9  C   UNL     1      -8.489  11.812  68.418  1.00  0.00    -0.155 A  
HETATM   10  N   UNL     1     -10.649  14.334  66.796  1.00  0.00    -0.276 NA 
HETATM   11  C   UNL     1     -11.854  13.756  67.010  1.00  0.00    -0.410 A  
HETATM   12  C   UNL     1      -9.634  12.461  67.928  1.00  0.00    -0.205 A  
BRANCH   5  13
HETATM   13  N   UNL     1      -8.106  15.468  66.343  1.00  0.00    -0.317 NA 
HETATM   14  H   UNL     1      -7.968  15.401  65.334  1.00  0.00     0.000 HD 
BRANCH  13  15
HETATM   15  C   UNL     1      -8.144  16.783  66.989  1.00  0.00    -0.194 C  
HETATM   16  C   UNL     1      -7.148  17.709  66.281  1.00  0.00    -0.337 C  
BRANCH  15  17
HETATM   17  C   UNL     1      -9.556  17.395  66.877  1.00  0.00    -0.279 C  
BRANCH  17  18
HETATM   18  C   UNL     1      -9.952  18.335  68.025  1.00  0.00    -0.362 C  
BRANCH  18  19
HETATM   19  C   UNL     1     -10.385  19.740  67.607  1.00  0.00    -0.441 C  
HETATM   20  H1  UNL     1     -10.751  20.823  65.877  1.00  0.00     0.000 HD 
HETATM   21  N   UNL     1     -10.463  19.886  66.157  1.00  0.00    -0.483 NA 
HETATM   22  H2  UNL     1     -11.070  19.176  65.747  1.00  0.00     0.000 HD 
ENDBRANCH  18  19
ENDBRANCH  17  18
ENDBRANCH  15  17
ENDBRANCH  13  15
ENDBRANCH   5  13
ENDBRANCH   2   3
TORSDOF 6
ENDMDL
MODEL      196
REMARK 921   NORMALIZED FREE ENERGY PREDICTED BY IDOCK:   -3.50 KCAL/MOL
REMARK 922        TOTAL FREE ENERGY PREDICTED BY IDOCK:   -5.20 KCAL/MOL
REMARK 923 INTER-LIGAND FREE ENERGY PREDICTED BY IDOCK:   -5.07 KCAL/MOL
REMARK 924 INTRA-LIGAND FREE ENERGY PREDICTED BY IDOCK:   -0.13 KCAL/MOL
REMARK 927      BINDING AFFINITY PREDICTED BY RF-SCORE:    0.00 PKD
ROOT
HETATM    1  C   UNL     1     -12.324  14.687  64.064  1.00  0.00    -0.132 C  
HETATM    2  O   UNL     1     -12.582  14.343  65.418  1.00  0.00    -0.415 OA 
ENDROOT
BRANCH   2   3
HETATM    3  C   UNL     1     -11.523  13.907  66.164  1.00  0.00    -0.345 A  
HETATM    4  C   UNL     1     -11.792  12.789  66.949  1.00  0.00    -0.440 A  
HETATM    5  C   UNL     1     -10.805  12.188  67.745  1.00  0.00    -0.224 A  
HETATM    6  C   UNL     1      -7.039  14.012  67.969  1.00  0.00    -0.147 A  
HETATM    7  C   UNL     1      -9.516  12.773  67.816  1.00  0.00    -0.205 A  
HETATM    8  C   UNL     1      -7.996  14.527  67.109  1.00  0.00    -0.167 A  
HETATM    9  C   UNL     1     -10.251  14.464  66.192  1.00  0.00    -0.317 A  
HETATM   10  N   UNL     1      -8.564  12.260  68.632  1.00  0.00    -0.049 NA 
HETATM   11  C   UNL     1      -7.368  12.890  68.702  1.00  0.00    -0.099 A  
HETATM   12  C   UNL     1      -9.263  13.924  67.031  1.00  0.00    -0.257 A  
BRANCH   5  13
HETATM   13  N   UNL     1     -11.062  10.967  68.413  1.00  0.00    -0.228 NA 
HETATM   14  H   UNL     1     -10.589  10.114  68.113  1.00  0.00     0.000 HD 
BRANCH  13  15
HETATM   15  C   UNL     1     -12.005  10.923  69.534  1.00  0.00    -0.330 C  
HETATM   16  C   UNL     1     -11.291  10.334  70.756  1.00  0.00    -0.421 C  
BRANCH  15  17
HETATM   17  C   UNL     1     -12.493  12.345  69.881  1.00  0.00     0.019 C  
BRANCH  17  18
HETATM   18  C   UNL     1     -12.669  12.626  71.381  1.00  0.00    -0.347 C  
BRANCH  18  19
HETATM   19  C   UNL     1     -12.721  14.103  71.772  1.00  0.00    -0.337 C  
HETATM   20  H1  UNL     1     -13.449  15.900  71.038  1.00  0.00     0.000 HD 
HETATM   21  N   UNL     1     -13.414  14.914  70.778  1.00  0.00    -0.626 NA 
HETATM   22  H2  UNL     1     -14.348  14.550  70.590  1.00  0.00     0.000 HD 
ENDBRANCH  18  19
ENDBRANCH  17  18
ENDBRANCH  15  17
ENDBRANCH  13  15
ENDBRANCH   5  13
ENDBRANCH   2   3
TORSDOF 6
ENDMDL
MODEL      197
REMARK 921   NORMALIZED FREE ENERGY PREDICTED BY IDOCK:   -3.50 KCAL/MOL
REMARK 922        TOTAL FREE ENERGY PREDICTED BY IDOCK:   -5.20 KCAL/MOL
REMARK 923 INTER-LIGAND FREE ENERGY PREDICTED BY IDOCK:   -4.70 KCAL/MOL
REMARK 924 INTRA-LIGAND FREE ENERGY PREDICTED BY IDOCK:   -0.49 KCAL/MOL
REMARK 927      BINDING AFFINITY PREDICTED BY RF-SCORE:    0.00 PKD
ROOT
HETATM    1  C   UNL     1     -10.847   3.909  73.085  1.00  0.00    -0.174 C  
HETATM    2  O   UNL     1     -11.720   5.021  73.231  1.00  0.00    -0.292 OA 
ENDROOT
BRANCH   2   3
HETATM    3  C   UNL     1     -11.496   6.100  72.422  1.00  0.00    -0.303 A  
HETATM    4  C   UNL     1     -10.508   5.904  71.460  1.00  0.00    -0.287 A  
HETATM    5  C   UNL     1     -10.180   6.896  70.523  1.00  0.00    -0.192 A  
HETATM    6  C   UNL     1     -12.034  10.639  70.846  1.00  0.00    -0.469 A  
HETATM    7  C   UNL     1     -10.813   8.161  70.597  1.00  0.00    -0.233 A  
HETATM    8  C   UNL     1     -12.418   9.612  71.695  1.00  0.00    -0.494 A  
HETATM    9  C   UNL     1     -12.154   7.322  72.478  1.00  0.00    -0.078 A  
HETATM   10  N   UNL     1     -10.465   9.163  69.754  1.00  0.00    -0.215 NA 
HETATM   11  C   UNL     1     -11.063  10.367  69.904  1.00  0.00    -0.305 A  
HETATM   12  C   UNL     1     -11.798   8.355  71.596  1.00  0.00    -0.357 A  
BRANCH   5  13
HETATM   13  N   UNL     1      -9.283   6.617  69.464  1.00  0.00    -0.143 NA 
HETATM   14  H   UNL     1      -8.370   7.072  69.439  1.00  0.00     0.000 HD 
BRANCH  13  15
HETATM   15  C   UNL     1      -9.660   5.680  68.403  1.00  0.00    -0.126 C  
HETATM   16  C   UNL     1     -10.876   6.242  67.657  1.00  0.00    -0.433 C  
BRANCH  15  17
HETATM   17  C   UNL     1      -8.499   5.508  67.401  1.00  0.00    -0.109 C  
BRANCH  17  18
HETATM   18  C   UNL     1      -7.755   4.168  67.489  1.00  0.00    -0.080 C  
BRANCH  18  19
HETATM   19  C   UNL     1      -8.123   3.138  66.420  1.00  0.00    -0.085 C  
HETATM   20  H1  UNL     1      -9.499   1.620  66.108  1.00  0.00     0.000 HD 
HETATM   21  N   UNL     1      -9.253   2.306  66.820  1.00  0.00    -0.328 NA 
HETATM   22  H2  UNL     1     -10.059   2.877  67.076  1.00  0.00     0.000 HD 
ENDBRANCH  18  19
ENDBRANCH  17  18
ENDBRANCH  15  17
ENDBRANCH  13  15
ENDBRANCH   5  13
ENDBRANCH   2   3
TORSDOF 6
ENDMDL
MODEL      198
REMARK 921   NORMALIZED FREE ENERGY PREDICTED BY IDOCK:   -3.50 KCAL/MOL
REMARK 922        TOTAL FREE ENERGY PREDICTED BY IDOCK:   -5.19 KCAL/MOL
REMARK 923 INTER-LIGAND FREE ENERGY PREDICTED BY IDOCK:   -4.72 KCAL/MOL
REMARK 924 INTRA-LIGAND FREE ENERGY PREDICTED BY IDOCK:   -0.47 KCAL/MOL
REMARK 927      BINDING AFFINITY PREDICTED BY RF-SCORE:    0.00 PKD
ROOT
HETATM    1  C   UNL     1      -6.259  17.046  66.760  1.00  0.00    -0.210 C  
HETATM    2  O   UNL     1      -6.499  15.654  66.910  1.00  0.00    -0.254 OA 
ENDROOT
BRANCH   2   3
HETATM    3  C   UNL     1      -7.641  15.285  67.566  1.00  0.00    -0.187 A  
HETATM    4  C   UNL     1      -7.943  13.929  67.477  1.00  0.00    -0.190 A  
HETATM    5  C   UNL     1      -9.059  13.375  68.124  1.00  0.00    -0.207 A  
HETATM    6  C   UNL     1     -11.688  15.953  70.124  1.00  0.00    -0.342 A  
HETATM    7  C   UNL     1      -9.948  14.224  68.829  1.00  0.00    -0.205 A  
HETATM    8  C   UNL     1     -10.526  16.463  69.567  1.00  0.00    -0.301 A  
HETATM    9  C   UNL     1      -8.481  16.121  68.289  1.00  0.00    -0.180 A  
HETATM   10  N   UNL     1     -11.072  13.732  69.401  1.00  0.00    -0.202 NA 
HETATM   11  C   UNL     1     -11.913  14.596  70.015  1.00  0.00    -0.320 A  
HETATM   12  C   UNL     1      -9.641  15.606  68.891  1.00  0.00    -0.224 A  
BRANCH   5  13
HETATM   13  N   UNL     1      -9.259  11.974  68.144  1.00  0.00    -0.191 NA 
HETATM   14  H   UNL     1      -8.786  11.404  68.845  1.00  0.00     0.000 HD 
BRANCH  13  15
HETATM   15  C   UNL     1     -10.141  11.340  67.161  1.00  0.00    -0.192 C  
HETATM   16  C   UNL     1      -9.293  10.476  66.222  1.00  0.00    -0.202 C  
BRANCH  15  17
HETATM   17  C   UNL     1     -11.172  10.437  67.871  1.00  0.00    -0.332 C  
BRANCH  17  18
HETATM   18  C   UNL     1     -10.936  10.234  69.375  1.00  0.00    -0.289 C  
BRANCH  18  19
HETATM   19  C   UNL     1     -10.740   8.785  69.821  1.00  0.00    -0.218 C  
HETATM   20  H1  UNL     1     -11.689   7.356  70.984  1.00  0.00     0.000 HD 
HETATM   21  N   UNL     1     -11.820   8.322  70.686  1.00  0.00    -0.472 NA 
HETATM   22  H2  UNL     1     -12.729   8.451  70.242  1.00  0.00     0.000 HD 
ENDBRANCH  18  19
ENDBRANCH  17  18
ENDBRANCH  15  17
ENDBRANCH  13  15
ENDBRANCH   5  13
ENDBRANCH   2   3
TORSDOF 6
ENDMDL
MODEL      199
REMARK 921   NORMALIZED FREE ENERGY PREDICTED BY IDOCK:   -3.50 KCAL/MOL
REMARK 922        TOTAL FREE ENERGY PREDICTED BY IDOCK:   -5.19 KCAL/MOL
REMARK 923 INTER-LIGAND FREE ENERGY PREDICTED BY IDOCK:   -4.24 KCAL/MOL
REMARK 924 INTRA-LIGAND FREE ENERGY PREDICTED BY IDOCK:   -0.96 KCAL/MOL
REMARK 927      BINDING AFFINITY PREDICTED BY RF-SCORE:    0.00 PKD
ROOT
HETATM    1  C   UNL     1      -7.316   8.397  64.716  1.00  0.00    -0.088 C  
HETATM    2  O   UNL     1      -8.701   8.188  64.956  1.00  0.00    -0.099 OA 
ENDROOT
BRANCH   2   3
HETATM    3  C   UNL     1      -9.215   8.688  66.119  1.00  0.00    -0.213 A  
HETATM    4  C   UNL     1      -8.814   8.007  67.266  1.00  0.00    -0.135 A  
HETATM    5  C   UNL     1      -9.218   8.412  68.547  1.00  0.00    -0.135 A  
HETATM    6  C   UNL     1     -11.944  11.578  68.871  1.00  0.00    -0.364 A  
HETATM    7  C   UNL     1     -10.120   9.497  68.683  1.00  0.00    -0.181 A  
HETATM    8  C   UNL     1     -11.450  11.229  67.624  1.00  0.00    -0.341 A  
HETATM    9  C   UNL     1     -10.065   9.779  66.241  1.00  0.00    -0.313 A  
HETATM   10  N   UNL     1     -10.586   9.865  69.899  1.00  0.00    -0.252 NA 
HETATM   11  C   UNL     1     -11.487  10.874  69.965  1.00  0.00    -0.329 A  
HETATM   12  C   UNL     1     -10.539  10.165  67.506  1.00  0.00    -0.327 A  
BRANCH   5  13
HETATM   13  N   UNL     1      -8.676   7.799  69.701  1.00  0.00    -0.135 NA 
HETATM   14  H   UNL     1      -8.559   8.342  70.557  1.00  0.00     0.000 HD 
BRANCH  13  15
HETATM   15  C   UNL     1      -8.282   6.388  69.672  1.00  0.00    -0.126 C  
HETATM   16  C   UNL     1      -6.752   6.303  69.656  1.00  0.00    -0.053 C  
BRANCH  15  17
HETATM   17  C   UNL     1      -8.806   5.659  70.927  1.00  0.00    -0.147 C  
BRANCH  17  18
HETATM   18  C   UNL     1      -9.896   6.407  71.708  1.00  0.00    -0.178 C  
BRANCH  18  19
HETATM   19  C   UNL     1     -11.335   6.003  71.382  1.00  0.00    -0.236 C  
HETATM   20  H1  UNL     1     -12.909   6.622  70.184  1.00  0.00     0.000 HD 
HETATM   21  N   UNL     1     -11.949   6.891  70.402  1.00  0.00    -0.584 NA 
HETATM   22  H2  UNL     1     -11.384   6.954  69.555  1.00  0.00     0.000 HD 
ENDBRANCH  18  19
ENDBRANCH  17  18
ENDBRANCH  15  17
ENDBRANCH  13  15
ENDBRANCH   5  13
ENDBRANCH   2   3
TORSDOF 6
ENDMDL
MODEL      200
REMARK 921   NORMALIZED FREE ENERGY PREDICTED BY IDOCK:   -3.47 KCAL/MOL
REMARK 922        TOTAL FREE ENERGY PREDICTED BY IDOCK:   -5.15 KCAL/MOL
REMARK 923 INTER-LIGAND FREE ENERGY PREDICTED BY IDOCK:   -4.61 KCAL/MOL
REMARK 924 INTRA-LIGAND FREE ENERGY PREDICTED BY IDOCK:   -0.54 KCAL/MOL
REMARK 927      BINDING AFFINITY PREDICTED BY RF-SCORE:    0.00 PKD
ROOT
HETATM    1  C   UNL     1      -9.816  11.706  67.439  1.00  0.00    -0.183 C  
HETATM    2  O   UNL     1     -10.286  10.421  67.057  1.00  0.00    -0.205 OA 
ENDROOT
BRANCH   2   3
HETATM    3  C   UNL     1     -10.548   9.529  68.059  1.00  0.00    -0.230 A  
HETATM    4  C   UNL     1     -10.440   8.192  67.683  1.00  0.00    -0.300 A  
HETATM    5  C   UNL     1     -10.638   7.147  68.599  1.00  0.00    -0.189 A  
HETATM    6  C   UNL     1     -11.872   8.108  72.485  1.00  0.00    -0.438 A  
HETATM    7  C   UNL     1     -11.031   7.449  69.926  1.00  0.00    -0.223 A  
HETATM    8  C   UNL     1     -11.570   9.126  71.595  1.00  0.00    -0.449 A  
HETATM    9  C   UNL     1     -10.891   9.839  69.368  1.00  0.00    -0.256 A  
HETATM   10  N   UNL     1     -11.301   6.462  70.813  1.00  0.00    -0.332 NA 
HETATM   11  C   UNL     1     -11.724   6.807  72.051  1.00  0.00    -0.306 A  
HETATM   12  C   UNL     1     -11.160   8.813  70.288  1.00  0.00    -0.240 A  
BRANCH   5  13
HETATM   13  N   UNL     1     -10.375   5.807  68.230  1.00  0.00    -0.195 NA 
HETATM   14  H   UNL     1     -11.086   5.267  67.737  1.00  0.00     0.000 HD 
BRANCH  13  15
HETATM   15  C   UNL     1      -9.085   5.191  68.553  1.00  0.00    -0.112 C  
HETATM   16  C   UNL     1      -9.328   3.991  69.475  1.00  0.00    -0.243 C  
BRANCH  15  17
HETATM   17  C   UNL     1      -8.389   4.697  67.267  1.00  0.00    -0.105 C  
BRANCH  17  18
HETATM   18  C   UNL     1      -9.248   4.762  65.995  1.00  0.00    -0.148 C  
BRANCH  18  19
HETATM   19  C   UNL     1      -8.569   5.382  64.773  1.00  0.00    -0.117 C  
HETATM   20  H1  UNL     1      -8.057   7.251  64.038  1.00  0.00     0.000 HD 
HETATM   21  N   UNL     1      -8.510   6.837  64.853  1.00  0.00    -0.339 NA 
HETATM   22  H2  UNL     1      -8.062   7.142  65.717  1.00  0.00     0.000 HD 
ENDBRANCH  18  19
ENDBRANCH  17  18
ENDBRANCH  15  17
ENDBRANCH  13  15
ENDBRANCH   5  13
ENDBRANCH   2   3
TORSDOF 6
ENDMDL
MODEL      201
REMARK 921   NORMALIZED FREE ENERGY PREDICTED BY IDOCK:   -3.46 KCAL/MOL
REMARK 922        TOTAL FREE ENERGY PREDICTED BY IDOCK:   -5.15 KCAL/MOL
REMARK 923 INTER-LIGAND FREE ENERGY PREDICTED BY IDOCK:   -4.70 KCAL/MOL
REMARK 924 INTRA-LIGAND FREE ENERGY PREDICTED BY IDOCK:   -0.45 KCAL/MOL
REMARK 927      BINDING AFFINITY PREDICTED BY RF-SCORE:    0.00 PKD
ROOT
HETATM    1  C   UNL     1      -8.668   5.395  70.361  1.00  0.00    -0.129 C  
HETATM    2  O   UNL     1      -8.643   6.435  71.329  1.00  0.00    -0.126 OA 
ENDROOT
BRANCH   2   3
HETATM    3  C   UNL     1      -9.450   7.515  71.105  1.00  0.00    -0.158 A  
HETATM    4  C   UNL     1      -8.989   8.384  70.120  1.00  0.00    -0.142 A  
HETATM    5  C   UNL     1      -9.715   9.523  69.738  1.00  0.00    -0.214 A  
HETATM    6  C   UNL     1     -13.214  10.456  71.845  1.00  0.00    -0.535 A  
HETATM    7  C   UNL     1     -10.916   9.845  70.420  1.00  0.00    -0.318 A  
HETATM    8  C   UNL     1     -12.537   9.282  72.135  1.00  0.00    -0.443 A  
HETATM    9  C   UNL     1     -10.646   7.796  71.751  1.00  0.00    -0.260 A  
HETATM   10  N   UNL     1     -11.600  10.975  70.125  1.00  0.00    -0.319 NA 
HETATM   11  C   UNL     1     -12.711  11.260  70.844  1.00  0.00    -0.318 A  
HETATM   12  C   UNL     1     -11.360   8.964  71.436  1.00  0.00    -0.380 A  
BRANCH   5  13
HETATM   13  N   UNL     1      -9.301  10.304  68.634  1.00  0.00    -0.154 NA 
HETATM   14  H   UNL     1      -8.800  11.179  68.790  1.00  0.00     0.000 HD 
BRANCH  13  15
HETATM   15  C   UNL     1      -9.589   9.863  67.266  1.00  0.00    -0.160 C  
HETATM   16  C   UNL     1     -10.208  11.030  66.490  1.00  0.00    -0.280 C  
BRANCH  15  17
HETATM   17  C   UNL     1      -8.289   9.429  66.558  1.00  0.00    -0.119 C  
BRANCH  17  18
HETATM   18  C   UNL     1      -7.706  10.457  65.577  1.00  0.00    -0.147 C  
BRANCH  18  19
HETATM   19  C   UNL     1      -6.269  10.196  65.126  1.00  0.00    -0.121 C  
HETATM   20  H1  UNL     1      -5.048  10.543  63.487  1.00  0.00     0.000 HD 
HETATM   21  N   UNL     1      -6.007  10.717  63.788  1.00  0.00    -0.373 NA 
HETATM   22  H2  UNL     1      -6.238  11.709  63.727  1.00  0.00     0.000 HD 
ENDBRANCH  18  19
ENDBRANCH  17  18
ENDBRANCH  15  17
ENDBRANCH  13  15
ENDBRANCH   5  13
ENDBRANCH   2   3
TORSDOF 6
ENDMDL
MODEL      202
REMARK 921   NORMALIZED FREE ENERGY PREDICTED BY IDOCK:   -3.46 KCAL/MOL
REMARK 922        TOTAL FREE ENERGY PREDICTED BY IDOCK:   -5.14 KCAL/MOL
REMARK 923 INTER-LIGAND FREE ENERGY PREDICTED BY IDOCK:   -4.55 KCAL/MOL
REMARK 924 INTRA-LIGAND FREE ENERGY PREDICTED BY IDOCK:   -0.59 KCAL/MOL
REMARK 927      BINDING AFFINITY PREDICTED BY RF-SCORE:    0.00 PKD
ROOT
HETATM    1  C   UNL     1      -7.654  21.013  66.538  1.00  0.00     0.221 C  
HETATM    2  O   UNL     1      -8.542  19.937  66.268  1.00  0.00    -0.350 OA 
ENDROOT
BRANCH   2   3
HETATM    3  C   UNL     1      -8.112  18.679  66.586  1.00  0.00    -0.271 A  
HETATM    4  C   UNL     1      -8.914  17.654  66.091  1.00  0.00    -0.138 A  
HETATM    5  C   UNL     1      -8.596  16.302  66.292  1.00  0.00    -0.339 A  
HETATM    6  C   UNL     1      -5.299  15.366  68.703  1.00  0.00    -0.094 A  
HETATM    7  C   UNL     1      -7.470  15.961  67.083  1.00  0.00    -0.227 A  
HETATM    8  C   UNL     1      -5.570  16.692  68.405  1.00  0.00    -0.121 A  
HETATM    9  C   UNL     1      -6.982  18.358  67.327  1.00  0.00    -0.208 A  
HETATM   10  N   UNL     1      -7.179  14.667  67.357  1.00  0.00    -0.190 NA 
HETATM   11  C   UNL     1      -6.124  14.401  68.161  1.00  0.00    -0.137 A  
HETATM   12  C   UNL     1      -6.677  17.015  67.601  1.00  0.00    -0.162 A  
BRANCH   5  13
HETATM   13  N   UNL     1      -9.341  15.283  65.652  1.00  0.00    -0.409 NA 
HETATM   14  H   UNL     1      -8.904  14.714  64.926  1.00  0.00     0.000 HD 
BRANCH  13  15
HETATM   15  C   UNL     1     -10.737  15.042  66.026  1.00  0.00    -0.326 C  
HETATM   16  C   UNL     1     -11.588  14.994  64.753  1.00  0.00    -0.395 C  
BRANCH  15  17
HETATM   17  C   UNL     1     -10.869  13.693  66.763  1.00  0.00    -0.291 C  
BRANCH  17  18
HETATM   18  C   UNL     1     -10.653  13.755  68.282  1.00  0.00    -0.262 C  
BRANCH  18  19
HETATM   19  C   UNL     1     -11.447  12.738  69.103  1.00  0.00    -0.306 C  
HETATM   20  H1  UNL     1     -12.320  10.872  68.875  1.00  0.00     0.000 HD 
HETATM   21  N   UNL     1     -11.791  11.550  68.328  1.00  0.00    -0.542 NA 
HETATM   22  H2  UNL     1     -10.960  11.124  67.918  1.00  0.00     0.000 HD 
ENDBRANCH  18  19
ENDBRANCH  17  18
ENDBRANCH  15  17
ENDBRANCH  13  15
ENDBRANCH   5  13
ENDBRANCH   2   3
TORSDOF 6
ENDMDL
MODEL      203
REMARK 921   NORMALIZED FREE ENERGY PREDICTED BY IDOCK:   -3.45 KCAL/MOL
REMARK 922        TOTAL FREE ENERGY PREDICTED BY IDOCK:   -5.14 KCAL/MOL
REMARK 923 INTER-LIGAND FREE ENERGY PREDICTED BY IDOCK:   -4.87 KCAL/MOL
REMARK 924 INTRA-LIGAND FREE ENERGY PREDICTED BY IDOCK:   -0.27 KCAL/MOL
REMARK 927      BINDING AFFINITY PREDICTED BY RF-SCORE:    0.00 PKD
ROOT
HETATM    1  C   UNL     1      -5.726  14.194  69.908  1.00  0.00    -0.112 C  
HETATM    2  O   UNL     1      -6.851  13.527  69.353  1.00  0.00    -0.094 OA 
ENDROOT
BRANCH   2   3
HETATM    3  C   UNL     1      -7.708  14.275  68.594  1.00  0.00    -0.135 A  
HETATM    4  C   UNL     1      -8.279  13.589  67.525  1.00  0.00    -0.186 A  
HETATM    5  C   UNL     1      -9.211  14.196  66.669  1.00  0.00    -0.252 A  
HETATM    6  C   UNL     1     -10.049  18.267  67.197  1.00  0.00    -0.367 A  
HETATM    7  C   UNL     1      -9.529  15.566  66.844  1.00  0.00    -0.228 A  
HETATM    8  C   UNL     1      -9.213  17.622  68.094  1.00  0.00    -0.282 A  
HETATM    9  C   UNL     1      -8.045  15.606  68.803  1.00  0.00    -0.169 A  
HETATM   10  N   UNL     1     -10.368  16.199  65.990  1.00  0.00    -0.341 NA 
HETATM   11  C   UNL     1     -10.595  17.520  66.173  1.00  0.00    -0.211 A  
HETATM   12  C   UNL     1      -8.923  16.257  67.922  1.00  0.00    -0.187 A  
BRANCH   5  13
HETATM   13  N   UNL     1      -9.888  13.436  65.686  1.00  0.00    -0.454 NA 
HETATM   14  H   UNL     1      -9.673  13.576  64.698  1.00  0.00     0.000 HD 
BRANCH  13  15
HETATM   15  C   UNL     1     -10.895  12.447  66.081  1.00  0.00    -0.273 C  
HETATM   16  C   UNL     1     -10.212  11.086  66.249  1.00  0.00    -0.295 C  
BRANCH  15  17
HETATM   17  C   UNL     1     -11.542  12.848  67.423  1.00  0.00    -0.414 C  
BRANCH  17  18
HETATM   18  C   UNL     1     -11.953  11.674  68.325  1.00  0.00    -0.236 C  
BRANCH  18  19
HETATM   19  C   UNL     1     -11.615  11.833  69.807  1.00  0.00    -0.299 C  
HETATM   20  H1  UNL     1     -11.418  10.665  71.509  1.00  0.00     0.000 HD 
HETATM   21  N   UNL     1     -11.643  10.560  70.520  1.00  0.00    -0.330 NA 
HETATM   22  H2  UNL     1     -11.033   9.875  70.074  1.00  0.00     0.000 HD 
ENDBRANCH  18  19
ENDBRANCH  17  18
ENDBRANCH  15  17
ENDBRANCH  13  15
ENDBRANCH   5  13
ENDBRANCH   2   3
TORSDOF 6
ENDMDL
MODEL      204
REMARK 921   NORMALIZED FREE ENERGY PREDICTED BY IDOCK:   -3.45 KCAL/MOL
REMARK 922        TOTAL FREE ENERGY PREDICTED BY IDOCK:   -5.13 KCAL/MOL
REMARK 923 INTER-LIGAND FREE ENERGY PREDICTED BY IDOCK:   -4.26 KCAL/MOL
REMARK 924 INTRA-LIGAND FREE ENERGY PREDICTED BY IDOCK:   -0.87 KCAL/MOL
REMARK 927      BINDING AFFINITY PREDICTED BY RF-SCORE:    0.00 PKD
ROOT
HETATM    1  C   UNL     1      -5.816  21.095  65.995  1.00  0.00    -0.259 C  
HETATM    2  O   UNL     1      -6.241  20.362  67.136  1.00  0.00    -0.187 OA 
ENDROOT
BRANCH   2   3
HETATM    3  C   UNL     1      -6.975  19.231  66.913  1.00  0.00    -0.198 A  
HETATM    4  C   UNL     1      -6.256  18.045  67.029  1.00  0.00    -0.185 A  
HETATM    5  C   UNL     1      -6.866  16.790  66.870  1.00  0.00    -0.220 A  
HETATM    6  C   UNL     1     -10.894  16.661  65.724  1.00  0.00    -0.107 A  
HETATM    7  C   UNL     1      -8.234  16.722  66.507  1.00  0.00    -0.290 A  
HETATM    8  C   UNL     1     -10.299  17.885  65.988  1.00  0.00    -0.318 A  
HETATM    9  C   UNL     1      -8.327  19.176  66.600  1.00  0.00    -0.309 A  
HETATM   10  N   UNL     1      -8.832  15.530  66.274  1.00  0.00    -0.321 NA 
HETATM   11  C   UNL     1     -10.126  15.525  65.879  1.00  0.00    -0.349 A  
HETATM   12  C   UNL     1      -8.948  17.938  66.369  1.00  0.00    -0.247 A  
BRANCH   5  13
HETATM   13  N   UNL     1      -6.149  15.601  67.142  1.00  0.00    -0.303 NA 
HETATM   14  H   UNL     1      -5.829  15.013  66.372  1.00  0.00     0.000 HD 
BRANCH  13  15
HETATM   15  C   UNL     1      -5.864  15.210  68.526  1.00  0.00    -0.095 C  
HETATM   16  C   UNL     1      -7.118  15.447  69.374  1.00  0.00    -0.193 C  
BRANCH  15  17
HETATM   17  C   UNL     1      -5.492  13.715  68.594  1.00  0.00    -0.084 C  
BRANCH  17  18
HETATM   18  C   UNL     1      -6.621  12.782  69.058  1.00  0.00    -0.099 C  
BRANCH  18  19
HETATM   19  C   UNL     1      -7.281  11.949  67.958  1.00  0.00    -0.090 C  
HETATM   20  H1  UNL     1      -8.291  12.224  66.169  1.00  0.00     0.000 HD 
HETATM   21  N   UNL     1      -7.851  12.780  66.903  1.00  0.00    -0.400 NA 
HETATM   22  H2  UNL     1      -7.154  13.415  66.516  1.00  0.00     0.000 HD 
ENDBRANCH  18  19
ENDBRANCH  17  18
ENDBRANCH  15  17
ENDBRANCH  13  15
ENDBRANCH   5  13
ENDBRANCH   2   3
TORSDOF 6
ENDMDL
MODEL      205
REMARK 921   NORMALIZED FREE ENERGY PREDICTED BY IDOCK:   -3.44 KCAL/MOL
REMARK 922        TOTAL FREE ENERGY PREDICTED BY IDOCK:   -5.12 KCAL/MOL
REMARK 923 INTER-LIGAND FREE ENERGY PREDICTED BY IDOCK:   -4.83 KCAL/MOL
REMARK 924 INTRA-LIGAND FREE ENERGY PREDICTED BY IDOCK:   -0.29 KCAL/MOL
REMARK 927      BINDING AFFINITY PREDICTED BY RF-SCORE:    0.00 PKD
ROOT
HETATM    1  C   UNL     1     -11.052   7.698  72.951  1.00  0.00    -0.393 C  
HETATM    2  O   UNL     1     -11.984   8.642  72.443  1.00  0.00    -0.375 OA 
ENDROOT
BRANCH   2   3
HETATM    3  C   UNL     1     -11.680   9.240  71.252  1.00  0.00    -0.346 A  
HETATM    4  C   UNL     1     -11.096   8.393  70.314  1.00  0.00    -0.216 A  
HETATM    5  C   UNL     1     -10.756   8.836  69.026  1.00  0.00    -0.112 A  
HETATM    6  C   UNL     1     -11.256  12.894  68.115  1.00  0.00    -0.305 A  
HETATM    7  C   UNL     1     -10.940  10.199  68.687  1.00  0.00    -0.230 A  
HETATM    8  C   UNL     1     -11.682  12.414  69.344  1.00  0.00    -0.384 A  
HETATM    9  C   UNL     1     -11.905  10.569  70.917  1.00  0.00    -0.455 A  
HETATM   10  N   UNL     1     -10.554  10.673  67.479  1.00  0.00    -0.233 NA 
HETATM   11  C   UNL     1     -10.704  11.994  67.227  1.00  0.00    -0.232 A  
HETATM   12  C   UNL     1     -11.513  11.055  69.659  1.00  0.00    -0.375 A  
BRANCH   5  13
HETATM   13  N   UNL     1     -10.305   7.920  68.046  1.00  0.00    -0.214 NA 
HETATM   14  H   UNL     1     -10.934   7.628  67.297  1.00  0.00     0.000 HD 
BRANCH  13  15
HETATM   15  C   UNL     1      -8.940   7.390  68.101  1.00  0.00    -0.129 C  
HETATM   16  C   UNL     1      -8.942   6.110  68.943  1.00  0.00    -0.124 C  
BRANCH  15  17
HETATM   17  C   UNL     1      -8.439   7.051  66.681  1.00  0.00    -0.121 C  
BRANCH  17  18
HETATM   18  C   UNL     1      -8.860   5.672  66.153  1.00  0.00    -0.142 C  
BRANCH  18  19
HETATM   19  C   UNL     1      -8.600   5.429  64.666  1.00  0.00    -0.097 C  
HETATM   20  H1  UNL     1      -9.397   4.349  63.087  1.00  0.00     0.000 HD 
HETATM   21  N   UNL     1      -9.570   4.511  64.078  1.00  0.00    -0.343 NA 
HETATM   22  H2  UNL     1     -10.525   4.832  64.238  1.00  0.00     0.000 HD 
ENDBRANCH  18  19
ENDBRANCH  17  18
ENDBRANCH  15  17
ENDBRANCH  13  15
ENDBRANCH   5  13
ENDBRANCH   2   3
TORSDOF 6
ENDMDL
MODEL      206
REMARK 921   NORMALIZED FREE ENERGY PREDICTED BY IDOCK:   -3.40 KCAL/MOL
REMARK 922        TOTAL FREE ENERGY PREDICTED BY IDOCK:   -5.06 KCAL/MOL
REMARK 923 INTER-LIGAND FREE ENERGY PREDICTED BY IDOCK:   -4.68 KCAL/MOL
REMARK 924 INTRA-LIGAND FREE ENERGY PREDICTED BY IDOCK:   -0.38 KCAL/MOL
REMARK 927      BINDING AFFINITY PREDICTED BY RF-SCORE:    0.00 PKD
ROOT
HETATM    1  C   UNL     1      -6.274  16.304  67.412  1.00  0.00    -0.172 C  
HETATM    2  O   UNL     1      -6.755  15.070  67.927  1.00  0.00    -0.125 OA 
ENDROOT
BRANCH   2   3
HETATM    3  C   UNL     1      -7.875  14.545  67.346  1.00  0.00    -0.199 A  
HETATM    4  C   UNL     1      -8.125  13.215  67.674  1.00  0.00    -0.176 A  
HETATM    5  C   UNL     1      -9.255  12.534  67.195  1.00  0.00    -0.205 A  
HETATM    6  C   UNL     1     -11.761  14.496  64.470  1.00  0.00    -0.421 A  
HETATM    7  C   UNL     1     -10.131  13.186  66.292  1.00  0.00    -0.285 A  
HETATM    8  C   UNL     1     -10.699  15.183  65.036  1.00  0.00    -0.451 A  
HETATM    9  C   UNL     1      -8.749  15.209  66.495  1.00  0.00    -0.280 A  
HETATM   10  N   UNL     1     -11.188  12.532  65.755  1.00  0.00    -0.307 NA 
HETATM   11  C   UNL     1     -11.961  13.187  64.857  1.00  0.00    -0.388 A  
HETATM   12  C   UNL     1      -9.851  14.531  65.947  1.00  0.00    -0.347 A  
BRANCH   5  13
HETATM   13  N   UNL     1      -9.566  11.236  67.664  1.00  0.00    -0.169 NA 
HETATM   14  H   UNL     1     -10.033  11.119  68.564  1.00  0.00     0.000 HD 
BRANCH  13  15
HETATM   15  C   UNL     1      -9.220  10.058  66.864  1.00  0.00    -0.147 C  
HETATM   16  C   UNL     1      -7.843   9.550  67.303  1.00  0.00    -0.098 C  
BRANCH  15  17
HETATM   17  C   UNL     1     -10.257   8.937  67.084  1.00  0.00    -0.339 C  
BRANCH  17  18
HETATM   18  C   UNL     1     -11.140   9.101  68.330  1.00  0.00     0.109 C  
BRANCH  18  19
HETATM   19  C   UNL     1     -10.585   8.489  69.617  1.00  0.00    -0.220 C  
HETATM   20  H1  UNL     1     -11.234   7.352  71.224  1.00  0.00     0.000 HD 
HETATM   21  N   UNL     1     -11.604   7.760  70.366  1.00  0.00    -0.456 NA 
HETATM   22  H2  UNL     1     -12.053   7.052  69.785  1.00  0.00     0.000 HD 
ENDBRANCH  18  19
ENDBRANCH  17  18
ENDBRANCH  15  17
ENDBRANCH  13  15
ENDBRANCH   5  13
ENDBRANCH   2   3
TORSDOF 6
ENDMDL
MODEL      207
REMARK 921   NORMALIZED FREE ENERGY PREDICTED BY IDOCK:   -3.38 KCAL/MOL
REMARK 922        TOTAL FREE ENERGY PREDICTED BY IDOCK:   -5.03 KCAL/MOL
REMARK 923 INTER-LIGAND FREE ENERGY PREDICTED BY IDOCK:   -4.56 KCAL/MOL
REMARK 924 INTRA-LIGAND FREE ENERGY PREDICTED BY IDOCK:   -0.47 KCAL/MOL
REMARK 927      BINDING AFFINITY PREDICTED BY RF-SCORE:    0.00 PKD
ROOT
HETATM    1  C   UNL     1      -5.889  11.679  70.060  1.00  0.00    -0.141 C  
HETATM    2  O   UNL     1      -5.905  12.197  68.737  1.00  0.00    -0.053 OA 
ENDROOT
BRANCH   2   3
HETATM    3  C   UNL     1      -7.088  12.710  68.283  1.00  0.00    -0.105 A  
HETATM    4  C   UNL     1      -6.994  13.993  67.752  1.00  0.00    -0.188 A  
HETATM    5  C   UNL     1      -8.106  14.653  67.206  1.00  0.00    -0.206 A  
HETATM    6  C   UNL     1     -11.852  12.794  67.463  1.00  0.00    -0.402 A  
HETATM    7  C   UNL     1      -9.379  14.032  67.258  1.00  0.00    -0.230 A  
HETATM    8  C   UNL     1     -10.724  12.118  67.901  1.00  0.00    -0.237 A  
HETATM    9  C   UNL     1      -8.322  12.073  68.302  1.00  0.00    -0.163 A  
HETATM   10  N   UNL     1     -10.483  14.672  66.807  1.00  0.00    -0.274 NA 
HETATM   11  C   UNL     1     -11.681  14.055  66.930  1.00  0.00    -0.410 A  
HETATM   12  C   UNL     1      -9.464  12.736  67.823  1.00  0.00    -0.205 A  
BRANCH   5  13
HETATM   13  N   UNL     1      -7.953  15.891  66.538  1.00  0.00    -0.248 NA 
HETATM   14  H   UNL     1      -8.542  16.110  65.734  1.00  0.00     0.000 HD 
BRANCH  13  15
HETATM   15  C   UNL     1      -6.952  16.859  66.996  1.00  0.00    -0.200 C  
HETATM   16  C   UNL     1      -6.675  17.854  65.864  1.00  0.00    -0.312 C  
BRANCH  15  17
HETATM   17  C   UNL     1      -7.479  17.634  68.221  1.00  0.00    -0.251 C  
BRANCH  17  18
HETATM   18  C   UNL     1      -6.414  18.416  69.005  1.00  0.00    -0.254 C  
BRANCH  18  19
HETATM   19  C   UNL     1      -6.728  19.893  69.250  1.00  0.00    -0.326 C  
HETATM   20  H1  UNL     1      -5.815  21.589  70.015  1.00  0.00     0.000 HD 
HETATM   21  N   UNL     1      -5.605  20.604  69.851  1.00  0.00    -0.351 NA 
HETATM   22  H2  UNL     1      -4.759  20.496  69.293  1.00  0.00     0.000 HD 
ENDBRANCH  18  19
ENDBRANCH  17  18
ENDBRANCH  15  17
ENDBRANCH  13  15
ENDBRANCH   5  13
ENDBRANCH   2   3
TORSDOF 6
ENDMDL
MODEL      208
REMARK 921   NORMALIZED FREE ENERGY PREDICTED BY IDOCK:   -3.34 KCAL/MOL
REMARK 922        TOTAL FREE ENERGY PREDICTED BY IDOCK:   -4.98 KCAL/MOL
REMARK 923 INTER-LIGAND FREE ENERGY PREDICTED BY IDOCK:   -5.21 KCAL/MOL
REMARK 924 INTRA-LIGAND FREE ENERGY PREDICTED BY IDOCK:    0.23 KCAL/MOL
REMARK 927      BINDING AFFINITY PREDICTED BY RF-SCORE:    0.00 PKD
ROOT
HETATM    1  C   UNL     1     -10.556  18.554  65.331  1.00  0.00     0.243 C  
HETATM    2  O   UNL     1     -10.954  17.306  64.781  1.00  0.00    -0.950 OA 
ENDROOT
BRANCH   2   3
HETATM    3  C   UNL     1     -10.831  16.204  65.581  1.00  0.00    -0.238 A  
HETATM    4  C   UNL     1     -10.323  16.467  66.850  1.00  0.00    -0.300 A  
HETATM    5  C   UNL     1     -10.169  15.455  67.810  1.00  0.00    -0.241 A  
HETATM    6  C   UNL     1     -10.990  11.502  66.692  1.00  0.00    -0.349 A  
HETATM    7  C   UNL     1     -10.465  14.114  67.462  1.00  0.00    -0.249 A  
HETATM    8  C   UNL     1     -11.234  12.529  65.794  1.00  0.00    -0.356 A  
HETATM    9  C   UNL     1     -11.165  14.900  65.241  1.00  0.00    -0.369 A  
HETATM   10  N   UNL     1     -10.256  13.106  68.342  1.00  0.00    -0.248 NA 
HETATM   11  C   UNL     1     -10.505  11.838  67.939  1.00  0.00    -0.196 A  
HETATM   12  C   UNL     1     -10.958  13.857  66.160  1.00  0.00    -0.293 A  
BRANCH   5  13
HETATM   13  N   UNL     1      -9.796  15.773  69.138  1.00  0.00    -0.230 NA 
HETATM   14  H   UNL     1     -10.395  15.492  69.915  1.00  0.00     0.000 HD 
BRANCH  13  15
HETATM   15  C   UNL     1      -8.553  16.503  69.402  1.00  0.00     0.080 C  
HETATM   16  C   UNL     1      -7.369  15.549  69.205  1.00  0.00    -0.202 C  
BRANCH  15  17
HETATM   17  C   UNL     1      -8.406  17.685  68.421  1.00  0.00    -0.290 C  
BRANCH  17  18
HETATM   18  C   UNL     1      -7.920  18.999  69.050  1.00  0.00    -0.249 C  
BRANCH  18  19
HETATM   19  C   UNL     1      -7.116  19.914  68.126  1.00  0.00    -0.291 C  
HETATM   20  H1  UNL     1      -7.438  21.373  66.690  1.00  0.00     0.000 HD 
HETATM   21  N   UNL     1      -7.974  20.763  67.306  1.00  0.00    -0.483 NA 
HETATM   22  H2  UNL     1      -8.622  21.299  67.883  1.00  0.00     0.000 HD 
ENDBRANCH  18  19
ENDBRANCH  17  18
ENDBRANCH  15  17
ENDBRANCH  13  15
ENDBRANCH   5  13
ENDBRANCH   2   3
TORSDOF 6
ENDMDL
MODEL      209
REMARK 921   NORMALIZED FREE ENERGY PREDICTED BY IDOCK:   -3.34 KCAL/MOL
REMARK 922        TOTAL FREE ENERGY PREDICTED BY IDOCK:   -4.98 KCAL/MOL
REMARK 923 INTER-LIGAND FREE ENERGY PREDICTED BY IDOCK:   -4.51 KCAL/MOL
REMARK 924 INTRA-LIGAND FREE ENERGY PREDICTED BY IDOCK:   -0.46 KCAL/MOL
REMARK 927      BINDING AFFINITY PREDICTED BY RF-SCORE:    0.00 PKD
ROOT
HETATM    1  C   UNL     1      -7.526  10.555  63.034  1.00  0.00    -0.041 C  
HETATM    2  O   UNL     1      -8.888  10.309  63.354  1.00  0.00    -0.180 OA 
ENDROOT
BRANCH   2   3
HETATM    3  C   UNL     1      -9.345  10.793  64.549  1.00  0.00    -0.236 A  
HETATM    4  C   UNL     1      -9.227  12.172  64.695  1.00  0.00     0.451 A  
HETATM    5  C   UNL     1      -9.683  12.837  65.844  1.00  0.00    -0.198 A  
HETATM    6  C   UNL     1     -11.165  10.543  69.020  1.00  0.00    -0.316 A  
HETATM    7  C   UNL     1     -10.211  12.084  66.921  1.00  0.00    -0.208 A  
HETATM    8  C   UNL     1     -10.806   9.917  67.837  1.00  0.00    -0.312 A  
HETATM    9  C   UNL     1      -9.901  10.047  65.580  1.00  0.00    -0.373 A  
HETATM   10  N   UNL     1     -10.591  12.688  68.071  1.00  0.00    -0.215 NA 
HETATM   11  C   UNL     1     -11.040  11.915  69.087  1.00  0.00    -0.228 A  
HETATM   12  C   UNL     1     -10.304  10.678  66.768  1.00  0.00    -0.299 A  
BRANCH   5  13
HETATM   13  N   UNL     1      -9.689  14.251  65.903  1.00  0.00    -0.451 NA 
HETATM   14  H   UNL     1      -9.078  14.735  66.561  1.00  0.00     0.000 HD 
BRANCH  13  15
HETATM   15  C   UNL     1     -10.570  15.024  65.023  1.00  0.00    -0.412 C  
HETATM   16  C   UNL     1     -11.996  14.476  65.147  1.00  0.00    -0.369 C  
BRANCH  15  17
HETATM   17  C   UNL     1     -10.571  16.510  65.436  1.00  0.00    -0.293 C  
BRANCH  17  18
HETATM   18  C   UNL     1     -10.096  16.789  66.870  1.00  0.00    -0.286 C  
BRANCH  18  19
HETATM   19  C   UNL     1      -8.891  17.722  66.995  1.00  0.00    -0.252 C  
HETATM   20  H1  UNL     1      -8.255  19.324  68.147  1.00  0.00     0.000 HD 
HETATM   21  N   UNL     1      -9.059  18.701  68.063  1.00  0.00    -0.297 NA 
HETATM   22  H2  UNL     1      -9.266  18.246  68.952  1.00  0.00     0.000 HD 
ENDBRANCH  18  19
ENDBRANCH  17  18
ENDBRANCH  15  17
ENDBRANCH  13  15
ENDBRANCH   5  13
ENDBRANCH   2   3
TORSDOF 6
ENDMDL
MODEL      210
REMARK 921   NORMALIZED FREE ENERGY PREDICTED BY IDOCK:   -3.33 KCAL/MOL
REMARK 922        TOTAL FREE ENERGY PREDICTED BY IDOCK:   -4.97 KCAL/MOL
REMARK 923 INTER-LIGAND FREE ENERGY PREDICTED BY IDOCK:   -4.64 KCAL/MOL
REMARK 924 INTRA-LIGAND FREE ENERGY PREDICTED BY IDOCK:   -0.33 KCAL/MOL
REMARK 927      BINDING AFFINITY PREDICTED BY RF-SCORE:    0.00 PKD
ROOT
HETATM    1  C   UNL     1     -11.859  15.225  64.340  1.00  0.00    -0.281 C  
HETATM    2  O   UNL     1     -11.949  14.890  65.718  1.00  0.00    -0.211 OA 
ENDROOT
BRANCH   2   3
HETATM    3  C   UNL     1     -10.775  14.744  66.403  1.00  0.00    -0.313 A  
HETATM    4  C   UNL     1     -10.697  13.586  67.172  1.00  0.00    -0.282 A  
HETATM    5  C   UNL     1      -9.546  13.262  67.907  1.00  0.00    -0.217 A  
HETATM    6  C   UNL     1      -6.393  16.019  67.998  1.00  0.00    -0.143 A  
HETATM    7  C   UNL     1      -8.457  14.168  67.932  1.00  0.00    -0.167 A  
HETATM    8  C   UNL     1      -7.495  16.270  67.196  1.00  0.00    -0.238 A  
HETATM    9  C   UNL     1      -9.697  15.619  66.384  1.00  0.00    -0.302 A  
HETATM   10  N   UNL     1      -7.363  13.918  68.690  1.00  0.00    -0.113 NA 
HETATM   11  C   UNL     1      -6.375  14.843  68.718  1.00  0.00    -0.082 A  
HETATM   12  C   UNL     1      -8.559  15.353  67.163  1.00  0.00    -0.235 A  
BRANCH   5  13
HETATM   13  N   UNL     1      -9.436  12.010  68.557  1.00  0.00    -0.329 NA 
HETATM   14  H   UNL     1      -9.571  11.948  69.567  1.00  0.00     0.000 HD 
BRANCH  13  15
HETATM   15  C   UNL     1      -9.129  10.801  67.787  1.00  0.00    -0.151 C  
HETATM   16  C   UNL     1     -10.290   9.812  67.938  1.00  0.00    -0.258 C  
BRANCH  15  17
HETATM   17  C   UNL     1      -8.962  11.146  66.292  1.00  0.00    -0.202 C  
BRANCH  17  18
HETATM   18  C   UNL     1      -9.804  10.297  65.329  1.00  0.00    -0.372 C  
BRANCH  18  19
HETATM   19  C   UNL     1      -9.949  10.855  63.913  1.00  0.00    -0.343 C  
HETATM   20  H1  UNL     1     -11.223  12.078  62.828  1.00  0.00     0.000 HD 
HETATM   21  N   UNL     1     -11.126  11.705  63.772  1.00  0.00    -0.399 NA 
HETATM   22  H2  UNL     1     -11.126  12.454  64.465  1.00  0.00     0.000 HD 
ENDBRANCH  18  19
ENDBRANCH  17  18
ENDBRANCH  15  17
ENDBRANCH  13  15
ENDBRANCH   5  13
ENDBRANCH   2   3
TORSDOF 6
ENDMDL
MODEL      211
REMARK 921   NORMALIZED FREE ENERGY PREDICTED BY IDOCK:   -3.33 KCAL/MOL
REMARK 922        TOTAL FREE ENERGY PREDICTED BY IDOCK:   -4.96 KCAL/MOL
REMARK 923 INTER-LIGAND FREE ENERGY PREDICTED BY IDOCK:   -4.96 KCAL/MOL
REMARK 924 INTRA-LIGAND FREE ENERGY PREDICTED BY IDOCK:   -0.00 KCAL/MOL
REMARK 927      BINDING AFFINITY PREDICTED BY RF-SCORE:    0.00 PKD
ROOT
HETATM    1  C   UNL     1      -5.126  21.290  65.221  1.00  0.00    -0.156 C  
HETATM    2  O   UNL     1      -5.395  21.304  66.616  1.00  0.00    -0.207 OA 
ENDROOT
BRANCH   2   3
HETATM    3  C   UNL     1      -6.446  20.550  67.056  1.00  0.00    -0.240 A  
HETATM    4  C   UNL     1      -6.092  19.518  67.921  1.00  0.00    -0.230 A  
HETATM    5  C   UNL     1      -7.052  18.671  68.497  1.00  0.00    -0.277 A  
HETATM    6  C   UNL     1     -11.052  19.107  67.328  1.00  0.00    -0.238 A  
HETATM    7  C   UNL     1      -8.415  18.817  68.136  1.00  0.00    -0.306 A  
HETATM    8  C   UNL     1     -10.102  19.998  66.853  1.00  0.00    -0.601 A  
HETATM    9  C   UNL     1      -7.783  20.730  66.728  1.00  0.00    -0.160 A  
HETATM   10  N   UNL     1      -9.355  17.970  68.617  1.00  0.00    -0.300 NA 
HETATM   11  C   UNL     1     -10.633  18.121  68.197  1.00  0.00    -0.302 A  
HETATM   12  C   UNL     1      -8.758  19.856  67.237  1.00  0.00    -0.399 A  
BRANCH   5  13
HETATM   13  N   UNL     1      -6.683  17.731  69.488  1.00  0.00    -0.167 NA 
HETATM   14  H   UNL     1      -6.623  18.019  70.465  1.00  0.00     0.000 HD 
BRANCH  13  15
HETATM   15  C   UNL     1      -6.384  16.345  69.116  1.00  0.00    -0.177 C  
HETATM   16  C   UNL     1      -5.182  15.863  69.934  1.00  0.00    -0.121 C  
BRANCH  15  17
HETATM   17  C   UNL     1      -7.592  15.435  69.424  1.00  0.00    -0.224 C  
BRANCH  17  18
HETATM   18  C   UNL     1      -8.135  14.643  68.226  1.00  0.00    -0.143 C  
BRANCH  18  19
HETATM   19  C   UNL     1      -8.480  15.472  66.989  1.00  0.00    -0.235 C  
HETATM   20  H1  UNL     1      -9.308  15.217  65.106  1.00  0.00     0.000 HD 
HETATM   21  N   UNL     1      -9.078  14.665  65.931  1.00  0.00    -0.476 NA 
HETATM   22  H2  UNL     1      -9.893  14.155  66.273  1.00  0.00     0.000 HD 
ENDBRANCH  18  19
ENDBRANCH  17  18
ENDBRANCH  15  17
ENDBRANCH  13  15
ENDBRANCH   5  13
ENDBRANCH   2   3
TORSDOF 6
ENDMDL
MODEL      212
REMARK 921   NORMALIZED FREE ENERGY PREDICTED BY IDOCK:   -3.31 KCAL/MOL
REMARK 922        TOTAL FREE ENERGY PREDICTED BY IDOCK:   -4.95 KCAL/MOL
REMARK 923 INTER-LIGAND FREE ENERGY PREDICTED BY IDOCK:   -5.22 KCAL/MOL
REMARK 924 INTRA-LIGAND FREE ENERGY PREDICTED BY IDOCK:    0.28 KCAL/MOL
REMARK 927      BINDING AFFINITY PREDICTED BY RF-SCORE:    0.00 PKD
ROOT
HETATM    1  C   UNL     1      -8.358   5.190  73.722  1.00  0.00    -0.111 C  
HETATM    2  O   UNL     1      -9.168   6.309  74.055  1.00  0.00    -0.128 OA 
ENDROOT
BRANCH   2   3
HETATM    3  C   UNL     1      -9.583   7.107  73.026  1.00  0.00    -0.163 A  
HETATM    4  C   UNL     1      -8.799   7.022  71.879  1.00  0.00    -0.128 A  
HETATM    5  C   UNL     1      -9.107   7.746  70.716  1.00  0.00    -0.149 A  
HETATM    6  C   UNL     1     -12.307  10.448  70.836  1.00  0.00    -0.480 A  
HETATM    7  C   UNL     1     -10.201   8.647  70.725  1.00  0.00    -0.204 A  
HETATM    8  C   UNL     1     -12.049   9.647  71.938  1.00  0.00    -0.380 A  
HETATM    9  C   UNL     1     -10.683   7.955  73.034  1.00  0.00    -0.408 A  
HETATM   10  N   UNL     1     -10.478   9.413  69.644  1.00  0.00    -0.213 NA 
HETATM   11  C   UNL     1     -11.502  10.295  69.727  1.00  0.00    -0.256 A  
HETATM   12  C   UNL     1     -10.975   8.741  71.907  1.00  0.00    -0.435 A  
BRANCH   5  13
HETATM   13  N   UNL     1      -8.385   7.526  69.519  1.00  0.00    -0.130 NA 
HETATM   14  H   UNL     1      -7.375   7.390  69.553  1.00  0.00     0.000 HD 
BRANCH  13  15
HETATM   15  C   UNL     1      -9.083   7.494  68.231  1.00  0.00    -0.132 C  
HETATM   16  C   UNL     1      -8.265   8.289  67.207  1.00  0.00    -0.120 C  
BRANCH  15  17
HETATM   17  C   UNL     1      -9.223   6.040  67.733  1.00  0.00    -0.107 C  
BRANCH  17  18
HETATM   18  C   UNL     1     -10.412   5.783  66.795  1.00  0.00    -0.350 C  
BRANCH  18  19
HETATM   19  C   UNL     1     -10.279   4.565  65.881  1.00  0.00    -0.263 C  
HETATM   20  H1  UNL     1     -11.264   3.680  64.287  1.00  0.00     0.000 HD 
HETATM   21  N   UNL     1     -11.353   4.492  64.897  1.00  0.00    -1.065 NA 
HETATM   22  H2  UNL     1     -11.416   5.354  64.355  1.00  0.00     0.000 HD 
ENDBRANCH  18  19
ENDBRANCH  17  18
ENDBRANCH  15  17
ENDBRANCH  13  15
ENDBRANCH   5  13
ENDBRANCH   2   3
TORSDOF 6
ENDMDL
MODEL      213
REMARK 921   NORMALIZED FREE ENERGY PREDICTED BY IDOCK:   -3.31 KCAL/MOL
REMARK 922        TOTAL FREE ENERGY PREDICTED BY IDOCK:   -4.94 KCAL/MOL
REMARK 923 INTER-LIGAND FREE ENERGY PREDICTED BY IDOCK:   -4.48 KCAL/MOL
REMARK 924 INTRA-LIGAND FREE ENERGY PREDICTED BY IDOCK:   -0.46 KCAL/MOL
REMARK 927      BINDING AFFINITY PREDICTED BY RF-SCORE:    0.00 PKD
ROOT
HETATM    1  C   UNL     1     -10.875  10.262  67.525  1.00  0.00    -0.298 C  
HETATM    2  O   UNL     1     -10.657   9.105  66.730  1.00  0.00    -0.227 OA 
ENDROOT
BRANCH   2   3
HETATM    3  C   UNL     1     -10.245   7.973  67.375  1.00  0.00    -0.261 A  
HETATM    4  C   UNL     1      -9.737   8.191  68.653  1.00  0.00    -0.158 A  
HETATM    5  C   UNL     1      -9.305   7.134  69.469  1.00  0.00    -0.148 A  
HETATM    6  C   UNL     1      -9.288   3.260  67.873  1.00  0.00    -0.246 A  
HETATM    7  C   UNL     1      -9.315   5.812  68.959  1.00  0.00    -0.123 A  
HETATM    8  C   UNL     1      -9.807   4.304  67.123  1.00  0.00    -0.205 A  
HETATM    9  C   UNL     1     -10.300   6.677  66.880  1.00  0.00    -0.324 A  
HETATM   10  N   UNL     1      -8.836   4.780  69.694  1.00  0.00    -0.085 NA 
HETATM   11  C   UNL     1      -8.820   3.547  69.138  1.00  0.00    -0.104 A  
HETATM   12  C   UNL     1      -9.812   5.607  67.649  1.00  0.00    -0.154 A  
BRANCH   5  13
HETATM   13  N   UNL     1      -8.936   7.367  70.815  1.00  0.00    -0.150 NA 
HETATM   14  H   UNL     1      -7.962   7.561  71.048  1.00  0.00     0.000 HD 
BRANCH  13  15
HETATM   15  C   UNL     1      -9.947   7.332  71.876  1.00  0.00    -0.166 C  
HETATM   16  C   UNL     1      -9.271   6.921  73.188  1.00  0.00    -0.157 C  
BRANCH  15  17
HETATM   17  C   UNL     1     -10.581   8.727  72.059  1.00  0.00    -0.414 C  
BRANCH  17  18
HETATM   18  C   UNL     1     -11.957   8.909  71.402  1.00  0.00    -0.374 C  
BRANCH  18  19
HETATM   19  C   UNL     1     -13.068   9.406  72.328  1.00  0.00    -0.428 C  
HETATM   20  H1  UNL     1     -14.189  11.118  72.661  1.00  0.00     0.000 HD 
HETATM   21  N   UNL     1     -13.448  10.786  72.044  1.00  0.00    -0.459 NA 
HETATM   22  H2  UNL     1     -13.705  10.904  71.064  1.00  0.00     0.000 HD 
ENDBRANCH  18  19
ENDBRANCH  17  18
ENDBRANCH  15  17
ENDBRANCH  13  15
ENDBRANCH   5  13
ENDBRANCH   2   3
TORSDOF 6
ENDMDL
MODEL      214
REMARK 921   NORMALIZED FREE ENERGY PREDICTED BY IDOCK:   -3.25 KCAL/MOL
REMARK 922        TOTAL FREE ENERGY PREDICTED BY IDOCK:   -4.86 KCAL/MOL
REMARK 923 INTER-LIGAND FREE ENERGY PREDICTED BY IDOCK:   -4.56 KCAL/MOL
REMARK 924 INTRA-LIGAND FREE ENERGY PREDICTED BY IDOCK:   -0.30 KCAL/MOL
REMARK 927      BINDING AFFINITY PREDICTED BY RF-SCORE:    0.00 PKD
ROOT
HETATM    1  C   UNL     1      -9.635  11.427  63.126  1.00  0.00    -0.380 C  
HETATM    2  O   UNL     1     -10.393  12.202  64.044  1.00  0.00    -0.326 OA 
ENDROOT
BRANCH   2   3
HETATM    3  C   UNL     1     -10.381  11.806  65.353  1.00  0.00    -0.268 A  
HETATM    4  C   UNL     1      -9.400  10.868  65.662  1.00  0.00    -0.236 A  
HETATM    5  C   UNL     1      -9.224  10.383  66.967  1.00  0.00    -0.147 A  
HETATM    6  C   UNL     1     -11.929  11.596  69.928  1.00  0.00    -0.414 A  
HETATM    7  C   UNL     1     -10.111  10.799  67.991  1.00  0.00    -0.176 A  
HETATM    8  C   UNL     1     -12.020  12.142  68.657  1.00  0.00    -0.290 A  
HETATM    9  C   UNL     1     -11.230  12.255  66.356  1.00  0.00    -0.370 A  
HETATM   10  N   UNL     1     -10.013  10.294  69.243  1.00  0.00    -0.217 NA 
HETATM   11  C   UNL     1     -10.920  10.686  70.168  1.00  0.00    -0.222 A  
HETATM   12  C   UNL     1     -11.119  11.737  67.657  1.00  0.00    -0.312 A  
BRANCH   5  13
HETATM   13  N   UNL     1      -8.126   9.548  67.283  1.00  0.00    -0.109 NA 
HETATM   14  H   UNL     1      -7.252   9.959  67.611  1.00  0.00     0.000 HD 
BRANCH  13  15
HETATM   15  C   UNL     1      -8.240   8.093  67.142  1.00  0.00    -0.120 C  
HETATM   16  C   UNL     1      -7.801   7.435  68.455  1.00  0.00    -0.122 C  
BRANCH  15  17
HETATM   17  C   UNL     1      -9.702   7.696  66.852  1.00  0.00    -0.277 C  
BRANCH  17  18
HETATM   18  C   UNL     1      -9.877   6.439  65.986  1.00  0.00     0.153 C  
BRANCH  18  19
HETATM   19  C   UNL     1     -10.463   5.222  66.702  1.00  0.00    -0.290 C  
HETATM   20  H1  UNL     1     -10.757   3.196  66.375  1.00  0.00     0.000 HD 
HETATM   21  N   UNL     1     -10.366   4.008  65.898  1.00  0.00    -0.441 NA 
HETATM   22  H2  UNL     1      -9.405   3.835  65.604  1.00  0.00     0.000 HD 
ENDBRANCH  18  19
ENDBRANCH  17  18
ENDBRANCH  15  17
ENDBRANCH  13  15
ENDBRANCH   5  13
ENDBRANCH   2   3
TORSDOF 6
ENDMDL
MODEL      215
REMARK 921   NORMALIZED FREE ENERGY PREDICTED BY IDOCK:   -3.25 KCAL/MOL
REMARK 922        TOTAL FREE ENERGY PREDICTED BY IDOCK:   -4.86 KCAL/MOL
REMARK 923 INTER-LIGAND FREE ENERGY PREDICTED BY IDOCK:   -4.31 KCAL/MOL
REMARK 924 INTRA-LIGAND FREE ENERGY PREDICTED BY IDOCK:   -0.55 KCAL/MOL
REMARK 927      BINDING AFFINITY PREDICTED BY RF-SCORE:    0.00 PKD
ROOT
HETATM    1  C   UNL     1      -8.278   8.484  63.694  1.00  0.00    -0.128 C  
HETATM    2  O   UNL     1      -8.646   8.353  65.060  1.00  0.00    -0.169 OA 
ENDROOT
BRANCH   2   3
HETATM    3  C   UNL     1      -9.207   9.445  65.662  1.00  0.00    -0.226 A  
HETATM    4  C   UNL     1      -8.764   9.676  66.961  1.00  0.00    -0.135 A  
HETATM    5  C   UNL     1      -9.209  10.777  67.710  1.00  0.00    -0.152 A  
HETATM    6  C   UNL     1     -12.171  13.242  66.066  1.00  0.00    -0.483 A  
HETATM    7  C   UNL     1     -10.193  11.639  67.164  1.00  0.00    -0.213 A  
HETATM    8  C   UNL     1     -11.642  12.212  65.304  1.00  0.00    -0.376 A  
HETATM    9  C   UNL     1     -10.139  10.307  65.099  1.00  0.00    -0.355 A  
HETATM   10  N   UNL     1     -10.696  12.666  67.889  1.00  0.00    -0.213 NA 
HETATM   11  C   UNL     1     -11.671  13.426  67.338  1.00  0.00    -0.373 A  
HETATM   12  C   UNL     1     -10.652  11.378  65.850  1.00  0.00    -0.317 A  
BRANCH   5  13
HETATM   13  N   UNL     1      -8.631  11.074  68.967  1.00  0.00    -0.328 NA 
HETATM   14  H   UNL     1      -9.160  11.611  69.655  1.00  0.00     0.000 HD 
BRANCH  13  15
HETATM   15  C   UNL     1      -7.277  10.615  69.285  1.00  0.00    -0.113 C  
HETATM   16  C   UNL     1      -6.504  11.769  69.934  1.00  0.00    -0.063 C  
BRANCH  15  17
HETATM   17  C   UNL     1      -7.330   9.433  70.276  1.00  0.00    -0.118 C  
BRANCH  17  18
HETATM   18  C   UNL     1      -8.674   9.245  70.995  1.00  0.00    -0.182 C  
BRANCH  18  19
HETATM   19  C   UNL     1      -9.265   7.836  70.928  1.00  0.00    -0.152 C  
HETATM   20  H1  UNL     1     -11.031   6.849  71.379  1.00  0.00     0.000 HD 
HETATM   21  N   UNL     1     -10.636   7.788  71.424  1.00  0.00    -0.213 NA 
HETATM   22  H2  UNL     1     -11.229   8.460  70.937  1.00  0.00     0.000 HD 
ENDBRANCH  18  19
ENDBRANCH  17  18
ENDBRANCH  15  17
ENDBRANCH  13  15
ENDBRANCH   5  13
ENDBRANCH   2   3
TORSDOF 6
ENDMDL
MODEL      216
REMARK 921   NORMALIZED FREE ENERGY PREDICTED BY IDOCK:   -3.22 KCAL/MOL
REMARK 922        TOTAL FREE ENERGY PREDICTED BY IDOCK:   -4.82 KCAL/MOL
REMARK 923 INTER-LIGAND FREE ENERGY PREDICTED BY IDOCK:   -4.46 KCAL/MOL
REMARK 924 INTRA-LIGAND FREE ENERGY PREDICTED BY IDOCK:   -0.36 KCAL/MOL
REMARK 927      BINDING AFFINITY PREDICTED BY RF-SCORE:    0.00 PKD
ROOT
HETATM    1  C   UNL     1     -11.963  13.010  67.841  1.00  0.00    -0.291 C  
HETATM    2  O   UNL     1     -11.521  11.726  67.423  1.00  0.00    -0.338 OA 
ENDROOT
BRANCH   2   3
HETATM    3  C   UNL     1     -11.383  10.768  68.388  1.00  0.00    -0.302 A  
HETATM    4  C   UNL     1     -10.585   9.689  68.019  1.00  0.00    -0.292 A  
HETATM    5  C   UNL     1     -10.308   8.636  68.905  1.00  0.00    -0.211 A  
HETATM    6  C   UNL     1     -12.187   8.633  72.650  1.00  0.00    -0.274 A  
HETATM    7  C   UNL     1     -10.912   8.627  70.187  1.00  0.00    -0.226 A  
HETATM    8  C   UNL     1     -12.363   9.713  71.800  1.00  0.00    -0.474 A  
HETATM    9  C   UNL     1     -11.947  10.792  69.657  1.00  0.00    -0.385 A  
HETATM   10  N   UNL     1     -10.723   7.589  71.037  1.00  0.00    -0.229 NA 
HETATM   11  C   UNL     1     -11.367   7.607  72.227  1.00  0.00    -0.306 A  
HETATM   12  C   UNL     1     -11.740   9.720  70.541  1.00  0.00    -0.343 A  
BRANCH   5  13
HETATM   13  N   UNL     1      -9.375   7.630  68.559  1.00  0.00    -0.147 NA 
HETATM   14  H   UNL     1      -8.376   7.836  68.577  1.00  0.00     0.000 HD 
BRANCH  13  15
HETATM   15  C   UNL     1      -9.837   6.294  68.175  1.00  0.00    -0.129 C  
HETATM   16  C   UNL     1     -10.059   6.266  66.658  1.00  0.00    -0.214 C  
BRANCH  15  17
HETATM   17  C   UNL     1      -8.778   5.234  68.541  1.00  0.00    -0.099 C  
BRANCH  17  18
HETATM   18  C   UNL     1      -8.110   5.425  69.911  1.00  0.00    -0.088 C  
BRANCH  18  19
HETATM   19  C   UNL     1      -8.348   4.303  70.923  1.00  0.00    -0.079 C  
HETATM   20  H1  UNL     1      -7.348   2.677  71.731  1.00  0.00     0.000 HD 
HETATM   21  N   UNL     1      -7.190   3.426  71.057  1.00  0.00    -0.033 NA 
HETATM   22  H2  UNL     1      -6.350   3.956  71.286  1.00  0.00     0.000 HD 
ENDBRANCH  18  19
ENDBRANCH  17  18
ENDBRANCH  15  17
ENDBRANCH  13  15
ENDBRANCH   5  13
ENDBRANCH   2   3
TORSDOF 6
ENDMDL
MODEL      217
REMARK 921   NORMALIZED FREE ENERGY PREDICTED BY IDOCK:   -3.21 KCAL/MOL
REMARK 922        TOTAL FREE ENERGY PREDICTED BY IDOCK:   -4.81 KCAL/MOL
REMARK 923 INTER-LIGAND FREE ENERGY PREDICTED BY IDOCK:   -4.24 KCAL/MOL
REMARK 924 INTRA-LIGAND FREE ENERGY PREDICTED BY IDOCK:   -0.57 KCAL/MOL
REMARK 927      BINDING AFFINITY PREDICTED BY RF-SCORE:    0.00 PKD
ROOT
HETATM    1  C   UNL     1     -10.017   3.892  64.631  1.00  0.00    -0.204 C  
HETATM    2  O   UNL     1      -9.395   4.262  65.855  1.00  0.00    -0.141 OA 
ENDROOT
BRANCH   2   3
HETATM    3  C   UNL     1      -9.698   5.495  66.361  1.00  0.00    -0.163 A  
HETATM    4  C   UNL     1     -10.530   5.470  67.478  1.00  0.00    -0.269 A  
HETATM    5  C   UNL     1     -10.907   6.645  68.146  1.00  0.00    -0.263 A  
HETATM    6  C   UNL     1      -9.722  10.326  66.532  1.00  0.00    -0.243 A  
HETATM    7  C   UNL     1     -10.497   7.901  67.633  1.00  0.00    -0.234 A  
HETATM    8  C   UNL     1      -9.275   9.151  65.950  1.00  0.00    -0.286 A  
HETATM    9  C   UNL     1      -9.254   6.716  65.873  1.00  0.00    -0.010 A  
HETATM   10  N   UNL     1     -10.906   9.055  68.211  1.00  0.00    -0.087 NA 
HETATM   11  C   UNL     1     -10.527  10.226  67.648  1.00  0.00    -0.239 A  
HETATM   12  C   UNL     1      -9.671   7.912  66.482  1.00  0.00    -0.279 A  
BRANCH   5  13
HETATM   13  N   UNL     1     -11.626   6.583  69.363  1.00  0.00    -0.653 NA 
HETATM   14  H   UNL     1     -12.635   6.429  69.350  1.00  0.00     0.000 HD 
BRANCH  13  15
HETATM   15  C   UNL     1     -10.928   6.737  70.642  1.00  0.00    -0.267 C  
HETATM   16  C   UNL     1     -11.767   7.635  71.557  1.00  0.00    -0.310 C  
BRANCH  15  17
HETATM   17  C   UNL     1     -10.747   5.364  71.323  1.00  0.00    -0.249 C  
BRANCH  17  18
HETATM   18  C   UNL     1      -9.292   4.966  71.612  1.00  0.00    -0.192 C  
BRANCH  18  19
HETATM   19  C   UNL     1      -8.266   5.419  70.572  1.00  0.00    -0.110 C  
HETATM   20  H1  UNL     1      -6.210   5.575  70.355  1.00  0.00     0.000 HD 
HETATM   21  N   UNL     1      -6.895   5.272  71.048  1.00  0.00    -0.046 NA 
HETATM   22  H2  UNL     1      -6.711   4.317  71.355  1.00  0.00     0.000 HD 
ENDBRANCH  18  19
ENDBRANCH  17  18
ENDBRANCH  15  17
ENDBRANCH  13  15
ENDBRANCH   5  13
ENDBRANCH   2   3
TORSDOF 6
ENDMDL
MODEL      218
REMARK 921   NORMALIZED FREE ENERGY PREDICTED BY IDOCK:   -3.21 KCAL/MOL
REMARK 922        TOTAL FREE ENERGY PREDICTED BY IDOCK:   -4.81 KCAL/MOL
REMARK 923 INTER-LIGAND FREE ENERGY PREDICTED BY IDOCK:   -5.44 KCAL/MOL
REMARK 924 INTRA-LIGAND FREE ENERGY PREDICTED BY IDOCK:    0.63 KCAL/MOL
REMARK 927      BINDING AFFINITY PREDICTED BY RF-SCORE:    0.00 PKD
ROOT
HETATM    1  C   UNL     1     -12.708  11.854  63.365  1.00  0.00    -0.366 C  
HETATM    2  O   UNL     1     -13.137  12.461  64.576  1.00  0.00    -0.823 OA 
ENDROOT
BRANCH   2   3
HETATM    3  C   UNL     1     -12.167  12.852  65.456  1.00  0.00    -0.474 A  
HETATM    4  C   UNL     1     -11.177  11.899  65.682  1.00  0.00    -0.360 A  
HETATM    5  C   UNL     1     -10.085  12.152  66.527  1.00  0.00    -0.209 A  
HETATM    6  C   UNL     1      -9.992  15.770  68.638  1.00  0.00    -0.208 A  
HETATM    7  C   UNL     1     -10.019  13.380  67.232  1.00  0.00    -0.232 A  
HETATM    8  C   UNL     1     -11.004  15.543  67.719  1.00  0.00    -0.317 A  
HETATM    9  C   UNL     1     -12.091  14.076  66.107  1.00  0.00    -0.471 A  
HETATM   10  N   UNL     1      -9.018  13.623  68.111  1.00  0.00    -0.186 NA 
HETATM   11  C   UNL     1      -9.033  14.790  68.796  1.00  0.00    -0.179 A  
HETATM   12  C   UNL     1     -11.046  14.330  67.010  1.00  0.00    -0.317 A  
BRANCH   5  13
HETATM   13  N   UNL     1      -9.018  11.227  66.621  1.00  0.00    -0.170 NA 
HETATM   14  H   UNL     1      -8.097  11.544  66.925  1.00  0.00     0.000 HD 
BRANCH  13  15
HETATM   15  C   UNL     1      -9.230   9.817  66.284  1.00  0.00    -0.164 C  
HETATM   16  C   UNL     1     -10.642   9.412  66.721  1.00  0.00    -0.210 C  
BRANCH  15  17
HETATM   17  C   UNL     1      -9.100   9.604  64.762  1.00  0.00    -0.283 C  
BRANCH  17  18
HETATM   18  C   UNL     1      -8.098  10.530  64.057  1.00  0.00    -0.023 C  
BRANCH  18  19
HETATM   19  C   UNL     1      -6.651  10.034  64.028  1.00  0.00    -0.130 C  
HETATM   20  H1  UNL     1      -4.744  10.770  63.686  1.00  0.00     0.000 HD 
HETATM   21  N   UNL     1      -5.709  11.100  63.705  1.00  0.00    -0.314 NA 
HETATM   22  H2  UNL     1      -5.815  11.892  64.339  1.00  0.00     0.000 HD 
ENDBRANCH  18  19
ENDBRANCH  17  18
ENDBRANCH  15  17
ENDBRANCH  13  15
ENDBRANCH   5  13
ENDBRANCH   2   3
TORSDOF 6
ENDMDL
MODEL      219
REMARK 921   NORMALIZED FREE ENERGY PREDICTED BY IDOCK:   -3.20 KCAL/MOL
REMARK 922        TOTAL FREE ENERGY PREDICTED BY IDOCK:   -4.79 KCAL/MOL
REMARK 923 INTER-LIGAND FREE ENERGY PREDICTED BY IDOCK:   -4.52 KCAL/MOL
REMARK 924 INTRA-LIGAND FREE ENERGY PREDICTED BY IDOCK:   -0.27 KCAL/MOL
REMARK 927      BINDING AFFINITY PREDICTED BY RF-SCORE:    0.00 PKD
ROOT
HETATM    1  C   UNL     1     -12.727  11.593  71.050  1.00  0.00    -0.298 C  
HETATM    2  O   UNL     1     -12.957  10.214  71.306  1.00  0.00    -0.358 OA 
ENDROOT
BRANCH   2   3
HETATM    3  C   UNL     1     -11.933   9.350  71.037  1.00  0.00    -0.315 A  
HETATM    4  C   UNL     1     -10.703   9.966  70.817  1.00  0.00    -0.350 A  
HETATM    5  C   UNL     1      -9.538   9.224  70.566  1.00  0.00    -0.262 A  
HETATM    6  C   UNL     1      -9.865   5.065  70.183  1.00  0.00    -0.303 A  
HETATM    7  C   UNL     1      -9.620   7.813  70.458  1.00  0.00    -0.167 A  
HETATM    8  C   UNL     1     -10.982   5.807  70.534  1.00  0.00    -0.320 A  
HETATM    9  C   UNL     1     -12.018   7.966  70.976  1.00  0.00    -0.268 A  
HETATM   10  N   UNL     1      -8.529   7.076  70.143  1.00  0.00    -0.138 NA 
HETATM   11  C   UNL     1      -8.675   5.738  70.000  1.00  0.00    -0.132 A  
HETATM   12  C   UNL     1     -10.882   7.203  70.660  1.00  0.00    -0.268 A  
BRANCH   5  13
HETATM   13  N   UNL     1      -8.278   9.864  70.497  1.00  0.00    -0.399 NA 
HETATM   14  H   UNL     1      -7.581   9.692  71.222  1.00  0.00     0.000 HD 
BRANCH  13  15
HETATM   15  C   UNL     1      -7.969  10.772  69.389  1.00  0.00    -0.067 C  
HETATM   16  C   UNL     1      -6.529  10.519  68.930  1.00  0.00    -0.048 C  
BRANCH  15  17
HETATM   17  C   UNL     1      -8.922  10.514  68.203  1.00  0.00    -0.138 C  
BRANCH  17  18
HETATM   18  C   UNL     1      -8.238  10.380  66.835  1.00  0.00    -0.124 C  
BRANCH  18  19
HETATM   19  C   UNL     1      -8.305   8.991  66.198  1.00  0.00    -0.121 C  
HETATM   20  H1  UNL     1      -9.471   7.936  64.847  1.00  0.00     0.000 HD 
HETATM   21  N   UNL     1      -9.425   8.862  65.272  1.00  0.00    -0.447 NA 
HETATM   22  H2  UNL     1      -9.402   9.593  64.561  1.00  0.00     0.000 HD 
ENDBRANCH  18  19
ENDBRANCH  17  18
ENDBRANCH  15  17
ENDBRANCH  13  15
ENDBRANCH   5  13
ENDBRANCH   2   3
TORSDOF 6
ENDMDL
MODEL      220
REMARK 921   NORMALIZED FREE ENERGY PREDICTED BY IDOCK:   -3.19 KCAL/MOL
REMARK 922        TOTAL FREE ENERGY PREDICTED BY IDOCK:   -4.77 KCAL/MOL
REMARK 923 INTER-LIGAND FREE ENERGY PREDICTED BY IDOCK:   -4.28 KCAL/MOL
REMARK 924 INTRA-LIGAND FREE ENERGY PREDICTED BY IDOCK:   -0.49 KCAL/MOL
REMARK 927      BINDING AFFINITY PREDICTED BY RF-SCORE:    0.00 PKD
ROOT
HETATM    1  C   UNL     1      -6.214  12.287  69.768  1.00  0.00    -0.125 C  
HETATM    2  O   UNL     1      -7.129  11.204  69.688  1.00  0.00    -0.120 OA 
ENDROOT
BRANCH   2   3
HETATM    3  C   UNL     1      -7.869  11.095  68.544  1.00  0.00    -0.136 A  
HETATM    4  C   UNL     1      -7.928   9.807  68.017  1.00  0.00    -0.097 A  
HETATM    5  C   UNL     1      -8.676   9.511  66.867  1.00  0.00    -0.128 A  
HETATM    6  C   UNL     1     -10.528  12.667  64.825  1.00  0.00    -0.343 A  
HETATM    7  C   UNL     1      -9.332  10.559  66.174  1.00  0.00    -0.176 A  
HETATM    8  C   UNL     1      -9.871  12.920  66.019  1.00  0.00    -0.256 A  
HETATM    9  C   UNL     1      -8.543  12.123  67.898  1.00  0.00    -0.167 A  
HETATM   10  N   UNL     1     -10.000  10.318  65.021  1.00  0.00    -0.325 NA 
HETATM   11  C   UNL     1     -10.563  11.364  64.373  1.00  0.00    -0.341 A  
HETATM   12  C   UNL     1      -9.244  11.868  66.708  1.00  0.00    -0.194 A  
BRANCH   5  13
HETATM   13  N   UNL     1      -8.843   8.172  66.440  1.00  0.00    -0.146 NA 
HETATM   14  H   UNL     1      -8.577   7.904  65.493  1.00  0.00     0.000 HD 
BRANCH  13  15
HETATM   15  C   UNL     1      -9.395   7.169  67.354  1.00  0.00    -0.127 C  
HETATM   16  C   UNL     1     -10.909   7.385  67.467  1.00  0.00    -0.257 C  
BRANCH  15  17
HETATM   17  C   UNL     1      -9.135   5.748  66.812  1.00  0.00    -0.126 C  
BRANCH  17  18
HETATM   18  C   UNL     1     -10.362   5.044  66.213  1.00  0.00    -0.332 C  
BRANCH  18  19
HETATM   19  C   UNL     1     -10.070   4.072  65.069  1.00  0.00    -0.195 C  
HETATM   20  H1  UNL     1     -11.042   3.205  63.456  1.00  0.00     0.000 HD 
HETATM   21  N   UNL     1     -11.236   3.853  64.219  1.00  0.00    -0.690 NA 
HETATM   22  H2  UNL     1     -11.608   4.736  63.868  1.00  0.00     0.000 HD 
ENDBRANCH  18  19
ENDBRANCH  17  18
ENDBRANCH  15  17
ENDBRANCH  13  15
ENDBRANCH   5  13
ENDBRANCH   2   3
TORSDOF 6
ENDMDL
MODEL      221
REMARK 921   NORMALIZED FREE ENERGY PREDICTED BY IDOCK:   -3.17 KCAL/MOL
REMARK 922        TOTAL FREE ENERGY PREDICTED BY IDOCK:   -4.75 KCAL/MOL
REMARK 923 INTER-LIGAND FREE ENERGY PREDICTED BY IDOCK:   -4.30 KCAL/MOL
REMARK 924 INTRA-LIGAND FREE ENERGY PREDICTED BY IDOCK:   -0.44 KCAL/MOL
REMARK 927      BINDING AFFINITY PREDICTED BY RF-SCORE:    0.00 PKD
ROOT
HETATM    1  C   UNL     1      -5.794   9.443  70.761  1.00  0.00    -0.058 C  
HETATM    2  O   UNL     1      -6.846  10.391  70.642  1.00  0.00    -0.328 OA 
ENDROOT
BRANCH   2   3
HETATM    3  C   UNL     1      -7.373  10.585  69.395  1.00  0.00    -0.133 A  
HETATM    4  C   UNL     1      -7.106  11.837  68.846  1.00  0.00    -0.114 A  
HETATM    5  C   UNL     1      -7.539  12.188  67.558  1.00  0.00    -0.151 A  
HETATM    6  C   UNL     1      -9.949   9.480  65.457  1.00  0.00    -0.209 A  
HETATM    7  C   UNL     1      -8.334  11.277  66.818  1.00  0.00    -0.156 A  
HETATM    8  C   UNL     1      -9.424   9.113  66.686  1.00  0.00    -0.242 A  
HETATM    9  C   UNL     1      -8.115   9.668  68.663  1.00  0.00    -0.100 A  
HETATM   10  N   UNL     1      -8.829  11.615  65.604  1.00  0.00    -0.033 NA 
HETATM   11  C   UNL     1      -9.626  10.728  64.965  1.00  0.00    -0.254 A  
HETATM   12  C   UNL     1      -8.618  10.017  67.399  1.00  0.00    -0.125 A  
BRANCH   5  13
HETATM   13  N   UNL     1      -7.126  13.405  66.966  1.00  0.00    -0.376 NA 
HETATM   14  H   UNL     1      -6.755  13.407  66.016  1.00  0.00     0.000 HD 
BRANCH  13  15
HETATM   15  C   UNL     1      -7.229  14.662  67.712  1.00  0.00    -0.175 C  
HETATM   16  C   UNL     1      -5.847  15.321  67.761  1.00  0.00    -0.144 C  
BRANCH  15  17
HETATM   17  C   UNL     1      -8.213  15.622  67.011  1.00  0.00    -0.268 C  
BRANCH  17  18
HETATM   18  C   UNL     1      -9.263  14.943  66.119  1.00  0.00    -0.268 C  
BRANCH  18  19
HETATM   19  C   UNL     1     -10.605  15.669  66.012  1.00  0.00    -0.328 C  
HETATM   20  H1  UNL     1     -11.818  16.526  64.566  1.00  0.00     0.000 HD 
HETATM   21  N   UNL     1     -10.923  16.042  64.638  1.00  0.00    -0.842 NA 
HETATM   22  H2  UNL     1     -10.892  15.232  64.019  1.00  0.00     0.000 HD 
ENDBRANCH  18  19
ENDBRANCH  17  18
ENDBRANCH  15  17
ENDBRANCH  13  15
ENDBRANCH   5  13
ENDBRANCH   2   3
TORSDOF 6
ENDMDL
MODEL      222
REMARK 921   NORMALIZED FREE ENERGY PREDICTED BY IDOCK:   -3.15 KCAL/MOL
REMARK 922        TOTAL FREE ENERGY PREDICTED BY IDOCK:   -4.72 KCAL/MOL
REMARK 923 INTER-LIGAND FREE ENERGY PREDICTED BY IDOCK:   -4.24 KCAL/MOL
REMARK 924 INTRA-LIGAND FREE ENERGY PREDICTED BY IDOCK:   -0.48 KCAL/MOL
REMARK 927      BINDING AFFINITY PREDICTED BY RF-SCORE:    0.00 PKD
ROOT
HETATM    1  C   UNL     1     -10.430   8.385  67.158  1.00  0.00    -0.310 C  
HETATM    2  O   UNL     1      -9.773   7.146  66.929  1.00  0.00    -0.165 OA 
ENDROOT
BRANCH   2   3
HETATM    3  C   UNL     1      -9.499   6.374  68.024  1.00  0.00    -0.116 A  
HETATM    4  C   UNL     1      -8.996   7.078  69.114  1.00  0.00    -0.134 A  
HETATM    5  C   UNL     1      -8.699   6.444  70.331  1.00  0.00    -0.147 A  
HETATM    6  C   UNL     1      -9.069   2.277  70.553  1.00  0.00    -0.172 A  
HETATM    7  C   UNL     1      -8.841   5.038  70.438  1.00  0.00    -0.112 A  
HETATM    8  C   UNL     1      -9.456   2.934  69.396  1.00  0.00    -0.158 A  
HETATM    9  C   UNL     1      -9.684   5.001  68.129  1.00  0.00    -0.199 A  
HETATM   10  N   UNL     1      -8.492   4.389  71.573  1.00  0.00    -0.102 NA 
HETATM   11  C   UNL     1      -8.598   3.040  71.602  1.00  0.00    -0.069 A  
HETATM   12  C   UNL     1      -9.331   4.332  69.312  1.00  0.00    -0.231 A  
BRANCH   5  13
HETATM   13  N   UNL     1      -8.334   7.204  71.468  1.00  0.00    -0.111 NA 
HETATM   14  H   UNL     1      -7.376   7.540  71.568  1.00  0.00     0.000 HD 
BRANCH  13  15
HETATM   15  C   UNL     1      -9.327   7.509  72.502  1.00  0.00    -0.153 C  
HETATM   16  C   UNL     1      -8.593   7.911  73.786  1.00  0.00    -0.323 C  
BRANCH  15  17
HETATM   17  C   UNL     1     -10.223   8.682  72.055  1.00  0.00    -0.407 C  
BRANCH  17  18
HETATM   18  C   UNL     1     -11.731   8.460  72.244  1.00  0.00    -0.453 C  
BRANCH  18  19
HETATM   19  C   UNL     1     -12.294   7.188  71.609  1.00  0.00    -0.362 C  
HETATM   20  H1  UNL     1     -13.982   5.989  71.720  1.00  0.00     0.000 HD 
HETATM   21  N   UNL     1     -13.606   6.837  72.143  1.00  0.00    -0.515 NA 
HETATM   22  H2  UNL     1     -14.260   7.614  72.053  1.00  0.00     0.000 HD 
ENDBRANCH  18  19
ENDBRANCH  17  18
ENDBRANCH  15  17
ENDBRANCH  13  15
ENDBRANCH   5  13
ENDBRANCH   2   3
TORSDOF 6
ENDMDL
MODEL      223
REMARK 921   NORMALIZED FREE ENERGY PREDICTED BY IDOCK:   -3.13 KCAL/MOL
REMARK 922        TOTAL FREE ENERGY PREDICTED BY IDOCK:   -4.69 KCAL/MOL
REMARK 923 INTER-LIGAND FREE ENERGY PREDICTED BY IDOCK:   -4.39 KCAL/MOL
REMARK 924 INTRA-LIGAND FREE ENERGY PREDICTED BY IDOCK:   -0.30 KCAL/MOL
REMARK 927      BINDING AFFINITY PREDICTED BY RF-SCORE:    0.00 PKD
ROOT
HETATM    1  C   UNL     1     -10.957  14.227  65.029  1.00  0.00    -0.387 C  
HETATM    2  O   UNL     1     -11.443  13.562  66.187  1.00  0.00    -0.311 OA 
ENDROOT
BRANCH   2   3
HETATM    3  C   UNL     1     -10.616  12.646  66.774  1.00  0.00    -0.237 A  
HETATM    4  C   UNL     1     -11.276  11.599  67.412  1.00  0.00    -0.358 A  
HETATM    5  C   UNL     1     -10.577  10.552  68.032  1.00  0.00    -0.214 A  
HETATM    6  C   UNL     1      -6.396  10.769  68.203  1.00  0.00    -0.057 A  
HETATM    7  C   UNL     1      -9.161  10.591  68.080  1.00  0.00    -0.138 A  
HETATM    8  C   UNL     1      -7.101  11.738  67.506  1.00  0.00    -0.113 A  
HETATM    9  C   UNL     1      -9.227  12.674  66.776  1.00  0.00    -0.225 A  
HETATM   10  N   UNL     1      -8.461   9.635  68.734  1.00  0.00    -0.120 NA 
HETATM   11  C   UNL     1      -7.114   9.750  68.794  1.00  0.00    -0.067 A  
HETATM   12  C   UNL     1      -8.503  11.675  67.447  1.00  0.00    -0.150 A  
BRANCH   5  13
HETATM   13  N   UNL     1     -11.268   9.426  68.539  1.00  0.00    -0.473 NA 
HETATM   14  H   UNL     1     -11.325   8.572  67.983  1.00  0.00     0.000 HD 
BRANCH  13  15
HETATM   15  C   UNL     1     -11.901   9.480  69.860  1.00  0.00     0.181 C  
HETATM   16  C   UNL     1     -11.302   8.378  70.740  1.00  0.00    -0.290 C  
BRANCH  15  17
HETATM   17  C   UNL     1     -11.635  10.847  70.526  1.00  0.00    -0.397 C  
BRANCH  17  18
HETATM   18  C   UNL     1     -12.892  11.660  70.869  1.00  0.00    -0.264 C  
BRANCH  18  19
HETATM   19  C   UNL     1     -12.713  12.723  71.953  1.00  0.00    -0.089 C  
HETATM   20  H1  UNL     1     -13.782  13.577  73.510  1.00  0.00     0.000 HD 
HETATM   21  N   UNL     1     -13.901  12.868  72.787  1.00  0.00    -0.682 NA 
HETATM   22  H2  UNL     1     -14.179  11.973  73.191  1.00  0.00     0.000 HD 
ENDBRANCH  18  19
ENDBRANCH  17  18
ENDBRANCH  15  17
ENDBRANCH  13  15
ENDBRANCH   5  13
ENDBRANCH   2   3
TORSDOF 6
ENDMDL
MODEL      224
REMARK 921   NORMALIZED FREE ENERGY PREDICTED BY IDOCK:   -3.12 KCAL/MOL
REMARK 922        TOTAL FREE ENERGY PREDICTED BY IDOCK:   -4.69 KCAL/MOL
REMARK 923 INTER-LIGAND FREE ENERGY PREDICTED BY IDOCK:   -4.02 KCAL/MOL
REMARK 924 INTRA-LIGAND FREE ENERGY PREDICTED BY IDOCK:   -0.67 KCAL/MOL
REMARK 927      BINDING AFFINITY PREDICTED BY RF-SCORE:    0.00 PKD
ROOT
HETATM    1  C   UNL     1     -11.343  16.029  68.471  1.00  0.00    -0.382 C  
HETATM    2  O   UNL     1      -9.980  16.193  68.838  1.00  0.00    -0.212 OA 
ENDROOT
BRANCH   2   3
HETATM    3  C   UNL     1      -9.121  15.180  68.516  1.00  0.00    -0.191 A  
HETATM    4  C   UNL     1      -9.551  14.371  67.468  1.00  0.00    -0.215 A  
HETATM    5  C   UNL     1      -8.772  13.308  66.984  1.00  0.00    -0.186 A  
HETATM    6  C   UNL     1      -5.194  12.397  68.964  1.00  0.00    -0.055 A  
HETATM    7  C   UNL     1      -7.545  12.997  67.622  1.00  0.00    -0.160 A  
HETATM    8  C   UNL     1      -5.927  13.504  69.358  1.00  0.00    -0.097 A  
HETATM    9  C   UNL     1      -7.900  14.912  69.122  1.00  0.00    -0.171 A  
HETATM   10  N   UNL     1      -6.807  11.934  67.227  1.00  0.00    -0.129 NA 
HETATM   11  C   UNL     1      -5.670  11.651  67.905  1.00  0.00    -0.047 A  
HETATM   12  C   UNL     1      -7.131  13.815  68.702  1.00  0.00    -0.104 A  
BRANCH   5  13
HETATM   13  N   UNL     1      -9.162  12.599  65.824  1.00  0.00    -0.448 NA 
HETATM   14  H   UNL     1      -8.493  12.457  65.067  1.00  0.00     0.000 HD 
BRANCH  13  15
HETATM   15  C   UNL     1     -10.522  12.067  65.705  1.00  0.00    -0.256 C  
HETATM   16  C   UNL     1     -10.683  11.429  64.321  1.00  0.00    -0.420 C  
BRANCH  15  17
HETATM   17  C   UNL     1     -10.773  10.991  66.781  1.00  0.00    -0.319 C  
BRANCH  17  18
HETATM   18  C   UNL     1     -10.085   9.641  66.527  1.00  0.00    -0.314 C  
BRANCH  18  19
HETATM   19  C   UNL     1      -9.222   9.116  67.675  1.00  0.00    -0.128 C  
HETATM   20  H1  UNL     1      -9.373   7.835  69.297  1.00  0.00     0.000 HD 
HETATM   21  N   UNL     1      -9.949   8.186  68.532  1.00  0.00    -0.184 NA 
HETATM   22  H2  UNL     1     -10.347   7.419  67.990  1.00  0.00     0.000 HD 
ENDBRANCH  18  19
ENDBRANCH  17  18
ENDBRANCH  15  17
ENDBRANCH  13  15
ENDBRANCH   5  13
ENDBRANCH   2   3
TORSDOF 6
ENDMDL
MODEL      225
REMARK 921   NORMALIZED FREE ENERGY PREDICTED BY IDOCK:   -3.12 KCAL/MOL
REMARK 922        TOTAL FREE ENERGY PREDICTED BY IDOCK:   -4.68 KCAL/MOL
REMARK 923 INTER-LIGAND FREE ENERGY PREDICTED BY IDOCK:   -4.17 KCAL/MOL
REMARK 924 INTRA-LIGAND FREE ENERGY PREDICTED BY IDOCK:   -0.51 KCAL/MOL
REMARK 927      BINDING AFFINITY PREDICTED BY RF-SCORE:    0.00 PKD
ROOT
HETATM    1  C   UNL     1      -7.646   5.466  65.404  1.00  0.00    -0.079 C  
HETATM    2  O   UNL     1      -8.379   5.524  66.619  1.00  0.00    -0.108 OA 
ENDROOT
BRANCH   2   3
HETATM    3  C   UNL     1      -8.997   6.706  66.919  1.00  0.00    -0.127 A  
HETATM    4  C   UNL     1      -9.548   6.760  68.197  1.00  0.00    -0.122 A  
HETATM    5  C   UNL     1     -10.184   7.914  68.680  1.00  0.00    -0.205 A  
HETATM    6  C   UNL     1     -10.680  11.159  66.077  1.00  0.00    -0.272 A  
HETATM    7  C   UNL     1     -10.341   9.034  67.826  1.00  0.00    -0.246 A  
HETATM    8  C   UNL     1      -9.963  10.050  65.655  1.00  0.00    -0.355 A  
HETATM    9  C   UNL     1      -9.106   7.812  66.087  1.00  0.00    -0.199 A  
HETATM   10  N   UNL     1     -11.014  10.133  68.238  1.00  0.00    -0.255 NA 
HETATM   11  C   UNL     1     -11.180  11.152  67.363  1.00  0.00    -0.294 A  
HETATM   12  C   UNL     1      -9.796   8.956  66.521  1.00  0.00    -0.344 A  
BRANCH   5  13
HETATM   13  N   UNL     1     -10.600   7.995  70.031  1.00  0.00    -0.239 NA 
HETATM   14  H   UNL     1     -11.584   8.149  70.251  1.00  0.00     0.000 HD 
BRANCH  13  15
HETATM   15  C   UNL     1      -9.623   7.860  71.114  1.00  0.00    -0.158 C  
HETATM   16  C   UNL     1      -8.567   8.961  70.968  1.00  0.00    -0.255 C  
BRANCH  15  17
HETATM   17  C   UNL     1     -10.316   8.015  72.484  1.00  0.00    -0.374 C  
BRANCH  17  18
HETATM   18  C   UNL     1      -9.396   7.851  73.703  1.00  0.00    -0.288 C  
BRANCH  18  19
HETATM   19  C   UNL     1      -9.064   6.409  74.090  1.00  0.00    -0.158 C  
HETATM   20  H1  UNL     1      -7.438   5.125  74.125  1.00  0.00     0.000 HD 
HETATM   21  N   UNL     1      -7.659   6.087  73.867  1.00  0.00    -0.092 NA 
HETATM   22  H2  UNL     1      -7.048   6.747  74.348  1.00  0.00     0.000 HD 
ENDBRANCH  18  19
ENDBRANCH  17  18
ENDBRANCH  15  17
ENDBRANCH  13  15
ENDBRANCH   5  13
ENDBRANCH   2   3
TORSDOF 6
ENDMDL
MODEL      226
REMARK 921   NORMALIZED FREE ENERGY PREDICTED BY IDOCK:   -3.09 KCAL/MOL
REMARK 922        TOTAL FREE ENERGY PREDICTED BY IDOCK:   -4.65 KCAL/MOL
REMARK 923 INTER-LIGAND FREE ENERGY PREDICTED BY IDOCK:   -4.20 KCAL/MOL
REMARK 924 INTRA-LIGAND FREE ENERGY PREDICTED BY IDOCK:   -0.44 KCAL/MOL
REMARK 927      BINDING AFFINITY PREDICTED BY RF-SCORE:    0.00 PKD
ROOT
HETATM    1  C   UNL     1      -6.912   6.068  64.989  1.00  0.00    -0.059 C  
HETATM    2  O   UNL     1      -7.590   6.709  63.917  1.00  0.00    -0.093 OA 
ENDROOT
BRANCH   2   3
HETATM    3  C   UNL     1      -8.232   7.883  64.199  1.00  0.00    -0.027 A  
HETATM    4  C   UNL     1      -8.446   8.112  65.556  1.00  0.00    -0.174 A  
HETATM    5  C   UNL     1      -9.057   9.286  66.021  1.00  0.00    -0.188 A  
HETATM    6  C   UNL     1     -10.529  12.020  63.208  1.00  0.00    -0.403 A  
HETATM    7  C   UNL     1      -9.540  10.237  65.089  1.00  0.00    -0.277 A  
HETATM    8  C   UNL     1      -9.831  10.904  62.774  1.00  0.00    -0.255 A  
HETATM    9  C   UNL     1      -8.663   8.827  63.276  1.00  0.00     0.011 A  
HETATM   10  N   UNL     1     -10.199  11.345  65.504  1.00  0.00    -0.252 NA 
HETATM   11  C   UNL     1     -10.686  12.193  64.568  1.00  0.00    -0.310 A  
HETATM   12  C   UNL     1      -9.337   9.980  63.710  1.00  0.00    -0.307 A  
BRANCH   5  13
HETATM   13  N   UNL     1      -9.124   9.562  67.408  1.00  0.00    -0.130 NA 
HETATM   14  H   UNL     1      -8.496  10.252  67.820  1.00  0.00     0.000 HD 
BRANCH  13  15
HETATM   15  C   UNL     1     -10.094   8.861  68.254  1.00  0.00    -0.187 C  
HETATM   16  C   UNL     1      -9.391   7.681  68.935  1.00  0.00    -0.145 C  
BRANCH  15  17
HETATM   17  C   UNL     1     -10.640   9.809  69.342  1.00  0.00    -0.248 C  
BRANCH  17  18
HETATM   18  C   UNL     1     -11.541  10.941  68.829  1.00  0.00    -0.378 C  
BRANCH  18  19
HETATM   19  C   UNL     1     -12.079  11.893  69.898  1.00  0.00    -0.272 C  
HETATM   20  H1  UNL     1     -11.709  13.791  70.643  1.00  0.00     0.000 HD 
HETATM   21  N   UNL     1     -11.351  13.156  69.930  1.00  0.00    -0.506 NA 
HETATM   22  H2  UNL     1     -11.343  13.601  69.012  1.00  0.00     0.000 HD 
ENDBRANCH  18  19
ENDBRANCH  17  18
ENDBRANCH  15  17
ENDBRANCH  13  15
ENDBRANCH   5  13
ENDBRANCH   2   3
TORSDOF 6
ENDMDL
MODEL      227
REMARK 921   NORMALIZED FREE ENERGY PREDICTED BY IDOCK:   -3.09 KCAL/MOL
REMARK 922        TOTAL FREE ENERGY PREDICTED BY IDOCK:   -4.64 KCAL/MOL
REMARK 923 INTER-LIGAND FREE ENERGY PREDICTED BY IDOCK:   -4.35 KCAL/MOL
REMARK 924 INTRA-LIGAND FREE ENERGY PREDICTED BY IDOCK:   -0.29 KCAL/MOL
REMARK 927      BINDING AFFINITY PREDICTED BY RF-SCORE:    0.00 PKD
ROOT
HETATM    1  C   UNL     1      -8.216   6.219  64.718  1.00  0.00    -0.100 C  
HETATM    2  O   UNL     1      -7.726   7.194  65.628  1.00  0.00    -0.091 OA 
ENDROOT
BRANCH   2   3
HETATM    3  C   UNL     1      -8.467   7.424  66.754  1.00  0.00    -0.124 A  
HETATM    4  C   UNL     1      -8.236   8.660  67.353  1.00  0.00    -0.105 A  
HETATM    5  C   UNL     1      -8.941   9.072  68.495  1.00  0.00    -0.133 A  
HETATM    6  C   UNL     1     -11.590   6.369  70.289  1.00  0.00    -0.451 A  
HETATM    7  C   UNL     1      -9.861   8.184  69.104  1.00  0.00    -0.182 A  
HETATM    8  C   UNL     1     -10.963   6.022  69.104  1.00  0.00    -0.429 A  
HETATM    9  C   UNL     1      -9.398   6.561  67.317  1.00  0.00    -0.129 A  
HETATM   10  N   UNL     1     -10.501   8.524  70.248  1.00  0.00    -0.215 NA 
HETATM   11  C   UNL     1     -11.329   7.617  70.816  1.00  0.00    -0.281 A  
HETATM   12  C   UNL     1     -10.069   6.921  68.497  1.00  0.00    -0.165 A  
BRANCH   5  13
HETATM   13  N   UNL     1      -8.796  10.389  68.993  1.00  0.00    -0.164 NA 
HETATM   14  H   UNL     1      -8.237  10.557  69.830  1.00  0.00     0.000 HD 
BRANCH  13  15
HETATM   15  C   UNL     1      -9.447  11.512  68.313  1.00  0.00    -0.189 C  
HETATM   16  C   UNL     1      -8.585  11.933  67.118  1.00  0.00    -0.172 C  
BRANCH  15  17
HETATM   17  C   UNL     1     -10.840  11.093  67.798  1.00  0.00    -0.288 C  
BRANCH  17  18
HETATM   18  C   UNL     1     -12.027  11.743  68.523  1.00  0.00    -0.279 C  
BRANCH  18  19
HETATM   19  C   UNL     1     -11.943  11.751  70.050  1.00  0.00    -0.344 C  
HETATM   20  H1  UNL     1     -12.075  13.092  71.625  1.00  0.00     0.000 HD 
HETATM   21  N   UNL     1     -12.132  13.086  70.607  1.00  0.00    -0.508 NA 
HETATM   22  H2  UNL     1     -13.006  13.500  70.284  1.00  0.00     0.000 HD 
ENDBRANCH  18  19
ENDBRANCH  17  18
ENDBRANCH  15  17
ENDBRANCH  13  15
ENDBRANCH   5  13
ENDBRANCH   2   3
TORSDOF 6
ENDMDL
MODEL      228
REMARK 921   NORMALIZED FREE ENERGY PREDICTED BY IDOCK:   -3.08 KCAL/MOL
REMARK 922        TOTAL FREE ENERGY PREDICTED BY IDOCK:   -4.63 KCAL/MOL
REMARK 923 INTER-LIGAND FREE ENERGY PREDICTED BY IDOCK:   -4.38 KCAL/MOL
REMARK 924 INTRA-LIGAND FREE ENERGY PREDICTED BY IDOCK:   -0.25 KCAL/MOL
REMARK 927      BINDING AFFINITY PREDICTED BY RF-SCORE:    0.00 PKD
ROOT
HETATM    1  C   UNL     1      -5.808  12.358  70.394  1.00  0.00    -0.149 C  
HETATM    2  O   UNL     1      -6.445  11.090  70.475  1.00  0.00    -0.309 OA 
ENDROOT
BRANCH   2   3
HETATM    3  C   UNL     1      -7.245  10.726  69.428  1.00  0.00    -0.132 A  
HETATM    4  C   UNL     1      -7.653   9.395  69.451  1.00  0.00    -0.083 A  
HETATM    5  C   UNL     1      -8.510   8.867  68.473  1.00  0.00    -0.129 A  
HETATM    6  C   UNL     1      -9.609  11.311  65.252  1.00  0.00    -0.265 A  
HETATM    7  C   UNL     1      -8.916   9.683  67.387  1.00  0.00    -0.131 A  
HETATM    8  C   UNL     1      -8.850  11.842  66.283  1.00  0.00    -0.111 A  
HETATM    9  C   UNL     1      -7.670  11.548  68.393  1.00  0.00    -0.129 A  
HETATM   10  N   UNL     1      -9.681   9.181  66.389  1.00  0.00    -0.240 NA 
HETATM   11  C   UNL     1      -9.995   9.990  65.351  1.00  0.00    -0.294 A  
HETATM   12  C   UNL     1      -8.473  11.028  67.364  1.00  0.00    -0.132 A  
BRANCH   5  13
HETATM   13  N   UNL     1      -9.030   7.557  68.602  1.00  0.00    -0.133 NA 
HETATM   14  H   UNL     1      -8.397   6.756  68.597  1.00  0.00     0.000 HD 
BRANCH  13  15
HETATM   15  C   UNL     1     -10.473   7.345  68.745  1.00  0.00    -0.199 C  
HETATM   16  C   UNL     1     -10.859   6.061  68.002  1.00  0.00    -0.374 C  
BRANCH  15  17
HETATM   17  C   UNL     1     -10.848   7.190  70.233  1.00  0.00    -0.271 C  
BRANCH  17  18
HETATM   18  C   UNL     1     -11.163   8.502  70.967  1.00  0.00    -0.312 C  
BRANCH  18  19
HETATM   19  C   UNL     1     -11.672   8.350  72.400  1.00  0.00    -0.382 C  
HETATM   20  H1  UNL     1     -13.461   8.402  73.447  1.00  0.00     0.000 HD 
HETATM   21  N   UNL     1     -13.120   8.503  72.491  1.00  0.00    -0.602 NA 
HETATM   22  H2  UNL     1     -13.600   7.862  71.859  1.00  0.00     0.000 HD 
ENDBRANCH  18  19
ENDBRANCH  17  18
ENDBRANCH  15  17
ENDBRANCH  13  15
ENDBRANCH   5  13
ENDBRANCH   2   3
TORSDOF 6
ENDMDL
MODEL      229
REMARK 921   NORMALIZED FREE ENERGY PREDICTED BY IDOCK:   -3.07 KCAL/MOL
REMARK 922        TOTAL FREE ENERGY PREDICTED BY IDOCK:   -4.62 KCAL/MOL
REMARK 923 INTER-LIGAND FREE ENERGY PREDICTED BY IDOCK:   -4.08 KCAL/MOL
REMARK 924 INTRA-LIGAND FREE ENERGY PREDICTED BY IDOCK:   -0.54 KCAL/MOL
REMARK 927      BINDING AFFINITY PREDICTED BY RF-SCORE:    0.00 PKD
ROOT
HETATM    1  C   UNL     1      -8.409   7.713  69.420  1.00  0.00    -0.131 C  
HETATM    2  O   UNL     1      -8.995   8.908  68.922  1.00  0.00    -0.136 OA 
ENDROOT
BRANCH   2   3
HETATM    3  C   UNL     1      -8.908   9.132  67.576  1.00  0.00    -0.119 A  
HETATM    4  C   UNL     1     -10.021   9.761  67.024  1.00  0.00    -0.259 A  
HETATM    5  C   UNL     1     -10.081  10.100  65.664  1.00  0.00    -0.254 A  
HETATM    6  C   UNL     1      -6.931   8.910  63.171  1.00  0.00    -0.089 A  
HETATM    7  C   UNL     1      -9.016   9.730  64.806  1.00  0.00    -0.225 A  
HETATM    8  C   UNL     1      -6.846   8.678  64.534  1.00  0.00    -0.069 A  
HETATM    9  C   UNL     1      -7.839   8.803  66.755  1.00  0.00    -0.097 A  
HETATM   10  N   UNL     1      -9.076   9.978  63.476  1.00  0.00    -0.257 NA 
HETATM   11  C   UNL     1      -8.055   9.555  62.696  1.00  0.00    -0.131 A  
HETATM   12  C   UNL     1      -7.900   9.070  65.377  1.00  0.00    -0.101 A  
BRANCH   5  13
HETATM   13  N   UNL     1     -11.156  10.871  65.160  1.00  0.00     0.039 NA 
HETATM   14  H   UNL     1     -12.000  10.408  64.823  1.00  0.00     0.000 HD 
BRANCH  13  15
HETATM   15  C   UNL     1     -11.061  12.333  65.121  1.00  0.00    -0.317 C  
HETATM   16  C   UNL     1     -11.232  12.800  63.671  1.00  0.00    -0.482 C  
BRANCH  15  17
HETATM   17  C   UNL     1     -12.176  12.966  65.981  1.00  0.00    -0.431 C  
BRANCH  17  18
HETATM   18  C   UNL     1     -11.739  14.165  66.836  1.00  0.00    -0.437 C  
BRANCH  18  19
HETATM   19  C   UNL     1     -11.170  13.820  68.213  1.00  0.00    -0.273 C  
HETATM   20  H1  UNL     1     -11.463  12.445  69.735  1.00  0.00     0.000 HD 
HETATM   21  N   UNL     1     -11.842  12.675  68.817  1.00  0.00    -0.311 NA 
HETATM   22  H2  UNL     1     -11.821  11.865  68.197  1.00  0.00     0.000 HD 
ENDBRANCH  18  19
ENDBRANCH  17  18
ENDBRANCH  15  17
ENDBRANCH  13  15
ENDBRANCH   5  13
ENDBRANCH   2   3
TORSDOF 6
ENDMDL
MODEL      230
REMARK 921   NORMALIZED FREE ENERGY PREDICTED BY IDOCK:   -3.06 KCAL/MOL
REMARK 922        TOTAL FREE ENERGY PREDICTED BY IDOCK:   -4.60 KCAL/MOL
REMARK 923 INTER-LIGAND FREE ENERGY PREDICTED BY IDOCK:   -4.07 KCAL/MOL
REMARK 924 INTRA-LIGAND FREE ENERGY PREDICTED BY IDOCK:   -0.54 KCAL/MOL
REMARK 927      BINDING AFFINITY PREDICTED BY RF-SCORE:    0.00 PKD
ROOT
HETATM    1  C   UNL     1      -9.676   5.175  66.061  1.00  0.00    -0.165 C  
HETATM    2  O   UNL     1     -10.676   5.155  67.071  1.00  0.00    -0.197 OA 
ENDROOT
BRANCH   2   3
HETATM    3  C   UNL     1     -10.560   6.070  68.081  1.00  0.00    -0.262 A  
HETATM    4  C   UNL     1      -9.791   7.186  67.762  1.00  0.00    -0.175 A  
HETATM    5  C   UNL     1      -9.603   8.240  68.669  1.00  0.00    -0.149 A  
HETATM    6  C   UNL     1     -11.169   7.846  72.536  1.00  0.00    -0.436 A  
HETATM    7  C   UNL     1     -10.145   8.140  69.975  1.00  0.00    -0.196 A  
HETATM    8  C   UNL     1     -11.431   6.866  71.591  1.00  0.00    -0.312 A  
HETATM    9  C   UNL     1     -11.133   5.980  69.342  1.00  0.00    -0.445 A  
HETATM   10  N   UNL     1      -9.919   9.105  70.897  1.00  0.00    -0.264 NA 
HETATM   11  C   UNL     1     -10.416   8.933  72.144  1.00  0.00    -0.250 A  
HETATM   12  C   UNL     1     -10.906   6.988  70.294  1.00  0.00    -0.283 A  
BRANCH   5  13
HETATM   13  N   UNL     1      -8.946   9.427  68.269  1.00  0.00    -0.128 NA 
HETATM   14  H   UNL     1      -9.489  10.271  68.084  1.00  0.00     0.000 HD 
BRANCH  13  15
HETATM   15  C   UNL     1      -7.488   9.451  68.118  1.00  0.00    -0.079 C  
HETATM   16  C   UNL     1      -7.145   9.379  66.626  1.00  0.00    -0.085 C  
BRANCH  15  17
HETATM   17  C   UNL     1      -6.910  10.758  68.698  1.00  0.00    -0.060 C  
BRANCH  17  18
HETATM   18  C   UNL     1      -6.435  11.780  67.656  1.00  0.00    -0.082 C  
BRANCH  18  19
HETATM   19  C   UNL     1      -7.215  13.095  67.618  1.00  0.00    -0.159 C  
HETATM   20  H1  UNL     1      -8.817  14.000  68.572  1.00  0.00     0.000 HD 
HETATM   21  N   UNL     1      -8.296  13.124  68.597  1.00  0.00    -0.339 NA 
HETATM   22  H2  UNL     1      -7.949  12.928  69.536  1.00  0.00     0.000 HD 
ENDBRANCH  18  19
ENDBRANCH  17  18
ENDBRANCH  15  17
ENDBRANCH  13  15
ENDBRANCH   5  13
ENDBRANCH   2   3
TORSDOF 6
ENDMDL
MODEL      231
REMARK 921   NORMALIZED FREE ENERGY PREDICTED BY IDOCK:   -3.04 KCAL/MOL
REMARK 922        TOTAL FREE ENERGY PREDICTED BY IDOCK:   -4.58 KCAL/MOL
REMARK 923 INTER-LIGAND FREE ENERGY PREDICTED BY IDOCK:   -4.05 KCAL/MOL
REMARK 924 INTRA-LIGAND FREE ENERGY PREDICTED BY IDOCK:   -0.53 KCAL/MOL
REMARK 927      BINDING AFFINITY PREDICTED BY RF-SCORE:    0.00 PKD
ROOT
HETATM    1  C   UNL     1      -9.037   7.810  69.145  1.00  0.00    -0.145 C  
HETATM    2  O   UNL     1      -9.937   8.863  68.827  1.00  0.00    -0.173 OA 
ENDROOT
BRANCH   2   3
HETATM    3  C   UNL     1      -9.849   9.403  67.574  1.00  0.00    -0.173 A  
HETATM    4  C   UNL     1      -8.872   8.827  66.767  1.00  0.00    -0.147 A  
HETATM    5  C   UNL     1      -8.673   9.236  65.439  1.00  0.00    -0.178 A  
HETATM    6  C   UNL     1     -10.899  12.478  63.996  1.00  0.00    -0.446 A  
HETATM    7  C   UNL     1      -9.433  10.314  64.921  1.00  0.00    -0.279 A  
HETATM    8  C   UNL     1     -11.152  11.991  65.268  1.00  0.00    -0.367 A  
HETATM    9  C   UNL     1     -10.629  10.432  67.065  1.00  0.00    -0.305 A  
HETATM   10  N   UNL     1      -9.213  10.780  63.668  1.00  0.00    -0.229 NA 
HETATM   11  C   UNL     1      -9.930  11.846  63.244  1.00  0.00    -0.380 A  
HETATM   12  C   UNL     1     -10.407  10.906  65.761  1.00  0.00    -0.303 A  
BRANCH   5  13
HETATM   13  N   UNL     1      -7.780   8.533  64.595  1.00  0.00    -0.109 NA 
HETATM   14  H   UNL     1      -6.791   8.784  64.580  1.00  0.00     0.000 HD 
BRANCH  13  15
HETATM   15  C   UNL     1      -8.270   7.447  63.741  1.00  0.00     0.072 C  
HETATM   16  C   UNL     1      -7.698   7.632  62.331  1.00  0.00    -0.119 C  
BRANCH  15  17
HETATM   17  C   UNL     1      -7.805   6.083  64.291  1.00  0.00    -0.113 C  
BRANCH  17  18
HETATM   18  C   UNL     1      -8.776   5.410  65.273  1.00  0.00    -0.145 C  
BRANCH  18  19
HETATM   19  C   UNL     1      -8.580   3.906  65.468  1.00  0.00    -0.111 C  
HETATM   20  H1  UNL     1      -9.700   2.218  65.904  1.00  0.00     0.000 HD 
HETATM   21  N   UNL     1      -9.830   3.221  65.774  1.00  0.00    -0.398 NA 
HETATM   22  H2  UNL     1     -10.538   3.410  65.065  1.00  0.00     0.000 HD 
ENDBRANCH  18  19
ENDBRANCH  17  18
ENDBRANCH  15  17
ENDBRANCH  13  15
ENDBRANCH   5  13
ENDBRANCH   2   3
TORSDOF 6
ENDMDL
MODEL      232
REMARK 921   NORMALIZED FREE ENERGY PREDICTED BY IDOCK:   -3.01 KCAL/MOL
REMARK 922        TOTAL FREE ENERGY PREDICTED BY IDOCK:   -4.54 KCAL/MOL
REMARK 923 INTER-LIGAND FREE ENERGY PREDICTED BY IDOCK:   -4.37 KCAL/MOL
REMARK 924 INTRA-LIGAND FREE ENERGY PREDICTED BY IDOCK:   -0.16 KCAL/MOL
REMARK 927      BINDING AFFINITY PREDICTED BY RF-SCORE:    0.00 PKD
ROOT
HETATM    1  C   UNL     1     -10.555  12.332  63.564  1.00  0.00    -0.448 C  
HETATM    2  O   UNL     1     -10.720  11.017  64.076  1.00  0.00    -0.379 OA 
ENDROOT
BRANCH   2   3
HETATM    3  C   UNL     1     -10.478  10.831  65.409  1.00  0.00    -0.202 A  
HETATM    4  C   UNL     1     -10.401  12.007  66.150  1.00  0.00    -0.257 A  
HETATM    5  C   UNL     1     -10.196  11.996  67.538  1.00  0.00    -0.198 A  
HETATM    6  C   UNL     1      -9.511   8.317  69.423  1.00  0.00    -0.159 A  
HETATM    7  C   UNL     1      -9.988  10.761  68.201  1.00  0.00    -0.160 A  
HETATM    8  C   UNL     1      -9.819   8.344  68.072  1.00  0.00    -0.202 A  
HETATM    9  C   UNL     1     -10.318   9.612  66.054  1.00  0.00    -0.160 A  
HETATM   10  N   UNL     1      -9.715  10.722  69.527  1.00  0.00    -0.071 NA 
HETATM   11  C   UNL     1      -9.471   9.520  70.099  1.00  0.00    -0.246 A  
HETATM   12  C   UNL     1     -10.046   9.574  67.431  1.00  0.00    -0.262 A  
BRANCH   5  13
HETATM   13  N   UNL     1     -10.273  13.194  68.287  1.00  0.00    -0.245 NA 
HETATM   14  H   UNL     1     -11.092  13.379  68.867  1.00  0.00     0.000 HD 
BRANCH  13  15
HETATM   15  C   UNL     1      -9.182  14.170  68.234  1.00  0.00    -0.198 C  
HETATM   16  C   UNL     1      -7.846  13.422  68.316  1.00  0.00    -0.143 C  
BRANCH  15  17
HETATM   17  C   UNL     1      -9.230  14.957  66.908  1.00  0.00    -0.265 C  
BRANCH  17  18
HETATM   18  C   UNL     1      -8.884  16.449  67.021  1.00  0.00    -0.222 C  
BRANCH  18  19
HETATM   19  C   UNL     1      -8.782  16.995  68.445  1.00  0.00    -0.247 C  
HETATM   20  H1  UNL     1      -7.992  18.626  69.451  1.00  0.00     0.000 HD 
HETATM   21  N   UNL     1      -8.060  18.262  68.501  1.00  0.00    -0.312 NA 
HETATM   22  H2  UNL     1      -8.473  18.950  67.871  1.00  0.00     0.000 HD 
ENDBRANCH  18  19
ENDBRANCH  17  18
ENDBRANCH  15  17
ENDBRANCH  13  15
ENDBRANCH   5  13
ENDBRANCH   2   3
TORSDOF 6
ENDMDL
MODEL      233
REMARK 921   NORMALIZED FREE ENERGY PREDICTED BY IDOCK:   -2.99 KCAL/MOL
REMARK 922        TOTAL FREE ENERGY PREDICTED BY IDOCK:   -4.51 KCAL/MOL
REMARK 923 INTER-LIGAND FREE ENERGY PREDICTED BY IDOCK:   -4.42 KCAL/MOL
REMARK 924 INTRA-LIGAND FREE ENERGY PREDICTED BY IDOCK:   -0.08 KCAL/MOL
REMARK 927      BINDING AFFINITY PREDICTED BY RF-SCORE:    0.00 PKD
ROOT
HETATM    1  C   UNL     1     -13.654  10.129  70.863  1.00  0.00     0.046 C  
HETATM    2  O   UNL     1     -12.289  10.031  71.246  1.00  0.00    -0.337 OA 
ENDROOT
BRANCH   2   3
HETATM    3  C   UNL     1     -11.351  10.324  70.295  1.00  0.00    -0.323 A  
HETATM    4  C   UNL     1     -11.448  11.610  69.769  1.00  0.00    -0.339 A  
HETATM    5  C   UNL     1     -10.540  12.088  68.811  1.00  0.00    -0.209 A  
HETATM    6  C   UNL     1      -7.655   9.449  67.305  1.00  0.00    -0.091 A  
HETATM    7  C   UNL     1      -9.540  11.221  68.305  1.00  0.00    -0.193 A  
HETATM    8  C   UNL     1      -8.495   9.031  68.325  1.00  0.00    -0.129 A  
HETATM    9  C   UNL     1     -10.349   9.479  69.839  1.00  0.00    -0.265 A  
HETATM   10  N   UNL     1      -8.696  11.629  67.328  1.00  0.00    -0.154 NA 
HETATM   11  C   UNL     1      -7.794  10.742  66.845  1.00  0.00    -0.130 A  
HETATM   12  C   UNL     1      -9.468   9.908  68.833  1.00  0.00    -0.170 A  
BRANCH   5  13
HETATM   13  N   UNL     1     -10.568  13.443  68.405  1.00  0.00    -0.243 NA 
HETATM   14  H   UNL     1     -10.439  14.183  69.096  1.00  0.00     0.000 HD 
BRANCH  13  15
HETATM   15  C   UNL     1     -10.782  13.789  66.997  1.00  0.00    -0.283 C  
HETATM   16  C   UNL     1     -12.281  13.706  66.691  1.00  0.00    -0.437 C  
BRANCH  15  17
HETATM   17  C   UNL     1     -10.296  15.227  66.719  1.00  0.00    -0.279 C  
BRANCH  17  18
HETATM   18  C   UNL     1     -11.141  16.337  67.363  1.00  0.00    -0.095 C  
BRANCH  18  19
HETATM   19  C   UNL     1     -10.357  17.532  67.905  1.00  0.00    -0.371 C  
HETATM   20  H1  UNL     1     -10.344  19.600  67.763  1.00  0.00     0.000 HD 
HETATM   21  N   UNL     1     -10.867  18.802  67.402  1.00  0.00    -0.423 NA 
HETATM   22  H2  UNL     1     -11.865  18.900  67.591  1.00  0.00     0.000 HD 
ENDBRANCH  18  19
ENDBRANCH  17  18
ENDBRANCH  15  17
ENDBRANCH  13  15
ENDBRANCH   5  13
ENDBRANCH   2   3
TORSDOF 6
ENDMDL
MODEL      234
REMARK 921   NORMALIZED FREE ENERGY PREDICTED BY IDOCK:   -2.97 KCAL/MOL
REMARK 922        TOTAL FREE ENERGY PREDICTED BY IDOCK:   -4.49 KCAL/MOL
REMARK 923 INTER-LIGAND FREE ENERGY PREDICTED BY IDOCK:   -3.93 KCAL/MOL
REMARK 924 INTRA-LIGAND FREE ENERGY PREDICTED BY IDOCK:   -0.56 KCAL/MOL
REMARK 927      BINDING AFFINITY PREDICTED BY RF-SCORE:    0.00 PKD
ROOT
HETATM    1  C   UNL     1     -11.483  12.733  64.416  1.00  0.00    -0.354 C  
HETATM    2  O   UNL     1     -10.627  11.599  64.421  1.00  0.00    -0.281 OA 
ENDROOT
BRANCH   2   3
HETATM    3  C   UNL     1     -10.033  11.271  65.608  1.00  0.00    -0.247 A  
HETATM    4  C   UNL     1     -10.579  10.155  66.236  1.00  0.00    -0.121 A  
HETATM    5  C   UNL     1     -10.064   9.658  67.443  1.00  0.00    -0.204 A  
HETATM    6  C   UNL     1      -6.988  11.790  69.326  1.00  0.00    -0.065 A  
HETATM    7  C   UNL     1      -9.006  10.349  68.085  1.00  0.00    -0.132 A  
HETATM    8  C   UNL     1      -7.441  12.203  68.083  1.00  0.00    -0.114 A  
HETATM    9  C   UNL     1      -8.968  11.932  66.205  1.00  0.00    -0.157 A  
HETATM   10  N   UNL     1      -8.536   9.937  69.287  1.00  0.00    -0.154 NA 
HETATM   11  C   UNL     1      -7.562  10.665  69.880  1.00  0.00     0.044 A  
HETATM   12  C   UNL     1      -8.475  11.496  67.447  1.00  0.00    -0.147 A  
BRANCH   5  13
HETATM   13  N   UNL     1     -10.537   8.438  67.981  1.00  0.00    -0.403 NA 
HETATM   14  H   UNL     1     -11.031   8.434  68.874  1.00  0.00     0.000 HD 
BRANCH  13  15
HETATM   15  C   UNL     1     -10.322   7.180  67.261  1.00  0.00    -0.272 C  
HETATM   16  C   UNL     1      -8.816   6.904  67.188  1.00  0.00    -0.120 C  
BRANCH  15  17
HETATM   17  C   UNL     1     -11.005   6.013  68.004  1.00  0.00    -0.340 C  
BRANCH  17  18
HETATM   18  C   UNL     1     -10.912   6.071  69.536  1.00  0.00    -0.467 C  
BRANCH  18  19
HETATM   19  C   UNL     1     -10.157   4.916  70.194  1.00  0.00    -0.261 C  
HETATM   20  H1  UNL     1      -8.373   4.569  71.190  1.00  0.00     0.000 HD 
HETATM   21  N   UNL     1      -8.876   5.339  70.751  1.00  0.00    -0.133 NA 
HETATM   22  H2  UNL     1      -8.995   6.119  71.398  1.00  0.00     0.000 HD 
ENDBRANCH  18  19
ENDBRANCH  17  18
ENDBRANCH  15  17
ENDBRANCH  13  15
ENDBRANCH   5  13
ENDBRANCH   2   3
TORSDOF 6
ENDMDL
MODEL      235
REMARK 921   NORMALIZED FREE ENERGY PREDICTED BY IDOCK:   -2.96 KCAL/MOL
REMARK 922        TOTAL FREE ENERGY PREDICTED BY IDOCK:   -4.46 KCAL/MOL
REMARK 923 INTER-LIGAND FREE ENERGY PREDICTED BY IDOCK:   -3.83 KCAL/MOL
REMARK 924 INTRA-LIGAND FREE ENERGY PREDICTED BY IDOCK:   -0.63 KCAL/MOL
REMARK 927      BINDING AFFINITY PREDICTED BY RF-SCORE:    0.00 PKD
ROOT
HETATM    1  C   UNL     1      -6.815   3.599  67.518  1.00  0.00    -0.050 C  
HETATM    2  O   UNL     1      -7.160   4.897  67.982  1.00  0.00    -0.060 OA 
ENDROOT
BRANCH   2   3
HETATM    3  C   UNL     1      -7.902   4.974  69.128  1.00  0.00    -0.080 A  
HETATM    4  C   UNL     1      -8.007   6.255  69.661  1.00  0.00    -0.112 A  
HETATM    5  C   UNL     1      -8.765   6.518  70.813  1.00  0.00    -0.143 A  
HETATM    6  C   UNL     1     -10.500   3.287  72.839  1.00  0.00    -0.236 A  
HETATM    7  C   UNL     1      -9.382   5.444  71.501  1.00  0.00    -0.147 A  
HETATM    8  C   UNL     1      -9.836   3.064  71.643  1.00  0.00    -0.214 A  
HETATM    9  C   UNL     1      -8.538   3.918  69.768  1.00  0.00    -0.104 A  
HETATM   10  N   UNL     1     -10.058   5.654  72.655  1.00  0.00    -0.177 NA 
HETATM   11  C   UNL     1     -10.583   4.585  73.298  1.00  0.00    -0.216 A  
HETATM   12  C   UNL     1      -9.247   4.141  70.960  1.00  0.00    -0.202 A  
BRANCH   5  13
HETATM   13  N   UNL     1      -8.979   7.848  71.246  1.00  0.00    -0.132 NA 
HETATM   14  H   UNL     1      -8.391   8.244  71.979  1.00  0.00     0.000 HD 
BRANCH  13  15
HETATM   15  C   UNL     1     -10.044   8.658  70.647  1.00  0.00    -0.198 C  
HETATM   16  C   UNL     1     -11.032   9.063  71.746  1.00  0.00    -0.443 C  
BRANCH  15  17
HETATM   17  C   UNL     1      -9.453   9.935  70.014  1.00  0.00    -0.246 C  
BRANCH  17  18
HETATM   18  C   UNL     1      -9.215   9.861  68.499  1.00  0.00    -0.136 C  
BRANCH  18  19
HETATM   19  C   UNL     1     -10.418   9.424  67.663  1.00  0.00    -0.268 C  
HETATM   20  H1  UNL     1     -12.401   9.951  67.365  1.00  0.00     0.000 HD 
HETATM   21  N   UNL     1     -11.598  10.242  67.922  1.00  0.00    -0.670 NA 
HETATM   22  H2  UNL     1     -11.396  11.233  67.787  1.00  0.00     0.000 HD 
ENDBRANCH  18  19
ENDBRANCH  17  18
ENDBRANCH  15  17
ENDBRANCH  13  15
ENDBRANCH   5  13
ENDBRANCH   2   3
TORSDOF 6
ENDMDL
MODEL      236
REMARK 921   NORMALIZED FREE ENERGY PREDICTED BY IDOCK:   -2.95 KCAL/MOL
REMARK 922        TOTAL FREE ENERGY PREDICTED BY IDOCK:   -4.45 KCAL/MOL
REMARK 923 INTER-LIGAND FREE ENERGY PREDICTED BY IDOCK:   -3.90 KCAL/MOL
REMARK 924 INTRA-LIGAND FREE ENERGY PREDICTED BY IDOCK:   -0.55 KCAL/MOL
REMARK 927      BINDING AFFINITY PREDICTED BY RF-SCORE:    0.00 PKD
ROOT
HETATM    1  C   UNL     1      -6.954   4.760  64.823  1.00  0.00    -0.050 C  
HETATM    2  O   UNL     1      -7.886   5.161  65.818  1.00  0.00    -0.093 OA 
ENDROOT
BRANCH   2   3
HETATM    3  C   UNL     1      -8.350   6.445  65.757  1.00  0.00    -0.146 A  
HETATM    4  C   UNL     1      -9.118   6.833  66.851  1.00  0.00    -0.148 A  
HETATM    5  C   UNL     1      -9.640   8.130  66.968  1.00  0.00    -0.196 A  
HETATM    6  C   UNL     1      -9.096  10.793  63.778  1.00  0.00    -0.215 A  
HETATM    7  C   UNL     1      -9.447   9.056  65.912  1.00  0.00    -0.249 A  
HETATM    8  C   UNL     1      -8.502   9.542  63.730  1.00  0.00    -0.198 A  
HETATM    9  C   UNL     1      -8.117   7.357  64.735  1.00  0.00    -0.104 A  
HETATM   10  N   UNL     1     -10.000  10.291  65.962  1.00  0.00    -0.233 NA 
HETATM   11  C   UNL     1      -9.828  11.116  64.903  1.00  0.00    -0.266 A  
HETATM   12  C   UNL     1      -8.683   8.641  64.794  1.00  0.00    -0.099 A  
BRANCH   5  13
HETATM   13  N   UNL     1     -10.287   8.543  68.157  1.00  0.00    -0.229 NA 
HETATM   14  H   UNL     1     -11.259   8.851  68.125  1.00  0.00     0.000 HD 
BRANCH  13  15
HETATM   15  C   UNL     1      -9.567   8.529  69.433  1.00  0.00    -0.170 C  
HETATM   16  C   UNL     1      -8.469   9.597  69.391  1.00  0.00    -0.156 C  
BRANCH  15  17
HETATM   17  C   UNL     1     -10.530   8.851  70.595  1.00  0.00    -0.271 C  
BRANCH  17  18
HETATM   18  C   UNL     1     -11.146   7.628  71.290  1.00  0.00    -0.268 C  
BRANCH  18  19
HETATM   19  C   UNL     1     -12.674   7.603  71.349  1.00  0.00    -0.327 C  
HETATM   20  H1  UNL     1     -14.285   8.817  70.872  1.00  0.00     0.000 HD 
HETATM   21  N   UNL     1     -13.266   8.832  70.832  1.00  0.00    -0.486 NA 
HETATM   22  H2  UNL     1     -12.937   9.032  69.888  1.00  0.00     0.000 HD 
ENDBRANCH  18  19
ENDBRANCH  17  18
ENDBRANCH  15  17
ENDBRANCH  13  15
ENDBRANCH   5  13
ENDBRANCH   2   3
TORSDOF 6
ENDMDL
MODEL      237
REMARK 921   NORMALIZED FREE ENERGY PREDICTED BY IDOCK:   -2.94 KCAL/MOL
REMARK 922        TOTAL FREE ENERGY PREDICTED BY IDOCK:   -4.44 KCAL/MOL
REMARK 923 INTER-LIGAND FREE ENERGY PREDICTED BY IDOCK:   -4.06 KCAL/MOL
REMARK 924 INTRA-LIGAND FREE ENERGY PREDICTED BY IDOCK:   -0.38 KCAL/MOL
REMARK 927      BINDING AFFINITY PREDICTED BY RF-SCORE:    0.00 PKD
ROOT
HETATM    1  C   UNL     1      -8.547   6.685  65.637  1.00  0.00    -0.123 C  
HETATM    2  O   UNL     1      -8.336   6.767  67.040  1.00  0.00    -0.112 OA 
ENDROOT
BRANCH   2   3
HETATM    3  C   UNL     1      -7.879   7.957  67.534  1.00  0.00    -0.122 A  
HETATM    4  C   UNL     1      -8.111   9.052  66.705  1.00  0.00    -0.111 A  
HETATM    5  C   UNL     1      -7.740  10.354  67.077  1.00  0.00    -0.105 A  
HETATM    6  C   UNL     1      -5.618  10.880  70.650  1.00  0.00    -0.125 A  
HETATM    7  C   UNL     1      -7.044  10.559  68.294  1.00  0.00    -0.081 A  
HETATM    8  C   UNL     1      -6.085   9.619  70.315  1.00  0.00    -0.062 A  
HETATM    9  C   UNL     1      -7.235   8.151  68.749  1.00  0.00    -0.083 A  
HETATM   10  N   UNL     1      -6.608  11.792  68.645  1.00  0.00    -0.060 NA 
HETATM   11  C   UNL     1      -5.902  11.922  69.792  1.00  0.00    -0.120 A  
HETATM   12  C   UNL     1      -6.794   9.433  69.116  1.00  0.00    -0.050 A  
BRANCH   5  13
HETATM   13  N   UNL     1      -8.122  11.464  66.287  1.00  0.00    -0.326 NA 
HETATM   14  H   UNL     1      -7.408  12.038  65.838  1.00  0.00     0.000 HD 
BRANCH  13  15
HETATM   15  C   UNL     1      -9.540  11.794  66.113  1.00  0.00    -0.232 C  
HETATM   16  C   UNL     1      -9.718  13.307  66.282  1.00  0.00    -0.274 C  
BRANCH  15  17
HETATM   17  C   UNL     1     -10.013  11.393  64.700  1.00  0.00    -0.315 C  
BRANCH  17  18
HETATM   18  C   UNL     1     -10.837  12.459  63.961  1.00  0.00    -0.441 C  
BRANCH  18  19
HETATM   19  C   UNL     1     -12.353  12.352  64.129  1.00  0.00    -0.467 C  
HETATM   20  H1  UNL     1     -14.002  11.630  63.101  1.00  0.00     0.000 HD 
HETATM   21  N   UNL     1     -12.991  11.701  62.990  1.00  0.00    -0.852 NA 
HETATM   22  H2  UNL     1     -12.575  10.788  62.807  1.00  0.00     0.000 HD 
ENDBRANCH  18  19
ENDBRANCH  17  18
ENDBRANCH  15  17
ENDBRANCH  13  15
ENDBRANCH   5  13
ENDBRANCH   2   3
TORSDOF 6
ENDMDL
MODEL      238
REMARK 921   NORMALIZED FREE ENERGY PREDICTED BY IDOCK:   -2.91 KCAL/MOL
REMARK 922        TOTAL FREE ENERGY PREDICTED BY IDOCK:   -4.40 KCAL/MOL
REMARK 923 INTER-LIGAND FREE ENERGY PREDICTED BY IDOCK:   -4.29 KCAL/MOL
REMARK 924 INTRA-LIGAND FREE ENERGY PREDICTED BY IDOCK:   -0.12 KCAL/MOL
REMARK 927      BINDING AFFINITY PREDICTED BY RF-SCORE:    0.00 PKD
ROOT
HETATM    1  C   UNL     1     -10.518  12.147  63.551  1.00  0.00    -0.454 C  
HETATM    2  O   UNL     1     -10.496  10.820  64.059  1.00  0.00    -0.358 OA 
ENDROOT
BRANCH   2   3
HETATM    3  C   UNL     1     -10.528  10.671  65.418  1.00  0.00    -0.184 A  
HETATM    4  C   UNL     1      -9.726   9.642  65.904  1.00  0.00    -0.343 A  
HETATM    5  C   UNL     1      -9.613   9.378  67.278  1.00  0.00    -0.151 A  
HETATM    6  C   UNL     1     -11.995  11.574  69.935  1.00  0.00    -0.426 A  
HETATM    7  C   UNL     1     -10.390  10.125  68.198  1.00  0.00    -0.185 A  
HETATM    8  C   UNL     1     -12.013  11.888  68.585  1.00  0.00    -0.291 A  
HETATM    9  C   UNL     1     -11.262  11.439  66.312  1.00  0.00    -0.228 A  
HETATM   10  N   UNL     1     -10.359   9.845  69.522  1.00  0.00    -0.213 NA 
HETATM   11  C   UNL     1     -11.161  10.555  70.349  1.00  0.00    -0.298 A  
HETATM   12  C   UNL     1     -11.220  11.153  67.687  1.00  0.00    -0.364 A  
BRANCH   5  13
HETATM   13  N   UNL     1      -8.677   8.429  67.754  1.00  0.00    -0.137 NA 
HETATM   14  H   UNL     1      -7.698   8.694  67.867  1.00  0.00     0.000 HD 
BRANCH  13  15
HETATM   15  C   UNL     1      -9.108   7.068  68.086  1.00  0.00    -0.128 C  
HETATM   16  C   UNL     1     -10.220   6.653  67.116  1.00  0.00    -0.275 C  
BRANCH  15  17
HETATM   17  C   UNL     1      -7.930   6.083  67.942  1.00  0.00    -0.106 C  
BRANCH  17  18
HETATM   18  C   UNL     1      -7.536   5.344  69.229  1.00  0.00    -0.077 C  
BRANCH  18  19
HETATM   19  C   UNL     1      -6.234   5.808  69.884  1.00  0.00    -0.026 C  
HETATM   20  H1  UNL     1      -5.427   6.054  71.777  1.00  0.00     0.000 HD 
HETATM   21  N   UNL     1      -6.295   5.745  71.340  1.00  0.00    -0.042 NA 
HETATM   22  H2  UNL     1      -6.555   4.811  71.658  1.00  0.00     0.000 HD 
ENDBRANCH  18  19
ENDBRANCH  17  18
ENDBRANCH  15  17
ENDBRANCH  13  15
ENDBRANCH   5  13
ENDBRANCH   2   3
TORSDOF 6
ENDMDL
MODEL      239
REMARK 921   NORMALIZED FREE ENERGY PREDICTED BY IDOCK:   -2.90 KCAL/MOL
REMARK 922        TOTAL FREE ENERGY PREDICTED BY IDOCK:   -4.39 KCAL/MOL
REMARK 923 INTER-LIGAND FREE ENERGY PREDICTED BY IDOCK:   -4.00 KCAL/MOL
REMARK 924 INTRA-LIGAND FREE ENERGY PREDICTED BY IDOCK:   -0.39 KCAL/MOL
REMARK 927      BINDING AFFINITY PREDICTED BY RF-SCORE:    0.00 PKD
ROOT
HETATM    1  C   UNL     1     -11.857  15.574  69.001  1.00  0.00    -0.354 C  
HETATM    2  O   UNL     1     -10.468  15.512  69.293  1.00  0.00    -0.216 OA 
ENDROOT
BRANCH   2   3
HETATM    3  C   UNL     1      -9.755  14.494  68.724  1.00  0.00    -0.210 A  
HETATM    4  C   UNL     1     -10.509  13.362  68.422  1.00  0.00    -0.257 A  
HETATM    5  C   UNL     1      -9.941  12.240  67.799  1.00  0.00    -0.200 A  
HETATM    6  C   UNL     1      -5.809  12.215  67.112  1.00  0.00    -0.139 A  
HETATM    7  C   UNL     1      -8.549  12.219  67.534  1.00  0.00    -0.174 A  
HETATM    8  C   UNL     1      -6.406  13.353  67.630  1.00  0.00    -0.162 A  
HETATM    9  C   UNL     1      -8.398  14.503  68.430  1.00  0.00    -0.153 A  
HETATM   10  N   UNL     1      -7.960  11.123  67.001  1.00  0.00    -0.138 NA 
HETATM   11  C   UNL     1      -6.619  11.138  66.818  1.00  0.00    -0.133 A  
HETATM   12  C   UNL     1      -7.791  13.368  67.868  1.00  0.00    -0.152 A  
BRANCH   5  13
HETATM   13  N   UNL     1     -10.757  11.167  67.367  1.00  0.00    -0.233 NA 
HETATM   14  H   UNL     1     -11.055  11.117  66.392  1.00  0.00     0.000 HD 
BRANCH  13  15
HETATM   15  C   UNL     1     -11.175  10.129  68.313  1.00  0.00    -0.183 C  
HETATM   16  C   UNL     1     -10.558   8.793  67.883  1.00  0.00    -0.236 C  
BRANCH  15  17
HETATM   17  C   UNL     1     -10.681  10.469  69.734  1.00  0.00    -0.314 C  
BRANCH  17  18
HETATM   18  C   UNL     1     -11.789  10.667  70.779  1.00  0.00    -0.459 C  
BRANCH  18  19
HETATM   19  C   UNL     1     -13.220  10.559  70.251  1.00  0.00     0.158 C  
HETATM   20  H1  UNL     1     -14.888   9.348  70.468  1.00  0.00     0.000 HD 
HETATM   21  N   UNL     1     -13.934   9.420  70.820  1.00  0.00    -0.445 NA 
HETATM   22  H2  UNL     1     -13.919   9.447  71.839  1.00  0.00     0.000 HD 
ENDBRANCH  18  19
ENDBRANCH  17  18
ENDBRANCH  15  17
ENDBRANCH  13  15
ENDBRANCH   5  13
ENDBRANCH   2   3
TORSDOF 6
ENDMDL
MODEL      240
REMARK 921   NORMALIZED FREE ENERGY PREDICTED BY IDOCK:   -2.88 KCAL/MOL
REMARK 922        TOTAL FREE ENERGY PREDICTED BY IDOCK:   -4.36 KCAL/MOL
REMARK 923 INTER-LIGAND FREE ENERGY PREDICTED BY IDOCK:   -4.10 KCAL/MOL
REMARK 924 INTRA-LIGAND FREE ENERGY PREDICTED BY IDOCK:   -0.27 KCAL/MOL
REMARK 927      BINDING AFFINITY PREDICTED BY RF-SCORE:    0.00 PKD
ROOT
HETATM    1  C   UNL     1      -6.377   9.714  70.465  1.00  0.00    -0.088 C  
HETATM    2  O   UNL     1      -6.528  10.876  69.661  1.00  0.00    -0.083 OA 
ENDROOT
BRANCH   2   3
HETATM    3  C   UNL     1      -7.742  11.068  69.063  1.00  0.00    -0.132 A  
HETATM    4  C   UNL     1      -8.677  10.070  69.324  1.00  0.00    -0.182 A  
HETATM    5  C   UNL     1      -9.985  10.131  68.820  1.00  0.00    -0.179 A  
HETATM    6  C   UNL     1     -10.978  13.265  66.223  1.00  0.00    -0.296 A  
HETATM    7  C   UNL     1     -10.351  11.196  67.960  1.00  0.00    -0.185 A  
HETATM    8  C   UNL     1      -9.725  13.242  66.814  1.00  0.00    -0.258 A  
HETATM    9  C   UNL     1      -8.101  12.139  68.256  1.00  0.00    -0.166 A  
HETATM   10  N   UNL     1     -11.583  11.243  67.398  1.00  0.00    -0.554 NA 
HETATM   11  C   UNL     1     -11.861  12.254  66.542  1.00  0.00    -0.306 A  
HETATM   12  C   UNL     1      -9.383  12.192  67.683  1.00  0.00    -0.187 A  
BRANCH   5  13
HETATM   13  N   UNL     1     -10.957   9.185  69.223  1.00  0.00    -0.415 NA 
HETATM   14  H   UNL     1     -11.692   9.458  69.877  1.00  0.00     0.000 HD 
BRANCH  13  15
HETATM   15  C   UNL     1     -10.914   7.814  68.706  1.00  0.00     0.144 C  
HETATM   16  C   UNL     1     -10.302   7.836  67.301  1.00  0.00    -0.371 C  
BRANCH  15  17
HETATM   17  C   UNL     1     -10.039   6.926  69.616  1.00  0.00    -0.195 C  
BRANCH  17  18
HETATM   18  C   UNL     1     -10.585   6.707  71.034  1.00  0.00    -0.263 C  
BRANCH  18  19
HETATM   19  C   UNL     1     -10.127   5.422  71.725  1.00  0.00    -0.196 C  
HETATM   20  H1  UNL     1      -9.638   3.467  71.244  1.00  0.00     0.000 HD 
HETATM   21  N   UNL     1      -9.943   4.324  70.783  1.00  0.00    -0.188 NA 
HETATM   22  H2  UNL     1      -9.305   4.585  70.032  1.00  0.00     0.000 HD 
ENDBRANCH  18  19
ENDBRANCH  17  18
ENDBRANCH  15  17
ENDBRANCH  13  15
ENDBRANCH   5  13
ENDBRANCH   2   3
TORSDOF 6
ENDMDL
MODEL      241
REMARK 921   NORMALIZED FREE ENERGY PREDICTED BY IDOCK:   -2.80 KCAL/MOL
REMARK 922        TOTAL FREE ENERGY PREDICTED BY IDOCK:   -4.26 KCAL/MOL
REMARK 923 INTER-LIGAND FREE ENERGY PREDICTED BY IDOCK:   -3.77 KCAL/MOL
REMARK 924 INTRA-LIGAND FREE ENERGY PREDICTED BY IDOCK:   -0.49 KCAL/MOL
REMARK 927      BINDING AFFINITY PREDICTED BY RF-SCORE:    0.00 PKD
ROOT
HETATM    1  C   UNL     1     -11.455  12.653  63.925  1.00  0.00    -0.442 C  
HETATM    2  O   UNL     1     -11.210  11.297  63.580  1.00  0.00    -0.344 OA 
ENDROOT
BRANCH   2   3
HETATM    3  C   UNL     1     -10.076  10.721  64.083  1.00  0.00    -0.353 A  
HETATM    4  C   UNL     1     -10.147  10.397  65.435  1.00  0.00    -0.354 A  
HETATM    5  C   UNL     1      -9.086   9.763  66.101  1.00  0.00    -0.161 A  
HETATM    6  C   UNL     1      -5.518   9.114  64.002  1.00  0.00    -0.061 A  
HETATM    7  C   UNL     1      -7.878   9.510  65.404  1.00  0.00    -0.109 A  
HETATM    8  C   UNL     1      -6.613   9.642  63.337  1.00  0.00    -0.109 A  
HETATM    9  C   UNL     1      -8.914  10.439  63.377  1.00  0.00    -0.240 A  
HETATM   10  N   UNL     1      -6.811   8.968  66.037  1.00  0.00    -0.079 NA 
HETATM   11  C   UNL     1      -5.665   8.797  65.337  1.00  0.00    -0.047 A  
HETATM   12  C   UNL     1      -7.812   9.867  64.034  1.00  0.00    -0.145 A  
BRANCH   5  13
HETATM   13  N   UNL     1      -9.239   9.309  67.432  1.00  0.00    -0.126 NA 
HETATM   14  H   UNL     1      -8.626   9.667  68.165  1.00  0.00     0.000 HD 
BRANCH  13  15
HETATM   15  C   UNL     1     -10.275   8.327  67.763  1.00  0.00    -0.223 C  
HETATM   16  C   UNL     1     -10.043   7.064  66.926  1.00  0.00    -0.296 C  
BRANCH  15  17
HETATM   17  C   UNL     1     -10.201   7.953  69.258  1.00  0.00    -0.216 C  
BRANCH  17  18
HETATM   18  C   UNL     1      -8.976   8.497  70.007  1.00  0.00    -0.142 C  
BRANCH  18  19
HETATM   19  C   UNL     1      -9.112   8.567  71.528  1.00  0.00    -0.216 C  
HETATM   20  H1  UNL     1      -8.461   7.550  73.213  1.00  0.00     0.000 HD 
HETATM   21  N   UNL     1      -8.371   7.504  72.198  1.00  0.00    -0.107 NA 
HETATM   22  H2  UNL     1      -7.391   7.501  71.916  1.00  0.00     0.000 HD 
ENDBRANCH  18  19
ENDBRANCH  17  18
ENDBRANCH  15  17
ENDBRANCH  13  15
ENDBRANCH   5  13
ENDBRANCH   2   3
TORSDOF 6
ENDMDL
MODEL      242
REMARK 921   NORMALIZED FREE ENERGY PREDICTED BY IDOCK:   -2.78 KCAL/MOL
REMARK 922        TOTAL FREE ENERGY PREDICTED BY IDOCK:   -4.23 KCAL/MOL
REMARK 923 INTER-LIGAND FREE ENERGY PREDICTED BY IDOCK:   -3.83 KCAL/MOL
REMARK 924 INTRA-LIGAND FREE ENERGY PREDICTED BY IDOCK:   -0.40 KCAL/MOL
REMARK 927      BINDING AFFINITY PREDICTED BY RF-SCORE:    0.00 PKD
ROOT
HETATM    1  C   UNL     1      -7.069   4.537  70.574  1.00  0.00    -0.041 C  
HETATM    2  O   UNL     1      -8.371   4.550  71.141  1.00  0.00    -0.087 OA 
ENDROOT
BRANCH   2   3
HETATM    3  C   UNL     1      -9.096   5.703  71.014  1.00  0.00    -0.145 A  
HETATM    4  C   UNL     1      -8.779   6.461  69.890  1.00  0.00    -0.142 A  
HETATM    5  C   UNL     1      -9.454   7.654  69.588  1.00  0.00    -0.156 A  
HETATM    6  C   UNL     1     -12.289   9.090  72.319  1.00  0.00    -0.402 A  
HETATM    7  C   UNL     1     -10.435   8.146  70.484  1.00  0.00    -0.214 A  
HETATM    8  C   UNL     1     -11.685   7.863  72.545  1.00  0.00    -0.423 A  
HETATM    9  C   UNL     1     -10.085   6.152  71.878  1.00  0.00    -0.216 A  
HETATM   10  N   UNL     1     -11.051   9.330  70.258  1.00  0.00    -0.248 NA 
HETATM   11  C   UNL     1     -11.941   9.778  71.174  1.00  0.00    -0.376 A  
HETATM   12  C   UNL     1     -10.730   7.376  71.636  1.00  0.00    -0.239 A  
BRANCH   5  13
HETATM   13  N   UNL     1      -9.218   8.325  68.364  1.00  0.00    -0.136 NA 
HETATM   14  H   UNL     1      -9.949   8.356  67.653  1.00  0.00     0.000 HD 
BRANCH  13  15
HETATM   15  C   UNL     1      -7.929   8.975  68.114  1.00  0.00    -0.101 C  
HETATM   16  C   UNL     1      -6.963   7.943  67.521  1.00  0.00    -0.075 C  
BRANCH  15  17
HETATM   17  C   UNL     1      -8.099  10.132  67.108  1.00  0.00    -0.120 C  
BRANCH  17  18
HETATM   18  C   UNL     1      -9.537  10.642  66.936  1.00  0.00    -0.200 C  
BRANCH  18  19
HETATM   19  C   UNL     1     -10.316  10.036  65.768  1.00  0.00    -0.121 C  
HETATM   20  H1  UNL     1     -10.120   8.524  64.363  1.00  0.00     0.000 HD 
HETATM   21  N   UNL     1      -9.601   8.928  65.142  1.00  0.00    -0.386 NA 
HETATM   22  H2  UNL     1      -9.352   8.216  65.828  1.00  0.00     0.000 HD 
ENDBRANCH  18  19
ENDBRANCH  17  18
ENDBRANCH  15  17
ENDBRANCH  13  15
ENDBRANCH   5  13
ENDBRANCH   2   3
TORSDOF 6
ENDMDL
MODEL      243
REMARK 921   NORMALIZED FREE ENERGY PREDICTED BY IDOCK:   -2.76 KCAL/MOL
REMARK 922        TOTAL FREE ENERGY PREDICTED BY IDOCK:   -4.20 KCAL/MOL
REMARK 923 INTER-LIGAND FREE ENERGY PREDICTED BY IDOCK:   -4.03 KCAL/MOL
REMARK 924 INTRA-LIGAND FREE ENERGY PREDICTED BY IDOCK:   -0.17 KCAL/MOL
REMARK 927      BINDING AFFINITY PREDICTED BY RF-SCORE:    0.00 PKD
ROOT
HETATM    1  C   UNL     1     -10.784  10.466  69.756  1.00  0.00    -0.278 C  
HETATM    2  O   UNL     1      -9.456  10.185  69.335  1.00  0.00    -0.204 OA 
ENDROOT
BRANCH   2   3
HETATM    3  C   UNL     1      -9.284   9.142  68.469  1.00  0.00    -0.136 A  
HETATM    4  C   UNL     1      -8.139   9.231  67.681  1.00  0.00    -0.104 A  
HETATM    5  C   UNL     1      -7.790   8.226  66.766  1.00  0.00    -0.095 A  
HETATM    6  C   UNL     1     -10.440   5.030  66.206  1.00  0.00    -0.352 A  
HETATM    7  C   UNL     1      -8.659   7.122  66.578  1.00  0.00    -0.129 A  
HETATM    8  C   UNL     1     -10.713   5.979  67.178  1.00  0.00    -0.409 A  
HETATM    9  C   UNL     1     -10.122   8.044  68.325  1.00  0.00    -0.227 A  
HETATM   10  N   UNL     1      -8.387   6.174  65.651  1.00  0.00    -0.141 NA 
HETATM   11  C   UNL     1      -9.278   5.170  65.476  1.00  0.00    -0.136 A  
HETATM   12  C   UNL     1      -9.832   7.056  67.369  1.00  0.00    -0.197 A  
BRANCH   5  13
HETATM   13  N   UNL     1      -6.547   8.267  66.090  1.00  0.00    -0.050 NA 
HETATM   14  H   UNL     1      -5.763   7.713  66.434  1.00  0.00     0.000 HD 
BRANCH  13  15
HETATM   15  C   UNL     1      -6.382   9.103  64.897  1.00  0.00    -0.066 C  
HETATM   16  C   UNL     1      -6.628   8.242  63.654  1.00  0.00    -0.076 C  
BRANCH  15  17
HETATM   17  C   UNL     1      -7.401  10.262  64.910  1.00  0.00    -0.110 C  
BRANCH  17  18
HETATM   18  C   UNL     1      -8.435  10.232  63.775  1.00  0.00    -0.179 C  
BRANCH  18  19
HETATM   19  C   UNL     1      -9.852  10.657  64.163  1.00  0.00    -0.335 C  
HETATM   20  H1  UNL     1     -11.604  11.298  63.261  1.00  0.00     0.000 HD 
HETATM   21  N   UNL     1     -10.660  11.015  63.002  1.00  0.00    -0.805 NA 
HETATM   22  H2  UNL     1     -10.676  10.259  62.318  1.00  0.00     0.000 HD 
ENDBRANCH  18  19
ENDBRANCH  17  18
ENDBRANCH  15  17
ENDBRANCH  13  15
ENDBRANCH   5  13
ENDBRANCH   2   3
TORSDOF 6
ENDMDL
MODEL      244
REMARK 921   NORMALIZED FREE ENERGY PREDICTED BY IDOCK:   -2.74 KCAL/MOL
REMARK 922        TOTAL FREE ENERGY PREDICTED BY IDOCK:   -4.17 KCAL/MOL
REMARK 923 INTER-LIGAND FREE ENERGY PREDICTED BY IDOCK:   -3.92 KCAL/MOL
REMARK 924 INTRA-LIGAND FREE ENERGY PREDICTED BY IDOCK:   -0.25 KCAL/MOL
REMARK 927      BINDING AFFINITY PREDICTED BY RF-SCORE:    0.00 PKD
ROOT
HETATM    1  C   UNL     1     -12.099  11.278  69.406  1.00  0.00    -0.315 C  
HETATM    2  O   UNL     1     -12.377  10.720  70.683  1.00  0.00    -0.311 OA 
ENDROOT
BRANCH   2   3
HETATM    3  C   UNL     1     -11.645   9.629  71.059  1.00  0.00    -0.359 A  
HETATM    4  C   UNL     1     -10.297   9.693  70.715  1.00  0.00    -0.356 A  
HETATM    5  C   UNL     1      -9.396   8.674  71.061  1.00  0.00    -0.202 A  
HETATM    6  C   UNL     1     -10.893   5.231  72.919  1.00  0.00    -0.322 A  
HETATM    7  C   UNL     1      -9.876   7.511  71.713  1.00  0.00    -0.164 A  
HETATM    8  C   UNL     1     -11.747   6.292  72.663  1.00  0.00    -0.164 A  
HETATM    9  C   UNL     1     -12.120   8.514  71.737  1.00  0.00    -0.391 A  
HETATM   10  N   UNL     1      -9.045   6.479  71.993  1.00  0.00    -0.141 NA 
HETATM   11  C   UNL     1      -9.566   5.371  72.569  1.00  0.00    -0.149 A  
HETATM   12  C   UNL     1     -11.253   7.449  72.036  1.00  0.00    -0.289 A  
BRANCH   5  13
HETATM   13  N   UNL     1      -8.008   8.833  70.833  1.00  0.00    -0.120 NA 
HETATM   14  H   UNL     1      -7.397   9.112  71.601  1.00  0.00     0.000 HD 
BRANCH  13  15
HETATM   15  C   UNL     1      -7.446   8.597  69.501  1.00  0.00    -0.072 C  
HETATM   16  C   UNL     1      -6.676   7.272  69.518  1.00  0.00    -0.045 C  
BRANCH  15  17
HETATM   17  C   UNL     1      -8.573   8.502  68.452  1.00  0.00    -0.139 C  
BRANCH  17  18
HETATM   18  C   UNL     1      -8.628   7.182  67.670  1.00  0.00    -0.122 C  
BRANCH  18  19
HETATM   19  C   UNL     1      -8.903   7.314  66.172  1.00  0.00    -0.158 C  
HETATM   20  H1  UNL     1      -7.862   7.348  64.379  1.00  0.00     0.000 HD 
HETATM   21  N   UNL     1      -7.680   7.259  65.379  1.00  0.00    -0.103 NA 
HETATM   22  H2  UNL     1      -7.146   6.415  65.582  1.00  0.00     0.000 HD 
ENDBRANCH  18  19
ENDBRANCH  17  18
ENDBRANCH  15  17
ENDBRANCH  13  15
ENDBRANCH   5  13
ENDBRANCH   2   3
TORSDOF 6
ENDMDL
MODEL      245
REMARK 921   NORMALIZED FREE ENERGY PREDICTED BY IDOCK:   -2.72 KCAL/MOL
REMARK 922        TOTAL FREE ENERGY PREDICTED BY IDOCK:   -4.15 KCAL/MOL
REMARK 923 INTER-LIGAND FREE ENERGY PREDICTED BY IDOCK:   -4.08 KCAL/MOL
REMARK 924 INTRA-LIGAND FREE ENERGY PREDICTED BY IDOCK:   -0.06 KCAL/MOL
REMARK 927      BINDING AFFINITY PREDICTED BY RF-SCORE:    0.00 PKD
ROOT
HETATM    1  C   UNL     1      -9.879   5.588  73.023  1.00  0.00    -0.162 C  
HETATM    2  O   UNL     1     -10.779   6.134  72.069  1.00  0.00    -0.218 OA 
ENDROOT
BRANCH   2   3
HETATM    3  C   UNL     1     -10.553   5.834  70.755  1.00  0.00    -0.269 A  
HETATM    4  C   UNL     1     -10.953   6.823  69.861  1.00  0.00    -0.340 A  
HETATM    5  C   UNL     1     -10.759   6.693  68.477  1.00  0.00    -0.256 A  
HETATM    6  C   UNL     1      -9.197   3.092  67.011  1.00  0.00    -0.198 A  
HETATM    7  C   UNL     1     -10.208   5.494  67.960  1.00  0.00    -0.181 A  
HETATM    8  C   UNL     1      -9.301   3.283  68.380  1.00  0.00    -0.241 A  
HETATM    9  C   UNL     1      -9.973   4.671  70.265  1.00  0.00    -0.309 A  
HETATM   10  N   UNL     1     -10.076   5.308  66.625  1.00  0.00    -0.202 NA 
HETATM   11  C   UNL     1      -9.594   4.123  66.185  1.00  0.00    -0.196 A  
HETATM   12  C   UNL     1      -9.827   4.486  68.880  1.00  0.00    -0.190 A  
BRANCH   5  13
HETATM   13  N   UNL     1     -11.035   7.774  67.606  1.00  0.00    -0.517 NA 
HETATM   14  H   UNL     1     -11.739   7.670  66.875  1.00  0.00     0.000 HD 
BRANCH  13  15
HETATM   15  C   UNL     1     -10.314   9.042  67.750  1.00  0.00    -0.246 C  
HETATM   16  C   UNL     1     -10.810   9.750  69.015  1.00  0.00    -0.223 C  
BRANCH  15  17
HETATM   17  C   UNL     1      -8.799   8.785  67.885  1.00  0.00    -0.136 C  
BRANCH  17  18
HETATM   18  C   UNL     1      -8.038   9.806  68.743  1.00  0.00    -0.102 C  
BRANCH  18  19
HETATM   19  C   UNL     1      -6.612   9.410  69.129  1.00  0.00    -0.049 C  
HETATM   20  H1  UNL     1      -5.030   8.302  68.378  1.00  0.00     0.000 HD 
HETATM   21  N   UNL     1      -5.981   8.566  68.121  1.00  0.00    -0.045 NA 
HETATM   22  H2  UNL     1      -6.004   9.008  67.202  1.00  0.00     0.000 HD 
ENDBRANCH  18  19
ENDBRANCH  17  18
ENDBRANCH  15  17
ENDBRANCH  13  15
ENDBRANCH   5  13
ENDBRANCH   2   3
TORSDOF 6
ENDMDL
MODEL      246
REMARK 921   NORMALIZED FREE ENERGY PREDICTED BY IDOCK:   -2.60 KCAL/MOL
REMARK 922        TOTAL FREE ENERGY PREDICTED BY IDOCK:   -3.98 KCAL/MOL
REMARK 923 INTER-LIGAND FREE ENERGY PREDICTED BY IDOCK:   -3.38 KCAL/MOL
REMARK 924 INTRA-LIGAND FREE ENERGY PREDICTED BY IDOCK:   -0.60 KCAL/MOL
REMARK 927      BINDING AFFINITY PREDICTED BY RF-SCORE:    0.00 PKD
ROOT
HETATM    1  C   UNL     1      -7.362  20.361  64.852  1.00  0.00     0.289 C  
HETATM    2  O   UNL     1      -6.078  20.141  65.418  1.00  0.00    -0.188 OA 
ENDROOT
BRANCH   2   3
HETATM    3  C   UNL     1      -6.027  19.827  66.748  1.00  0.00    -0.171 A  
HETATM    4  C   UNL     1      -6.527  18.565  67.060  1.00  0.00    -0.198 A  
HETATM    5  C   UNL     1      -6.514  18.068  68.373  1.00  0.00    -0.203 A  
HETATM    6  C   UNL     1      -5.201  20.591  71.449  1.00  0.00    -0.279 A  
HETATM    7  C   UNL     1      -6.050  18.895  69.426  1.00  0.00    -0.265 A  
HETATM    8  C   UNL     1      -5.125  21.023  70.134  1.00  0.00    -0.358 A  
HETATM    9  C   UNL     1      -5.530  20.630  67.765  1.00  0.00    -0.263 A  
HETATM   10  N   UNL     1      -6.094  18.472  70.712  1.00  0.00     0.215 NA 
HETATM   11  C   UNL     1      -5.688  19.322  71.683  1.00  0.00    -0.123 A  
HETATM   12  C   UNL     1      -5.567  20.185  69.097  1.00  0.00    -0.285 A  
BRANCH   5  13
HETATM   13  N   UNL     1      -6.886  16.729  68.639  1.00  0.00    -0.166 NA 
HETATM   14  H   UNL     1      -7.257  16.478  69.556  1.00  0.00     0.000 HD 
BRANCH  13  15
HETATM   15  C   UNL     1      -6.741  15.701  67.605  1.00  0.00    -0.178 C  
HETATM   16  C   UNL     1      -5.960  14.519  68.190  1.00  0.00    -0.139 C  
BRANCH  15  17
HETATM   17  C   UNL     1      -8.127  15.203  67.146  1.00  0.00    -0.245 C  
BRANCH  17  18
HETATM   18  C   UNL     1      -9.287  15.537  68.095  1.00  0.00    -0.197 C  
BRANCH  18  19
HETATM   19  C   UNL     1     -10.212  16.664  67.634  1.00  0.00    -0.285 C  
HETATM   20  H1  UNL     1     -10.892  17.519  65.873  1.00  0.00     0.000 HD 
HETATM   21  N   UNL     1     -10.276  16.767  66.180  1.00  0.00    -0.340 NA 
HETATM   22  H2  UNL     1     -10.541  15.878  65.758  1.00  0.00     0.000 HD 
ENDBRANCH  18  19
ENDBRANCH  17  18
ENDBRANCH  15  17
ENDBRANCH  13  15
ENDBRANCH   5  13
ENDBRANCH   2   3
TORSDOF 6
ENDMDL
MODEL      247
REMARK 921   NORMALIZED FREE ENERGY PREDICTED BY IDOCK:   -2.58 KCAL/MOL
REMARK 922        TOTAL FREE ENERGY PREDICTED BY IDOCK:   -3.96 KCAL/MOL
REMARK 923 INTER-LIGAND FREE ENERGY PREDICTED BY IDOCK:   -3.69 KCAL/MOL
REMARK 924 INTRA-LIGAND FREE ENERGY PREDICTED BY IDOCK:   -0.27 KCAL/MOL
REMARK 927      BINDING AFFINITY PREDICTED BY RF-SCORE:    0.00 PKD
ROOT
HETATM    1  C   UNL     1     -12.236  11.485  69.642  1.00  0.00    -0.229 C  
HETATM    2  O   UNL     1     -11.154  10.763  70.216  1.00  0.00    -0.276 OA 
ENDROOT
BRANCH   2   3
HETATM    3  C   UNL     1     -10.873   9.535  69.686  1.00  0.00    -0.235 A  
HETATM    4  C   UNL     1     -10.778   9.515  68.297  1.00  0.00    -0.241 A  
HETATM    5  C   UNL     1     -10.457   8.345  67.593  1.00  0.00    -0.239 A  
HETATM    6  C   UNL     1     -10.067   4.769  69.741  1.00  0.00    -0.289 A  
HETATM    7  C   UNL     1     -10.295   7.128  68.301  1.00  0.00    -0.195 A  
HETATM    8  C   UNL     1     -10.281   5.955  70.425  1.00  0.00    -0.273 A  
HETATM    9  C   UNL     1     -10.674   8.358  70.395  1.00  0.00    -0.244 A  
HETATM   10  N   UNL     1     -10.058   5.968  67.644  1.00  0.00    -0.145 NA 
HETATM   11  C   UNL     1      -9.965   4.827  68.366  1.00  0.00    -0.086 A  
HETATM   12  C   UNL     1     -10.417   7.158  69.712  1.00  0.00    -0.238 A  
BRANCH   5  13
HETATM   13  N   UNL     1     -10.219   8.385  66.198  1.00  0.00    -0.385 NA 
HETATM   14  H   UNL     1     -10.912   8.004  65.554  1.00  0.00     0.000 HD 
BRANCH  13  15
HETATM   15  C   UNL     1      -8.981   8.970  65.676  1.00  0.00    -0.202 C  
HETATM   16  C   UNL     1      -8.438   9.972  66.702  1.00  0.00    -0.126 C  
BRANCH  15  17
HETATM   17  C   UNL     1      -7.923   7.871  65.447  1.00  0.00    -0.123 C  
BRANCH  17  18
HETATM   18  C   UNL     1      -6.692   7.949  66.363  1.00  0.00    -0.054 C  
BRANCH  18  19
HETATM   19  C   UNL     1      -6.441   6.718  67.235  1.00  0.00    -0.049 C  
HETATM   20  H1  UNL     1      -6.501   6.168  69.232  1.00  0.00     0.000 HD 
HETATM   21  N   UNL     1      -6.669   6.988  68.651  1.00  0.00    -0.061 NA 
HETATM   22  H2  UNL     1      -7.603   7.367  68.808  1.00  0.00     0.000 HD 
ENDBRANCH  18  19
ENDBRANCH  17  18
ENDBRANCH  15  17
ENDBRANCH  13  15
ENDBRANCH   5  13
ENDBRANCH   2   3
TORSDOF 6
ENDMDL
MODEL      248
REMARK 921   NORMALIZED FREE ENERGY PREDICTED BY IDOCK:   -2.56 KCAL/MOL
REMARK 922        TOTAL FREE ENERGY PREDICTED BY IDOCK:   -3.93 KCAL/MOL
REMARK 923 INTER-LIGAND FREE ENERGY PREDICTED BY IDOCK:   -3.40 KCAL/MOL
REMARK 924 INTRA-LIGAND FREE ENERGY PREDICTED BY IDOCK:   -0.54 KCAL/MOL
REMARK 927      BINDING AFFINITY PREDICTED BY RF-SCORE:    0.00 PKD
ROOT
HETATM    1  C   UNL     1      -5.898   7.220  64.779  1.00  0.00    -0.037 C  
HETATM    2  O   UNL     1      -5.997   7.717  66.106  1.00  0.00    -0.037 OA 
ENDROOT
BRANCH   2   3
HETATM    3  C   UNL     1      -6.796   7.026  66.973  1.00  0.00    -0.068 A  
HETATM    4  C   UNL     1      -7.127   7.723  68.132  1.00  0.00    -0.085 A  
HETATM    5  C   UNL     1      -7.971   7.175  69.111  1.00  0.00    -0.119 A  
HETATM    6  C   UNL     1      -9.273   3.221  68.635  1.00  0.00    -0.232 A  
HETATM    7  C   UNL     1      -8.445   5.848  68.959  1.00  0.00    -0.105 A  
HETATM    8  C   UNL     1      -8.525   3.817  67.632  1.00  0.00    -0.104 A  
HETATM    9  C   UNL     1      -7.289   5.740  66.792  1.00  0.00    -0.079 A  
HETATM   10  N   UNL     1      -9.200   5.265  69.920  1.00  0.00    -0.132 NA 
HETATM   11  C   UNL     1      -9.580   3.978  69.747  1.00  0.00    -0.210 A  
HETATM   12  C   UNL     1      -8.081   5.142  67.786  1.00  0.00    -0.099 A  
BRANCH   5  13
HETATM   13  N   UNL     1      -8.413   7.960  70.202  1.00  0.00    -0.128 NA 
HETATM   14  H   UNL     1      -7.914   7.919  71.092  1.00  0.00     0.000 HD 
BRANCH  13  15
HETATM   15  C   UNL     1      -9.583   8.831  70.061  1.00  0.00    -0.169 C  
HETATM   16  C   UNL     1     -10.253   8.983  71.431  1.00  0.00    -0.399 C  
BRANCH  15  17
HETATM   17  C   UNL     1      -9.155  10.226  69.560  1.00  0.00    -0.187 C  
BRANCH  17  18
HETATM   18  C   UNL     1      -9.917  10.739  68.329  1.00  0.00    -0.182 C  
BRANCH  18  19
HETATM   19  C   UNL     1     -11.160  11.578  68.627  1.00  0.00    -0.238 C  
HETATM   20  H1  UNL     1     -13.202  11.329  68.883  1.00  0.00     0.000 HD 
HETATM   21  N   UNL     1     -12.373  10.769  68.684  1.00  0.00    -0.786 NA 
HETATM   22  H2  UNL     1     -12.275  10.005  69.353  1.00  0.00     0.000 HD 
ENDBRANCH  18  19
ENDBRANCH  17  18
ENDBRANCH  15  17
ENDBRANCH  13  15
ENDBRANCH   5  13
ENDBRANCH   2   3
TORSDOF 6
ENDMDL
MODEL      249
REMARK 921   NORMALIZED FREE ENERGY PREDICTED BY IDOCK:   -2.44 KCAL/MOL
REMARK 922        TOTAL FREE ENERGY PREDICTED BY IDOCK:   -3.76 KCAL/MOL
REMARK 923 INTER-LIGAND FREE ENERGY PREDICTED BY IDOCK:   -3.25 KCAL/MOL
REMARK 924 INTRA-LIGAND FREE ENERGY PREDICTED BY IDOCK:   -0.52 KCAL/MOL
REMARK 927      BINDING AFFINITY PREDICTED BY RF-SCORE:    0.00 PKD
ROOT
HETATM    1  C   UNL     1      -5.727  12.770  70.385  1.00  0.00    -0.173 C  
HETATM    2  O   UNL     1      -6.070  11.403  70.562  1.00  0.00    -0.258 OA 
ENDROOT
BRANCH   2   3
HETATM    3  C   UNL     1      -6.915  10.847  69.643  1.00  0.00    -0.128 A  
HETATM    4  C   UNL     1      -7.327   9.553  69.947  1.00  0.00    -0.103 A  
HETATM    5  C   UNL     1      -8.225   8.850  69.130  1.00  0.00    -0.118 A  
HETATM    6  C   UNL     1      -9.451  10.616  65.534  1.00  0.00    -0.261 A  
HETATM    7  C   UNL     1      -8.674   9.438  67.921  1.00  0.00    -0.120 A  
HETATM    8  C   UNL     1      -8.647  11.333  66.406  1.00  0.00    -0.174 A  
HETATM    9  C   UNL     1      -7.381  11.451  68.482  1.00  0.00    -0.105 A  
HETATM   10  N   UNL     1      -9.482   8.756  67.075  1.00  0.00    -0.158 NA 
HETATM   11  C   UNL     1      -9.837   9.345  65.909  1.00  0.00    -0.291 A  
HETATM   12  C   UNL     1      -8.228  10.746  67.612  1.00  0.00    -0.115 A  
BRANCH   5  13
HETATM   13  N   UNL     1      -8.744   7.598  69.539  1.00  0.00    -0.136 NA 
HETATM   14  H   UNL     1      -8.607   6.775  68.952  1.00  0.00     0.000 HD 
BRANCH  13  15
HETATM   15  C   UNL     1      -9.477   7.479  70.803  1.00  0.00    -0.163 C  
HETATM   16  C   UNL     1     -10.912   7.971  70.589  1.00  0.00    -0.250 C  
BRANCH  15  17
HETATM   17  C   UNL     1      -9.519   6.007  71.261  1.00  0.00    -0.180 C  
BRANCH  17  18
HETATM   18  C   UNL     1      -9.742   4.981  70.140  1.00  0.00    -0.280 C  
BRANCH  18  19
HETATM   19  C   UNL     1      -9.329   3.545  70.469  1.00  0.00    -0.160 C  
HETATM   20  H1  UNL     1      -8.497   1.894  69.532  1.00  0.00     0.000 HD 
HETATM   21  N   UNL     1      -8.772   2.852  69.313  1.00  0.00    -0.074 NA 
HETATM   22  H2  UNL     1      -7.996   3.374  68.908  1.00  0.00     0.000 HD 
ENDBRANCH  18  19
ENDBRANCH  17  18
ENDBRANCH  15  17
ENDBRANCH  13  15
ENDBRANCH   5  13
ENDBRANCH   2   3
TORSDOF 6
ENDMDL
MODEL      250
REMARK 921   NORMALIZED FREE ENERGY PREDICTED BY IDOCK:   -2.37 KCAL/MOL
REMARK 922        TOTAL FREE ENERGY PREDICTED BY IDOCK:   -3.67 KCAL/MOL
REMARK 923 INTER-LIGAND FREE ENERGY PREDICTED BY IDOCK:   -3.26 KCAL/MOL
REMARK 924 INTRA-LIGAND FREE ENERGY PREDICTED BY IDOCK:   -0.41 KCAL/MOL
REMARK 927      BINDING AFFINITY PREDICTED BY RF-SCORE:    0.00 PKD
ROOT
HETATM    1  C   UNL     1     -11.218   1.967  62.817  1.00  0.00    -0.244 C  
HETATM    2  O   UNL     1     -10.257   2.057  63.860  1.00  0.00    -0.127 OA 
ENDROOT
BRANCH   2   3
HETATM    3  C   UNL     1      -9.665   3.273  64.060  1.00  0.00    -0.154 A  
HETATM    4  C   UNL     1      -9.679   3.710  65.382  1.00  0.00    -0.130 A  
HETATM    5  C   UNL     1      -9.079   4.919  65.768  1.00  0.00    -0.148 A  
HETATM    6  C   UNL     1      -7.477   7.393  62.791  1.00  0.00    -0.105 A  
HETATM    7  C   UNL     1      -8.508   5.760  64.781  1.00  0.00    -0.079 A  
HETATM    8  C   UNL     1      -7.980   6.148  62.445  1.00  0.00    -0.096 A  
HETATM    9  C   UNL     1      -9.071   4.069  63.089  1.00  0.00    -0.117 A  
HETATM   10  N   UNL     1      -7.989   6.966  65.112  1.00  0.00    -0.120 NA 
HETATM   11  C   UNL     1      -7.504   7.752  64.122  1.00  0.00    -0.105 A  
HETATM   12  C   UNL     1      -8.523   5.314  63.437  1.00  0.00    -0.092 A  
BRANCH   5  13
HETATM   13  N   UNL     1      -8.974   5.266  67.136  1.00  0.00    -0.112 NA 
HETATM   14  H   UNL     1      -8.089   5.615  67.505  1.00  0.00     0.000 HD 
BRANCH  13  15
HETATM   15  C   UNL     1     -10.130   5.124  68.026  1.00  0.00    -0.128 C  
HETATM   16  C   UNL     1      -9.649   4.585  69.377  1.00  0.00    -0.264 C  
BRANCH  15  17
HETATM   17  C   UNL     1     -10.805   6.494  68.249  1.00  0.00    -0.359 C  
BRANCH  17  18
HETATM   18  C   UNL     1     -10.864   7.401  67.011  1.00  0.00    -0.307 C  
BRANCH  18  19
HETATM   19  C   UNL     1     -10.505   8.868  67.252  1.00  0.00    -0.277 C  
HETATM   20  H1  UNL     1     -10.355  10.213  68.822  1.00  0.00     0.000 HD 
HETATM   21  N   UNL     1     -10.595   9.234  68.661  1.00  0.00    -0.295 NA 
HETATM   22  H2  UNL     1     -10.027   8.616  69.240  1.00  0.00     0.000 HD 
ENDBRANCH  18  19
ENDBRANCH  17  18
ENDBRANCH  15  17
ENDBRANCH  13  15
ENDBRANCH   5  13
ENDBRANCH   2   3
TORSDOF 6
ENDMDL
MODEL      251
REMARK 921   NORMALIZED FREE ENERGY PREDICTED BY IDOCK:   -2.28 KCAL/MOL
REMARK 922        TOTAL FREE ENERGY PREDICTED BY IDOCK:   -3.55 KCAL/MOL
REMARK 923 INTER-LIGAND FREE ENERGY PREDICTED BY IDOCK:   -3.59 KCAL/MOL
REMARK 924 INTRA-LIGAND FREE ENERGY PREDICTED BY IDOCK:    0.04 KCAL/MOL
REMARK 927      BINDING AFFINITY PREDICTED BY RF-SCORE:    0.00 PKD
ROOT
HETATM    1  C   UNL     1      -7.450   7.898  64.462  1.00  0.00    -0.099 C  
HETATM    2  O   UNL     1      -8.056   8.874  63.625  1.00  0.00    -0.151 OA 
ENDROOT
BRANCH   2   3
HETATM    3  C   UNL     1      -8.701   9.910  64.241  1.00  0.00    -0.209 A  
HETATM    4  C   UNL     1      -7.931  10.590  65.181  1.00  0.00    -0.094 A  
HETATM    5  C   UNL     1      -8.426  11.704  65.877  1.00  0.00     0.137 A  
HETATM    6  C   UNL     1     -12.428  12.800  65.300  1.00  0.00    -0.528 A  
HETATM    7  C   UNL     1      -9.769  12.109  65.679  1.00  0.00    -0.207 A  
HETATM    8  C   UNL     1     -11.889  11.770  64.547  1.00  0.00    -0.235 A  
HETATM    9  C   UNL     1     -10.005  10.323  64.006  1.00  0.00    -0.195 A  
HETATM   10  N   UNL     1     -10.298  13.133  66.390  1.00  0.00    -0.281 NA 
HETATM   11  C   UNL     1     -11.602  13.443  66.199  1.00  0.00    -0.346 A  
HETATM   12  C   UNL     1     -10.548  11.393  64.737  1.00  0.00    -0.377 A  
BRANCH   5  13
HETATM   13  N   UNL     1      -7.576  12.467  66.713  1.00  0.00    -0.381 NA 
HETATM   14  H   UNL     1      -7.163  13.332  66.363  1.00  0.00     0.000 HD 
BRANCH  13  15
HETATM   15  C   UNL     1      -7.287  12.021  68.078  1.00  0.00    -0.102 C  
HETATM   16  C   UNL     1      -6.875  10.545  68.038  1.00  0.00    -0.073 C  
BRANCH  15  17
HETATM   17  C   UNL     1      -6.128  12.845  68.677  1.00  0.00    -0.068 C  
BRANCH  17  18
HETATM   18  C   UNL     1      -6.352  14.364  68.703  1.00  0.00    -0.087 C  
BRANCH  18  19
HETATM   19  C   UNL     1      -6.288  15.016  70.085  1.00  0.00    -0.150 C  
HETATM   20  H1  UNL     1      -5.199  16.464  71.091  1.00  0.00     0.000 HD 
HETATM   21  N   UNL     1      -5.242  16.030  70.170  1.00  0.00    -0.142 NA 
HETATM   22  H2  UNL     1      -5.348  16.730  69.436  1.00  0.00     0.000 HD 
ENDBRANCH  18  19
ENDBRANCH  17  18
ENDBRANCH  15  17
ENDBRANCH  13  15
ENDBRANCH   5  13
ENDBRANCH   2   3
TORSDOF 6
ENDMDL
MODEL      252
REMARK 921   NORMALIZED FREE ENERGY PREDICTED BY IDOCK:   -2.15 KCAL/MOL
REMARK 922        TOTAL FREE ENERGY PREDICTED BY IDOCK:   -3.38 KCAL/MOL
REMARK 923 INTER-LIGAND FREE ENERGY PREDICTED BY IDOCK:   -2.94 KCAL/MOL
REMARK 924 INTRA-LIGAND FREE ENERGY PREDICTED BY IDOCK:   -0.44 KCAL/MOL
REMARK 927      BINDING AFFINITY PREDICTED BY RF-SCORE:    0.00 PKD
ROOT
HETATM    1  C   UNL     1     -10.587   9.349  67.055  1.00  0.00    -0.201 C  
HETATM    2  O   UNL     1      -9.688   8.711  66.159  1.00  0.00    -0.253 OA 
ENDROOT
BRANCH   2   3
HETATM    3  C   UNL     1      -9.117   7.541  66.576  1.00  0.00    -0.166 A  
HETATM    4  C   UNL     1      -8.345   7.656  67.729  1.00  0.00    -0.118 A  
HETATM    5  C   UNL     1      -7.719   6.544  68.315  1.00  0.00    -0.105 A  
HETATM    6  C   UNL     1      -7.964   2.852  66.351  1.00  0.00    -0.081 A  
HETATM    7  C   UNL     1      -7.810   5.280  67.682  1.00  0.00    -0.096 A  
HETATM    8  C   UNL     1      -8.660   3.939  65.846  1.00  0.00    -0.111 A  
HETATM    9  C   UNL     1      -9.249   6.298  65.970  1.00  0.00    -0.103 A  
HETATM   10  N   UNL     1      -7.157   4.204  68.182  1.00  0.00    -0.058 NA 
HETATM   11  C   UNL     1      -7.234   3.033  67.507  1.00  0.00    -0.054 A  
HETATM   12  C   UNL     1      -8.580   5.182  66.497  1.00  0.00    -0.111 A  
BRANCH   5  13
HETATM   13  N   UNL     1      -7.067   6.661  69.565  1.00  0.00    -0.074 NA 
HETATM   14  H   UNL     1      -6.108   7.005  69.608  1.00  0.00     0.000 HD 
BRANCH  13  15
HETATM   15  C   UNL     1      -7.765   6.289  70.800  1.00  0.00    -0.102 C  
HETATM   16  C   UNL     1      -6.734   6.147  71.925  1.00  0.00    -0.064 C  
BRANCH  15  17
HETATM   17  C   UNL     1      -8.780   7.382  71.192  1.00  0.00    -0.137 C  
BRANCH  17  18
HETATM   18  C   UNL     1     -10.196   6.875  71.505  1.00  0.00    -0.210 C  
BRANCH  18  19
HETATM   19  C   UNL     1     -11.326   7.561  70.736  1.00  0.00    -0.280 C  
HETATM   20  H1  UNL     1     -12.740   7.113  69.288  1.00  0.00     0.000 HD 
HETATM   21  N   UNL     1     -11.986   6.656  69.801  1.00  0.00    -0.618 NA 
HETATM   22  H2  UNL     1     -12.319   5.816  70.273  1.00  0.00     0.000 HD 
ENDBRANCH  18  19
ENDBRANCH  17  18
ENDBRANCH  15  17
ENDBRANCH  13  15
ENDBRANCH   5  13
ENDBRANCH   2   3
TORSDOF 6
ENDMDL
MODEL      253
REMARK 921   NORMALIZED FREE ENERGY PREDICTED BY IDOCK:   -2.14 KCAL/MOL
REMARK 922        TOTAL FREE ENERGY PREDICTED BY IDOCK:   -3.36 KCAL/MOL
REMARK 923 INTER-LIGAND FREE ENERGY PREDICTED BY IDOCK:   -2.69 KCAL/MOL
REMARK 924 INTRA-LIGAND FREE ENERGY PREDICTED BY IDOCK:   -0.67 KCAL/MOL
REMARK 927      BINDING AFFINITY PREDICTED BY RF-SCORE:    0.00 PKD
ROOT
HETATM    1  C   UNL     1     -11.084   6.875  67.521  1.00  0.00    -0.213 C  
HETATM    2  O   UNL     1     -10.030   5.969  67.228  1.00  0.00    -0.127 OA 
ENDROOT
BRANCH   2   3
HETATM    3  C   UNL     1      -9.510   5.257  68.272  1.00  0.00    -0.124 A  
HETATM    4  C   UNL     1      -9.576   5.907  69.502  1.00  0.00    -0.174 A  
HETATM    5  C   UNL     1      -9.123   5.302  70.684  1.00  0.00    -0.142 A  
HETATM    6  C   UNL     1      -7.257   1.560  70.423  1.00  0.00    -0.033 A  
HETATM    7  C   UNL     1      -8.511   4.025  70.624  1.00  0.00    -0.070 A  
HETATM    8  C   UNL     1      -7.805   2.129  69.285  1.00  0.00    -0.049 A  
HETATM    9  C   UNL     1      -8.952   3.987  68.206  1.00  0.00    -0.156 A  
HETATM   10  N   UNL     1      -7.997   3.448  71.735  1.00  0.00    -0.061 NA 
HETATM   11  C   UNL     1      -7.377   2.252  71.611  1.00  0.00    -0.039 A  
HETATM   12  C   UNL     1      -8.429   3.386  69.363  1.00  0.00    -0.096 A  
BRANCH   5  13
HETATM   13  N   UNL     1      -9.339   5.921  71.939  1.00  0.00    -0.151 NA 
HETATM   14  H   UNL     1      -8.543   6.177  72.523  1.00  0.00     0.000 HD 
BRANCH  13  15
HETATM   15  C   UNL     1     -10.703   6.195  72.402  1.00  0.00    -0.231 C  
HETATM   16  C   UNL     1     -11.018   5.269  73.582  1.00  0.00    -0.314 C  
BRANCH  15  17
HETATM   17  C   UNL     1     -10.825   7.659  72.873  1.00  0.00    -0.446 C  
BRANCH  17  18
HETATM   18  C   UNL     1     -11.407   8.631  71.836  1.00  0.00    -0.417 C  
BRANCH  18  19
HETATM   19  C   UNL     1     -10.579   9.891  71.577  1.00  0.00     0.485 C  
HETATM   20  H1  UNL     1      -8.659  10.420  71.004  1.00  0.00     0.000 HD 
HETATM   21  N   UNL     1      -9.211   9.580  71.177  1.00  0.00    -0.336 NA 
HETATM   22  H2  UNL     1      -9.194   8.956  70.371  1.00  0.00     0.000 HD 
ENDBRANCH  18  19
ENDBRANCH  17  18
ENDBRANCH  15  17
ENDBRANCH  13  15
ENDBRANCH   5  13
ENDBRANCH   2   3
TORSDOF 6
ENDMDL
MODEL      254
REMARK 921   NORMALIZED FREE ENERGY PREDICTED BY IDOCK:   -2.10 KCAL/MOL
REMARK 922        TOTAL FREE ENERGY PREDICTED BY IDOCK:   -3.30 KCAL/MOL
REMARK 923 INTER-LIGAND FREE ENERGY PREDICTED BY IDOCK:   -3.06 KCAL/MOL
REMARK 924 INTRA-LIGAND FREE ENERGY PREDICTED BY IDOCK:   -0.25 KCAL/MOL
REMARK 927      BINDING AFFINITY PREDICTED BY RF-SCORE:    0.00 PKD
ROOT
HETATM    1  C   UNL     1     -11.908   9.748  68.468  1.00  0.00     0.931 C  
HETATM    2  O   UNL     1     -11.921  10.406  69.726  1.00  0.00    -0.238 OA 
ENDROOT
BRANCH   2   3
HETATM    3  C   UNL     1     -11.698  11.755  69.727  1.00  0.00    -0.335 A  
HETATM    4  C   UNL     1     -11.031  12.229  68.601  1.00  0.00    -0.276 A  
HETATM    5  C   UNL     1     -10.756  13.594  68.423  1.00  0.00    -0.258 A  
HETATM    6  C   UNL     1     -11.722  16.244  71.521  1.00  0.00    -0.467 A  
HETATM    7  C   UNL     1     -11.097  14.513  69.447  1.00  0.00    -0.268 A  
HETATM    8  C   UNL     1     -12.078  14.909  71.631  1.00  0.00    -0.415 A  
HETATM    9  C   UNL     1     -12.075  12.651  70.719  1.00  0.00    -0.239 A  
HETATM   10  N   UNL     1     -10.779  15.824  69.337  1.00  0.00    -0.243 NA 
HETATM   11  C   UNL     1     -11.081  16.648  70.368  1.00  0.00     0.009 A  
HETATM   12  C   UNL     1     -11.754  14.013  70.598  1.00  0.00    -0.230 A  
BRANCH   5  13
HETATM   13  N   UNL     1     -10.215  14.067  67.204  1.00  0.00    -0.256 NA 
HETATM   14  H   UNL     1     -10.793  14.623  66.573  1.00  0.00     0.000 HD 
BRANCH  13  15
HETATM   15  C   UNL     1      -8.828  13.762  66.843  1.00  0.00    -0.188 C  
HETATM   16  C   UNL     1      -7.920  14.127  68.022  1.00  0.00    -0.149 C  
BRANCH  15  17
HETATM   17  C   UNL     1      -8.671  12.256  66.543  1.00  0.00    -0.084 C  
BRANCH  17  18
HETATM   18  C   UNL     1      -7.341  11.636  66.995  1.00  0.00    -0.143 C  
BRANCH  18  19
HETATM   19  C   UNL     1      -7.453  10.518  68.031  1.00  0.00    -0.090 C  
HETATM   20  H1  UNL     1      -8.433   8.710  68.293  1.00  0.00     0.000 HD 
HETATM   21  N   UNL     1      -8.358   9.456  67.602  1.00  0.00    -0.118 NA 
HETATM   22  H2  UNL     1      -8.088   9.088  66.691  1.00  0.00     0.000 HD 
ENDBRANCH  18  19
ENDBRANCH  17  18
ENDBRANCH  15  17
ENDBRANCH  13  15
ENDBRANCH   5  13
ENDBRANCH   2   3
TORSDOF 6
ENDMDL
MODEL      255
REMARK 921   NORMALIZED FREE ENERGY PREDICTED BY IDOCK:   -2.07 KCAL/MOL
REMARK 922        TOTAL FREE ENERGY PREDICTED BY IDOCK:   -3.27 KCAL/MOL
REMARK 923 INTER-LIGAND FREE ENERGY PREDICTED BY IDOCK:   -3.41 KCAL/MOL
REMARK 924 INTRA-LIGAND FREE ENERGY PREDICTED BY IDOCK:    0.14 KCAL/MOL
REMARK 927      BINDING AFFINITY PREDICTED BY RF-SCORE:    0.00 PKD
ROOT
HETATM    1  C   UNL     1      -5.846  20.663  63.320  1.00  0.00    -0.253 C  
HETATM    2  O   UNL     1      -5.762  21.302  64.586  1.00  0.00    -0.220 OA 
ENDROOT
BRANCH   2   3
HETATM    3  C   UNL     1      -5.924  20.517  65.693  1.00  0.00    -0.215 A  
HETATM    4  C   UNL     1      -6.382  19.230  65.425  1.00  0.00    -0.303 A  
HETATM    5  C   UNL     1      -6.566  18.282  66.443  1.00  0.00    -0.211 A  
HETATM    6  C   UNL     1      -5.992  19.485  70.416  1.00  0.00    -0.262 A  
HETATM    7  C   UNL     1      -6.353  18.659  67.793  1.00  0.00    -0.202 A  
HETATM    8  C   UNL     1      -5.716  20.373  69.388  1.00  0.00    -0.370 A  
HETATM    9  C   UNL     1      -5.671  20.886  67.008  1.00  0.00    -0.271 A  
HETATM   10  N   UNL     1      -6.592  17.790  68.803  1.00  0.00    -0.217 NA 
HETATM   11  C   UNL     1      -6.424  18.219  70.075  1.00  0.00     0.132 A  
HETATM   12  C   UNL     1      -5.910  19.979  68.053  1.00  0.00    -0.247 A  
BRANCH   5  13
HETATM   13  N   UNL     1      -6.885  16.940  66.129  1.00  0.00    -0.095 NA 
HETATM   14  H   UNL     1      -6.410  16.472  65.356  1.00  0.00     0.000 HD 
BRANCH  13  15
HETATM   15  C   UNL     1      -7.895  16.219  66.908  1.00  0.00    -0.243 C  
HETATM   16  C   UNL     1      -9.277  16.504  66.310  1.00  0.00    -0.345 C  
BRANCH  15  17
HETATM   17  C   UNL     1      -7.633  14.699  66.850  1.00  0.00     0.269 C  
BRANCH  17  18
HETATM   18  C   UNL     1      -6.484  14.201  67.739  1.00  0.00    -0.181 C  
BRANCH  18  19
HETATM   19  C   UNL     1      -6.834  13.055  68.688  1.00  0.00    -0.099 C  
HETATM   20  H1  UNL     1      -5.885  11.717  69.956  1.00  0.00     0.000 HD 
HETATM   21  N   UNL     1      -5.652  12.482  69.322  1.00  0.00    -0.072 NA 
HETATM   22  H2  UNL     1      -5.104  13.199  69.797  1.00  0.00     0.000 HD 
ENDBRANCH  18  19
ENDBRANCH  17  18
ENDBRANCH  15  17
ENDBRANCH  13  15
ENDBRANCH   5  13
ENDBRANCH   2   3
TORSDOF 6
ENDMDL
MODEL      256
REMARK 921   NORMALIZED FREE ENERGY PREDICTED BY IDOCK:   -2.06 KCAL/MOL
REMARK 922        TOTAL FREE ENERGY PREDICTED BY IDOCK:   -3.25 KCAL/MOL
REMARK 923 INTER-LIGAND FREE ENERGY PREDICTED BY IDOCK:   -2.67 KCAL/MOL
REMARK 924 INTRA-LIGAND FREE ENERGY PREDICTED BY IDOCK:   -0.57 KCAL/MOL
REMARK 927      BINDING AFFINITY PREDICTED BY RF-SCORE:    0.00 PKD
ROOT
HETATM    1  C   UNL     1      -6.684   4.417  65.171  1.00  0.00    -0.049 C  
HETATM    2  O   UNL     1      -6.631   4.423  66.591  1.00  0.00    -0.047 OA 
ENDROOT
BRANCH   2   3
HETATM    3  C   UNL     1      -7.480   5.273  67.243  1.00  0.00    -0.084 A  
HETATM    4  C   UNL     1      -7.090   6.609  67.217  1.00  0.00    -0.080 A  
HETATM    5  C   UNL     1      -7.867   7.619  67.805  1.00  0.00    -0.120 A  
HETATM    6  C   UNL     1     -11.297   6.510  69.940  1.00  0.00    -0.469 A  
HETATM    7  C   UNL     1      -9.045   7.270  68.511  1.00  0.00    -0.136 A  
HETATM    8  C   UNL     1     -10.572   5.541  69.264  1.00  0.00    -0.325 A  
HETATM    9  C   UNL     1      -8.655   4.922  67.895  1.00  0.00    -0.103 A  
HETATM   10  N   UNL     1      -9.776   8.213  69.151  1.00  0.00    -0.161 NA 
HETATM   11  C   UNL     1     -10.863   7.817  69.854  1.00  0.00    -0.226 A  
HETATM   12  C   UNL     1      -9.418   5.904  68.549  1.00  0.00    -0.134 A  
BRANCH   5  13
HETATM   13  N   UNL     1      -7.526   8.982  67.634  1.00  0.00    -0.085 NA 
HETATM   14  H   UNL     1      -7.601   9.627  68.421  1.00  0.00     0.000 HD 
BRANCH  13  15
HETATM   15  C   UNL     1      -7.066   9.471  66.331  1.00  0.00    -0.088 C  
HETATM   16  C   UNL     1      -8.288   9.837  65.482  1.00  0.00    -0.141 C  
BRANCH  15  17
HETATM   17  C   UNL     1      -6.190  10.728  66.509  1.00  0.00    -0.107 C  
BRANCH  17  18
HETATM   18  C   UNL     1      -5.838  11.077  67.962  1.00  0.00    -0.042 C  
BRANCH  18  19
HETATM   19  C   UNL     1      -6.544  12.307  68.534  1.00  0.00    -0.072 C  
HETATM   20  H1  UNL     1      -7.178  14.183  67.921  1.00  0.00     0.000 HD 
HETATM   21  N   UNL     1      -6.708  13.362  67.540  1.00  0.00    -0.208 NA 
HETATM   22  H2  UNL     1      -7.187  13.015  66.710  1.00  0.00     0.000 HD 
ENDBRANCH  18  19
ENDBRANCH  17  18
ENDBRANCH  15  17
ENDBRANCH  13  15
ENDBRANCH   5  13
ENDBRANCH   2   3
TORSDOF 6
ENDMDL
MODEL      257
REMARK 921   NORMALIZED FREE ENERGY PREDICTED BY IDOCK:   -2.00 KCAL/MOL
REMARK 922        TOTAL FREE ENERGY PREDICTED BY IDOCK:   -3.17 KCAL/MOL
REMARK 923 INTER-LIGAND FREE ENERGY PREDICTED BY IDOCK:   -3.17 KCAL/MOL
REMARK 924 INTRA-LIGAND FREE ENERGY PREDICTED BY IDOCK:   -0.00 KCAL/MOL
REMARK 927      BINDING AFFINITY PREDICTED BY RF-SCORE:    0.00 PKD
ROOT
HETATM    1  C   UNL     1      -9.909   7.522  71.778  1.00  0.00    -0.164 C  
HETATM    2  O   UNL     1     -10.887   8.389  71.221  1.00  0.00    -0.224 OA 
ENDROOT
BRANCH   2   3
HETATM    3  C   UNL     1     -10.628   8.910  69.984  1.00  0.00    -0.220 A  
HETATM    4  C   UNL     1      -9.733   8.164  69.221  1.00  0.00    -0.170 A  
HETATM    5  C   UNL     1      -9.387   8.536  67.913  1.00  0.00    -0.135 A  
HETATM    6  C   UNL     1     -10.876  12.150  66.405  1.00  0.00    -0.306 A  
HETATM    7  C   UNL     1      -9.899   9.742  67.372  1.00  0.00    -0.174 A  
HETATM    8  C   UNL     1     -11.287  11.712  67.654  1.00  0.00    -0.362 A  
HETATM    9  C   UNL     1     -11.170  10.072  69.450  1.00  0.00    -0.235 A  
HETATM   10  N   UNL     1      -9.525  10.165  66.142  1.00  0.00    -0.177 NA 
HETATM   11  C   UNL     1     -10.003  11.351  65.697  1.00  0.00    -0.240 A  
HETATM   12  C   UNL     1     -10.789  10.503  68.169  1.00  0.00    -0.300 A  
BRANCH   5  13
HETATM   13  N   UNL     1      -8.597   7.683  67.107  1.00  0.00    -0.120 NA 
HETATM   14  H   UNL     1      -8.892   6.719  66.945  1.00  0.00     0.000 HD 
BRANCH  13  15
HETATM   15  C   UNL     1      -7.356   8.176  66.503  1.00  0.00    -0.081 C  
HETATM   16  C   UNL     1      -6.172   7.714  67.360  1.00  0.00    -0.053 C  
BRANCH  15  17
HETATM   17  C   UNL     1      -7.190   7.607  65.078  1.00  0.00    -0.066 C  
BRANCH  17  18
HETATM   18  C   UNL     1      -6.750   6.137  65.010  1.00  0.00    -0.043 C  
BRANCH  18  19
HETATM   19  C   UNL     1      -7.080   5.411  63.705  1.00  0.00    -0.048 C  
HETATM   20  H1  UNL     1      -7.518   3.498  63.038  1.00  0.00     0.000 HD 
HETATM   21  N   UNL     1      -7.299   3.983  63.908  1.00  0.00    -0.051 NA 
HETATM   22  H2  UNL     1      -8.016   3.816  64.614  1.00  0.00     0.000 HD 
ENDBRANCH  18  19
ENDBRANCH  17  18
ENDBRANCH  15  17
ENDBRANCH  13  15
ENDBRANCH   5  13
ENDBRANCH   2   3
TORSDOF 6
ENDMDL
MODEL      258
REMARK 921   NORMALIZED FREE ENERGY PREDICTED BY IDOCK:   -1.93 KCAL/MOL
REMARK 922        TOTAL FREE ENERGY PREDICTED BY IDOCK:   -3.07 KCAL/MOL
REMARK 923 INTER-LIGAND FREE ENERGY PREDICTED BY IDOCK:   -3.01 KCAL/MOL
REMARK 924 INTRA-LIGAND FREE ENERGY PREDICTED BY IDOCK:   -0.07 KCAL/MOL
REMARK 927      BINDING AFFINITY PREDICTED BY RF-SCORE:    0.00 PKD
ROOT
HETATM    1  C   UNL     1      -5.407   5.814  65.583  1.00  0.00    -0.010 C  
HETATM    2  O   UNL     1      -5.781   7.132  65.208  1.00  0.00    -0.034 OA 
ENDROOT
BRANCH   2   3
HETATM    3  C   UNL     1      -6.669   7.783  66.019  1.00  0.00    -0.049 A  
HETATM    4  C   UNL     1      -7.332   6.959  66.925  1.00  0.00    -0.082 A  
HETATM    5  C   UNL     1      -8.248   7.470  67.857  1.00  0.00    -0.123 A  
HETATM    6  C   UNL     1      -9.211  11.543  67.682  1.00  0.00    -0.171 A  
HETATM    7  C   UNL     1      -8.570   8.850  67.834  1.00  0.00    -0.126 A  
HETATM    8  C   UNL     1      -8.232  11.038  66.841  1.00  0.00    -0.140 A  
HETATM    9  C   UNL     1      -6.944   9.144  66.014  1.00  0.00    -0.085 A  
HETATM   10  N   UNL     1      -9.505   9.359  68.670  1.00  0.00    -0.145 NA 
HETATM   11  C   UNL     1      -9.812  10.673  68.568  1.00  0.00    -0.168 A  
HETATM   12  C   UNL     1      -7.906   9.672  66.890  1.00  0.00    -0.102 A  
BRANCH   5  13
HETATM   13  N   UNL     1      -8.792   6.637  68.864  1.00  0.00    -0.131 NA 
HETATM   14  H   UNL     1      -8.170   6.143  69.505  1.00  0.00     0.000 HD 
BRANCH  13  15
HETATM   15  C   UNL     1     -10.243   6.481  68.991  1.00  0.00    -0.177 C  
HETATM   16  C   UNL     1     -10.770   5.745  67.754  1.00  0.00    -0.306 C  
BRANCH  15  17
HETATM   17  C   UNL     1     -10.586   5.652  70.246  1.00  0.00    -0.370 C  
BRANCH  17  18
HETATM   18  C   UNL     1     -10.127   6.264  71.578  1.00  0.00    -0.218 C  
BRANCH  18  19
HETATM   19  C   UNL     1     -10.696   5.607  72.836  1.00  0.00    -0.248 C  
HETATM   20  H1  UNL     1     -10.746   5.915  74.885  1.00  0.00     0.000 HD 
HETATM   21  N   UNL     1     -10.366   6.353  74.046  1.00  0.00    -0.320 NA 
HETATM   22  H2  UNL     1     -10.662   7.326  73.972  1.00  0.00     0.000 HD 
ENDBRANCH  18  19
ENDBRANCH  17  18
ENDBRANCH  15  17
ENDBRANCH  13  15
ENDBRANCH   5  13
ENDBRANCH   2   3
TORSDOF 6
ENDMDL
MODEL      259
REMARK 921   NORMALIZED FREE ENERGY PREDICTED BY IDOCK:   -1.81 KCAL/MOL
REMARK 922        TOTAL FREE ENERGY PREDICTED BY IDOCK:   -2.91 KCAL/MOL
REMARK 923 INTER-LIGAND FREE ENERGY PREDICTED BY IDOCK:   -2.92 KCAL/MOL
REMARK 924 INTRA-LIGAND FREE ENERGY PREDICTED BY IDOCK:    0.01 KCAL/MOL
REMARK 927      BINDING AFFINITY PREDICTED BY RF-SCORE:    0.00 PKD
ROOT
HETATM    1  C   UNL     1     -12.179  11.289  69.242  1.00  0.00    -0.222 C  
HETATM    2  O   UNL     1     -10.810  11.324  68.861  1.00  0.00    -0.187 OA 
ENDROOT
BRANCH   2   3
HETATM    3  C   UNL     1     -10.305  10.214  68.243  1.00  0.00    -0.186 A  
HETATM    4  C   UNL     1      -9.188  10.456  67.449  1.00  0.00    -0.154 A  
HETATM    5  C   UNL     1      -8.521   9.421  66.774  1.00  0.00    -0.127 A  
HETATM    6  C   UNL     1     -10.142   5.561  66.943  1.00  0.00    -0.237 A  
HETATM    7  C   UNL     1      -9.037   8.103  66.838  1.00  0.00    -0.154 A  
HETATM    8  C   UNL     1     -10.724   6.577  67.685  1.00  0.00    -0.381 A  
HETATM    9  C   UNL     1     -10.796   8.919  68.348  1.00  0.00    -0.043 A  
HETATM   10  N   UNL     1      -8.460   7.097  66.139  1.00  0.00    -0.136 NA 
HETATM   11  C   UNL     1      -9.025   5.868  66.193  1.00  0.00    -0.151 A  
HETATM   12  C   UNL     1     -10.189   7.876  67.631  1.00  0.00    -0.289 A  
BRANCH   5  13
HETATM   13  N   UNL     1      -7.303   9.669  66.099  1.00  0.00    -0.096 NA 
HETATM   14  H   UNL     1      -7.315  10.009  65.137  1.00  0.00     0.000 HD 
BRANCH  13  15
HETATM   15  C   UNL     1      -6.023   9.439  66.775  1.00  0.00    -0.060 C  
HETATM   16  C   UNL     1      -5.698  10.659  67.644  1.00  0.00    -0.043 C  
BRANCH  15  17
HETATM   17  C   UNL     1      -6.111   8.194  67.681  1.00  0.00    -0.051 C  
BRANCH  17  18
HETATM   18  C   UNL     1      -5.881   8.457  69.177  1.00  0.00    -0.038 C  
BRANCH  18  19
HETATM   19  C   UNL     1      -7.142   8.499  70.040  1.00  0.00    -0.046 C  
HETATM   20  H1  UNL     1      -8.153   9.813  71.285  1.00  0.00     0.000 HD 
HETATM   21  N   UNL     1      -7.312   9.784  70.709  1.00  0.00    -0.318 NA 
HETATM   22  H2  UNL     1      -7.298  10.553  70.039  1.00  0.00     0.000 HD 
ENDBRANCH  18  19
ENDBRANCH  17  18
ENDBRANCH  15  17
ENDBRANCH  13  15
ENDBRANCH   5  13
ENDBRANCH   2   3
TORSDOF 6
ENDMDL
MODEL      260
REMARK 921   NORMALIZED FREE ENERGY PREDICTED BY IDOCK:   -1.77 KCAL/MOL
REMARK 922        TOTAL FREE ENERGY PREDICTED BY IDOCK:   -2.86 KCAL/MOL
REMARK 923 INTER-LIGAND FREE ENERGY PREDICTED BY IDOCK:   -2.75 KCAL/MOL
REMARK 924 INTRA-LIGAND FREE ENERGY PREDICTED BY IDOCK:   -0.11 KCAL/MOL
REMARK 927      BINDING AFFINITY PREDICTED BY RF-SCORE:    0.00 PKD
ROOT
HETATM    1  C   UNL     1     -10.740   3.359  63.517  1.00  0.00    -0.250 C  
HETATM    2  O   UNL     1     -10.204   3.524  64.823  1.00  0.00    -0.136 OA 
ENDROOT
BRANCH   2   3
HETATM    3  C   UNL     1      -9.726   4.763  65.148  1.00  0.00    -0.052 A  
HETATM    4  C   UNL     1     -10.490   5.445  66.091  1.00  0.00    -0.208 A  
HETATM    5  C   UNL     1     -10.121   6.713  66.567  1.00  0.00    -0.072 A  
HETATM    6  C   UNL     1      -6.784   8.589  64.863  1.00  0.00    -0.068 A  
HETATM    7  C   UNL     1      -8.981   7.356  66.023  1.00  0.00    -0.121 A  
HETATM    8  C   UNL     1      -7.106   7.295  64.484  1.00  0.00    -0.058 A  
HETATM    9  C   UNL     1      -8.583   5.364  64.639  1.00  0.00    -0.097 A  
HETATM   10  N   UNL     1      -8.641   8.609  66.407  1.00  0.00    -0.114 NA 
HETATM   11  C   UNL     1      -7.574   9.196  65.817  1.00  0.00    -0.091 A  
HETATM   12  C   UNL     1      -8.226   6.660  65.047  1.00  0.00    -0.105 A  
BRANCH   5  13
HETATM   13  N   UNL     1     -10.829   7.317  67.633  1.00  0.00    -0.475 NA 
HETATM   14  H   UNL     1     -11.829   7.497  67.540  1.00  0.00     0.000 HD 
BRANCH  13  15
HETATM   15  C   UNL     1     -10.132   7.686  68.868  1.00  0.00    -0.197 C  
HETATM   16  C   UNL     1     -10.655   9.047  69.342  1.00  0.00    -0.231 C  
BRANCH  15  17
HETATM   17  C   UNL     1     -10.403   6.639  69.969  1.00  0.00    -0.232 C  
BRANCH  17  18
HETATM   18  C   UNL     1      -9.716   5.281  69.760  1.00  0.00    -0.257 C  
BRANCH  18  19
HETATM   19  C   UNL     1     -10.184   4.157  70.686  1.00  0.00     0.139 C  
HETATM   20  H1  UNL     1     -10.946   3.909  72.597  1.00  0.00     0.000 HD 
HETATM   21  N   UNL     1     -10.634   4.658  71.980  1.00  0.00    -0.125 NA 
HETATM   22  H2  UNL     1     -11.357   5.369  71.869  1.00  0.00     0.000 HD 
ENDBRANCH  18  19
ENDBRANCH  17  18
ENDBRANCH  15  17
ENDBRANCH  13  15
ENDBRANCH   5  13
ENDBRANCH   2   3
TORSDOF 6
ENDMDL
MODEL      261
REMARK 921   NORMALIZED FREE ENERGY PREDICTED BY IDOCK:   -1.74 KCAL/MOL
REMARK 922        TOTAL FREE ENERGY PREDICTED BY IDOCK:   -2.82 KCAL/MOL
REMARK 923 INTER-LIGAND FREE ENERGY PREDICTED BY IDOCK:   -2.76 KCAL/MOL
REMARK 924 INTRA-LIGAND FREE ENERGY PREDICTED BY IDOCK:   -0.06 KCAL/MOL
REMARK 927      BINDING AFFINITY PREDICTED BY RF-SCORE:    0.00 PKD
ROOT
HETATM    1  C   UNL     1     -11.692  15.857  69.148  1.00  0.00    -0.363 C  
HETATM    2  O   UNL     1     -10.740  15.129  69.912  1.00  0.00    -0.257 OA 
ENDROOT
BRANCH   2   3
HETATM    3  C   UNL     1      -9.597  14.737  69.273  1.00  0.00    -0.076 A  
HETATM    4  C   UNL     1      -8.673  15.758  69.067  1.00  0.00    -0.237 A  
HETATM    5  C   UNL     1      -7.430  15.521  68.460  1.00  0.00    -0.118 A  
HETATM    6  C   UNL     1      -6.632  11.684  66.980  1.00  0.00    -0.144 A  
HETATM    7  C   UNL     1      -7.128  14.224  67.975  1.00  0.00    -0.140 A  
HETATM    8  C   UNL     1      -7.809  11.915  67.674  1.00  0.00    -0.142 A  
HETATM    9  C   UNL     1      -9.295  13.452  68.840  1.00  0.00     0.211 A  
HETATM   10  N   UNL     1      -5.968  13.981  67.320  1.00  0.00    -0.229 NA 
HETATM   11  C   UNL     1      -5.754  12.737  66.830  1.00  0.00     0.585 A  
HETATM   12  C   UNL     1      -8.086  13.200  68.170  1.00  0.00    -0.155 A  
BRANCH   5  13
HETATM   13  N   UNL     1      -6.452  16.542  68.400  1.00  0.00    -0.131 NA 
HETATM   14  H   UNL     1      -5.654  16.519  69.036  1.00  0.00     0.000 HD 
BRANCH  13  15
HETATM   15  C   UNL     1      -6.579  17.630  67.427  1.00  0.00    -0.159 C  
HETATM   16  C   UNL     1      -5.855  17.227  66.138  1.00  0.00    -0.080 C  
BRANCH  15  17
HETATM   17  C   UNL     1      -8.065  17.889  67.103  1.00  0.00    -0.225 C  
BRANCH  17  18
HETATM   18  C   UNL     1      -8.523  19.346  67.262  1.00  0.00    -0.325 C  
BRANCH  18  19
HETATM   19  C   UNL     1      -7.459  20.320  67.769  1.00  0.00    -0.284 C  
HETATM   20  H1  UNL     1      -6.091  21.685  67.019  1.00  0.00     0.000 HD 
HETATM   21  N   UNL     1      -6.801  21.035  66.681  1.00  0.00    -0.490 NA 
HETATM   22  H2  UNL     1      -7.481  21.509  66.087  1.00  0.00     0.000 HD 
ENDBRANCH  18  19
ENDBRANCH  17  18
ENDBRANCH  15  17
ENDBRANCH  13  15
ENDBRANCH   5  13
ENDBRANCH   2   3
TORSDOF 6
ENDMDL
MODEL      262
REMARK 921   NORMALIZED FREE ENERGY PREDICTED BY IDOCK:   -1.67 KCAL/MOL
REMARK 922        TOTAL FREE ENERGY PREDICTED BY IDOCK:   -2.73 KCAL/MOL
REMARK 923 INTER-LIGAND FREE ENERGY PREDICTED BY IDOCK:   -3.19 KCAL/MOL
REMARK 924 INTRA-LIGAND FREE ENERGY PREDICTED BY IDOCK:    0.46 KCAL/MOL
REMARK 927      BINDING AFFINITY PREDICTED BY RF-SCORE:    0.00 PKD
ROOT
HETATM    1  C   UNL     1      -5.683   5.755  65.746  1.00  0.00    -0.013 C  
HETATM    2  O   UNL     1      -6.077   7.053  65.323  1.00  0.00    -0.035 OA 
ENDROOT
BRANCH   2   3
HETATM    3  C   UNL     1      -7.069   7.667  66.036  1.00  0.00    -0.069 A  
HETATM    4  C   UNL     1      -7.080   9.055  65.929  1.00  0.00    -0.089 A  
HETATM    5  C   UNL     1      -8.056   9.839  66.566  1.00  0.00    -0.116 A  
HETATM    6  C   UNL     1     -10.813   7.937  69.082  1.00  0.00    -0.054 A  
HETATM    7  C   UNL     1      -9.015   9.215  67.402  1.00  0.00    -0.117 A  
HETATM    8  C   UNL     1      -9.908   7.173  68.363  1.00  0.00    -0.157 A  
HETATM    9  C   UNL     1      -8.030   7.040  66.818  1.00  0.00    -0.108 A  
HETATM   10  N   UNL     1      -9.922   9.950  68.087  1.00  0.00    -0.147 NA 
HETATM   11  C   UNL     1     -10.780   9.306  68.913  1.00  0.00    -0.156 A  
HETATM   12  C   UNL     1      -8.977   7.804  67.520  1.00  0.00    -0.126 A  
BRANCH   5  13
HETATM   13  N   UNL     1      -8.135  11.230  66.319  1.00  0.00    -0.286 NA 
HETATM   14  H   UNL     1      -7.816  11.607  65.426  1.00  0.00     0.000 HD 
BRANCH  13  15
HETATM   15  C   UNL     1      -8.674  12.132  67.341  1.00  0.00    -0.177 C  
HETATM   16  C   UNL     1      -7.535  12.554  68.276  1.00  0.00    -0.122 C  
BRANCH  15  17
HETATM   17  C   UNL     1      -9.269  13.394  66.682  1.00  0.00    -0.223 C  
BRANCH  17  18
HETATM   18  C   UNL     1     -10.663  13.211  66.064  1.00  0.00    -0.288 C  
BRANCH  18  19
HETATM   19  C   UNL     1     -11.434  14.502  65.785  1.00  0.00    -0.342 C  
HETATM   20  H1  UNL     1     -13.371  15.119  65.379  1.00  0.00     0.000 HD 
HETATM   21  N   UNL     1     -12.856  14.259  65.565  1.00  0.00    -0.567 NA 
HETATM   22  H2  UNL     1     -13.267  13.745  66.344  1.00  0.00     0.000 HD 
ENDBRANCH  18  19
ENDBRANCH  17  18
ENDBRANCH  15  17
ENDBRANCH  13  15
ENDBRANCH   5  13
ENDBRANCH   2   3
TORSDOF 6
ENDMDL
MODEL      263
REMARK 921   NORMALIZED FREE ENERGY PREDICTED BY IDOCK:   -1.59 KCAL/MOL
REMARK 922        TOTAL FREE ENERGY PREDICTED BY IDOCK:   -2.62 KCAL/MOL
REMARK 923 INTER-LIGAND FREE ENERGY PREDICTED BY IDOCK:   -2.73 KCAL/MOL
REMARK 924 INTRA-LIGAND FREE ENERGY PREDICTED BY IDOCK:    0.11 KCAL/MOL
REMARK 927      BINDING AFFINITY PREDICTED BY RF-SCORE:    0.00 PKD
ROOT
HETATM    1  C   UNL     1     -11.418  11.892  69.137  1.00  0.00    -0.296 C  
HETATM    2  O   UNL     1     -10.123  11.369  69.398  1.00  0.00    -0.021 OA 
ENDROOT
BRANCH   2   3
HETATM    3  C   UNL     1      -9.903  10.059  69.075  1.00  0.00    -0.199 A  
HETATM    4  C   UNL     1      -8.802   9.487  69.708  1.00  0.00    -0.211 A  
HETATM    5  C   UNL     1      -8.457   8.140  69.519  1.00  0.00    -0.127 A  
HETATM    6  C   UNL     1     -10.645   5.890  66.744  1.00  0.00    -0.368 A  
HETATM    7  C   UNL     1      -9.199   7.352  68.604  1.00  0.00    -0.143 A  
HETATM    8  C   UNL     1     -11.033   7.191  67.024  1.00  0.00    -0.304 A  
HETATM    9  C   UNL     1     -10.664   9.286  68.209  1.00  0.00    -0.195 A  
HETATM   10  N   UNL     1      -8.845   6.071  68.344  1.00  0.00    -0.113 NA 
HETATM   11  C   UNL     1      -9.557   5.382  67.422  1.00  0.00    -0.129 A  
HETATM   12  C   UNL     1     -10.302   7.954  67.950  1.00  0.00    -0.281 A  
BRANCH   5  13
HETATM   13  N   UNL     1      -7.428   7.546  70.287  1.00  0.00    -0.083 NA 
HETATM   14  H   UNL     1      -7.653   7.091  71.172  1.00  0.00     0.000 HD 
BRANCH  13  15
HETATM   15  C   UNL     1      -6.040   7.581  69.817  1.00  0.00    -0.027 C  
HETATM   16  C   UNL     1      -6.007   7.156  68.345  1.00  0.00    -0.026 C  
BRANCH  15  17
HETATM   17  C   UNL     1      -5.470   9.009  69.935  1.00  0.00    -0.028 C  
BRANCH  17  18
HETATM   18  C   UNL     1      -5.199   9.716  68.599  1.00  0.00    -0.033 C  
BRANCH  18  19
HETATM   19  C   UNL     1      -5.665  11.170  68.516  1.00  0.00    -0.042 C  
HETATM   20  H1  UNL     1      -5.728  12.726  67.148  1.00  0.00     0.000 HD 
HETATM   21  N   UNL     1      -5.417  11.756  67.204  1.00  0.00    -0.104 NA 
HETATM   22  H2  UNL     1      -5.835  11.193  66.463  1.00  0.00     0.000 HD 
ENDBRANCH  18  19
ENDBRANCH  17  18
ENDBRANCH  15  17
ENDBRANCH  13  15
ENDBRANCH   5  13
ENDBRANCH   2   3
TORSDOF 6
ENDMDL
MODEL      264
REMARK 921   NORMALIZED FREE ENERGY PREDICTED BY IDOCK:   -1.51 KCAL/MOL
REMARK 922        TOTAL FREE ENERGY PREDICTED BY IDOCK:   -2.50 KCAL/MOL
REMARK 923 INTER-LIGAND FREE ENERGY PREDICTED BY IDOCK:   -2.10 KCAL/MOL
REMARK 924 INTRA-LIGAND FREE ENERGY PREDICTED BY IDOCK:   -0.41 KCAL/MOL
REMARK 927      BINDING AFFINITY PREDICTED BY RF-SCORE:    0.00 PKD
ROOT
HETATM    1  C   UNL     1     -12.127  10.464  68.822  1.00  0.00     0.387 C  
HETATM    2  O   UNL     1     -11.080  10.081  69.703  1.00  0.00    -0.242 OA 
ENDROOT
BRANCH   2   3
HETATM    3  C   UNL     1      -9.911   9.655  69.136  1.00  0.00    -0.185 A  
HETATM    4  C   UNL     1     -10.063   8.636  68.199  1.00  0.00    -0.236 A  
HETATM    5  C   UNL     1      -8.970   8.110  67.494  1.00  0.00    -0.137 A  
HETATM    6  C   UNL     1      -5.127   9.460  68.474  1.00  0.00    -0.034 A  
HETATM    7  C   UNL     1      -7.663   8.569  67.791  1.00  0.00    -0.103 A  
HETATM    8  C   UNL     1      -6.228  10.040  69.083  1.00  0.00    -0.040 A  
HETATM    9  C   UNL     1      -8.640  10.145  69.405  1.00  0.00    -0.183 A  
HETATM   10  N   UNL     1      -6.581   8.029  67.181  1.00  0.00    -0.056 NA 
HETATM   11  C   UNL     1      -5.353   8.469  67.540  1.00  0.00    -0.034 A  
HETATM   12  C   UNL     1      -7.521   9.590  68.763  1.00  0.00    -0.075 A  
BRANCH   5  13
HETATM   13  N   UNL     1      -9.170   7.184  66.442  1.00  0.00    -0.196 NA 
HETATM   14  H   UNL     1      -9.024   7.476  65.475  1.00  0.00     0.000 HD 
BRANCH  13  15
HETATM   15  C   UNL     1      -9.585   5.810  66.735  1.00  0.00    -0.147 C  
HETATM   16  C   UNL     1     -11.113   5.729  66.657  1.00  0.00    -0.069 C  
BRANCH  15  17
HETATM   17  C   UNL     1      -8.982   4.836  65.702  1.00  0.00    -0.142 C  
BRANCH  17  18
HETATM   18  C   UNL     1      -8.300   5.502  64.498  1.00  0.00    -0.127 C  
BRANCH  18  19
HETATM   19  C   UNL     1      -8.484   4.788  63.158  1.00  0.00    -0.115 C  
HETATM   20  H1  UNL     1     -10.002   4.294  61.835  1.00  0.00     0.000 HD 
HETATM   21  N   UNL     1      -9.878   4.770  62.729  1.00  0.00    -0.362 NA 
HETATM   22  H2  UNL     1     -10.268   5.713  62.701  1.00  0.00     0.000 HD 
ENDBRANCH  18  19
ENDBRANCH  17  18
ENDBRANCH  15  17
ENDBRANCH  13  15
ENDBRANCH   5  13
ENDBRANCH   2   3
TORSDOF 6
ENDMDL
MODEL      265
REMARK 921   NORMALIZED FREE ENERGY PREDICTED BY IDOCK:   -1.30 KCAL/MOL
REMARK 922        TOTAL FREE ENERGY PREDICTED BY IDOCK:   -2.22 KCAL/MOL
REMARK 923 INTER-LIGAND FREE ENERGY PREDICTED BY IDOCK:   -2.67 KCAL/MOL
REMARK 924 INTRA-LIGAND FREE ENERGY PREDICTED BY IDOCK:    0.45 KCAL/MOL
REMARK 927      BINDING AFFINITY PREDICTED BY RF-SCORE:    0.00 PKD
ROOT
HETATM    1  C   UNL     1     -11.577   1.841  62.337  1.00  0.00    -0.202 C  
HETATM    2  O   UNL     1     -11.151   1.645  63.678  1.00  0.00    -0.093 OA 
ENDROOT
BRANCH   2   3
HETATM    3  C   UNL     1      -9.950   2.190  64.037  1.00  0.00    -0.090 A  
HETATM    4  C   UNL     1      -9.973   3.572  64.207  1.00  0.00    -0.191 A  
HETATM    5  C   UNL     1      -8.836   4.287  64.613  1.00  0.00    -0.141 A  
HETATM    6  C   UNL     1      -5.219   2.213  65.030  1.00  0.00    -0.008 A  
HETATM    7  C   UNL     1      -7.607   3.602  64.785  1.00  0.00    -0.077 A  
HETATM    8  C   UNL     1      -6.377   1.511  64.732  1.00  0.00    -0.018 A  
HETATM    9  C   UNL     1      -8.763   1.501  64.244  1.00  0.00    -0.087 A  
HETATM   10  N   UNL     1      -6.476   4.274  65.104  1.00  0.00    -0.035 NA 
HETATM   11  C   UNL     1      -5.320   3.578  65.204  1.00  0.00    -0.009 A  
HETATM   12  C   UNL     1      -7.593   2.200  64.586  1.00  0.00    -0.064 A  
BRANCH   5  13
HETATM   13  N   UNL     1      -8.924   5.664  64.924  1.00  0.00    -0.360 NA 
HETATM   14  H   UNL     1      -9.586   6.257  64.423  1.00  0.00     0.000 HD 
BRANCH  13  15
HETATM   15  C   UNL     1      -8.068   6.244  65.963  1.00  0.00    -0.119 C  
HETATM   16  C   UNL     1      -7.385   7.494  65.400  1.00  0.00    -0.071 C  
BRANCH  15  17
HETATM   17  C   UNL     1      -8.913   6.649  67.189  1.00  0.00    -0.118 C  
BRANCH  17  18
HETATM   18  C   UNL     1     -10.136   7.525  66.878  1.00  0.00    -0.336 C  
BRANCH  18  19
HETATM   19  C   UNL     1     -10.329   8.735  67.794  1.00  0.00    -0.237 C  
HETATM   20  H1  UNL     1     -11.185   9.201  69.623  1.00  0.00     0.000 HD 
HETATM   21  N   UNL     1     -11.056   8.394  69.012  1.00  0.00    -0.415 NA 
HETATM   22  H2  UNL     1     -10.606   7.625  69.508  1.00  0.00     0.000 HD 
ENDBRANCH  18  19
ENDBRANCH  17  18
ENDBRANCH  15  17
ENDBRANCH  13  15
ENDBRANCH   5  13
ENDBRANCH   2   3
TORSDOF 6
ENDMDL
