MODEL        1
REMARK 921   NORMALIZED FREE ENERGY PREDICTED BY IDOCK:   -6.59 KCAL/MOL
REMARK 922        TOTAL FREE ENERGY PREDICTED BY IDOCK:  -10.27 KCAL/MOL
REMARK 923 INTER-LIGAND FREE ENERGY PREDICTED BY IDOCK:   -9.67 KCAL/MOL
REMARK 924 INTRA-LIGAND FREE ENERGY PREDICTED BY IDOCK:   -0.60 KCAL/MOL
REMARK 927      BINDING AFFINITY PREDICTED BY RF-SCORE:    0.00 PKD
ROOT
HETATM    1  C   UNL     1      -9.027  11.313  65.885  1.00  0.00    -0.206 C  
HETATM    2  C   UNL     1      -9.850  10.850  67.100  1.00  0.00    -0.184 C  
HETATM    3  C   UNL     1     -10.088   9.336  66.973  1.00  0.00    -0.313 C  
ENDROOT
BRANCH   2   4
HETATM    4  S   UNL     1     -11.489  11.699  67.063  1.00  0.00    -0.187 SA 
BRANCH   4   5
HETATM    5  C   UNL     1     -11.286  13.127  68.123  1.00  0.00    -0.292 A  
HETATM    6  C   UNL     1     -11.174  15.494  69.610  1.00  0.00    -0.300 A  
HETATM    7  O   UNL     1     -11.221  16.643  70.347  1.00  0.00    -0.488 OA 
HETATM    8  H   UNL     1     -11.683  16.681  71.177  1.00  0.00     0.000 HD 
HETATM    9  C   UNL     1     -10.590  14.230  67.639  1.00  0.00    -0.253 A  
HETATM   10  C   UNL     1     -11.894  14.401  70.138  1.00  0.00    -0.380 A  
HETATM   11  C   UNL     1     -11.896  13.236  69.367  1.00  0.00    -0.386 A  
HETATM   12  C   UNL     1     -10.481  15.437  68.367  1.00  0.00    -0.239 A  
BRANCH  12  13
HETATM   13  C   UNL     1      -9.667  16.608  67.762  1.00  0.00    -0.240 C  
HETATM   14  C   UNL     1      -8.479  16.996  68.672  1.00  0.00    -0.262 C  
HETATM   15  C   UNL     1     -10.575  17.831  67.513  1.00  0.00    -0.365 C  
HETATM   16  C   UNL     1      -9.019  16.269  66.388  1.00  0.00    -0.343 C  
ENDBRANCH  12  13
BRANCH  10  17
HETATM   17  C   UNL     1     -12.648  14.418  71.494  1.00  0.00    -0.424 C  
HETATM   18  C   UNL     1     -11.753  14.967  72.626  1.00  0.00    -0.375 C  
HETATM   19  C   UNL     1     -13.922  15.317  71.507  1.00  0.00    -0.627 C  
HETATM   20  C   UNL     1     -13.139  12.998  71.838  1.00  0.00    -0.483 C  
ENDBRANCH  10  17
ENDBRANCH   4   5
ENDBRANCH   2   4
BRANCH   2  21
HETATM   21  S   UNL     1      -8.838  11.142  68.616  1.00  0.00    -0.129 SA 
BRANCH  21  22
HETATM   22  C   UNL     1      -9.485   9.993  69.829  1.00  0.00    -0.207 A  
HETATM   23  C   UNL     1     -10.845   9.838  70.108  1.00  0.00    -0.340 A  
HETATM   24  C   UNL     1      -8.568   9.340  70.638  1.00  0.00    -0.270 A  
HETATM   25  H   UNL     1     -11.754   7.646  73.202  1.00  0.00     0.000 HD 
HETATM   26  O   UNL     1     -10.820   7.721  73.042  1.00  0.00    -0.373 OA 
HETATM   27  C   UNL     1      -8.954   8.536  71.727  1.00  0.00    -0.288 A  
HETATM   28  C   UNL     1     -11.328   9.053  71.163  1.00  0.00    -0.375 A  
HETATM   29  C   UNL     1     -10.355   8.424  71.968  1.00  0.00    -0.304 A  
BRANCH  27  30
HETATM   30  C   UNL     1      -7.852   7.901  72.613  1.00  0.00    -0.155 C  
HETATM   31  C   UNL     1      -6.414   8.359  72.228  1.00  0.00    -0.080 C  
HETATM   32  C   UNL     1      -8.049   8.312  74.086  1.00  0.00    -0.284 C  
HETATM   33  C   UNL     1      -7.828   6.363  72.478  1.00  0.00    -0.101 C  
ENDBRANCH  27  30
BRANCH  28  34
HETATM   34  C   UNL     1     -12.861   8.895  71.374  1.00  0.00    -0.335 C  
HETATM   35  C   UNL     1     -13.357   9.325  72.787  1.00  0.00    -0.196 C  
HETATM   36  C   UNL     1     -13.316   7.428  71.209  1.00  0.00    -0.338 C  
HETATM   37  C   UNL     1     -13.620   9.796  70.375  1.00  0.00     0.452 C  
ENDBRANCH  28  34
ENDBRANCH  21  22
ENDBRANCH   2  21
TORSDOF 8
ENDMDL
MODEL        2
REMARK 921   NORMALIZED FREE ENERGY PREDICTED BY IDOCK:   -6.24 KCAL/MOL
REMARK 922        TOTAL FREE ENERGY PREDICTED BY IDOCK:   -9.76 KCAL/MOL
REMARK 923 INTER-LIGAND FREE ENERGY PREDICTED BY IDOCK:  -10.00 KCAL/MOL
REMARK 924 INTRA-LIGAND FREE ENERGY PREDICTED BY IDOCK:    0.24 KCAL/MOL
REMARK 927      BINDING AFFINITY PREDICTED BY RF-SCORE:    0.00 PKD
ROOT
HETATM    1  C   UNL     1      -9.543  12.494  65.917  1.00  0.00    -0.174 C  
HETATM    2  C   UNL     1     -10.078  11.373  66.827  1.00  0.00    -0.216 C  
HETATM    3  C   UNL     1     -10.170  10.083  65.997  1.00  0.00    -0.277 C  
ENDROOT
BRANCH   2   4
HETATM    4  S   UNL     1     -11.778  11.826  67.385  1.00  0.00    -0.149 SA 
BRANCH   4   5
HETATM    5  C   UNL     1     -11.547  13.263  68.428  1.00  0.00    -0.337 A  
HETATM    6  C   UNL     1     -11.389  15.644  69.888  1.00  0.00    -0.337 A  
HETATM    7  O   UNL     1     -11.414  16.802  70.612  1.00  0.00    -0.471 OA 
HETATM    8  H   UNL     1     -11.874  16.858  71.441  1.00  0.00     0.000 HD 
HETATM    9  C   UNL     1     -10.831  14.346  67.931  1.00  0.00    -0.256 A  
HETATM   10  C   UNL     1     -12.128  14.570  70.429  1.00  0.00    -0.389 A  
HETATM   11  C   UNL     1     -12.153  13.397  69.672  1.00  0.00    -0.349 A  
HETATM   12  C   UNL     1     -10.699  15.559  68.645  1.00  0.00    -0.252 A  
BRANCH  12  13
HETATM   13  C   UNL     1      -9.864  16.709  68.025  1.00  0.00    -0.245 C  
HETATM   14  C   UNL     1      -8.653  17.066  68.916  1.00  0.00    -0.196 C  
HETATM   15  C   UNL     1     -10.744  17.954  67.788  1.00  0.00    -0.339 C  
HETATM   16  C   UNL     1      -9.247  16.351  66.642  1.00  0.00    -0.279 C  
ENDBRANCH  12  13
BRANCH  10  17
HETATM   17  C   UNL     1     -12.880  14.618  71.786  1.00  0.00    -0.402 C  
HETATM   18  C   UNL     1     -14.125  15.527  71.705  1.00  0.00    -0.570 C  
HETATM   19  C   UNL     1     -13.415  13.236  72.271  1.00  0.00    -0.679 C  
HETATM   20  C   UNL     1     -11.928  15.107  72.896  1.00  0.00    -0.470 C  
ENDBRANCH  10  17
ENDBRANCH   4   5
ENDBRANCH   2   4
BRANCH   2  21
HETATM   21  S   UNL     1      -8.846  11.098  68.173  1.00  0.00    -0.154 SA 
BRANCH  21  22
HETATM   22  C   UNL     1      -9.272   9.502  68.867  1.00  0.00    -0.145 A  
HETATM   23  C   UNL     1      -8.846   8.282  68.336  1.00  0.00    -0.137 A  
HETATM   24  C   UNL     1     -10.203   9.484  69.894  1.00  0.00    -0.261 A  
HETATM   25  H   UNL     1     -10.470   5.067  69.827  1.00  0.00     0.000 HD 
HETATM   26  O   UNL     1     -10.781   5.874  70.219  1.00  0.00    -0.263 OA 
HETATM   27  C   UNL     1     -10.736   8.290  70.415  1.00  0.00    -0.239 A  
HETATM   28  C   UNL     1      -9.310   7.042  68.793  1.00  0.00    -0.134 A  
HETATM   29  C   UNL     1     -10.270   7.078  69.826  1.00  0.00    -0.201 A  
BRANCH  27  30
HETATM   30  C   UNL     1     -11.822   8.376  71.517  1.00  0.00    -0.345 C  
HETATM   31  C   UNL     1     -13.057   7.469  71.237  1.00  0.00    -0.316 C  
HETATM   32  C   UNL     1     -11.249   7.907  72.870  1.00  0.00    -0.429 C  
HETATM   33  C   UNL     1     -12.398   9.803  71.639  1.00  0.00    -0.495 C  
ENDBRANCH  27  30
BRANCH  28  34
HETATM   34  C   UNL     1      -8.747   5.728  68.178  1.00  0.00    -0.107 C  
HETATM   35  C   UNL     1      -9.827   4.818  67.521  1.00  0.00    -0.206 C  
HETATM   36  C   UNL     1      -8.059   4.845  69.243  1.00  0.00    -0.078 C  
HETATM   37  C   UNL     1      -7.747   6.067  67.052  1.00  0.00    -0.101 C  
ENDBRANCH  28  34
ENDBRANCH  21  22
ENDBRANCH   2  21
TORSDOF 8
ENDMDL
MODEL        3
REMARK 921   NORMALIZED FREE ENERGY PREDICTED BY IDOCK:   -6.21 KCAL/MOL
REMARK 922        TOTAL FREE ENERGY PREDICTED BY IDOCK:   -9.72 KCAL/MOL
REMARK 923 INTER-LIGAND FREE ENERGY PREDICTED BY IDOCK:   -9.33 KCAL/MOL
REMARK 924 INTRA-LIGAND FREE ENERGY PREDICTED BY IDOCK:   -0.39 KCAL/MOL
REMARK 927      BINDING AFFINITY PREDICTED BY RF-SCORE:    0.00 PKD
ROOT
HETATM    1  C   UNL     1      -9.739   9.115  67.037  1.00  0.00    -0.245 C  
HETATM    2  C   UNL     1      -9.589  10.635  67.228  1.00  0.00    -0.163 C  
HETATM    3  C   UNL     1      -8.792  11.194  66.038  1.00  0.00    -0.196 C  
ENDROOT
BRANCH   2   4
HETATM    4  S   UNL     1      -8.621  10.944  68.770  1.00  0.00    -0.141 SA 
BRANCH   4   5
HETATM    5  C   UNL     1      -9.294   9.797  69.968  1.00  0.00    -0.235 A  
HETATM    6  C   UNL     1     -10.289   8.211  72.047  1.00  0.00    -0.254 A  
HETATM    7  O   UNL     1     -10.835   7.515  73.087  1.00  0.00    -0.365 OA 
HETATM    8  H   UNL     1     -11.776   7.460  73.207  1.00  0.00     0.000 HD 
HETATM    9  C   UNL     1      -8.423   9.128  70.821  1.00  0.00    -0.256 A  
HETATM   10  C   UNL     1     -11.209   8.874  71.206  1.00  0.00    -0.368 A  
HETATM   11  C   UNL     1     -10.660   9.630  70.169  1.00  0.00    -0.320 A  
HETATM   12  C   UNL     1      -8.878   8.293  71.867  1.00  0.00    -0.238 A  
BRANCH  12  13
HETATM   13  C   UNL     1      -7.837   7.568  72.757  1.00  0.00    -0.119 C  
HETATM   14  C   UNL     1      -8.051   6.037  72.738  1.00  0.00    -0.107 C  
HETATM   15  C   UNL     1      -7.893   8.101  74.204  1.00  0.00    -0.285 C  
HETATM   16  C   UNL     1      -6.368   7.769  72.283  1.00  0.00    -0.045 C  
ENDBRANCH  12  13
BRANCH  10  17
HETATM   17  C   UNL     1     -12.752   8.797  71.359  1.00  0.00    -0.324 C  
HETATM   18  C   UNL     1     -13.279   7.388  71.013  1.00  0.00    -0.161 C  
HETATM   19  C   UNL     1     -13.267   9.084  72.802  1.00  0.00    -0.228 C  
HETATM   20  C   UNL     1     -13.420   9.857  70.461  1.00  0.00     0.154 C  
ENDBRANCH  10  17
ENDBRANCH   4   5
ENDBRANCH   2   4
BRANCH   2  21
HETATM   21  S   UNL     1     -11.276  11.382  67.186  1.00  0.00    -0.257 SA 
BRANCH  21  22
HETATM   22  C   UNL     1     -11.155  12.849  68.208  1.00  0.00    -0.264 A  
HETATM   23  C   UNL     1     -11.860  13.028  69.400  1.00  0.00    -0.380 A  
HETATM   24  C   UNL     1     -10.438  13.921  67.699  1.00  0.00    -0.245 A  
HETATM   25  H   UNL     1     -11.722  16.585  70.991  1.00  0.00     0.000 HD 
HETATM   26  O   UNL     1     -11.225  16.503  70.185  1.00  0.00    -0.323 OA 
HETATM   27  C   UNL     1     -10.400  15.178  68.331  1.00  0.00    -0.229 A  
HETATM   28  C   UNL     1     -11.876  14.237  70.108  1.00  0.00    -0.379 A  
HETATM   29  C   UNL     1     -11.147  15.302  69.539  1.00  0.00    -0.281 A  
BRANCH  27  30
HETATM   30  C   UNL     1      -9.626  16.333  67.648  1.00  0.00    -0.227 C  
HETATM   31  C   UNL     1     -10.472  17.630  67.486  1.00  0.00    -0.365 C  
HETATM   32  C   UNL     1      -8.399  16.729  68.495  1.00  0.00    -0.243 C  
HETATM   33  C   UNL     1      -9.194  15.960  66.213  1.00  0.00    -0.372 C  
ENDBRANCH  27  30
BRANCH  28  34
HETATM   34  C   UNL     1     -12.649  14.338  71.454  1.00  0.00    -0.434 C  
HETATM   35  C   UNL     1     -13.054  12.960  72.061  1.00  0.00    -0.483 C  
HETATM   36  C   UNL     1     -13.970  15.123  71.302  1.00  0.00    -0.548 C  
HETATM   37  C   UNL     1     -11.756  15.014  72.517  1.00  0.00    -0.398 C  
ENDBRANCH  28  34
ENDBRANCH  21  22
ENDBRANCH   2  21
TORSDOF 8
ENDMDL
MODEL        4
REMARK 921   NORMALIZED FREE ENERGY PREDICTED BY IDOCK:   -6.18 KCAL/MOL
REMARK 922        TOTAL FREE ENERGY PREDICTED BY IDOCK:   -9.67 KCAL/MOL
REMARK 923 INTER-LIGAND FREE ENERGY PREDICTED BY IDOCK:  -10.12 KCAL/MOL
REMARK 924 INTRA-LIGAND FREE ENERGY PREDICTED BY IDOCK:    0.45 KCAL/MOL
REMARK 927      BINDING AFFINITY PREDICTED BY RF-SCORE:    0.00 PKD
ROOT
HETATM    1  C   UNL     1      -9.027  12.449  65.864  1.00  0.00     0.190 C  
HETATM    2  C   UNL     1      -9.959  11.503  66.641  1.00  0.00    -0.207 C  
HETATM    3  C   UNL     1     -10.091  10.195  65.844  1.00  0.00    -0.325 C  
ENDROOT
BRANCH   2   4
HETATM    4  S   UNL     1     -11.628  12.282  66.757  1.00  0.00    -0.345 SA 
BRANCH   4   5
HETATM    5  C   UNL     1     -11.424  13.627  67.920  1.00  0.00    -0.314 A  
HETATM    6  C   UNL     1     -11.316  15.873  69.585  1.00  0.00    -0.342 A  
HETATM    7  O   UNL     1     -11.364  16.960  70.410  1.00  0.00    -0.398 OA 
HETATM    8  H   UNL     1     -11.805  16.924  71.251  1.00  0.00     0.000 HD 
HETATM    9  C   UNL     1     -10.759  14.777  67.508  1.00  0.00    -0.269 A  
HETATM   10  C   UNL     1     -12.003  14.728  70.043  1.00  0.00    -0.369 A  
HETATM   11  C   UNL     1     -12.004  13.627  69.183  1.00  0.00    -0.394 A  
HETATM   12  C   UNL     1     -10.653  15.926  68.325  1.00  0.00    -0.276 A  
BRANCH  12  13
HETATM   13  C   UNL     1      -9.875  17.156  67.794  1.00  0.00    -0.274 C  
HETATM   14  C   UNL     1      -9.414  16.942  66.334  1.00  0.00    -0.306 C  
HETATM   15  C   UNL     1      -8.665  17.467  68.700  1.00  0.00    -0.258 C  
HETATM   16  C   UNL     1     -10.726  18.458  67.754  1.00  0.00    -0.371 C  
ENDBRANCH  12  13
BRANCH  10  17
HETATM   17  C   UNL     1     -12.723  14.626  71.413  1.00  0.00    -0.403 C  
HETATM   18  C   UNL     1     -11.832  15.159  72.555  1.00  0.00    -0.485 C  
HETATM   19  C   UNL     1     -14.044  15.448  71.506  1.00  0.00    -0.596 C  
HETATM   20  C   UNL     1     -13.126  13.162  71.685  1.00  0.00    -0.444 C  
ENDBRANCH  10  17
ENDBRANCH   4   5
ENDBRANCH   2   4
BRANCH   2  21
HETATM   21  S   UNL     1      -9.152  11.109  68.253  1.00  0.00    -0.167 SA 
BRANCH  21  22
HETATM   22  C   UNL     1      -9.920   9.582  68.790  1.00  0.00    -0.174 A  
HETATM   23  C   UNL     1     -10.721   9.471  69.929  1.00  0.00    -0.268 A  
HETATM   24  C   UNL     1      -9.567   8.422  68.118  1.00  0.00    -0.158 A  
HETATM   25  H   UNL     1     -11.712   5.862  71.021  1.00  0.00     0.000 HD 
HETATM   26  O   UNL     1     -11.174   5.895  70.239  1.00  0.00    -0.332 OA 
HETATM   27  C   UNL     1      -9.977   7.144  68.541  1.00  0.00    -0.163 A  
HETATM   28  C   UNL     1     -11.187   8.246  70.423  1.00  0.00    -0.222 A  
HETATM   29  C   UNL     1     -10.785   7.094  69.715  1.00  0.00    -0.239 A  
BRANCH  27  30
HETATM   30  C   UNL     1      -9.474   5.903  67.761  1.00  0.00    -0.114 C  
HETATM   31  C   UNL     1      -8.887   4.793  68.683  1.00  0.00    -0.121 C  
HETATM   32  C   UNL     1     -10.639   5.245  66.994  1.00  0.00    -0.255 C  
HETATM   33  C   UNL     1      -8.325   6.264  66.795  1.00  0.00    -0.110 C  
ENDBRANCH  27  30
BRANCH  28  34
HETATM   34  C   UNL     1     -12.116   8.216  71.671  1.00  0.00    -0.342 C  
HETATM   35  C   UNL     1     -13.398   7.348  71.491  1.00  0.00    -0.435 C  
HETATM   36  C   UNL     1     -12.625   9.626  72.044  1.00  0.00    -0.443 C  
HETATM   37  C   UNL     1     -11.360   7.597  72.867  1.00  0.00    -0.394 C  
ENDBRANCH  28  34
ENDBRANCH  21  22
ENDBRANCH   2  21
TORSDOF 8
ENDMDL
MODEL        5
REMARK 921   NORMALIZED FREE ENERGY PREDICTED BY IDOCK:   -6.16 KCAL/MOL
REMARK 922        TOTAL FREE ENERGY PREDICTED BY IDOCK:   -9.64 KCAL/MOL
REMARK 923 INTER-LIGAND FREE ENERGY PREDICTED BY IDOCK:  -10.65 KCAL/MOL
REMARK 924 INTRA-LIGAND FREE ENERGY PREDICTED BY IDOCK:    1.01 KCAL/MOL
REMARK 927      BINDING AFFINITY PREDICTED BY RF-SCORE:    0.00 PKD
ROOT
HETATM    1  C   UNL     1     -12.257  14.221  67.030  1.00  0.00    -0.338 C  
HETATM    2  C   UNL     1     -11.215  13.410  66.239  1.00  0.00    -0.305 C  
HETATM    3  C   UNL     1     -11.964  12.419  65.333  1.00  0.00    -0.457 C  
ENDROOT
BRANCH   2   4
HETATM    4  S   UNL     1     -10.189  12.444  67.431  1.00  0.00    -0.209 SA 
BRANCH   4   5
HETATM    5  C   UNL     1     -11.220  12.272  68.885  1.00  0.00    -0.273 A  
HETATM    6  C   UNL     1     -12.579  11.956  71.309  1.00  0.00    -0.277 A  
HETATM    7  O   UNL     1     -13.181  11.873  72.532  1.00  0.00    -0.493 OA 
HETATM    8  H   UNL     1     -13.476  12.650  72.993  1.00  0.00     0.000 HD 
HETATM    9  C   UNL     1     -11.432  11.002  69.411  1.00  0.00    -0.364 A  
HETATM   10  C   UNL     1     -12.384  13.262  70.813  1.00  0.00    -0.425 A  
HETATM   11  C   UNL     1     -11.723  13.362  69.587  1.00  0.00    -0.375 A  
HETATM   12  C   UNL     1     -12.138  10.791  70.618  1.00  0.00    -0.467 A  
BRANCH  12  13
HETATM   13  C   UNL     1     -12.348   9.340  71.121  1.00  0.00    -0.363 C  
HETATM   14  C   UNL     1     -11.995   8.309  70.024  1.00  0.00     0.571 C  
HETATM   15  C   UNL     1     -13.799   9.136  71.604  1.00  0.00    -0.396 C  
HETATM   16  C   UNL     1     -11.438   8.964  72.326  1.00  0.00    -0.307 C  
ENDBRANCH  12  13
BRANCH  10  17
HETATM   17  C   UNL     1     -12.862  14.554  71.527  1.00  0.00    -0.407 C  
HETATM   18  C   UNL     1     -12.787  14.406  73.062  1.00  0.00    -0.521 C  
HETATM   19  C   UNL     1     -12.016  15.820  71.196  1.00  0.00    -0.469 C  
HETATM   20  C   UNL     1     -14.302  14.891  71.090  1.00  0.00    -0.331 C  
ENDBRANCH  10  17
ENDBRANCH   4   5
ENDBRANCH   2   4
BRANCH   2  21
HETATM   21  S   UNL     1     -10.286  14.581  65.157  1.00  0.00    -0.339 SA 
BRANCH  21  22
HETATM   22  C   UNL     1      -9.523  15.744  66.287  1.00  0.00    -0.317 A  
HETATM   23  C   UNL     1      -9.865  17.096  66.361  1.00  0.00    -0.312 A  
HETATM   24  C   UNL     1      -8.429  15.300  67.014  1.00  0.00    -0.258 A  
HETATM   25  H   UNL     1      -7.567  19.359  68.553  1.00  0.00     0.000 HD 
HETATM   26  O   UNL     1      -7.306  18.446  68.534  1.00  0.00    -0.268 OA 
HETATM   27  C   UNL     1      -7.651  16.157  67.814  1.00  0.00    -0.154 A  
HETATM   28  C   UNL     1      -9.158  18.025  67.135  1.00  0.00    -0.256 A  
HETATM   29  C   UNL     1      -8.042  17.528  67.841  1.00  0.00    -0.230 A  
BRANCH  27  30
HETATM   30  C   UNL     1      -6.407  15.579  68.535  1.00  0.00    -0.100 C  
HETATM   31  C   UNL     1      -6.457  14.032  68.704  1.00  0.00    -0.091 C  
HETATM   32  C   UNL     1      -5.131  15.876  67.721  1.00  0.00    -0.139 C  
HETATM   33  C   UNL     1      -6.274  16.130  69.971  1.00  0.00    -0.120 C  
ENDBRANCH  27  30
BRANCH  28  34
HETATM   34  C   UNL     1      -9.634  19.505  67.199  1.00  0.00    -0.430 C  
HETATM   35  C   UNL     1      -8.494  20.551  67.014  1.00  0.00    -0.313 C  
HETATM   36  C   UNL     1     -10.282  19.841  68.561  1.00  0.00    -0.547 C  
HETATM   37  C   UNL     1     -10.638  19.778  66.059  1.00  0.00    -0.573 C  
ENDBRANCH  28  34
ENDBRANCH  21  22
ENDBRANCH   2  21
TORSDOF 8
ENDMDL
MODEL        6
REMARK 921   NORMALIZED FREE ENERGY PREDICTED BY IDOCK:   -6.14 KCAL/MOL
REMARK 922        TOTAL FREE ENERGY PREDICTED BY IDOCK:   -9.61 KCAL/MOL
REMARK 923 INTER-LIGAND FREE ENERGY PREDICTED BY IDOCK:  -10.36 KCAL/MOL
REMARK 924 INTRA-LIGAND FREE ENERGY PREDICTED BY IDOCK:    0.74 KCAL/MOL
REMARK 927      BINDING AFFINITY PREDICTED BY RF-SCORE:    0.00 PKD
ROOT
HETATM    1  C   UNL     1      -9.352  12.852  65.847  1.00  0.00     0.028 C  
HETATM    2  C   UNL     1     -10.121  11.702  66.523  1.00  0.00    -0.207 C  
HETATM    3  C   UNL     1     -10.120  10.496  65.569  1.00  0.00    -0.349 C  
ENDROOT
BRANCH   2   4
HETATM    4  S   UNL     1     -11.869  12.233  66.784  1.00  0.00    -0.175 SA 
BRANCH   4   5
HETATM    5  C   UNL     1     -11.753  13.702  67.800  1.00  0.00    -0.362 A  
HETATM    6  C   UNL     1     -11.356  15.856  69.539  1.00  0.00    -0.335 A  
HETATM    7  O   UNL     1     -11.064  16.904  70.365  1.00  0.00    -0.410 OA 
HETATM    8  H   UNL     1     -10.550  17.644  70.062  1.00  0.00     0.000 HD 
HETATM    9  C   UNL     1     -12.277  13.671  69.088  1.00  0.00    -0.265 A  
HETATM   10  C   UNL     1     -10.805  15.929  68.242  1.00  0.00    -0.315 A  
HETATM   11  C   UNL     1     -11.055  14.838  67.407  1.00  0.00    -0.327 A  
HETATM   12  C   UNL     1     -12.127  14.747  69.992  1.00  0.00    -0.380 A  
BRANCH  12  13
HETATM   13  C   UNL     1     -12.762  14.637  71.402  1.00  0.00    -0.403 C  
HETATM   14  C   UNL     1     -11.822  15.209  72.487  1.00  0.00    -0.485 C  
HETATM   15  C   UNL     1     -13.126  13.173  71.723  1.00  0.00    -0.478 C  
HETATM   16  C   UNL     1     -14.081  15.449  71.553  1.00  0.00    -0.596 C  
ENDBRANCH  12  13
BRANCH  10  17
HETATM   17  C   UNL     1      -9.974  17.125  67.707  1.00  0.00    -0.290 C  
HETATM   18  C   UNL     1     -10.786  18.437  67.755  1.00  0.00    -0.371 C  
HETATM   19  C   UNL     1      -8.675  17.417  68.517  1.00  0.00    -0.277 C  
HETATM   20  C   UNL     1      -9.507  16.834  66.266  1.00  0.00    -0.314 C  
ENDBRANCH  10  17
ENDBRANCH   4   5
ENDBRANCH   2   4
BRANCH   2  21
HETATM   21  S   UNL     1      -9.199  11.222  68.048  1.00  0.00    -0.166 SA 
BRANCH  21  22
HETATM   22  C   UNL     1      -9.951   9.682  68.574  1.00  0.00    -0.165 A  
HETATM   23  C   UNL     1     -10.712   9.544  69.736  1.00  0.00    -0.259 A  
HETATM   24  C   UNL     1      -9.622   8.539  67.861  1.00  0.00    -0.177 A  
HETATM   25  H   UNL     1     -11.670   5.908  70.771  1.00  0.00     0.000 HD 
HETATM   26  O   UNL     1     -11.158   5.961  69.973  1.00  0.00    -0.359 OA 
HETATM   27  C   UNL     1     -10.020   7.251  68.266  1.00  0.00    -0.177 A  
HETATM   28  C   UNL     1     -11.163   8.307  70.215  1.00  0.00    -0.176 A  
HETATM   29  C   UNL     1     -10.786   7.173  69.465  1.00  0.00    -0.225 A  
BRANCH  27  30
HETATM   30  C   UNL     1      -9.545   6.030  67.439  1.00  0.00    -0.118 C  
HETATM   31  C   UNL     1     -10.704   5.306  66.690  1.00  0.00    -0.274 C  
HETATM   32  C   UNL     1      -8.549   6.475  66.350  1.00  0.00    -0.136 C  
HETATM   33  C   UNL     1      -8.915   4.944  68.337  1.00  0.00    -0.129 C  
ENDBRANCH  27  30
BRANCH  28  34
HETATM   34  C   UNL     1     -12.048   8.246  71.493  1.00  0.00    -0.335 C  
HETATM   35  C   UNL     1     -13.172   7.168  71.439  1.00  0.00    -0.391 C  
HETATM   36  C   UNL     1     -12.775   9.584  71.754  1.00  0.00    -0.492 C  
HETATM   37  C   UNL     1     -11.177   7.876  72.713  1.00  0.00    -0.466 C  
ENDBRANCH  28  34
ENDBRANCH  21  22
ENDBRANCH   2  21
TORSDOF 8
ENDMDL
MODEL        7
REMARK 921   NORMALIZED FREE ENERGY PREDICTED BY IDOCK:   -6.14 KCAL/MOL
REMARK 922        TOTAL FREE ENERGY PREDICTED BY IDOCK:   -9.61 KCAL/MOL
REMARK 923 INTER-LIGAND FREE ENERGY PREDICTED BY IDOCK:   -9.07 KCAL/MOL
REMARK 924 INTRA-LIGAND FREE ENERGY PREDICTED BY IDOCK:   -0.54 KCAL/MOL
REMARK 927      BINDING AFFINITY PREDICTED BY RF-SCORE:    0.00 PKD
ROOT
HETATM    1  C   UNL     1      -8.990  11.578  66.090  1.00  0.00    -0.201 C  
HETATM    2  C   UNL     1      -9.836  10.952  67.212  1.00  0.00    -0.175 C  
HETATM    3  C   UNL     1      -9.878   9.431  66.993  1.00  0.00    -0.258 C  
ENDROOT
BRANCH   2   4
HETATM    4  S   UNL     1     -11.559  11.603  67.087  1.00  0.00    -0.119 SA 
BRANCH   4   5
HETATM    5  C   UNL     1     -11.507  13.190  67.913  1.00  0.00    -0.308 A  
HETATM    6  C   UNL     1     -11.212  15.556  69.376  1.00  0.00    -0.300 A  
HETATM    7  O   UNL     1     -10.967  16.708  70.068  1.00  0.00    -0.393 OA 
HETATM    8  H   UNL     1     -10.469  17.420  69.685  1.00  0.00     0.000 HD 
HETATM    9  C   UNL     1     -12.058  13.304  69.185  1.00  0.00    -0.283 A  
HETATM   10  C   UNL     1     -10.635  15.484  68.090  1.00  0.00    -0.266 A  
HETATM   11  C   UNL     1     -10.834  14.290  67.393  1.00  0.00    -0.288 A  
HETATM   12  C   UNL     1     -11.959  14.488  69.950  1.00  0.00    -0.382 A  
BRANCH  12  13
HETATM   13  C   UNL     1     -12.621  14.535  71.351  1.00  0.00    -0.411 C  
HETATM   14  C   UNL     1     -11.650  15.100  72.413  1.00  0.00    -0.457 C  
HETATM   15  C   UNL     1     -13.117  13.134  71.766  1.00  0.00    -0.478 C  
HETATM   16  C   UNL     1     -13.866  15.467  71.418  1.00  0.00    -0.577 C  
ENDBRANCH  12  13
BRANCH  10  17
HETATM   17  C   UNL     1      -9.827  16.629  67.424  1.00  0.00    -0.254 C  
HETATM   18  C   UNL     1     -10.757  17.765  66.945  1.00  0.00    -0.165 C  
HETATM   19  C   UNL     1      -8.793  17.316  68.366  1.00  0.00    -0.269 C  
HETATM   20  C   UNL     1      -9.007  16.073  66.242  1.00  0.00    -0.380 C  
ENDBRANCH  10  17
ENDBRANCH   4   5
ENDBRANCH   2   4
BRANCH   2  21
HETATM   21  S   UNL     1      -8.979  11.273  68.815  1.00  0.00    -0.056 SA 
BRANCH  21  22
HETATM   22  C   UNL     1      -9.644  10.051  69.945  1.00  0.00    -0.192 A  
HETATM   23  C   UNL     1     -11.006   9.903  70.219  1.00  0.00    -0.366 A  
HETATM   24  C   UNL     1      -8.737   9.321  70.697  1.00  0.00    -0.282 A  
HETATM   25  H   UNL     1     -11.945   7.508  73.149  1.00  0.00     0.000 HD 
HETATM   26  O   UNL     1     -11.011   7.575  72.989  1.00  0.00    -0.350 OA 
HETATM   27  C   UNL     1      -9.134   8.447  71.726  1.00  0.00    -0.283 A  
HETATM   28  C   UNL     1     -11.500   9.052  71.216  1.00  0.00    -0.390 A  
HETATM   29  C   UNL     1     -10.536   8.346  71.967  1.00  0.00    -0.317 A  
BRANCH  27  30
HETATM   30  C   UNL     1      -8.042   7.726  72.556  1.00  0.00    -0.156 C  
HETATM   31  C   UNL     1      -8.181   7.959  74.090  1.00  0.00    -0.303 C  
HETATM   32  C   UNL     1      -8.130   6.201  72.348  1.00  0.00    -0.105 C  
HETATM   33  C   UNL     1      -6.628   8.240  72.204  1.00  0.00    -0.075 C  
ENDBRANCH  27  30
BRANCH  28  34
HETATM   34  C   UNL     1     -13.035   8.910  71.425  1.00  0.00    -0.323 C  
HETATM   35  C   UNL     1     -13.547   9.468  72.787  1.00  0.00    -0.109 C  
HETATM   36  C   UNL     1     -13.485   7.433  71.392  1.00  0.00    -0.405 C  
HETATM   37  C   UNL     1     -13.784   9.712  70.339  1.00  0.00     0.610 C  
ENDBRANCH  28  34
ENDBRANCH  21  22
ENDBRANCH   2  21
TORSDOF 8
ENDMDL
MODEL        8
REMARK 921   NORMALIZED FREE ENERGY PREDICTED BY IDOCK:   -6.08 KCAL/MOL
REMARK 922        TOTAL FREE ENERGY PREDICTED BY IDOCK:   -9.52 KCAL/MOL
REMARK 923 INTER-LIGAND FREE ENERGY PREDICTED BY IDOCK:   -9.80 KCAL/MOL
REMARK 924 INTRA-LIGAND FREE ENERGY PREDICTED BY IDOCK:    0.28 KCAL/MOL
REMARK 927      BINDING AFFINITY PREDICTED BY RF-SCORE:    0.00 PKD
ROOT
HETATM    1  C   UNL     1      -9.226  11.195  65.661  1.00  0.00    -0.238 C  
HETATM    2  C   UNL     1     -10.160  11.192  66.884  1.00  0.00    -0.214 C  
HETATM    3  C   UNL     1     -10.749   9.780  67.036  1.00  0.00    -0.236 C  
ENDROOT
BRANCH   2   4
HETATM    4  S   UNL     1     -11.547  12.368  66.571  1.00  0.00    -0.375 SA 
BRANCH   4   5
HETATM    5  C   UNL     1     -11.316  13.676  67.771  1.00  0.00    -0.306 A  
HETATM    6  C   UNL     1     -11.172  15.865  69.506  1.00  0.00    -0.325 A  
HETATM    7  O   UNL     1     -11.202  16.924  70.369  1.00  0.00    -0.416 OA 
HETATM    8  H   UNL     1     -11.613  16.855  71.223  1.00  0.00     0.000 HD 
HETATM    9  C   UNL     1     -10.677  14.846  67.375  1.00  0.00    -0.292 A  
HETATM   10  C   UNL     1     -11.831  14.699  69.949  1.00  0.00    -0.372 A  
HETATM   11  C   UNL     1     -11.851  13.627  69.053  1.00  0.00    -0.393 A  
HETATM   12  C   UNL     1     -10.554  15.968  68.227  1.00  0.00    -0.283 A  
BRANCH  12  13
HETATM   13  C   UNL     1      -9.808  17.224  67.711  1.00  0.00    -0.281 C  
HETATM   14  C   UNL     1     -10.767  18.428  67.567  1.00  0.00    -0.399 C  
HETATM   15  C   UNL     1      -9.109  16.929  66.367  1.00  0.00    -0.315 C  
HETATM   16  C   UNL     1      -8.691  17.721  68.675  1.00  0.00    -0.260 C  
ENDBRANCH  12  13
BRANCH  10  17
HETATM   17  C   UNL     1     -12.502  14.542  71.339  1.00  0.00    -0.423 C  
HETATM   18  C   UNL     1     -11.645  15.187  72.450  1.00  0.00    -0.457 C  
HETATM   19  C   UNL     1     -13.900  15.220  71.456  1.00  0.00    -0.617 C  
HETATM   20  C   UNL     1     -12.738  13.049  71.641  1.00  0.00    -0.308 C  
ENDBRANCH  10  17
ENDBRANCH   4   5
ENDBRANCH   2   4
BRANCH   2  21
HETATM   21  S   UNL     1      -9.138  11.547  68.379  1.00  0.00    -0.169 SA 
BRANCH  21  22
HETATM   22  C   UNL     1      -9.017   9.978  69.237  1.00  0.00    -0.178 A  
HETATM   23  C   UNL     1      -8.046   9.013  68.961  1.00  0.00    -0.107 A  
HETATM   24  C   UNL     1     -10.042   9.652  70.111  1.00  0.00    -0.311 A  
HETATM   25  H   UNL     1      -8.506   5.539  70.671  1.00  0.00     0.000 HD 
HETATM   26  O   UNL     1      -9.182   6.170  70.889  1.00  0.00    -0.152 OA 
HETATM   27  C   UNL     1     -10.143   8.389  70.724  1.00  0.00    -0.226 A  
HETATM   28  C   UNL     1      -8.055   7.732  69.528  1.00  0.00    -0.126 A  
HETATM   29  C   UNL     1      -9.129   7.442  70.397  1.00  0.00    -0.157 A  
BRANCH  27  30
HETATM   30  C   UNL     1     -11.363   8.097  71.634  1.00  0.00    -0.315 C  
HETATM   31  C   UNL     1     -10.965   7.659  73.075  1.00  0.00    -0.457 C  
HETATM   32  C   UNL     1     -12.224   9.366  71.798  1.00  0.00    -0.465 C  
HETATM   33  C   UNL     1     -12.216   6.932  71.087  1.00  0.00    -0.428 C  
ENDBRANCH  27  30
BRANCH  28  34
HETATM   34  C   UNL     1      -6.908   6.732  69.205  1.00  0.00    -0.061 C  
HETATM   35  C   UNL     1      -5.747   7.344  68.364  1.00  0.00    -0.023 C  
HETATM   36  C   UNL     1      -7.412   5.522  68.388  1.00  0.00    -0.077 C  
HETATM   37  C   UNL     1      -6.257   6.245  70.518  1.00  0.00    -0.035 C  
ENDBRANCH  28  34
ENDBRANCH  21  22
ENDBRANCH   2  21
TORSDOF 8
ENDMDL
MODEL        9
REMARK 921   NORMALIZED FREE ENERGY PREDICTED BY IDOCK:   -6.04 KCAL/MOL
REMARK 922        TOTAL FREE ENERGY PREDICTED BY IDOCK:   -9.47 KCAL/MOL
REMARK 923 INTER-LIGAND FREE ENERGY PREDICTED BY IDOCK:   -9.50 KCAL/MOL
REMARK 924 INTRA-LIGAND FREE ENERGY PREDICTED BY IDOCK:    0.03 KCAL/MOL
REMARK 927      BINDING AFFINITY PREDICTED BY RF-SCORE:    0.00 PKD
ROOT
HETATM    1  C   UNL     1     -10.206   9.630  66.319  1.00  0.00    -0.286 C  
HETATM    2  C   UNL     1     -10.051  11.074  66.829  1.00  0.00    -0.220 C  
HETATM    3  C   UNL     1      -9.384  11.907  65.723  1.00  0.00    -0.165 C  
ENDROOT
BRANCH   2   4
HETATM    4  S   UNL     1      -8.936  11.065  68.300  1.00  0.00    -0.160 SA 
BRANCH   4   5
HETATM    5  C   UNL     1      -9.230   9.484  69.085  1.00  0.00    -0.163 A  
HETATM    6  C   UNL     1      -9.929   6.987  70.137  1.00  0.00    -0.182 A  
HETATM    7  O   UNL     1     -10.272   5.733  70.554  1.00  0.00    -0.194 OA 
HETATM    8  H   UNL     1      -9.801   4.965  70.253  1.00  0.00     0.000 HD 
HETATM    9  C   UNL     1     -10.265   9.374  70.009  1.00  0.00    -0.262 A  
HETATM   10  C   UNL     1      -8.875   7.052  69.201  1.00  0.00    -0.135 A  
HETATM   11  C   UNL     1      -8.550   8.325  68.728  1.00  0.00    -0.133 A  
HETATM   12  C   UNL     1     -10.635   8.139  70.589  1.00  0.00    -0.229 A  
BRANCH  12  13
HETATM   13  C   UNL     1     -11.786   8.112  71.626  1.00  0.00    -0.330 C  
HETATM   14  C   UNL     1     -12.497   9.482  71.712  1.00  0.00    -0.484 C  
HETATM   15  C   UNL     1     -11.258   7.692  73.014  1.00  0.00    -0.388 C  
HETATM   16  C   UNL     1     -12.915   7.101  71.274  1.00  0.00    -0.378 C  
ENDBRANCH  12  13
BRANCH  10  17
HETATM   17  C   UNL     1      -8.072   5.824  68.695  1.00  0.00    -0.101 C  
HETATM   18  C   UNL     1      -7.326   5.128  69.853  1.00  0.00    -0.060 C  
HETATM   19  C   UNL     1      -8.948   4.710  68.045  1.00  0.00    -0.131 C  
HETATM   20  C   UNL     1      -7.078   6.262  67.601  1.00  0.00    -0.081 C  
ENDBRANCH  10  17
ENDBRANCH   4   5
ENDBRANCH   2   4
BRANCH   2  21
HETATM   21  S   UNL     1     -11.741  11.759  67.117  1.00  0.00    -0.078 SA 
BRANCH  21  22
HETATM   22  C   UNL     1     -11.492  13.148  68.221  1.00  0.00    -0.314 A  
HETATM   23  C   UNL     1     -12.143  13.295  69.448  1.00  0.00    -0.301 A  
HETATM   24  C   UNL     1     -10.727  14.204  67.750  1.00  0.00    -0.251 A  
HETATM   25  H   UNL     1     -11.725  16.730  71.245  1.00  0.00     0.000 HD 
HETATM   26  O   UNL     1     -11.262  16.668  70.418  1.00  0.00    -0.260 OA 
HETATM   27  C   UNL     1     -10.587  15.414  68.456  1.00  0.00    -0.240 A  
HETATM   28  C   UNL     1     -12.058  14.455  70.227  1.00  0.00    -0.396 A  
HETATM   29  C   UNL     1     -11.283  15.508  69.697  1.00  0.00    -0.300 A  
BRANCH  27  30
HETATM   30  C   UNL     1      -9.765  16.561  67.815  1.00  0.00    -0.235 C  
HETATM   31  C   UNL     1      -9.200  16.201  66.409  1.00  0.00    -0.334 C  
HETATM   32  C   UNL     1     -10.652  17.805  67.611  1.00  0.00    -0.385 C  
HETATM   33  C   UNL     1      -8.524  16.914  68.663  1.00  0.00    -0.260 C  
ENDBRANCH  27  30
BRANCH  28  34
HETATM   34  C   UNL     1     -12.776  14.518  71.606  1.00  0.00    -0.414 C  
HETATM   35  C   UNL     1     -14.083  15.367  71.606  1.00  0.00    -0.618 C  
HETATM   36  C   UNL     1     -11.878  15.149  72.694  1.00  0.00    -0.484 C  
HETATM   37  C   UNL     1     -13.202  13.098  72.036  1.00  0.00    -0.543 C  
ENDBRANCH  28  34
ENDBRANCH  21  22
ENDBRANCH   2  21
TORSDOF 8
ENDMDL
MODEL       10
REMARK 921   NORMALIZED FREE ENERGY PREDICTED BY IDOCK:   -6.04 KCAL/MOL
REMARK 922        TOTAL FREE ENERGY PREDICTED BY IDOCK:   -9.46 KCAL/MOL
REMARK 923 INTER-LIGAND FREE ENERGY PREDICTED BY IDOCK:   -9.26 KCAL/MOL
REMARK 924 INTRA-LIGAND FREE ENERGY PREDICTED BY IDOCK:   -0.20 KCAL/MOL
REMARK 927      BINDING AFFINITY PREDICTED BY RF-SCORE:    0.00 PKD
ROOT
HETATM    1  C   UNL     1      -9.815   8.775  67.590  1.00  0.00    -0.228 C  
HETATM    2  C   UNL     1      -9.660  10.296  67.760  1.00  0.00    -0.152 C  
HETATM    3  C   UNL     1      -8.844  10.833  66.573  1.00  0.00    -0.162 C  
ENDROOT
BRANCH   2   4
HETATM    4  S   UNL     1      -8.712  10.624  69.310  1.00  0.00    -0.013 SA 
BRANCH   4   5
HETATM    5  C   UNL     1      -9.491   9.591  70.548  1.00  0.00    -0.246 A  
HETATM    6  C   UNL     1     -10.776   7.790  72.260  1.00  0.00    -0.269 A  
HETATM    7  O   UNL     1     -11.343   6.838  73.057  1.00  0.00    -0.456 OA 
HETATM    8  H   UNL     1     -10.812   6.243  73.574  1.00  0.00     0.000 HD 
HETATM    9  C   UNL     1     -10.879   9.554  70.615  1.00  0.00    -0.371 A  
HETATM   10  C   UNL     1      -9.365   7.792  72.222  1.00  0.00    -0.212 A  
HETATM   11  C   UNL     1      -8.775   8.729  71.370  1.00  0.00    -0.278 A  
HETATM   12  C   UNL     1     -11.573   8.681  71.485  1.00  0.00    -0.368 A  
BRANCH  12  13
HETATM   13  C   UNL     1     -13.122   8.721  71.511  1.00  0.00    -0.358 C  
HETATM   14  C   UNL     1     -13.724   7.329  71.214  1.00  0.00    -0.328 C  
HETATM   15  C   UNL     1     -13.657   9.764  70.507  1.00  0.00     0.285 C  
HETATM   16  C   UNL     1     -13.709   9.119  72.896  1.00  0.00    -0.104 C  
ENDBRANCH  12  13
BRANCH  10  17
HETATM   17  C   UNL     1      -8.462   6.849  73.060  1.00  0.00    -0.128 C  
HETATM   18  C   UNL     1      -8.700   5.370  72.689  1.00  0.00    -0.123 C  
HETATM   19  C   UNL     1      -6.934   7.081  72.861  1.00  0.00    -0.069 C  
HETATM   20  C   UNL     1      -8.723   7.075  74.563  1.00  0.00    -0.227 C  
ENDBRANCH  10  17
ENDBRANCH   4   5
ENDBRANCH   2   4
BRANCH   2  21
HETATM   21  S   UNL     1     -11.343  11.051  67.683  1.00  0.00    -0.224 SA 
BRANCH  21  22
HETATM   22  C   UNL     1     -11.209  12.570  68.624  1.00  0.00    -0.278 A  
HETATM   23  C   UNL     1     -12.001  12.871  69.735  1.00  0.00    -0.365 A  
HETATM   24  C   UNL     1     -10.378  13.559  68.120  1.00  0.00    -0.247 A  
HETATM   25  H   UNL     1     -11.754  16.508  71.119  1.00  0.00     0.000 HD 
HETATM   26  O   UNL     1     -11.195  16.341  70.369  1.00  0.00    -0.373 OA 
HETATM   27  C   UNL     1     -10.307  14.848  68.678  1.00  0.00    -0.237 A  
HETATM   28  C   UNL     1     -11.994  14.122  70.366  1.00  0.00    -0.400 A  
HETATM   29  C   UNL     1     -11.146  15.099  69.804  1.00  0.00    -0.278 A  
BRANCH  27  30
HETATM   30  C   UNL     1      -9.398  15.905  68.002  1.00  0.00    -0.201 C  
HETATM   31  C   UNL     1      -8.606  15.346  66.782  1.00  0.00    -0.308 C  
HETATM   32  C   UNL     1     -10.247  17.072  67.458  1.00  0.00    -0.323 C  
HETATM   33  C   UNL     1      -8.315  16.429  68.970  1.00  0.00    -0.225 C  
ENDBRANCH  27  30
BRANCH  28  34
HETATM   34  C   UNL     1     -12.872  14.359  71.628  1.00  0.00    -0.416 C  
HETATM   35  C   UNL     1     -13.512  13.063  72.212  1.00  0.00    -0.645 C  
HETATM   36  C   UNL     1     -14.057  15.305  71.335  1.00  0.00    -0.595 C  
HETATM   37  C   UNL     1     -12.003  14.941  72.764  1.00  0.00    -0.338 C  
ENDBRANCH  28  34
ENDBRANCH  21  22
ENDBRANCH   2  21
TORSDOF 8
ENDMDL
MODEL       11
REMARK 921   NORMALIZED FREE ENERGY PREDICTED BY IDOCK:   -5.99 KCAL/MOL
REMARK 922        TOTAL FREE ENERGY PREDICTED BY IDOCK:   -9.39 KCAL/MOL
REMARK 923 INTER-LIGAND FREE ENERGY PREDICTED BY IDOCK:   -9.56 KCAL/MOL
REMARK 924 INTRA-LIGAND FREE ENERGY PREDICTED BY IDOCK:    0.17 KCAL/MOL
REMARK 927      BINDING AFFINITY PREDICTED BY RF-SCORE:    0.00 PKD
ROOT
HETATM    1  C   UNL     1     -10.037   9.835  65.984  1.00  0.00    -0.322 C  
HETATM    2  C   UNL     1      -9.931  11.137  66.798  1.00  0.00    -0.208 C  
HETATM    3  C   UNL     1      -9.236  12.195  65.925  1.00  0.00    -0.069 C  
ENDROOT
BRANCH   2   4
HETATM    4  S   UNL     1      -8.875  10.823  68.279  1.00  0.00    -0.146 SA 
BRANCH   4   5
HETATM    5  C   UNL     1      -9.491   9.287  68.961  1.00  0.00    -0.155 A  
HETATM    6  C   UNL     1     -10.213   6.886  70.202  1.00  0.00    -0.192 A  
HETATM    7  O   UNL     1     -10.556   5.762  70.897  1.00  0.00    -0.237 OA 
HETATM    8  H   UNL     1     -11.218   5.783  71.578  1.00  0.00     0.000 HD 
HETATM    9  C   UNL     1      -8.870   8.096  68.602  1.00  0.00    -0.134 A  
HETATM   10  C   UNL     1     -10.868   8.072  70.598  1.00  0.00    -0.240 A  
HETATM   11  C   UNL     1     -10.488   9.237  69.929  1.00  0.00    -0.247 A  
HETATM   12  C   UNL     1      -9.221   6.854  69.180  1.00  0.00    -0.141 A  
BRANCH  12  13
HETATM   13  C   UNL     1      -8.492   5.572  68.705  1.00  0.00    -0.101 C  
HETATM   14  C   UNL     1      -7.686   4.926  69.856  1.00  0.00    -0.056 C  
HETATM   15  C   UNL     1      -7.567   5.882  67.510  1.00  0.00    -0.093 C  
HETATM   16  C   UNL     1      -9.458   4.452  68.221  1.00  0.00    -0.210 C  
ENDBRANCH  12  13
BRANCH  10  17
HETATM   17  C   UNL     1     -11.964   8.146  71.695  1.00  0.00    -0.340 C  
HETATM   18  C   UNL     1     -12.528   9.576  71.827  1.00  0.00    -0.484 C  
HETATM   19  C   UNL     1     -13.203   7.241  71.423  1.00  0.00    -0.404 C  
HETATM   20  C   UNL     1     -11.388   7.668  73.043  1.00  0.00    -0.334 C  
ENDBRANCH  10  17
ENDBRANCH   4   5
ENDBRANCH   2   4
BRANCH   2  21
HETATM   21  S   UNL     1     -11.644  11.726  67.152  1.00  0.00    -0.195 SA 
BRANCH  21  22
HETATM   22  C   UNL     1     -11.431  13.113  68.267  1.00  0.00    -0.314 A  
HETATM   23  C   UNL     1     -12.099  13.242  69.486  1.00  0.00    -0.315 A  
HETATM   24  C   UNL     1     -10.677  14.184  67.812  1.00  0.00    -0.251 A  
HETATM   25  H   UNL     1     -11.760  16.674  71.307  1.00  0.00     0.000 HD 
HETATM   26  O   UNL     1     -11.286  16.623  70.485  1.00  0.00    -0.250 OA 
HETATM   27  C   UNL     1     -10.566  15.392  68.525  1.00  0.00    -0.240 A  
HETATM   28  C   UNL     1     -12.043  14.400  70.273  1.00  0.00    -0.396 A  
HETATM   29  C   UNL     1     -11.279  15.468  69.758  1.00  0.00    -0.304 A  
BRANCH  27  30
HETATM   30  C   UNL     1      -9.755  16.555  67.901  1.00  0.00    -0.236 C  
HETATM   31  C   UNL     1     -10.549  17.893  67.835  1.00  0.00    -0.387 C  
HETATM   32  C   UNL     1      -8.500  16.847  68.749  1.00  0.00    -0.244 C  
HETATM   33  C   UNL     1      -9.361  16.255  66.438  1.00  0.00    -0.322 C  
ENDBRANCH  27  30
BRANCH  28  34
HETATM   34  C   UNL     1     -12.779  14.443  71.643  1.00  0.00    -0.419 C  
HETATM   35  C   UNL     1     -11.918  15.011  72.812  1.00  0.00    -0.414 C  
HETATM   36  C   UNL     1     -13.220  13.036  72.104  1.00  0.00    -0.558 C  
HETATM   37  C   UNL     1     -14.009  15.371  71.544  1.00  0.00    -0.601 C  
ENDBRANCH  28  34
ENDBRANCH  21  22
ENDBRANCH   2  21
TORSDOF 8
ENDMDL
MODEL       12
REMARK 921   NORMALIZED FREE ENERGY PREDICTED BY IDOCK:   -5.98 KCAL/MOL
REMARK 922        TOTAL FREE ENERGY PREDICTED BY IDOCK:   -9.37 KCAL/MOL
REMARK 923 INTER-LIGAND FREE ENERGY PREDICTED BY IDOCK:   -9.86 KCAL/MOL
REMARK 924 INTRA-LIGAND FREE ENERGY PREDICTED BY IDOCK:    0.49 KCAL/MOL
REMARK 927      BINDING AFFINITY PREDICTED BY RF-SCORE:    0.00 PKD
ROOT
HETATM    1  C   UNL     1      -9.149  10.820  68.710  1.00  0.00    -0.180 C  
HETATM    2  C   UNL     1      -9.803  10.795  67.318  1.00  0.00    -0.179 C  
HETATM    3  C   UNL     1      -8.996  11.717  66.390  1.00  0.00    -0.201 C  
ENDROOT
BRANCH   2   4
HETATM    4  S   UNL     1     -11.516  11.468  67.458  1.00  0.00    -0.248 SA 
BRANCH   4   5
HETATM    5  C   UNL     1     -11.341  12.963  68.426  1.00  0.00    -0.294 A  
HETATM    6  C   UNL     1     -11.263  15.424  69.754  1.00  0.00    -0.288 A  
HETATM    7  O   UNL     1     -11.327  16.620  70.410  1.00  0.00    -0.493 OA 
HETATM    8  H   UNL     1     -11.821  16.718  71.216  1.00  0.00     0.000 HD 
HETATM    9  C   UNL     1     -10.616  14.025  67.897  1.00  0.00    -0.246 A  
HETATM   10  C   UNL     1     -12.013  14.374  70.326  1.00  0.00    -0.388 A  
HETATM   11  C   UNL     1     -11.997  13.160  69.636  1.00  0.00    -0.370 A  
HETATM   12  C   UNL     1     -10.524  15.278  68.546  1.00  0.00    -0.235 A  
BRANCH  12  13
HETATM   13  C   UNL     1      -9.676  16.400  67.895  1.00  0.00    -0.235 C  
HETATM   14  C   UNL     1      -9.176  15.985  66.493  1.00  0.00    -0.307 C  
HETATM   15  C   UNL     1      -8.484  16.777  68.801  1.00  0.00    -0.253 C  
HETATM   16  C   UNL     1     -10.468  17.718  67.659  1.00  0.00    -0.393 C  
ENDBRANCH  12  13
BRANCH  10  17
HETATM   17  C   UNL     1     -12.819  14.488  71.647  1.00  0.00    -0.409 C  
HETATM   18  C   UNL     1     -14.070  15.375  71.466  1.00  0.00    -0.596 C  
HETATM   19  C   UNL     1     -13.356  13.130  72.190  1.00  0.00    -0.621 C  
HETATM   20  C   UNL     1     -11.917  15.054  72.763  1.00  0.00    -0.414 C  
ENDBRANCH  10  17
ENDBRANCH   4   5
ENDBRANCH   2   4
BRANCH   2  21
HETATM   21  S   UNL     1      -9.676   9.074  66.662  1.00  0.00    -0.252 SA 
BRANCH  21  22
HETATM   22  C   UNL     1     -10.056   8.020  68.060  1.00  0.00    -0.194 A  
HETATM   23  C   UNL     1     -10.860   8.410  69.133  1.00  0.00    -0.042 A  
HETATM   24  C   UNL     1      -9.384   6.811  68.145  1.00  0.00    -0.122 A  
HETATM   25  H   UNL     1     -10.952   6.009  72.205  1.00  0.00     0.000 HD 
HETATM   26  O   UNL     1     -10.400   5.706  71.494  1.00  0.00    -0.206 OA 
HETATM   27  C   UNL     1      -9.476   5.968  69.268  1.00  0.00    -0.152 A  
HETATM   28  C   UNL     1     -11.023   7.636  70.290  1.00  0.00    -0.261 A  
HETATM   29  C   UNL     1     -10.304   6.423  70.336  1.00  0.00    -0.205 A  
BRANCH  27  30
HETATM   30  C   UNL     1      -8.634   4.668  69.297  1.00  0.00    -0.101 C  
HETATM   31  C   UNL     1      -7.794   4.450  68.003  1.00  0.00    -0.080 C  
HETATM   32  C   UNL     1      -7.620   4.713  70.458  1.00  0.00    -0.054 C  
HETATM   33  C   UNL     1      -9.526   3.413  69.406  1.00  0.00    -0.221 C  
ENDBRANCH  27  30
BRANCH  28  34
HETATM   34  C   UNL     1     -11.977   8.122  71.420  1.00  0.00    -0.330 C  
HETATM   35  C   UNL     1     -12.413   9.612  71.289  1.00  0.00    -0.445 C  
HETATM   36  C   UNL     1     -11.321   8.007  72.814  1.00  0.00    -0.439 C  
HETATM   37  C   UNL     1     -13.284   7.301  71.386  1.00  0.00    -0.404 C  
ENDBRANCH  28  34
ENDBRANCH  21  22
ENDBRANCH   2  21
TORSDOF 8
ENDMDL
MODEL       13
REMARK 921   NORMALIZED FREE ENERGY PREDICTED BY IDOCK:   -5.94 KCAL/MOL
REMARK 922        TOTAL FREE ENERGY PREDICTED BY IDOCK:   -9.32 KCAL/MOL
REMARK 923 INTER-LIGAND FREE ENERGY PREDICTED BY IDOCK:   -9.60 KCAL/MOL
REMARK 924 INTRA-LIGAND FREE ENERGY PREDICTED BY IDOCK:    0.27 KCAL/MOL
REMARK 927      BINDING AFFINITY PREDICTED BY RF-SCORE:    0.00 PKD
ROOT
HETATM    1  C   UNL     1      -9.316  12.156  65.569  1.00  0.00     0.007 C  
HETATM    2  C   UNL     1     -10.278  11.591  66.629  1.00  0.00    -0.219 C  
HETATM    3  C   UNL     1     -10.521  10.105  66.317  1.00  0.00    -0.192 C  
ENDROOT
BRANCH   2   4
HETATM    4  S   UNL     1     -11.890  12.481  66.498  1.00  0.00    -0.300 SA 
BRANCH   4   5
HETATM    5  C   UNL     1     -11.727  13.884  67.598  1.00  0.00    -0.368 A  
HETATM    6  C   UNL     1     -11.259  15.923  69.455  1.00  0.00    -0.336 A  
HETATM    7  O   UNL     1     -10.931  16.914  70.336  1.00  0.00    -0.351 OA 
HETATM    8  H   UNL     1     -10.407  17.661  70.069  1.00  0.00     0.000 HD 
HETATM    9  C   UNL     1     -12.230  13.787  68.891  1.00  0.00    -0.235 A  
HETATM   10  C   UNL     1     -10.727  16.062  68.155  1.00  0.00    -0.311 A  
HETATM   11  C   UNL     1     -11.013  15.028  67.260  1.00  0.00    -0.326 A  
HETATM   12  C   UNL     1     -12.044  14.804  69.855  1.00  0.00    -0.381 A  
BRANCH  12  13
HETATM   13  C   UNL     1     -12.658  14.622  71.266  1.00  0.00    -0.403 C  
HETATM   14  C   UNL     1     -14.044  15.299  71.366  1.00  0.00    -0.595 C  
HETATM   15  C   UNL     1     -11.709  15.177  72.348  1.00  0.00    -0.487 C  
HETATM   16  C   UNL     1     -12.915  13.135  71.644  1.00  0.00    -0.429 C  
ENDBRANCH  12  13
BRANCH  10  17
HETATM   17  C   UNL     1      -9.881  17.272  67.676  1.00  0.00    -0.279 C  
HETATM   18  C   UNL     1     -10.757  18.528  67.488  1.00  0.00    -0.419 C  
HETATM   19  C   UNL     1      -8.759  17.701  68.669  1.00  0.00    -0.266 C  
HETATM   20  C   UNL     1      -9.159  16.917  66.361  1.00  0.00    -0.315 C  
ENDBRANCH  10  17
ENDBRANCH   4   5
ENDBRANCH   2   4
BRANCH   2  21
HETATM   21  S   UNL     1      -9.441  11.700  68.271  1.00  0.00    -0.192 SA 
BRANCH  21  22
HETATM   22  C   UNL     1      -9.610  10.064  68.982  1.00  0.00    -0.196 A  
HETATM   23  C   UNL     1     -10.575   9.723  69.933  1.00  0.00    -0.301 A  
HETATM   24  C   UNL     1      -8.626   9.135  68.679  1.00  0.00    -0.128 A  
HETATM   25  H   UNL     1     -10.212   6.221  71.608  1.00  0.00     0.000 HD 
HETATM   26  O   UNL     1      -9.542   6.412  70.963  1.00  0.00    -0.174 OA 
HETATM   27  C   UNL     1      -8.560   7.872  69.295  1.00  0.00    -0.138 A  
HETATM   28  C   UNL     1     -10.598   8.488  70.593  1.00  0.00    -0.241 A  
HETATM   29  C   UNL     1      -9.566   7.585  70.264  1.00  0.00    -0.165 A  
BRANCH  27  30
HETATM   30  C   UNL     1      -7.383   6.929  68.939  1.00  0.00    -0.094 C  
HETATM   31  C   UNL     1      -6.415   7.527  67.875  1.00  0.00    -0.054 C  
HETATM   32  C   UNL     1      -6.522   6.652  70.188  1.00  0.00    -0.040 C  
HETATM   33  C   UNL     1      -7.881   5.604  68.321  1.00  0.00    -0.096 C  
ENDBRANCH  27  30
BRANCH  28  34
HETATM   34  C   UNL     1     -11.738   8.171  71.604  1.00  0.00    -0.330 C  
HETATM   35  C   UNL     1     -12.741   9.343  71.822  1.00  0.00    -0.476 C  
HETATM   36  C   UNL     1     -11.184   7.838  73.008  1.00  0.00    -0.380 C  
HETATM   37  C   UNL     1     -12.584   6.990  71.081  1.00  0.00    -0.387 C  
ENDBRANCH  28  34
ENDBRANCH  21  22
ENDBRANCH   2  21
TORSDOF 8
ENDMDL
MODEL       14
REMARK 921   NORMALIZED FREE ENERGY PREDICTED BY IDOCK:   -5.91 KCAL/MOL
REMARK 922        TOTAL FREE ENERGY PREDICTED BY IDOCK:   -9.28 KCAL/MOL
REMARK 923 INTER-LIGAND FREE ENERGY PREDICTED BY IDOCK:   -9.89 KCAL/MOL
REMARK 924 INTRA-LIGAND FREE ENERGY PREDICTED BY IDOCK:    0.61 KCAL/MOL
REMARK 927      BINDING AFFINITY PREDICTED BY RF-SCORE:    0.00 PKD
ROOT
HETATM    1  C   UNL     1     -12.283  14.144  66.843  1.00  0.00    -0.400 C  
HETATM    2  C   UNL     1     -11.087  13.447  66.170  1.00  0.00    -0.288 C  
HETATM    3  C   UNL     1     -11.626  12.303  65.295  1.00  0.00    -0.405 C  
ENDROOT
BRANCH   2   4
HETATM    4  S   UNL     1     -10.014  12.716  67.482  1.00  0.00    -0.209 SA 
BRANCH   4   5
HETATM    5  C   UNL     1     -11.103  12.480  68.882  1.00  0.00    -0.260 A  
HETATM    6  C   UNL     1     -12.561  12.051  71.231  1.00  0.00    -0.252 A  
HETATM    7  O   UNL     1     -13.212  11.911  72.423  1.00  0.00    -0.518 OA 
HETATM    8  H   UNL     1     -13.516  12.665  72.914  1.00  0.00     0.000 HD 
HETATM    9  C   UNL     1     -11.350  11.187  69.331  1.00  0.00    -0.352 A  
HETATM   10  C   UNL     1     -12.331  13.380  70.815  1.00  0.00    -0.433 A  
HETATM   11  C   UNL     1     -11.621  13.537  69.622  1.00  0.00    -0.340 A  
HETATM   12  C   UNL     1     -12.106  10.920  70.495  1.00  0.00    -0.464 A  
BRANCH  12  13
HETATM   13  C   UNL     1     -12.352   9.447  70.910  1.00  0.00    -0.263 C  
HETATM   14  C   UNL     1     -11.630   8.467  69.956  1.00  0.00     0.182 C  
HETATM   15  C   UNL     1     -13.863   9.139  70.955  1.00  0.00     0.105 C  
HETATM   16  C   UNL     1     -11.801   9.100  72.324  1.00  0.00    -0.235 C  
ENDBRANCH  12  13
BRANCH  10  17
HETATM   17  C   UNL     1     -12.823  14.638  71.579  1.00  0.00    -0.404 C  
HETATM   18  C   UNL     1     -12.577  15.923  70.760  1.00  0.00    -0.268 C  
HETATM   19  C   UNL     1     -14.349  14.640  71.895  1.00  0.00    -0.656 C  
HETATM   20  C   UNL     1     -12.116  14.728  72.947  1.00  0.00    -0.288 C  
ENDBRANCH  10  17
ENDBRANCH   4   5
ENDBRANCH   2   4
BRANCH   2  21
HETATM   21  S   UNL     1     -10.265  14.673  65.062  1.00  0.00    -0.271 SA 
BRANCH  21  22
HETATM   22  C   UNL     1      -9.253  15.671  66.152  1.00  0.00    -0.343 A  
HETATM   23  C   UNL     1      -8.245  15.154  66.969  1.00  0.00    -0.262 A  
HETATM   24  C   UNL     1      -9.601  17.005  66.299  1.00  0.00    -0.289 A  
HETATM   25  H   UNL     1      -6.690  17.599  69.579  1.00  0.00     0.000 HD 
HETATM   26  O   UNL     1      -7.366  17.990  69.038  1.00  0.00    -0.262 OA 
HETATM   27  C   UNL     1      -8.985  17.851  67.240  1.00  0.00    -0.250 A  
HETATM   28  C   UNL     1      -7.567  15.918  67.928  1.00  0.00    -0.145 A  
HETATM   29  C   UNL     1      -7.971  17.265  68.052  1.00  0.00    -0.215 A  
BRANCH  27  30
HETATM   30  C   UNL     1      -9.491  19.310  67.375  1.00  0.00    -0.376 C  
HETATM   31  C   UNL     1     -10.527  19.706  66.281  1.00  0.00    -0.621 C  
HETATM   32  C   UNL     1     -10.206  19.505  68.727  1.00  0.00    -0.442 C  
HETATM   33  C   UNL     1      -8.341  20.328  67.218  1.00  0.00    -0.404 C  
ENDBRANCH  27  30
BRANCH  28  34
HETATM   34  C   UNL     1      -6.423  15.277  68.765  1.00  0.00    -0.097 C  
HETATM   35  C   UNL     1      -6.003  13.855  68.285  1.00  0.00    -0.117 C  
HETATM   36  C   UNL     1      -6.820  15.109  70.248  1.00  0.00     0.048 C  
HETATM   37  C   UNL     1      -5.151  16.144  68.658  1.00  0.00    -0.097 C  
ENDBRANCH  28  34
ENDBRANCH  21  22
ENDBRANCH   2  21
TORSDOF 8
ENDMDL
MODEL       15
REMARK 921   NORMALIZED FREE ENERGY PREDICTED BY IDOCK:   -5.90 KCAL/MOL
REMARK 922        TOTAL FREE ENERGY PREDICTED BY IDOCK:   -9.26 KCAL/MOL
REMARK 923 INTER-LIGAND FREE ENERGY PREDICTED BY IDOCK:  -10.22 KCAL/MOL
REMARK 924 INTRA-LIGAND FREE ENERGY PREDICTED BY IDOCK:    0.96 KCAL/MOL
REMARK 927      BINDING AFFINITY PREDICTED BY RF-SCORE:    0.00 PKD
ROOT
HETATM    1  C   UNL     1     -12.234  14.175  67.184  1.00  0.00    -0.348 C  
HETATM    2  C   UNL     1     -11.379  13.325  66.226  1.00  0.00    -0.309 C  
HETATM    3  C   UNL     1     -12.311  12.355  65.482  1.00  0.00    -0.250 C  
ENDROOT
BRANCH   2   4
HETATM    4  S   UNL     1     -10.186  12.331  67.224  1.00  0.00    -0.211 SA 
BRANCH   4   5
HETATM    5  C   UNL     1     -10.993  12.103  68.805  1.00  0.00    -0.232 A  
HETATM    6  C   UNL     1     -12.512  11.784  71.133  1.00  0.00    -0.285 A  
HETATM    7  O   UNL     1     -13.307  11.557  72.220  1.00  0.00    -0.624 OA 
HETATM    8  H   UNL     1     -13.462  10.678  72.545  1.00  0.00     0.000 HD 
HETATM    9  C   UNL     1     -11.528  13.211  69.453  1.00  0.00    -0.321 A  
HETATM   10  C   UNL     1     -11.989  10.632  70.508  1.00  0.00    -0.446 A  
HETATM   11  C   UNL     1     -11.217  10.850  69.364  1.00  0.00    -0.335 A  
HETATM   12  C   UNL     1     -12.278  13.103  70.646  1.00  0.00    -0.402 A  
BRANCH  12  13
HETATM   13  C   UNL     1     -12.820  14.393  71.313  1.00  0.00    -0.412 C  
HETATM   14  C   UNL     1     -12.438  15.649  70.496  1.00  0.00    -0.440 C  
HETATM   15  C   UNL     1     -12.304  14.515  72.761  1.00  0.00    -0.255 C  
HETATM   16  C   UNL     1     -14.373  14.438  71.405  1.00  0.00    -0.339 C  
ENDBRANCH  12  13
BRANCH  10  17
HETATM   17  C   UNL     1     -12.208   9.182  71.015  1.00  0.00    -0.302 C  
HETATM   18  C   UNL     1     -13.706   8.888  71.242  1.00  0.00    -0.235 C  
HETATM   19  C   UNL     1     -11.720   8.078  70.029  1.00  0.00     0.278 C  
HETATM   20  C   UNL     1     -11.413   8.957  72.316  1.00  0.00    -0.307 C  
ENDBRANCH  10  17
ENDBRANCH   4   5
ENDBRANCH   2   4
BRANCH   2  21
HETATM   21  S   UNL     1     -10.624  14.459  64.981  1.00  0.00    -0.438 SA 
BRANCH  21  22
HETATM   22  C   UNL     1      -9.528  15.516  65.927  1.00  0.00    -0.342 A  
HETATM   23  C   UNL     1      -8.442  15.047  66.669  1.00  0.00    -0.192 A  
HETATM   24  C   UNL     1      -9.880  16.851  66.047  1.00  0.00    -0.281 A  
HETATM   25  H   UNL     1      -6.686  17.623  69.011  1.00  0.00     0.000 HD 
HETATM   26  O   UNL     1      -7.415  17.982  68.519  1.00  0.00    -0.261 OA 
HETATM   27  C   UNL     1      -9.192  17.746  66.887  1.00  0.00    -0.263 A  
HETATM   28  C   UNL     1      -7.689  15.860  67.526  1.00  0.00    -0.183 A  
HETATM   29  C   UNL     1      -8.099  17.206  67.627  1.00  0.00    -0.179 A  
BRANCH  27  30
HETATM   30  C   UNL     1      -9.704  19.204  67.004  1.00  0.00    -0.389 C  
HETATM   31  C   UNL     1      -8.580  20.267  66.825  1.00  0.00    -0.334 C  
HETATM   32  C   UNL     1     -10.743  19.495  65.902  1.00  0.00    -0.518 C  
HETATM   33  C   UNL     1     -10.300  19.488  68.399  1.00  0.00    -0.486 C  
ENDBRANCH  27  30
BRANCH  28  34
HETATM   34  C   UNL     1      -6.463  15.269  68.280  1.00  0.00    -0.115 C  
HETATM   35  C   UNL     1      -6.628  15.226  69.829  1.00  0.00    -0.177 C  
HETATM   36  C   UNL     1      -5.181  16.091  68.025  1.00  0.00    -0.127 C  
HETATM   37  C   UNL     1      -6.242  13.804  67.845  1.00  0.00    -0.160 C  
ENDBRANCH  28  34
ENDBRANCH  21  22
ENDBRANCH   2  21
TORSDOF 8
ENDMDL
MODEL       16
REMARK 921   NORMALIZED FREE ENERGY PREDICTED BY IDOCK:   -5.89 KCAL/MOL
REMARK 922        TOTAL FREE ENERGY PREDICTED BY IDOCK:   -9.24 KCAL/MOL
REMARK 923 INTER-LIGAND FREE ENERGY PREDICTED BY IDOCK:   -9.65 KCAL/MOL
REMARK 924 INTRA-LIGAND FREE ENERGY PREDICTED BY IDOCK:    0.41 KCAL/MOL
REMARK 927      BINDING AFFINITY PREDICTED BY RF-SCORE:    0.00 PKD
ROOT
HETATM    1  C   UNL     1     -10.059   9.816  65.990  1.00  0.00    -0.322 C  
HETATM    2  C   UNL     1      -9.936  11.151  66.747  1.00  0.00    -0.208 C  
HETATM    3  C   UNL     1      -9.312  12.187  65.797  1.00  0.00    -0.091 C  
ENDROOT
BRANCH   2   4
HETATM    4  S   UNL     1      -8.793  10.915  68.178  1.00  0.00    -0.143 SA 
BRANCH   4   5
HETATM    5  C   UNL     1      -9.264   9.339  68.882  1.00  0.00    -0.143 A  
HETATM    6  C   UNL     1     -10.256   6.902  69.833  1.00  0.00    -0.199 A  
HETATM    7  O   UNL     1     -10.757   5.685  70.199  1.00  0.00    -0.296 OA 
HETATM    8  H   UNL     1     -10.447   4.881  69.799  1.00  0.00     0.000 HD 
HETATM    9  C   UNL     1     -10.212   9.314  69.901  1.00  0.00    -0.235 A  
HETATM   10  C   UNL     1      -9.298   6.880  68.797  1.00  0.00    -0.129 A  
HETATM   11  C   UNL     1      -8.817   8.123  68.378  1.00  0.00    -0.133 A  
HETATM   12  C   UNL     1     -10.721   8.107  70.433  1.00  0.00    -0.234 A  
BRANCH  12  13
HETATM   13  C   UNL     1     -11.759   8.172  71.582  1.00  0.00    -0.330 C  
HETATM   14  C   UNL     1     -12.957   7.234  71.309  1.00  0.00    -0.377 C  
HETATM   15  C   UNL     1     -12.247   9.620  71.794  1.00  0.00    -0.464 C  
HETATM   16  C   UNL     1     -11.194   7.704  72.955  1.00  0.00    -0.426 C  
ENDBRANCH  12  13
BRANCH  10  17
HETATM   17  C   UNL     1      -8.756   5.589  68.129  1.00  0.00    -0.102 C  
HETATM   18  C   UNL     1      -9.823   4.935  67.226  1.00  0.00    -0.214 C  
HETATM   19  C   UNL     1      -7.521   5.816  67.205  1.00  0.00    -0.081 C  
HETATM   20  C   UNL     1      -8.287   4.597  69.212  1.00  0.00    -0.084 C  
ENDBRANCH  10  17
ENDBRANCH   4   5
ENDBRANCH   2   4
BRANCH   2  21
HETATM   21  S   UNL     1     -11.638  11.721  67.175  1.00  0.00    -0.195 SA 
BRANCH  21  22
HETATM   22  C   UNL     1     -11.393  13.134  68.249  1.00  0.00    -0.297 A  
HETATM   23  C   UNL     1     -12.051  13.308  69.469  1.00  0.00    -0.315 A  
HETATM   24  C   UNL     1     -10.623  14.178  67.761  1.00  0.00    -0.243 A  
HETATM   25  H   UNL     1     -11.638  16.781  71.193  1.00  0.00     0.000 HD 
HETATM   26  O   UNL     1     -11.170  16.700  70.370  1.00  0.00    -0.260 OA 
HETATM   27  C   UNL     1     -10.485  15.402  68.441  1.00  0.00    -0.239 A  
HETATM   28  C   UNL     1     -11.969  14.486  70.224  1.00  0.00    -0.379 A  
HETATM   29  C   UNL     1     -11.188  15.525  69.675  1.00  0.00    -0.300 A  
BRANCH  27  30
HETATM   30  C   UNL     1      -9.656  16.533  67.780  1.00  0.00    -0.232 C  
HETATM   31  C   UNL     1      -8.400  16.939  68.607  1.00  0.00    -0.261 C  
HETATM   32  C   UNL     1      -9.130  16.077  66.404  1.00  0.00    -0.354 C  
HETATM   33  C   UNL     1     -10.477  17.834  67.642  1.00  0.00    -0.393 C  
ENDBRANCH  27  30
BRANCH  28  34
HETATM   34  C   UNL     1     -12.696  14.580  71.596  1.00  0.00    -0.414 C  
HETATM   35  C   UNL     1     -13.217  13.214  72.136  1.00  0.00    -0.561 C  
HETATM   36  C   UNL     1     -13.939  15.494  71.527  1.00  0.00    -0.526 C  
HETATM   37  C   UNL     1     -11.717  15.105  72.668  1.00  0.00    -0.465 C  
ENDBRANCH  28  34
ENDBRANCH  21  22
ENDBRANCH   2  21
TORSDOF 8
ENDMDL
MODEL       17
REMARK 921   NORMALIZED FREE ENERGY PREDICTED BY IDOCK:   -5.85 KCAL/MOL
REMARK 922        TOTAL FREE ENERGY PREDICTED BY IDOCK:   -9.19 KCAL/MOL
REMARK 923 INTER-LIGAND FREE ENERGY PREDICTED BY IDOCK:   -9.33 KCAL/MOL
REMARK 924 INTRA-LIGAND FREE ENERGY PREDICTED BY IDOCK:    0.14 KCAL/MOL
REMARK 927      BINDING AFFINITY PREDICTED BY RF-SCORE:    0.00 PKD
ROOT
HETATM    1  C   UNL     1      -9.924   9.684  66.434  1.00  0.00    -0.323 C  
HETATM    2  C   UNL     1      -9.962  11.123  66.980  1.00  0.00    -0.192 C  
HETATM    3  C   UNL     1      -9.475  12.071  65.873  1.00  0.00    -0.207 C  
ENDROOT
BRANCH   2   4
HETATM    4  S   UNL     1      -8.793  11.245  68.404  1.00  0.00    -0.160 SA 
BRANCH   4   5
HETATM    5  C   UNL     1      -8.970   9.690  69.273  1.00  0.00    -0.172 A  
HETATM    6  C   UNL     1      -9.464   7.196  70.439  1.00  0.00    -0.162 A  
HETATM    7  O   UNL     1      -9.694   5.937  70.916  1.00  0.00    -0.167 OA 
HETATM    8  H   UNL     1      -9.110   5.215  70.711  1.00  0.00     0.000 HD 
HETATM    9  C   UNL     1     -10.064   9.510  70.112  1.00  0.00    -0.293 A  
HETATM   10  C   UNL     1      -8.343   7.333  69.593  1.00  0.00    -0.132 A  
HETATM   11  C   UNL     1      -8.128   8.605  69.058  1.00  0.00    -0.121 A  
HETATM   12  C   UNL     1     -10.339   8.277  70.747  1.00  0.00    -0.221 A  
BRANCH  12  13
HETATM   13  C   UNL     1     -11.569   8.172  71.683  1.00  0.00    -0.325 C  
HETATM   14  C   UNL     1     -12.273   9.539  71.842  1.00  0.00    -0.432 C  
HETATM   15  C   UNL     1     -11.157   7.616  73.062  1.00  0.00    -0.437 C  
HETATM   16  C   UNL     1     -12.675   7.216  71.149  1.00  0.00    -0.363 C  
ENDBRANCH  12  13
BRANCH  10  17
HETATM   17  C   UNL     1      -7.358   6.184  69.246  1.00  0.00    -0.088 C  
HETATM   18  C   UNL     1      -6.811   5.512  70.523  1.00  0.00    -0.049 C  
HETATM   19  C   UNL     1      -7.990   5.028  68.414  1.00  0.00    -0.086 C  
HETATM   20  C   UNL     1      -6.200   6.729  68.387  1.00  0.00    -0.030 C  
ENDBRANCH  10  17
ENDBRANCH   4   5
ENDBRANCH   2   4
BRANCH   2  21
HETATM   21  S   UNL     1     -11.719  11.541  67.357  1.00  0.00    -0.034 SA 
BRANCH  21  22
HETATM   22  C   UNL     1     -11.652  13.160  68.123  1.00  0.00    -0.339 A  
HETATM   23  C   UNL     1     -10.897  14.225  67.628  1.00  0.00    -0.273 A  
HETATM   24  C   UNL     1     -12.264  13.304  69.359  1.00  0.00    -0.210 A  
HETATM   25  H   UNL     1     -10.605  17.368  69.917  1.00  0.00     0.000 HD 
HETATM   26  O   UNL     1     -11.131  16.669  70.286  1.00  0.00    -0.297 OA 
HETATM   27  C   UNL     1     -12.148  14.474  70.132  1.00  0.00    -0.394 A  
HETATM   28  C   UNL     1     -10.730  15.433  68.318  1.00  0.00    -0.260 A  
HETATM   29  C   UNL     1     -11.357  15.523  69.579  1.00  0.00    -0.313 A  
BRANCH  27  30
HETATM   30  C   UNL     1     -12.813  14.513  71.531  1.00  0.00    -0.407 C  
HETATM   31  C   UNL     1     -13.323  13.121  72.009  1.00  0.00    -0.587 C  
HETATM   32  C   UNL     1     -11.798  14.982  72.593  1.00  0.00    -0.403 C  
HETATM   33  C   UNL     1     -14.064  15.418  71.541  1.00  0.00    -0.596 C  
ENDBRANCH  27  30
BRANCH  28  34
HETATM   34  C   UNL     1      -9.912  16.589  67.672  1.00  0.00    -0.254 C  
HETATM   35  C   UNL     1     -10.645  17.964  67.668  1.00  0.00    -0.398 C  
HETATM   36  C   UNL     1      -9.576  16.298  66.193  1.00  0.00    -0.362 C  
HETATM   37  C   UNL     1      -8.610  16.814  68.472  1.00  0.00    -0.245 C  
ENDBRANCH  28  34
ENDBRANCH  21  22
ENDBRANCH   2  21
TORSDOF 8
ENDMDL
MODEL       18
REMARK 921   NORMALIZED FREE ENERGY PREDICTED BY IDOCK:   -5.83 KCAL/MOL
REMARK 922        TOTAL FREE ENERGY PREDICTED BY IDOCK:   -9.16 KCAL/MOL
REMARK 923 INTER-LIGAND FREE ENERGY PREDICTED BY IDOCK:   -9.61 KCAL/MOL
REMARK 924 INTRA-LIGAND FREE ENERGY PREDICTED BY IDOCK:    0.45 KCAL/MOL
REMARK 927      BINDING AFFINITY PREDICTED BY RF-SCORE:    0.00 PKD
ROOT
HETATM    1  C   UNL     1      -9.430  12.441  66.013  1.00  0.00    -0.168 C  
HETATM    2  C   UNL     1      -9.999  11.358  66.948  1.00  0.00    -0.206 C  
HETATM    3  C   UNL     1      -9.945  10.010  66.213  1.00  0.00    -0.310 C  
ENDROOT
BRANCH   2   4
HETATM    4  S   UNL     1     -11.767  11.754  67.304  1.00  0.00    -0.121 SA 
BRANCH   4   5
HETATM    5  C   UNL     1     -11.721  13.338  68.136  1.00  0.00    -0.362 A  
HETATM    6  C   UNL     1     -11.428  15.703  69.602  1.00  0.00    -0.340 A  
HETATM    7  O   UNL     1     -11.185  16.855  70.293  1.00  0.00    -0.423 OA 
HETATM    8  H   UNL     1     -10.710  17.578  69.900  1.00  0.00     0.000 HD 
HETATM    9  C   UNL     1     -12.239  13.437  69.423  1.00  0.00    -0.246 A  
HETATM   10  C   UNL     1     -10.884  15.646  68.301  1.00  0.00    -0.298 A  
HETATM   11  C   UNL     1     -11.082  14.452  67.603  1.00  0.00    -0.311 A  
HETATM   12  C   UNL     1     -12.141  14.619  70.191  1.00  0.00    -0.385 A  
BRANCH  12  13
HETATM   13  C   UNL     1     -12.766  14.648  71.608  1.00  0.00    -0.399 C  
HETATM   14  C   UNL     1     -14.078  15.465  71.627  1.00  0.00    -0.618 C  
HETATM   15  C   UNL     1     -11.764  15.217  72.634  1.00  0.00    -0.465 C  
HETATM   16  C   UNL     1     -13.169  13.241  72.138  1.00  0.00    -0.562 C  
ENDBRANCH  12  13
BRANCH  10  17
HETATM   17  C   UNL     1     -10.115  16.809  67.619  1.00  0.00    -0.275 C  
HETATM   18  C   UNL     1      -8.745  17.043  68.289  1.00  0.00    -0.241 C  
HETATM   19  C   UNL     1      -9.798  16.570  66.112  1.00  0.00    -0.355 C  
HETATM   20  C   UNL     1     -10.963  18.095  67.665  1.00  0.00    -0.118 C  
ENDBRANCH  10  17
ENDBRANCH   4   5
ENDBRANCH   2   4
BRANCH   2  21
HETATM   21  S   UNL     1      -8.897  11.247  68.424  1.00  0.00    -0.160 SA 
BRANCH  21  22
HETATM   22  C   UNL     1      -9.175   9.604  69.083  1.00  0.00    -0.168 A  
HETATM   23  C   UNL     1      -8.563   8.452  68.585  1.00  0.00    -0.132 A  
HETATM   24  C   UNL     1     -10.170   9.462  70.037  1.00  0.00    -0.262 A  
HETATM   25  H   UNL     1      -9.887   5.046  69.947  1.00  0.00     0.000 HD 
HETATM   26  O   UNL     1     -10.323   5.806  70.315  1.00  0.00    -0.212 OA 
HETATM   27  C   UNL     1     -10.590   8.207  70.515  1.00  0.00    -0.228 A  
HETATM   28  C   UNL     1      -8.905   7.159  69.004  1.00  0.00    -0.131 A  
HETATM   29  C   UNL     1      -9.936   7.067  69.962  1.00  0.00    -0.181 A  
BRANCH  27  30
HETATM   30  C   UNL     1     -11.757   8.148  71.533  1.00  0.00    -0.325 C  
HETATM   31  C   UNL     1     -12.877   7.145  71.128  1.00  0.00    -0.340 C  
HETATM   32  C   UNL     1     -11.244   7.679  72.909  1.00  0.00    -0.426 C  
HETATM   33  C   UNL     1     -12.472   9.511  71.658  1.00  0.00    -0.476 C  
ENDBRANCH  27  30
BRANCH  28  34
HETATM   34  C   UNL     1      -8.140   5.931  68.433  1.00  0.00    -0.109 C  
HETATM   35  C   UNL     1      -7.495   5.020  69.520  1.00  0.00    -0.057 C  
HETATM   36  C   UNL     1      -6.976   6.356  67.511  1.00  0.00    -0.078 C  
HETATM   37  C   UNL     1      -9.119   5.023  67.657  1.00  0.00    -0.121 C  
ENDBRANCH  28  34
ENDBRANCH  21  22
ENDBRANCH   2  21
TORSDOF 8
ENDMDL
MODEL       19
REMARK 921   NORMALIZED FREE ENERGY PREDICTED BY IDOCK:   -5.79 KCAL/MOL
REMARK 922        TOTAL FREE ENERGY PREDICTED BY IDOCK:   -9.10 KCAL/MOL
REMARK 923 INTER-LIGAND FREE ENERGY PREDICTED BY IDOCK:   -9.49 KCAL/MOL
REMARK 924 INTRA-LIGAND FREE ENERGY PREDICTED BY IDOCK:    0.40 KCAL/MOL
REMARK 927      BINDING AFFINITY PREDICTED BY RF-SCORE:    0.00 PKD
ROOT
HETATM    1  C   UNL     1      -8.749  11.833  66.391  1.00  0.00    -0.147 C  
HETATM    2  C   UNL     1      -9.659  10.907  67.218  1.00  0.00    -0.164 C  
HETATM    3  C   UNL     1      -9.136  10.883  68.664  1.00  0.00    -0.175 C  
ENDROOT
BRANCH   2   4
HETATM    4  S   UNL     1      -9.541   9.197  66.532  1.00  0.00    -0.249 SA 
BRANCH   4   5
HETATM    5  C   UNL     1      -9.833   8.122  67.933  1.00  0.00    -0.169 A  
HETATM    6  C   UNL     1     -10.034   6.546  70.236  1.00  0.00    -0.174 A  
HETATM    7  O   UNL     1     -10.120   5.862  71.415  1.00  0.00    -0.187 OA 
HETATM    8  H   UNL     1     -10.699   6.147  72.112  1.00  0.00     0.000 HD 
HETATM    9  C   UNL     1      -9.078   6.961  68.059  1.00  0.00    -0.120 A  
HETATM   10  C   UNL     1     -10.817   7.717  70.152  1.00  0.00    -0.255 A  
HETATM   11  C   UNL     1     -10.698   8.452  68.970  1.00  0.00    -0.101 A  
HETATM   12  C   UNL     1      -9.166   6.118  69.190  1.00  0.00    -0.129 A  
BRANCH  12  13
HETATM   13  C   UNL     1      -8.304   4.832  69.237  1.00  0.00    -0.083 C  
HETATM   14  C   UNL     1      -7.553   4.610  67.904  1.00  0.00    -0.078 C  
HETATM   15  C   UNL     1      -9.175   3.604  69.575  1.00  0.00    -0.225 C  
HETATM   16  C   UNL     1      -7.185   4.874  70.319  1.00  0.00    -0.050 C  
ENDBRANCH  12  13
BRANCH  10  17
HETATM   17  C   UNL     1     -11.785   8.208  71.261  1.00  0.00    -0.310 C  
HETATM   18  C   UNL     1     -13.029   7.300  71.361  1.00  0.00    -0.420 C  
HETATM   19  C   UNL     1     -11.167   8.216  72.692  1.00  0.00    -0.447 C  
HETATM   20  C   UNL     1     -12.204   9.665  70.982  1.00  0.00    -0.409 C  
ENDBRANCH  10  17
ENDBRANCH   4   5
ENDBRANCH   2   4
BRANCH   2  21
HETATM   21  S   UNL     1     -11.352  11.641  67.236  1.00  0.00    -0.286 SA 
BRANCH  21  22
HETATM   22  C   UNL     1     -11.216  13.084  68.290  1.00  0.00    -0.275 A  
HETATM   23  C   UNL     1     -11.907  13.237  69.493  1.00  0.00    -0.388 A  
HETATM   24  C   UNL     1     -10.503  14.166  67.797  1.00  0.00    -0.246 A  
HETATM   25  H   UNL     1     -11.743  16.758  71.163  1.00  0.00     0.000 HD 
HETATM   26  O   UNL     1     -11.255  16.692  70.350  1.00  0.00    -0.260 OA 
HETATM   27  C   UNL     1     -10.454  15.408  68.457  1.00  0.00    -0.234 A  
HETATM   28  C   UNL     1     -11.913  14.430  70.228  1.00  0.00    -0.388 A  
HETATM   29  C   UNL     1     -11.188  15.507  69.675  1.00  0.00    -0.300 A  
BRANCH  27  30
HETATM   30  C   UNL     1      -9.685  16.577  67.791  1.00  0.00    -0.235 C  
HETATM   31  C   UNL     1      -8.494  17.098  68.650  1.00  0.00    -0.258 C  
HETATM   32  C   UNL     1      -9.075  16.121  66.450  1.00  0.00    -0.339 C  
HETATM   33  C   UNL     1     -10.592  17.809  67.582  1.00  0.00    -0.385 C  
ENDBRANCH  27  30
BRANCH  28  34
HETATM   34  C   UNL     1     -12.670  14.502  71.586  1.00  0.00    -0.414 C  
HETATM   35  C   UNL     1     -13.984  15.337  71.539  1.00  0.00    -0.627 C  
HETATM   36  C   UNL     1     -11.809  15.153  72.690  1.00  0.00    -0.484 C  
HETATM   37  C   UNL     1     -13.095  13.082  72.020  1.00  0.00    -0.481 C  
ENDBRANCH  28  34
ENDBRANCH  21  22
ENDBRANCH   2  21
TORSDOF 8
ENDMDL
MODEL       20
REMARK 921   NORMALIZED FREE ENERGY PREDICTED BY IDOCK:   -5.77 KCAL/MOL
REMARK 922        TOTAL FREE ENERGY PREDICTED BY IDOCK:   -9.07 KCAL/MOL
REMARK 923 INTER-LIGAND FREE ENERGY PREDICTED BY IDOCK:  -10.24 KCAL/MOL
REMARK 924 INTRA-LIGAND FREE ENERGY PREDICTED BY IDOCK:    1.17 KCAL/MOL
REMARK 927      BINDING AFFINITY PREDICTED BY RF-SCORE:    0.00 PKD
ROOT
HETATM    1  C   UNL     1     -12.327  14.176  67.226  1.00  0.00    -0.182 C  
HETATM    2  C   UNL     1     -11.572  13.355  66.166  1.00  0.00    -0.346 C  
HETATM    3  C   UNL     1     -12.607  12.593  65.321  1.00  0.00    -0.388 C  
ENDROOT
BRANCH   2   4
HETATM    4  S   UNL     1     -10.504  12.119  67.026  1.00  0.00    -0.224 SA 
BRANCH   4   5
HETATM    5  C   UNL     1     -11.190  11.992  68.675  1.00  0.00    -0.258 A  
HETATM    6  C   UNL     1     -12.529  11.843  71.126  1.00  0.00    -0.261 A  
HETATM    7  O   UNL     1     -13.244  11.700  72.281  1.00  0.00    -0.581 OA 
HETATM    8  H   UNL     1     -13.423  10.843  72.650  1.00  0.00     0.000 HD 
HETATM    9  C   UNL     1     -11.606  13.152  69.321  1.00  0.00    -0.370 A  
HETATM   10  C   UNL     1     -12.128  10.641  70.505  1.00  0.00    -0.448 A  
HETATM   11  C   UNL     1     -11.440  10.774  69.296  1.00  0.00    -0.369 A  
HETATM   12  C   UNL     1     -12.260  13.128  70.574  1.00  0.00    -0.405 A  
BRANCH  12  13
HETATM   13  C   UNL     1     -12.669  14.470  71.233  1.00  0.00    -0.413 C  
HETATM   14  C   UNL     1     -14.200  14.557  71.425  1.00  0.00    -0.416 C  
HETATM   15  C   UNL     1     -12.163  15.664  70.396  1.00  0.00    -0.429 C  
HETATM   16  C   UNL     1     -12.079  14.666  72.660  1.00  0.00    -0.220 C  
ENDBRANCH  12  13
BRANCH  10  17
HETATM   17  C   UNL     1     -12.388   9.224  71.082  1.00  0.00    -0.363 C  
HETATM   18  C   UNL     1     -13.870   9.044  71.475  1.00  0.00    -0.367 C  
HETATM   19  C   UNL     1     -12.083   8.063  70.089  1.00  0.00     0.527 C  
HETATM   20  C   UNL     1     -11.475   8.980  72.300  1.00  0.00    -0.222 C  
ENDBRANCH  10  17
ENDBRANCH   4   5
ENDBRANCH   2   4
BRANCH   2  21
HETATM   21  S   UNL     1     -10.688  14.535  65.056  1.00  0.00    -0.439 SA 
BRANCH  21  22
HETATM   22  C   UNL     1      -9.831  15.653  66.164  1.00  0.00    -0.314 A  
HETATM   23  C   UNL     1     -10.050  17.032  66.201  1.00  0.00    -0.332 A  
HETATM   24  C   UNL     1      -8.787  15.131  66.912  1.00  0.00    -0.284 A  
HETATM   25  H   UNL     1      -7.572  19.133  68.357  1.00  0.00     0.000 HD 
HETATM   26  O   UNL     1      -7.394  18.200  68.364  1.00  0.00    -0.251 OA 
HETATM   27  C   UNL     1      -7.940  15.934  67.697  1.00  0.00    -0.163 A  
HETATM   28  C   UNL     1      -9.267  17.913  66.958  1.00  0.00    -0.260 A  
HETATM   29  C   UNL     1      -8.206  17.335  67.687  1.00  0.00    -0.193 A  
BRANCH  27  30
HETATM   30  C   UNL     1      -6.758  15.265  68.444  1.00  0.00    -0.113 C  
HETATM   31  C   UNL     1      -6.849  13.710  68.470  1.00  0.00    -0.098 C  
HETATM   32  C   UNL     1      -5.425  15.601  67.746  1.00  0.00    -0.141 C  
HETATM   33  C   UNL     1      -6.713  15.684  69.929  1.00  0.00    -0.096 C  
ENDBRANCH  27  30
BRANCH  28  34
HETATM   34  C   UNL     1      -9.608  19.430  66.981  1.00  0.00    -0.412 C  
HETATM   35  C   UNL     1     -10.658  19.864  65.915  1.00  0.00    -0.523 C  
HETATM   36  C   UNL     1      -8.363  20.303  66.709  1.00  0.00    -0.317 C  
HETATM   37  C   UNL     1     -10.223  19.805  68.347  1.00  0.00    -0.568 C  
ENDBRANCH  28  34
ENDBRANCH  21  22
ENDBRANCH   2  21
TORSDOF 8
ENDMDL
MODEL       21
REMARK 921   NORMALIZED FREE ENERGY PREDICTED BY IDOCK:   -5.75 KCAL/MOL
REMARK 922        TOTAL FREE ENERGY PREDICTED BY IDOCK:   -9.04 KCAL/MOL
REMARK 923 INTER-LIGAND FREE ENERGY PREDICTED BY IDOCK:   -9.20 KCAL/MOL
REMARK 924 INTRA-LIGAND FREE ENERGY PREDICTED BY IDOCK:    0.16 KCAL/MOL
REMARK 927      BINDING AFFINITY PREDICTED BY RF-SCORE:    0.00 PKD
ROOT
HETATM    1  C   UNL     1     -10.497  10.123  66.236  1.00  0.00    -0.192 C  
HETATM    2  C   UNL     1     -10.267  11.602  66.593  1.00  0.00    -0.216 C  
HETATM    3  C   UNL     1      -9.306  12.204  65.555  1.00  0.00     0.007 C  
ENDROOT
BRANCH   2   4
HETATM    4  S   UNL     1      -9.457  11.690  68.250  1.00  0.00    -0.192 SA 
BRANCH   4   5
HETATM    5  C   UNL     1      -9.597  10.034  68.915  1.00  0.00    -0.181 A  
HETATM    6  C   UNL     1      -9.592   7.516  70.134  1.00  0.00    -0.168 A  
HETATM    7  O   UNL     1      -9.596   6.335  70.820  1.00  0.00    -0.174 OA 
HETATM    8  H   UNL     1     -10.250   6.150  71.484  1.00  0.00     0.000 HD 
HETATM    9  C   UNL     1      -8.637   9.088  68.571  1.00  0.00    -0.129 A  
HETATM   10  C   UNL     1     -10.583   8.446  70.515  1.00  0.00    -0.236 A  
HETATM   11  C   UNL     1     -10.556   9.677  69.857  1.00  0.00    -0.281 A  
HETATM   12  C   UNL     1      -8.611   7.794  69.139  1.00  0.00    -0.138 A  
BRANCH  12  13
HETATM   13  C   UNL     1      -7.518   6.795  68.681  1.00  0.00    -0.099 C  
HETATM   14  C   UNL     1      -8.143   5.488  68.142  1.00  0.00    -0.096 C  
HETATM   15  C   UNL     1      -6.543   6.488  69.837  1.00  0.00    -0.048 C  
HETATM   16  C   UNL     1      -6.642   7.328  67.511  1.00  0.00    -0.057 C  
ENDBRANCH  12  13
BRANCH  10  17
HETATM   17  C   UNL     1     -11.676   8.177  71.583  1.00  0.00    -0.330 C  
HETATM   18  C   UNL     1     -11.052   7.739  72.925  1.00  0.00    -0.457 C  
HETATM   19  C   UNL     1     -12.556   9.417  71.926  1.00  0.00    -0.481 C  
HETATM   20  C   UNL     1     -12.656   7.103  71.069  1.00  0.00    -0.335 C  
ENDBRANCH  10  17
ENDBRANCH   4   5
ENDBRANCH   2   4
BRANCH   2  21
HETATM   21  S   UNL     1     -11.884  12.480  66.451  1.00  0.00    -0.322 SA 
BRANCH  21  22
HETATM   22  C   UNL     1     -11.715  13.926  67.496  1.00  0.00    -0.380 A  
HETATM   23  C   UNL     1     -10.977  15.058  67.146  1.00  0.00    -0.329 A  
HETATM   24  C   UNL     1     -12.221  13.841  68.784  1.00  0.00    -0.221 A  
HETATM   25  H   UNL     1     -10.424  17.715  69.946  1.00  0.00     0.000 HD 
HETATM   26  O   UNL     1     -10.936  16.964  70.221  1.00  0.00    -0.133 OA 
HETATM   27  C   UNL     1     -12.015  14.846  69.748  1.00  0.00    -0.366 A  
HETATM   28  C   UNL     1     -10.725  16.114  68.031  1.00  0.00    -0.321 A  
HETATM   29  C   UNL     1     -11.246  15.972  69.335  1.00  0.00    -0.349 A  
BRANCH  27  30
HETATM   30  C   UNL     1     -12.564  14.628  71.181  1.00  0.00    -0.404 C  
HETATM   31  C   UNL     1     -11.611  15.159  72.292  1.00  0.00    -0.473 C  
HETATM   32  C   UNL     1     -13.894  15.386  71.364  1.00  0.00    -0.577 C  
HETATM   33  C   UNL     1     -12.748  13.129  71.499  1.00  0.00    -0.366 C  
ENDBRANCH  27  30
BRANCH  28  34
HETATM   34  C   UNL     1      -9.934  17.363  67.545  1.00  0.00    -0.298 C  
HETATM   35  C   UNL     1      -8.586  17.593  68.293  1.00  0.00    -0.268 C  
HETATM   36  C   UNL     1     -10.740  18.666  67.740  1.00  0.00    -0.394 C  
HETATM   37  C   UNL     1      -9.560  17.195  66.056  1.00  0.00    -0.190 C  
ENDBRANCH  28  34
ENDBRANCH  21  22
ENDBRANCH   2  21
TORSDOF 8
ENDMDL
MODEL       22
REMARK 921   NORMALIZED FREE ENERGY PREDICTED BY IDOCK:   -5.66 KCAL/MOL
REMARK 922        TOTAL FREE ENERGY PREDICTED BY IDOCK:   -8.91 KCAL/MOL
REMARK 923 INTER-LIGAND FREE ENERGY PREDICTED BY IDOCK:  -10.21 KCAL/MOL
REMARK 924 INTRA-LIGAND FREE ENERGY PREDICTED BY IDOCK:    1.30 KCAL/MOL
REMARK 927      BINDING AFFINITY PREDICTED BY RF-SCORE:    0.00 PKD
ROOT
HETATM    1  C   UNL     1     -13.387   9.918  71.206  1.00  0.00    -0.419 C  
HETATM    2  C   UNL     1     -12.229   8.904  71.181  1.00  0.00    -0.255 C  
HETATM    3  C   UNL     1     -11.528   8.940  72.549  1.00  0.00    -0.047 C  
ENDROOT
BRANCH   2   4
HETATM    4  S   UNL     1     -11.014   9.426  69.893  1.00  0.00    -0.205 SA 
BRANCH   4   5
HETATM    5  C   UNL     1     -11.538  11.069  69.411  1.00  0.00    -0.312 A  
HETATM    6  C   UNL     1     -12.097  13.733  68.767  1.00  0.00    -0.309 A  
HETATM    7  O   UNL     1     -12.280  15.037  68.404  1.00  0.00    -0.573 OA 
HETATM    8  H   UNL     1     -12.166  15.321  67.504  1.00  0.00     0.000 HD 
HETATM    9  C   UNL     1     -11.947  11.960  70.398  1.00  0.00    -0.400 A  
HETATM   10  C   UNL     1     -11.682  12.864  67.735  1.00  0.00    -0.412 A  
HETATM   11  C   UNL     1     -11.441  11.540  68.107  1.00  0.00    -0.385 A  
HETATM   12  C   UNL     1     -12.268  13.307  70.116  1.00  0.00    -0.376 A  
BRANCH  12  13
HETATM   13  C   UNL     1     -12.737  14.225  71.273  1.00  0.00    -0.427 C  
HETATM   14  C   UNL     1     -11.560  15.043  71.853  1.00  0.00    -0.426 C  
HETATM   15  C   UNL     1     -13.417  13.398  72.384  1.00  0.00    -0.685 C  
HETATM   16  C   UNL     1     -13.781  15.293  70.834  1.00  0.00    -0.363 C  
ENDBRANCH  12  13
BRANCH  10  17
HETATM   17  C   UNL     1     -11.498  13.285  66.253  1.00  0.00    -0.358 C  
HETATM   18  C   UNL     1     -10.354  14.310  66.100  1.00  0.00    -0.305 C  
HETATM   19  C   UNL     1     -11.129  12.113  65.295  1.00  0.00    -0.367 C  
HETATM   20  C   UNL     1     -12.818  13.867  65.707  1.00  0.00    -0.437 C  
ENDBRANCH  10  17
ENDBRANCH   4   5
ENDBRANCH   2   4
BRANCH   2  21
HETATM   21  S   UNL     1     -12.953   7.221  70.956  1.00  0.00    -0.060 SA 
BRANCH  21  22
HETATM   22  C   UNL     1     -11.543   6.147  70.693  1.00  0.00    -0.185 A  
HETATM   23  C   UNL     1     -11.017   5.846  69.434  1.00  0.00    -0.421 A  
HETATM   24  C   UNL     1     -11.054   5.460  71.793  1.00  0.00    -0.152 A  
HETATM   25  H   UNL     1      -8.320   3.034  69.298  1.00  0.00     0.000 HD 
HETATM   26  O   UNL     1      -8.647   3.213  70.172  1.00  0.00    -0.054 OA 
HETATM   27  C   UNL     1     -10.057   4.472  71.690  1.00  0.00    -0.249 A  
HETATM   28  C   UNL     1     -10.017   4.886  69.230  1.00  0.00    -0.270 A  
HETATM   29  C   UNL     1      -9.566   4.202  70.379  1.00  0.00    -0.196 A  
BRANCH  27  30
HETATM   30  C   UNL     1      -9.624   3.713  72.969  1.00  0.00    -0.160 C  
HETATM   31  C   UNL     1      -9.975   2.196  72.933  1.00  0.00    -0.183 C  
HETATM   32  C   UNL     1      -8.094   3.790  73.145  1.00  0.00    -0.087 C  
HETATM   33  C   UNL     1     -10.341   4.256  74.224  1.00  0.00    -0.287 C  
ENDBRANCH  27  30
BRANCH  28  34
HETATM   34  C   UNL     1      -9.452   4.647  67.801  1.00  0.00    -0.190 C  
HETATM   35  C   UNL     1     -10.289   5.309  66.665  1.00  0.00    -0.330 C  
HETATM   36  C   UNL     1      -9.399   3.144  67.448  1.00  0.00    -0.232 C  
HETATM   37  C   UNL     1      -8.040   5.262  67.689  1.00  0.00    -0.100 C  
ENDBRANCH  28  34
ENDBRANCH  21  22
ENDBRANCH   2  21
TORSDOF 8
ENDMDL
MODEL       23
REMARK 921   NORMALIZED FREE ENERGY PREDICTED BY IDOCK:   -5.66 KCAL/MOL
REMARK 922        TOTAL FREE ENERGY PREDICTED BY IDOCK:   -8.90 KCAL/MOL
REMARK 923 INTER-LIGAND FREE ENERGY PREDICTED BY IDOCK:   -8.76 KCAL/MOL
REMARK 924 INTRA-LIGAND FREE ENERGY PREDICTED BY IDOCK:   -0.14 KCAL/MOL
REMARK 927      BINDING AFFINITY PREDICTED BY RF-SCORE:    0.00 PKD
ROOT
HETATM    1  C   UNL     1     -13.147  14.050  65.455  1.00  0.00    -0.215 C  
HETATM    2  C   UNL     1     -11.850  13.322  65.850  1.00  0.00    -0.393 C  
HETATM    3  C   UNL     1     -11.978  11.848  65.432  1.00  0.00    -0.054 C  
ENDROOT
BRANCH   2   4
HETATM    4  S   UNL     1     -11.670  13.390  67.686  1.00  0.00    -0.363 SA 
BRANCH   4   5
HETATM    5  C   UNL     1     -10.770  11.903  68.111  1.00  0.00    -0.215 A  
HETATM    6  C   UNL     1      -9.594   9.426  68.668  1.00  0.00    -0.147 A  
HETATM    7  O   UNL     1      -9.036   8.192  68.842  1.00  0.00    -0.147 OA 
HETATM    8  H   UNL     1      -8.371   7.861  68.250  1.00  0.00     0.000 HD 
HETATM    9  C   UNL     1     -11.174  11.166  69.219  1.00  0.00    -0.331 A  
HETATM   10  C   UNL     1      -9.154  10.140  67.532  1.00  0.00    -0.143 A  
HETATM   11  C   UNL     1      -9.756  11.381  67.316  1.00  0.00    -0.201 A  
HETATM   12  C   UNL     1     -10.590   9.923  69.557  1.00  0.00    -0.264 A  
BRANCH  12  13
HETATM   13  C   UNL     1     -11.088   9.179  70.821  1.00  0.00    -0.336 C  
HETATM   14  C   UNL     1     -12.217   9.964  71.527  1.00  0.00    -0.505 C  
HETATM   15  C   UNL     1      -9.920   8.922  71.797  1.00  0.00    -0.397 C  
HETATM   16  C   UNL     1     -11.707   7.784  70.517  1.00  0.00    -0.118 C  
ENDBRANCH  12  13
BRANCH  10  17
HETATM   17  C   UNL     1      -8.062   9.640  66.550  1.00  0.00    -0.119 C  
HETATM   18  C   UNL     1      -8.542   8.403  65.761  1.00  0.00    -0.181 C  
HETATM   19  C   UNL     1      -7.650  10.682  65.466  1.00  0.00    -0.072 C  
HETATM   20  C   UNL     1      -6.769   9.315  67.326  1.00  0.00    -0.069 C  
ENDBRANCH  10  17
ENDBRANCH   4   5
ENDBRANCH   2   4
BRANCH   2  21
HETATM   21  S   UNL     1     -10.464  14.070  64.888  1.00  0.00    -0.407 SA 
BRANCH  21  22
HETATM   22  C   UNL     1      -9.648  15.174  66.039  1.00  0.00    -0.330 A  
HETATM   23  C   UNL     1      -9.920  16.540  66.135  1.00  0.00    -0.363 A  
HETATM   24  C   UNL     1      -8.581  14.662  66.762  1.00  0.00    -0.195 A  
HETATM   25  H   UNL     1      -7.519  18.646  68.372  1.00  0.00     0.000 HD 
HETATM   26  O   UNL     1      -7.304  17.721  68.338  1.00  0.00    -0.236 OA 
HETATM   27  C   UNL     1      -7.762  15.465  67.578  1.00  0.00    -0.205 A  
HETATM   28  C   UNL     1      -9.170  17.419  66.927  1.00  0.00    -0.266 A  
HETATM   29  C   UNL     1      -8.083  16.853  67.627  1.00  0.00    -0.182 A  
BRANCH  27  30
HETATM   30  C   UNL     1      -6.552  14.812  68.293  1.00  0.00    -0.118 C  
HETATM   31  C   UNL     1      -6.691  14.794  69.844  1.00  0.00    -0.172 C  
HETATM   32  C   UNL     1      -6.408  13.339  67.862  1.00  0.00    -0.144 C  
HETATM   33  C   UNL     1      -5.244  15.587  68.021  1.00  0.00    -0.133 C  
ENDBRANCH  27  30
BRANCH  28  34
HETATM   34  C   UNL     1      -9.571  18.919  67.014  1.00  0.00    -0.348 C  
HETATM   35  C   UNL     1      -8.376  19.908  66.858  1.00  0.00    -0.366 C  
HETATM   36  C   UNL     1     -10.213  19.264  68.376  1.00  0.00    -0.503 C  
HETATM   37  C   UNL     1     -10.549  19.265  65.871  1.00  0.00    -0.521 C  
ENDBRANCH  28  34
ENDBRANCH  21  22
ENDBRANCH   2  21
TORSDOF 8
ENDMDL
MODEL       24
REMARK 921   NORMALIZED FREE ENERGY PREDICTED BY IDOCK:   -5.65 KCAL/MOL
REMARK 922        TOTAL FREE ENERGY PREDICTED BY IDOCK:   -8.89 KCAL/MOL
REMARK 923 INTER-LIGAND FREE ENERGY PREDICTED BY IDOCK:   -9.03 KCAL/MOL
REMARK 924 INTRA-LIGAND FREE ENERGY PREDICTED BY IDOCK:    0.13 KCAL/MOL
REMARK 927      BINDING AFFINITY PREDICTED BY RF-SCORE:    0.00 PKD
ROOT
HETATM    1  C   UNL     1     -10.493  13.589  64.364  1.00  0.00    -0.366 C  
HETATM    2  C   UNL     1     -10.729  12.510  65.435  1.00  0.00    -0.280 C  
HETATM    3  C   UNL     1     -12.145  12.695  66.002  1.00  0.00    -0.429 C  
ENDROOT
BRANCH   2   4
HETATM    4  S   UNL     1      -9.518  12.763  66.805  1.00  0.00    -0.246 SA 
BRANCH   4   5
HETATM    5  C   UNL     1     -10.133  14.185  67.700  1.00  0.00    -0.236 A  
HETATM    6  C   UNL     1     -10.882  16.354  69.301  1.00  0.00    -0.327 A  
HETATM    7  O   UNL     1     -11.151  17.444  70.078  1.00  0.00    -0.118 OA 
HETATM    8  H   UNL     1     -10.874  18.316  69.821  1.00  0.00     0.000 HD 
HETATM    9  C   UNL     1     -10.871  13.980  68.861  1.00  0.00    -0.278 A  
HETATM   10  C   UNL     1     -10.132  16.607  68.133  1.00  0.00    -0.267 A  
HETATM   11  C   UNL     1      -9.807  15.492  67.357  1.00  0.00    -0.224 A  
HETATM   12  C   UNL     1     -11.297  15.046  69.686  1.00  0.00    -0.309 A  
BRANCH  12  13
HETATM   13  C   UNL     1     -12.134  14.729  70.951  1.00  0.00    -0.387 C  
HETATM   14  C   UNL     1     -11.423  15.219  72.233  1.00  0.00    -0.480 C  
HETATM   15  C   UNL     1     -12.429  13.217  71.044  1.00  0.00    -0.422 C  
HETATM   16  C   UNL     1     -13.520  15.438  70.972  1.00  0.00    -0.510 C  
ENDBRANCH  12  13
BRANCH  10  17
HETATM   17  C   UNL     1      -9.674  18.016  67.671  1.00  0.00    -0.291 C  
HETATM   18  C   UNL     1     -10.881  18.956  67.462  1.00  0.00    -0.440 C  
HETATM   19  C   UNL     1      -8.751  18.755  68.686  1.00  0.00    -0.360 C  
HETATM   20  C   UNL     1      -8.853  17.900  66.371  1.00  0.00    -0.251 C  
ENDBRANCH  10  17
ENDBRANCH   4   5
ENDBRANCH   2   4
BRANCH   2  21
HETATM   21  S   UNL     1     -10.658  10.862  64.606  1.00  0.00    -0.172 SA 
BRANCH  21  22
HETATM   22  C   UNL     1      -9.978   9.755  65.839  1.00  0.00    -0.275 A  
HETATM   23  C   UNL     1     -10.374   9.743  67.179  1.00  0.00    -0.311 A  
HETATM   24  C   UNL     1      -8.890   8.981  65.467  1.00  0.00    -0.233 A  
HETATM   25  H   UNL     1      -8.236   7.572  69.611  1.00  0.00     0.000 HD 
HETATM   26  O   UNL     1      -7.939   7.548  68.709  1.00  0.00    -0.121 OA 
HETATM   27  C   UNL     1      -8.171   8.192  66.384  1.00  0.00    -0.108 A  
HETATM   28  C   UNL     1      -9.728   8.984  68.163  1.00  0.00    -0.172 A  
HETATM   29  C   UNL     1      -8.616   8.228  67.738  1.00  0.00    -0.131 A  
BRANCH  27  30
HETATM   30  C   UNL     1      -6.928   7.413  65.883  1.00  0.00    -0.061 C  
HETATM   31  C   UNL     1      -6.645   7.615  64.365  1.00  0.00    -0.048 C  
HETATM   32  C   UNL     1      -5.662   7.897  66.619  1.00  0.00    -0.039 C  
HETATM   33  C   UNL     1      -7.104   5.889  66.055  1.00  0.00    -0.074 C  
ENDBRANCH  27  30
BRANCH  28  34
HETATM   34  C   UNL     1     -10.265   8.990  69.624  1.00  0.00    -0.211 C  
HETATM   35  C   UNL     1     -11.411  10.015  69.878  1.00  0.00    -0.306 C  
HETATM   36  C   UNL     1      -9.159   9.351  70.640  1.00  0.00    -0.292 C  
HETATM   37  C   UNL     1     -10.861   7.608  69.965  1.00  0.00    -0.250 C  
ENDBRANCH  28  34
ENDBRANCH  21  22
ENDBRANCH   2  21
TORSDOF 8
ENDMDL
MODEL       25
REMARK 921   NORMALIZED FREE ENERGY PREDICTED BY IDOCK:   -5.62 KCAL/MOL
REMARK 922        TOTAL FREE ENERGY PREDICTED BY IDOCK:   -8.85 KCAL/MOL
REMARK 923 INTER-LIGAND FREE ENERGY PREDICTED BY IDOCK:   -9.79 KCAL/MOL
REMARK 924 INTRA-LIGAND FREE ENERGY PREDICTED BY IDOCK:    0.95 KCAL/MOL
REMARK 927      BINDING AFFINITY PREDICTED BY RF-SCORE:    0.00 PKD
ROOT
HETATM    1  C   UNL     1     -10.030   9.996  65.815  1.00  0.00    -0.346 C  
HETATM    2  C   UNL     1     -10.016  11.310  66.615  1.00  0.00    -0.209 C  
HETATM    3  C   UNL     1      -9.295  12.378  65.777  1.00  0.00    -0.018 C  
ENDROOT
BRANCH   2   4
HETATM    4  S   UNL     1      -9.055  11.046  68.169  1.00  0.00    -0.161 SA 
BRANCH   4   5
HETATM    5  C   UNL     1      -9.565   9.433  68.753  1.00  0.00    -0.154 A  
HETATM    6  C   UNL     1     -10.627   6.967  69.538  1.00  0.00    -0.234 A  
HETATM    7  O   UNL     1     -11.171   5.748  69.824  1.00  0.00    -0.355 OA 
HETATM    8  H   UNL     1     -10.940   4.973  69.324  1.00  0.00     0.000 HD 
HETATM    9  C   UNL     1     -10.434   9.355  69.836  1.00  0.00    -0.257 A  
HETATM   10  C   UNL     1      -9.752   7.001  68.432  1.00  0.00    -0.139 A  
HETATM   11  C   UNL     1      -9.231   8.253  68.099  1.00  0.00    -0.137 A  
HETATM   12  C   UNL     1     -10.973   8.128  70.288  1.00  0.00    -0.240 A  
BRANCH  12  13
HETATM   13  C   UNL     1     -11.916   8.130  71.517  1.00  0.00    -0.334 C  
HETATM   14  C   UNL     1     -11.193   7.610  72.781  1.00  0.00    -0.431 C  
HETATM   15  C   UNL     1     -13.179   7.290  71.236  1.00  0.00    -0.352 C  
HETATM   16  C   UNL     1     -12.424   9.549  71.908  1.00  0.00    -0.465 C  
ENDBRANCH  12  13
BRANCH  10  17
HETATM   17  C   UNL     1      -9.339   5.758  67.600  1.00  0.00    -0.108 C  
HETATM   18  C   UNL     1      -9.079   4.538  68.508  1.00  0.00    -0.161 C  
HETATM   19  C   UNL     1     -10.417   5.284  66.578  1.00  0.00    -0.354 C  
HETATM   20  C   UNL     1      -8.086   6.081  66.762  1.00  0.00    -0.105 C  
ENDBRANCH  10  17
ENDBRANCH   4   5
ENDBRANCH   2   4
BRANCH   2  21
HETATM   21  S   UNL     1     -11.765  11.853  66.846  1.00  0.00    -0.099 SA 
BRANCH  21  22
HETATM   22  C   UNL     1     -11.652  13.401  67.742  1.00  0.00    -0.340 A  
HETATM   23  C   UNL     1     -10.878  14.486  67.326  1.00  0.00    -0.297 A  
HETATM   24  C   UNL     1     -12.247  13.455  68.993  1.00  0.00    -0.187 A  
HETATM   25  H   UNL     1     -10.488  17.422  69.862  1.00  0.00     0.000 HD 
HETATM   26  O   UNL     1     -11.027  16.707  70.179  1.00  0.00    -0.321 OA 
HETATM   27  C   UNL     1     -12.096  14.555  69.858  1.00  0.00    -0.389 A  
HETATM   28  C   UNL     1     -10.676  15.629  68.111  1.00  0.00    -0.287 A  
HETATM   29  C   UNL     1     -11.287  15.629  69.383  1.00  0.00    -0.330 A  
BRANCH  27  30
HETATM   30  C   UNL     1     -12.745  14.493  71.264  1.00  0.00    -0.413 C  
HETATM   31  C   UNL     1     -11.915  15.228  72.358  1.00  0.00    -0.514 C  
HETATM   32  C   UNL     1     -14.125  15.180  71.246  1.00  0.00    -0.537 C  
HETATM   33  C   UNL     1     -12.870  13.040  71.769  1.00  0.00    -0.351 C  
ENDBRANCH  27  30
BRANCH  28  34
HETATM   34  C   UNL     1      -9.838  16.815  67.552  1.00  0.00    -0.255 C  
HETATM   35  C   UNL     1      -9.331  16.606  66.094  1.00  0.00    -0.318 C  
HETATM   36  C   UNL     1      -8.569  17.070  68.395  1.00  0.00    -0.243 C  
HETATM   37  C   UNL     1     -10.706  18.092  67.512  1.00  0.00    -0.352 C  
ENDBRANCH  28  34
ENDBRANCH  21  22
ENDBRANCH   2  21
TORSDOF 8
ENDMDL
MODEL       26
REMARK 921   NORMALIZED FREE ENERGY PREDICTED BY IDOCK:   -5.61 KCAL/MOL
REMARK 922        TOTAL FREE ENERGY PREDICTED BY IDOCK:   -8.83 KCAL/MOL
REMARK 923 INTER-LIGAND FREE ENERGY PREDICTED BY IDOCK:   -9.31 KCAL/MOL
REMARK 924 INTRA-LIGAND FREE ENERGY PREDICTED BY IDOCK:    0.48 KCAL/MOL
REMARK 927      BINDING AFFINITY PREDICTED BY RF-SCORE:    0.00 PKD
ROOT
HETATM    1  C   UNL     1     -10.890   9.908  66.820  1.00  0.00    -0.085 C  
HETATM    2  C   UNL     1     -10.417  11.372  66.791  1.00  0.00    -0.244 C  
HETATM    3  C   UNL     1      -9.386  11.522  65.660  1.00  0.00    -0.221 C  
ENDROOT
BRANCH   2   4
HETATM    4  S   UNL     1      -9.581  11.755  68.392  1.00  0.00    -0.169 SA 
BRANCH   4   5
HETATM    5  C   UNL     1      -9.414  10.172  69.209  1.00  0.00    -0.218 A  
HETATM    6  C   UNL     1      -9.382   7.604  70.319  1.00  0.00    -0.157 A  
HETATM    7  O   UNL     1      -9.361   6.314  70.766  1.00  0.00    -0.157 OA 
HETATM    8  H   UNL     1      -8.709   5.694  70.460  1.00  0.00     0.000 HD 
HETATM    9  C   UNL     1     -10.353   9.809  70.169  1.00  0.00    -0.335 A  
HETATM   10  C   UNL     1      -8.413   7.929  69.347  1.00  0.00    -0.133 A  
HETATM   11  C   UNL     1      -8.458   9.231  68.845  1.00  0.00    -0.129 A  
HETATM   12  C   UNL     1     -10.359   8.534  70.779  1.00  0.00    -0.238 A  
BRANCH  12  13
HETATM   13  C   UNL     1     -11.428   8.221  71.857  1.00  0.00    -0.372 C  
HETATM   14  C   UNL     1     -10.773   7.836  73.203  1.00  0.00    -0.414 C  
HETATM   15  C   UNL     1     -12.372   7.099  71.377  1.00  0.00    -0.415 C  
HETATM   16  C   UNL     1     -12.342   9.435  72.194  1.00  0.00    -0.368 C  
ENDBRANCH  12  13
BRANCH  10  17
HETATM   17  C   UNL     1      -7.324   6.951  68.831  1.00  0.00    -0.094 C  
HETATM   18  C   UNL     1      -7.896   5.531  68.630  1.00  0.00    -0.091 C  
HETATM   19  C   UNL     1      -6.710   7.343  67.453  1.00  0.00    -0.069 C  
HETATM   20  C   UNL     1      -6.140   6.918  69.818  1.00  0.00    -0.030 C  
ENDBRANCH  10  17
ENDBRANCH   4   5
ENDBRANCH   2   4
BRANCH   2  21
HETATM   21  S   UNL     1     -11.872  12.431  66.380  1.00  0.00    -0.279 SA 
BRANCH  21  22
HETATM   22  C   UNL     1     -11.695  13.879  67.422  1.00  0.00    -0.389 A  
HETATM   23  C   UNL     1     -10.938  15.000  67.075  1.00  0.00    -0.318 A  
HETATM   24  C   UNL     1     -12.216  13.806  68.704  1.00  0.00    -0.202 A  
HETATM   25  H   UNL     1     -10.379  17.660  69.870  1.00  0.00     0.000 HD 
HETATM   26  O   UNL     1     -10.904  16.917  70.144  1.00  0.00    -0.180 OA 
HETATM   27  C   UNL     1     -12.007  14.811  69.667  1.00  0.00    -0.360 A  
HETATM   28  C   UNL     1     -10.682  16.056  67.959  1.00  0.00    -0.309 A  
HETATM   29  C   UNL     1     -11.218  15.926  69.258  1.00  0.00    -0.335 A  
BRANCH  27  30
HETATM   30  C   UNL     1     -12.574  14.607  71.095  1.00  0.00    -0.404 C  
HETATM   31  C   UNL     1     -11.670  15.214  72.208  1.00  0.00    -0.496 C  
HETATM   32  C   UNL     1     -13.942  15.304  71.231  1.00  0.00    -0.548 C  
HETATM   33  C   UNL     1     -12.691  13.109  71.452  1.00  0.00    -0.390 C  
ENDBRANCH  27  30
BRANCH  28  34
HETATM   34  C   UNL     1      -9.869  17.292  67.477  1.00  0.00    -0.275 C  
HETATM   35  C   UNL     1      -8.629  17.623  68.361  1.00  0.00    -0.284 C  
HETATM   36  C   UNL     1     -10.726  18.577  67.473  1.00  0.00    -0.419 C  
HETATM   37  C   UNL     1      -9.312  17.028  66.061  1.00  0.00    -0.187 C  
ENDBRANCH  28  34
ENDBRANCH  21  22
ENDBRANCH   2  21
TORSDOF 8
ENDMDL
MODEL       27
REMARK 921   NORMALIZED FREE ENERGY PREDICTED BY IDOCK:   -5.60 KCAL/MOL
REMARK 922        TOTAL FREE ENERGY PREDICTED BY IDOCK:   -8.82 KCAL/MOL
REMARK 923 INTER-LIGAND FREE ENERGY PREDICTED BY IDOCK:   -9.39 KCAL/MOL
REMARK 924 INTRA-LIGAND FREE ENERGY PREDICTED BY IDOCK:    0.57 KCAL/MOL
REMARK 927      BINDING AFFINITY PREDICTED BY RF-SCORE:    0.00 PKD
ROOT
HETATM    1  C   UNL     1     -11.285   7.639  73.049  1.00  0.00    -0.388 C  
HETATM    2  C   UNL     1     -11.617   8.457  71.788  1.00  0.00    -0.308 C  
HETATM    3  C   UNL     1     -10.395   9.322  71.440  1.00  0.00    -0.392 C  
ENDROOT
BRANCH   2   4
HETATM    4  S   UNL     1     -13.032   9.580  72.168  1.00  0.00    -0.399 SA 
BRANCH   4   5
HETATM    5  C   UNL     1     -12.726  11.046  71.188  1.00  0.00    -0.419 A  
HETATM    6  C   UNL     1     -12.004  13.378  69.822  1.00  0.00    -0.330 A  
HETATM    7  O   UNL     1     -11.559  14.474  69.139  1.00  0.00    -0.264 OA 
HETATM    8  H   UNL     1     -11.137  14.392  68.292  1.00  0.00     0.000 HD 
HETATM    9  C   UNL     1     -12.959  12.294  71.755  1.00  0.00    -0.431 A  
HETATM   10  C   UNL     1     -11.747  12.132  69.210  1.00  0.00    -0.386 A  
HETATM   11  C   UNL     1     -12.151  11.002  69.923  1.00  0.00    -0.435 A  
HETATM   12  C   UNL     1     -12.638  13.500  71.092  1.00  0.00    -0.438 A  
BRANCH  12  13
HETATM   13  C   UNL     1     -12.952  14.848  71.789  1.00  0.00    -0.417 C  
HETATM   14  C   UNL     1     -12.857  14.720  73.327  1.00  0.00    -0.621 C  
HETATM   15  C   UNL     1     -14.347  15.363  71.377  1.00  0.00    -0.500 C  
HETATM   16  C   UNL     1     -11.951  15.983  71.424  1.00  0.00    -0.507 C  
ENDBRANCH  12  13
BRANCH  10  17
HETATM   17  C   UNL     1     -11.073  11.958  67.822  1.00  0.00    -0.295 C  
HETATM   18  C   UNL     1     -11.866  12.690  66.719  1.00  0.00    -0.440 C  
HETATM   19  C   UNL     1      -9.627  12.531  67.736  1.00  0.00    -0.203 C  
HETATM   20  C   UNL     1     -10.946  10.458  67.488  1.00  0.00    -0.358 C  
ENDBRANCH  10  17
ENDBRANCH   4   5
ENDBRANCH   2   4
BRANCH   2  21
HETATM   21  S   UNL     1     -11.892   7.273  70.399  1.00  0.00    -0.068 SA 
BRANCH  21  22
HETATM   22  C   UNL     1     -10.267   6.617  70.025  1.00  0.00    -0.187 A  
HETATM   23  C   UNL     1      -9.332   7.267  69.216  1.00  0.00    -0.154 A  
HETATM   24  C   UNL     1      -9.993   5.324  70.441  1.00  0.00    -0.303 A  
HETATM   25  H   UNL     1      -6.164   5.222  68.223  1.00  0.00     0.000 HD 
HETATM   26  O   UNL     1      -6.772   4.748  68.779  1.00  0.00    -0.047 OA 
HETATM   27  C   UNL     1      -8.817   4.642  70.075  1.00  0.00    -0.125 A  
HETATM   28  C   UNL     1      -8.130   6.677  68.806  1.00  0.00    -0.119 A  
HETATM   29  C   UNL     1      -7.906   5.353  69.240  1.00  0.00    -0.089 A  
BRANCH  27  30
HETATM   30  C   UNL     1      -8.633   3.173  70.535  1.00  0.00    -0.110 C  
HETATM   31  C   UNL     1      -9.729   2.699  71.534  1.00  0.00    -0.222 C  
HETATM   32  C   UNL     1      -8.719   2.220  69.326  1.00  0.00    -0.130 C  
HETATM   33  C   UNL     1      -7.298   2.975  71.286  1.00  0.00    -0.033 C  
ENDBRANCH  27  30
BRANCH  28  34
HETATM   34  C   UNL     1      -7.121   7.488  67.944  1.00  0.00    -0.085 C  
HETATM   35  C   UNL     1      -5.634   7.331  68.386  1.00  0.00    -0.022 C  
HETATM   36  C   UNL     1      -7.407   9.005  68.000  1.00  0.00    -0.084 C  
HETATM   37  C   UNL     1      -7.174   6.998  66.481  1.00  0.00    -0.082 C  
ENDBRANCH  28  34
ENDBRANCH  21  22
ENDBRANCH   2  21
TORSDOF 8
ENDMDL
MODEL       28
REMARK 921   NORMALIZED FREE ENERGY PREDICTED BY IDOCK:   -5.54 KCAL/MOL
REMARK 922        TOTAL FREE ENERGY PREDICTED BY IDOCK:   -8.74 KCAL/MOL
REMARK 923 INTER-LIGAND FREE ENERGY PREDICTED BY IDOCK:   -8.86 KCAL/MOL
REMARK 924 INTRA-LIGAND FREE ENERGY PREDICTED BY IDOCK:    0.12 KCAL/MOL
REMARK 927      BINDING AFFINITY PREDICTED BY RF-SCORE:    0.00 PKD
ROOT
HETATM    1  C   UNL     1     -13.159  14.046  65.532  1.00  0.00    -0.217 C  
HETATM    2  C   UNL     1     -11.820  13.365  65.867  1.00  0.00    -0.376 C  
HETATM    3  C   UNL     1     -11.904  11.895  65.423  1.00  0.00    -0.149 C  
ENDROOT
BRANCH   2   4
HETATM    4  S   UNL     1     -11.579  13.404  67.697  1.00  0.00    -0.361 SA 
BRANCH   4   5
HETATM    5  C   UNL     1     -10.958  11.777  68.110  1.00  0.00    -0.228 A  
HETATM    6  C   UNL     1      -9.750   9.371  68.871  1.00  0.00    -0.164 A  
HETATM    7  O   UNL     1      -9.152   8.235  69.337  1.00  0.00    -0.152 OA 
HETATM    8  H   UNL     1      -9.457   7.803  70.126  1.00  0.00     0.000 HD 
HETATM    9  C   UNL     1      -9.915  11.245  67.358  1.00  0.00    -0.206 A  
HETATM   10  C   UNL     1     -10.802   9.876  69.664  1.00  0.00    -0.281 A  
HETATM   11  C   UNL     1     -11.387  11.066  69.224  1.00  0.00    -0.350 A  
HETATM   12  C   UNL     1      -9.293  10.019  67.687  1.00  0.00    -0.159 A  
BRANCH  12  13
HETATM   13  C   UNL     1      -8.153   9.489  66.781  1.00  0.00    -0.109 C  
HETATM   14  C   UNL     1      -6.869   9.215  67.598  1.00  0.00    -0.077 C  
HETATM   15  C   UNL     1      -7.860  10.481  65.637  1.00  0.00    -0.150 C  
HETATM   16  C   UNL     1      -8.484   8.131  66.097  1.00  0.00    -0.143 C  
ENDBRANCH  12  13
BRANCH  10  17
HETATM   17  C   UNL     1     -11.338   9.193  70.950  1.00  0.00    -0.359 C  
HETATM   18  C   UNL     1     -12.466  10.026  71.598  1.00  0.00    -0.513 C  
HETATM   19  C   UNL     1     -11.955   7.781  70.717  1.00  0.00    -0.168 C  
HETATM   20  C   UNL     1     -10.184   8.982  71.950  1.00  0.00    -0.342 C  
ENDBRANCH  10  17
ENDBRANCH   4   5
ENDBRANCH   2   4
BRANCH   2  21
HETATM   21  S   UNL     1     -10.500  14.186  64.873  1.00  0.00    -0.400 SA 
BRANCH  21  22
HETATM   22  C   UNL     1      -9.640  15.244  66.036  1.00  0.00    -0.338 A  
HETATM   23  C   UNL     1      -9.853  16.620  66.142  1.00  0.00    -0.340 A  
HETATM   24  C   UNL     1      -8.599  14.681  66.757  1.00  0.00    -0.195 A  
HETATM   25  H   UNL     1      -7.369  18.600  68.404  1.00  0.00     0.000 HD 
HETATM   26  O   UNL     1      -7.195  17.667  68.363  1.00  0.00    -0.217 OA 
HETATM   27  C   UNL     1      -7.749  15.440  67.583  1.00  0.00    -0.180 A  
HETATM   28  C   UNL     1      -9.068  17.459  66.944  1.00  0.00    -0.258 A  
HETATM   29  C   UNL     1      -8.009  16.841  67.643  1.00  0.00    -0.176 A  
BRANCH  27  30
HETATM   30  C   UNL     1      -6.571  14.729  68.296  1.00  0.00    -0.118 C  
HETATM   31  C   UNL     1      -6.389  13.246  67.855  1.00  0.00    -0.144 C  
HETATM   32  C   UNL     1      -5.241  15.436  67.965  1.00  0.00    -0.134 C  
HETATM   33  C   UNL     1      -6.785  14.666  69.824  1.00  0.00    -0.165 C  
ENDBRANCH  27  30
BRANCH  28  34
HETATM   34  C   UNL     1      -9.403  18.975  67.043  1.00  0.00    -0.345 C  
HETATM   35  C   UNL     1     -10.691  19.394  66.272  1.00  0.00    -0.508 C  
HETATM   36  C   UNL     1      -8.273  19.853  66.461  1.00  0.00    -0.364 C  
HETATM   37  C   UNL     1      -9.658  19.356  68.517  1.00  0.00    -0.472 C  
ENDBRANCH  28  34
ENDBRANCH  21  22
ENDBRANCH   2  21
TORSDOF 8
ENDMDL
MODEL       29
REMARK 921   NORMALIZED FREE ENERGY PREDICTED BY IDOCK:   -5.54 KCAL/MOL
REMARK 922        TOTAL FREE ENERGY PREDICTED BY IDOCK:   -8.73 KCAL/MOL
REMARK 923 INTER-LIGAND FREE ENERGY PREDICTED BY IDOCK:  -10.39 KCAL/MOL
REMARK 924 INTRA-LIGAND FREE ENERGY PREDICTED BY IDOCK:    1.66 KCAL/MOL
REMARK 927      BINDING AFFINITY PREDICTED BY RF-SCORE:    0.00 PKD
ROOT
HETATM    1  C   UNL     1     -12.440  12.677  64.922  1.00  0.00    -0.564 C  
HETATM    2  C   UNL     1     -11.290  13.361  65.683  1.00  0.00    -0.298 C  
HETATM    3  C   UNL     1     -10.043  12.469  65.574  1.00  0.00    -0.282 C  
ENDROOT
BRANCH   2   4
HETATM    4  S   UNL     1     -11.756  13.490  67.465  1.00  0.00    -0.375 SA 
BRANCH   4   5
HETATM    5  C   UNL     1     -11.415  11.870  68.144  1.00  0.00    -0.320 A  
HETATM    6  C   UNL     1     -11.156   9.261  69.121  1.00  0.00     0.024 A  
HETATM    7  O   UNL     1     -11.057   7.955  69.505  1.00  0.00    -0.432 OA 
HETATM    8  H   UNL     1     -10.574   7.321  68.987  1.00  0.00     0.000 HD 
HETATM    9  C   UNL     1     -12.007  11.508  69.350  1.00  0.00    -0.392 A  
HETATM   10  C   UNL     1     -10.540   9.584  67.892  1.00  0.00    -0.299 A  
HETATM   11  C   UNL     1     -10.679  10.906  67.464  1.00  0.00    -0.299 A  
HETATM   12  C   UNL     1     -11.880  10.211  69.897  1.00  0.00    -0.206 A  
BRANCH  12  13
HETATM   13  C   UNL     1     -12.555   9.900  71.257  1.00  0.00    -0.480 C  
HETATM   14  C   UNL     1     -13.103  11.186  71.918  1.00  0.00    -0.513 C  
HETATM   15  C   UNL     1     -11.568   9.187  72.204  1.00  0.00    -0.276 C  
HETATM   16  C   UNL     1     -13.789   8.960  71.136  1.00  0.00    -0.129 C  
ENDBRANCH  12  13
BRANCH  10  17
HETATM   17  C   UNL     1      -9.731   8.583  67.026  1.00  0.00    -0.266 C  
HETATM   18  C   UNL     1      -8.397   8.206  67.705  1.00  0.00    -0.127 C  
HETATM   19  C   UNL     1     -10.456   7.229  66.766  1.00  0.00    -0.311 C  
HETATM   20  C   UNL     1      -9.471   9.189  65.632  1.00  0.00    -0.309 C  
ENDBRANCH  10  17
ENDBRANCH   4   5
ENDBRANCH   2   4
BRANCH   2  21
HETATM   21  S   UNL     1     -10.922  14.961  64.840  1.00  0.00    -0.396 SA 
BRANCH  21  22
HETATM   22  C   UNL     1      -9.744  15.784  65.910  1.00  0.00    -0.354 A  
HETATM   23  C   UNL     1      -8.754  15.119  66.636  1.00  0.00    -0.308 A  
HETATM   24  C   UNL     1      -9.934  17.138  66.141  1.00  0.00    -0.296 A  
HETATM   25  H   UNL     1      -6.790  17.238  69.254  1.00  0.00     0.000 HD 
HETATM   26  O   UNL     1      -7.449  17.728  68.777  1.00  0.00    -0.265 OA 
HETATM   27  C   UNL     1      -9.175  17.861  67.080  1.00  0.00    -0.260 A  
HETATM   28  C   UNL     1      -7.942  15.753  67.585  1.00  0.00    -0.163 A  
HETATM   29  C   UNL     1      -8.187  17.126  67.798  1.00  0.00    -0.197 A  
BRANCH  27  30
HETATM   30  C   UNL     1      -9.509  19.356  67.315  1.00  0.00    -0.398 C  
HETATM   31  C   UNL     1      -9.989  19.659  68.766  1.00  0.00    -0.542 C  
HETATM   32  C   UNL     1      -8.254  20.225  67.093  1.00  0.00    -0.385 C  
HETATM   33  C   UNL     1     -10.664  19.832  66.408  1.00  0.00    -0.499 C  
ENDBRANCH  27  30
BRANCH  28  34
HETATM   34  C   UNL     1      -6.829  14.948  68.316  1.00  0.00    -0.121 C  
HETATM   35  C   UNL     1      -6.962  13.402  68.173  1.00  0.00    -0.116 C  
HETATM   36  C   UNL     1      -6.827  15.220  69.837  1.00  0.00    -0.135 C  
HETATM   37  C   UNL     1      -5.451  15.304  67.718  1.00  0.00    -0.101 C  
ENDBRANCH  28  34
ENDBRANCH  21  22
ENDBRANCH   2  21
TORSDOF 8
ENDMDL
MODEL       30
REMARK 921   NORMALIZED FREE ENERGY PREDICTED BY IDOCK:   -5.54 KCAL/MOL
REMARK 922        TOTAL FREE ENERGY PREDICTED BY IDOCK:   -8.73 KCAL/MOL
REMARK 923 INTER-LIGAND FREE ENERGY PREDICTED BY IDOCK:   -9.01 KCAL/MOL
REMARK 924 INTRA-LIGAND FREE ENERGY PREDICTED BY IDOCK:    0.28 KCAL/MOL
REMARK 927      BINDING AFFINITY PREDICTED BY RF-SCORE:    0.00 PKD
ROOT
HETATM    1  C   UNL     1      -9.424  10.950  65.081  1.00  0.00    -0.268 C  
HETATM    2  C   UNL     1      -9.913  12.112  65.964  1.00  0.00    -0.236 C  
HETATM    3  C   UNL     1     -10.324  13.274  65.046  1.00  0.00    -0.355 C  
ENDROOT
BRANCH   2   4
HETATM    4  S   UNL     1      -8.513  12.678  67.025  1.00  0.00    -0.108 SA 
BRANCH   4   5
HETATM    5  C   UNL     1      -9.154  14.097  67.907  1.00  0.00    -0.189 A  
HETATM    6  C   UNL     1     -10.337  16.358  69.053  1.00  0.00    -0.278 A  
HETATM    7  O   UNL     1     -11.006  17.418  69.597  1.00  0.00    -0.258 OA 
HETATM    8  H   UNL     1     -11.672  17.294  70.264  1.00  0.00     0.000 HD 
HETATM    9  C   UNL     1      -8.790  15.372  67.486  1.00  0.00    -0.190 A  
HETATM   10  C   UNL     1     -10.739  15.085  69.510  1.00  0.00    -0.266 A  
HETATM   11  C   UNL     1     -10.098  13.991  68.923  1.00  0.00    -0.133 A  
HETATM   12  C   UNL     1      -9.339  16.544  68.054  1.00  0.00    -0.218 A  
BRANCH  12  13
HETATM   13  C   UNL     1      -8.859  17.924  67.539  1.00  0.00    -0.248 C  
HETATM   14  C   UNL     1      -8.216  18.755  68.673  1.00  0.00    -0.363 C  
HETATM   15  C   UNL     1     -10.028  18.702  66.899  1.00  0.00    -0.373 C  
HETATM   16  C   UNL     1      -7.757  17.829  66.444  1.00  0.00    -0.318 C  
ENDBRANCH  12  13
BRANCH  10  17
HETATM   17  C   UNL     1     -11.810  14.842  70.605  1.00  0.00    -0.364 C  
HETATM   18  C   UNL     1     -11.325  15.339  71.984  1.00  0.00    -0.431 C  
HETATM   19  C   UNL     1     -13.160  15.580  70.356  1.00  0.00    -0.160 C  
HETATM   20  C   UNL     1     -12.163  13.342  70.669  1.00  0.00    -0.417 C  
ENDBRANCH  10  17
ENDBRANCH   4   5
ENDBRANCH   2   4
BRANCH   2  21
HETATM   21  S   UNL     1     -11.417  11.543  66.870  1.00  0.00    -0.075 SA 
BRANCH  21  22
HETATM   22  C   UNL     1     -10.904  10.052  67.721  1.00  0.00    -0.282 A  
HETATM   23  C   UNL     1     -10.293   8.966  67.091  1.00  0.00    -0.351 A  
HETATM   24  C   UNL     1     -11.280   9.917  69.049  1.00  0.00    -0.131 A  
HETATM   25  H   UNL     1      -9.865   5.727  69.219  1.00  0.00     0.000 HD 
HETATM   26  O   UNL     1     -10.279   6.444  69.686  1.00  0.00    -0.175 OA 
HETATM   27  C   UNL     1     -11.075   8.732  69.779  1.00  0.00    -0.080 A  
HETATM   28  C   UNL     1     -10.038   7.748  67.735  1.00  0.00    -0.242 A  
HETATM   29  C   UNL     1     -10.456   7.655  69.079  1.00  0.00    -0.205 A  
BRANCH  27  30
HETATM   30  C   UNL     1     -11.591   8.656  71.239  1.00  0.00    -0.340 C  
HETATM   31  C   UNL     1     -12.322   9.951  71.701  1.00  0.00    -0.496 C  
HETATM   32  C   UNL     1     -12.617   7.514  71.384  1.00  0.00    -0.382 C  
HETATM   33  C   UNL     1     -10.433   8.475  72.243  1.00  0.00    -0.402 C  
ENDBRANCH  27  30
BRANCH  28  34
HETATM   34  C   UNL     1      -9.308   6.605  66.973  1.00  0.00    -0.160 C  
HETATM   35  C   UNL     1     -10.249   5.463  66.485  1.00  0.00    -0.287 C  
HETATM   36  C   UNL     1      -8.246   5.913  67.856  1.00  0.00    -0.108 C  
HETATM   37  C   UNL     1      -8.644   7.170  65.699  1.00  0.00    -0.119 C  
ENDBRANCH  28  34
ENDBRANCH  21  22
ENDBRANCH   2  21
TORSDOF 8
ENDMDL
MODEL       31
REMARK 921   NORMALIZED FREE ENERGY PREDICTED BY IDOCK:   -5.54 KCAL/MOL
REMARK 922        TOTAL FREE ENERGY PREDICTED BY IDOCK:   -8.73 KCAL/MOL
REMARK 923 INTER-LIGAND FREE ENERGY PREDICTED BY IDOCK:   -8.37 KCAL/MOL
REMARK 924 INTRA-LIGAND FREE ENERGY PREDICTED BY IDOCK:   -0.37 KCAL/MOL
REMARK 927      BINDING AFFINITY PREDICTED BY RF-SCORE:    0.00 PKD
ROOT
HETATM    1  C   UNL     1     -11.631  12.003  65.987  1.00  0.00    -0.371 C  
HETATM    2  C   UNL     1     -11.354  13.486  66.293  1.00  0.00    -0.309 C  
HETATM    3  C   UNL     1     -12.613  14.294  65.939  1.00  0.00    -0.376 C  
ENDROOT
BRANCH   2   4
HETATM    4  S   UNL     1      -9.972  14.064  65.214  1.00  0.00    -0.174 SA 
BRANCH   4   5
HETATM    5  C   UNL     1      -9.118  15.298  66.189  1.00  0.00    -0.279 A  
HETATM    6  C   UNL     1      -8.002  17.199  67.911  1.00  0.00    -0.192 A  
HETATM    7  O   UNL     1      -7.464  18.057  68.827  1.00  0.00    -0.272 OA 
HETATM    8  H   UNL     1      -6.741  17.796  69.386  1.00  0.00     0.000 HD 
HETATM    9  C   UNL     1      -9.632  16.589  66.239  1.00  0.00    -0.333 A  
HETATM   10  C   UNL     1      -7.450  15.900  67.894  1.00  0.00    -0.145 A  
HETATM   11  C   UNL     1      -8.027  14.999  66.997  1.00  0.00    -0.197 A  
HETATM   12  C   UNL     1      -9.084  17.591  67.072  1.00  0.00    -0.255 A  
BRANCH  12  13
HETATM   13  C   UNL     1      -9.707  19.010  67.050  1.00  0.00    -0.365 C  
HETATM   14  C   UNL     1     -10.379  19.349  68.400  1.00  0.00    -0.461 C  
HETATM   15  C   UNL     1     -10.722  19.141  65.896  1.00  0.00    -0.435 C  
HETATM   16  C   UNL     1      -8.662  20.143  66.832  1.00  0.00    -0.412 C  
ENDBRANCH  12  13
BRANCH  10  17
HETATM   17  C   UNL     1      -6.262  15.439  68.780  1.00  0.00    -0.098 C  
HETATM   18  C   UNL     1      -6.759  14.699  70.040  1.00  0.00    -0.135 C  
HETATM   19  C   UNL     1      -5.288  14.445  68.079  1.00  0.00    -0.110 C  
HETATM   20  C   UNL     1      -5.401  16.655  69.175  1.00  0.00    -0.133 C  
ENDBRANCH  10  17
ENDBRANCH   4   5
ENDBRANCH   2   4
BRANCH   2  21
HETATM   21  S   UNL     1     -11.065  13.647  68.109  1.00  0.00    -0.270 SA 
BRANCH  21  22
HETATM   22  C   UNL     1     -10.350  12.080  68.601  1.00  0.00    -0.196 A  
HETATM   23  C   UNL     1     -10.975  11.175  69.463  1.00  0.00    -0.276 A  
HETATM   24  C   UNL     1      -9.040  11.832  68.224  1.00  0.00    -0.187 A  
HETATM   25  H   UNL     1      -8.820   8.169  70.698  1.00  0.00     0.000 HD 
HETATM   26  O   UNL     1      -8.362   8.757  70.109  1.00  0.00    -0.115 OA 
HETATM   27  C   UNL     1      -8.317  10.713  68.678  1.00  0.00    -0.137 A  
HETATM   28  C   UNL     1     -10.343  10.029  69.962  1.00  0.00    -0.323 A  
HETATM   29  C   UNL     1      -9.004   9.831  69.563  1.00  0.00    -0.204 A  
BRANCH  27  30
HETATM   30  C   UNL     1      -6.835  10.559  68.252  1.00  0.00    -0.068 C  
HETATM   31  C   UNL     1      -6.432   9.086  67.947  1.00  0.00    -0.057 C  
HETATM   32  C   UNL     1      -6.565  11.350  66.957  1.00  0.00    -0.125 C  
HETATM   33  C   UNL     1      -5.872  11.010  69.372  1.00  0.00    -0.046 C  
ENDBRANCH  27  30
BRANCH  28  34
HETATM   34  C   UNL     1     -11.128   9.047  70.879  1.00  0.00    -0.343 C  
HETATM   35  C   UNL     1     -10.400   8.702  72.213  1.00  0.00    -0.376 C  
HETATM   36  C   UNL     1     -11.379   7.690  70.186  1.00  0.00    -0.147 C  
HETATM   37  C   UNL     1     -12.473   9.683  71.292  1.00  0.00    -0.445 C  
ENDBRANCH  28  34
ENDBRANCH  21  22
ENDBRANCH   2  21
TORSDOF 8
ENDMDL
MODEL       32
REMARK 921   NORMALIZED FREE ENERGY PREDICTED BY IDOCK:   -5.54 KCAL/MOL
REMARK 922        TOTAL FREE ENERGY PREDICTED BY IDOCK:   -8.72 KCAL/MOL
REMARK 923 INTER-LIGAND FREE ENERGY PREDICTED BY IDOCK:   -8.74 KCAL/MOL
REMARK 924 INTRA-LIGAND FREE ENERGY PREDICTED BY IDOCK:    0.02 KCAL/MOL
REMARK 927      BINDING AFFINITY PREDICTED BY RF-SCORE:    0.00 PKD
ROOT
HETATM    1  C   UNL     1     -11.962  11.970  65.321  1.00  0.00    -0.207 C  
HETATM    2  C   UNL     1     -11.834  13.431  65.789  1.00  0.00    -0.377 C  
HETATM    3  C   UNL     1     -13.160  14.149  65.490  1.00  0.00    -0.166 C  
ENDROOT
BRANCH   2   4
HETATM    4  S   UNL     1     -10.498  14.249  64.812  1.00  0.00    -0.295 SA 
BRANCH   4   5
HETATM    5  C   UNL     1      -9.655  15.304  65.987  1.00  0.00    -0.338 A  
HETATM    6  C   UNL     1      -8.113  16.962  67.630  1.00  0.00    -0.182 A  
HETATM    7  O   UNL     1      -7.351  17.835  68.352  1.00  0.00    -0.236 OA 
HETATM    8  H   UNL     1      -7.550  18.764  68.376  1.00  0.00     0.000 HD 
HETATM    9  C   UNL     1      -8.603  14.777  66.729  1.00  0.00    -0.226 A  
HETATM   10  C   UNL     1      -9.169  17.539  66.893  1.00  0.00    -0.273 A  
HETATM   11  C   UNL     1      -9.924  16.662  66.110  1.00  0.00    -0.356 A  
HETATM   12  C   UNL     1      -7.814  15.570  67.594  1.00  0.00    -0.174 A  
BRANCH  12  13
HETATM   13  C   UNL     1      -6.675  14.896  68.399  1.00  0.00    -0.101 C  
HETATM   14  C   UNL     1      -6.857  15.114  69.919  1.00  0.00    -0.154 C  
HETATM   15  C   UNL     1      -5.299  15.422  67.941  1.00  0.00    -0.133 C  
HETATM   16  C   UNL     1      -6.622  13.350  68.225  1.00  0.00    -0.105 C  
ENDBRANCH  12  13
BRANCH  10  17
HETATM   17  C   UNL     1      -9.536  19.047  66.917  1.00  0.00    -0.364 C  
HETATM   18  C   UNL     1      -8.320  19.924  66.553  1.00  0.00    -0.372 C  
HETATM   19  C   UNL     1     -10.651  19.451  65.905  1.00  0.00    -0.551 C  
HETATM   20  C   UNL     1     -10.079  19.431  68.308  1.00  0.00    -0.531 C  
ENDBRANCH  10  17
ENDBRANCH   4   5
ENDBRANCH   2   4
BRANCH   2  21
HETATM   21  S   UNL     1     -11.590  13.422  67.618  1.00  0.00    -0.361 SA 
BRANCH  21  22
HETATM   22  C   UNL     1     -10.979  11.780  67.992  1.00  0.00    -0.225 A  
HETATM   23  C   UNL     1     -11.356  11.047  69.119  1.00  0.00    -0.348 A  
HETATM   24  C   UNL     1      -9.959  11.284  67.194  1.00  0.00    -0.219 A  
HETATM   25  H   UNL     1      -9.357   7.773  69.820  1.00  0.00     0.000 HD 
HETATM   26  O   UNL     1      -9.075   8.239  69.042  1.00  0.00    -0.147 OA 
HETATM   27  C   UNL     1      -9.290  10.079  67.479  1.00  0.00    -0.162 A  
HETATM   28  C   UNL     1     -10.757   9.833  69.482  1.00  0.00    -0.255 A  
HETATM   29  C   UNL     1      -9.712   9.381  68.648  1.00  0.00    -0.152 A  
BRANCH  27  30
HETATM   30  C   UNL     1      -8.118   9.643  66.564  1.00  0.00    -0.119 C  
HETATM   31  C   UNL     1      -7.972  10.524  65.288  1.00  0.00    -0.112 C  
HETATM   32  C   UNL     1      -6.778   9.762  67.318  1.00  0.00    -0.074 C  
HETATM   33  C   UNL     1      -8.314   8.206  66.034  1.00  0.00    -0.132 C  
ENDBRANCH  27  30
BRANCH  28  34
HETATM   34  C   UNL     1     -11.270   9.055  70.727  1.00  0.00    -0.329 C  
HETATM   35  C   UNL     1     -10.218   8.914  71.868  1.00  0.00    -0.403 C  
HETATM   36  C   UNL     1     -11.686   7.611  70.371  1.00  0.00    -0.079 C  
HETATM   37  C   UNL     1     -12.465   9.806  71.354  1.00  0.00    -0.482 C  
ENDBRANCH  28  34
ENDBRANCH  21  22
ENDBRANCH   2  21
TORSDOF 8
ENDMDL
MODEL       33
REMARK 921   NORMALIZED FREE ENERGY PREDICTED BY IDOCK:   -5.53 KCAL/MOL
REMARK 922        TOTAL FREE ENERGY PREDICTED BY IDOCK:   -8.71 KCAL/MOL
REMARK 923 INTER-LIGAND FREE ENERGY PREDICTED BY IDOCK:   -9.10 KCAL/MOL
REMARK 924 INTRA-LIGAND FREE ENERGY PREDICTED BY IDOCK:    0.39 KCAL/MOL
REMARK 927      BINDING AFFINITY PREDICTED BY RF-SCORE:    0.00 PKD
ROOT
HETATM    1  C   UNL     1      -9.421  11.065  65.011  1.00  0.00    -0.269 C  
HETATM    2  C   UNL     1     -10.046  12.206  65.832  1.00  0.00    -0.245 C  
HETATM    3  C   UNL     1     -10.564  13.275  64.855  1.00  0.00    -0.381 C  
ENDROOT
BRANCH   2   4
HETATM    4  S   UNL     1      -8.732  12.969  66.881  1.00  0.00    -0.098 SA 
BRANCH   4   5
HETATM    5  C   UNL     1      -9.537  14.347  67.691  1.00  0.00    -0.214 A  
HETATM    6  C   UNL     1     -10.604  16.460  69.181  1.00  0.00    -0.308 A  
HETATM    7  O   UNL     1     -11.030  17.530  69.915  1.00  0.00    -0.129 OA 
HETATM    8  H   UNL     1     -10.785  18.419  69.684  1.00  0.00     0.000 HD 
HETATM    9  C   UNL     1     -10.385  14.093  68.763  1.00  0.00    -0.230 A  
HETATM   10  C   UNL     1      -9.746  16.763  68.102  1.00  0.00    -0.247 A  
HETATM   11  C   UNL     1      -9.262  15.673  67.376  1.00  0.00    -0.205 A  
HETATM   12  C   UNL     1     -10.971  15.128  69.527  1.00  0.00    -0.279 A  
BRANCH  12  13
HETATM   13  C   UNL     1     -11.922  14.756  70.693  1.00  0.00    -0.371 C  
HETATM   14  C   UNL     1     -11.338  15.191  72.056  1.00  0.00    -0.358 C  
HETATM   15  C   UNL     1     -12.216  13.241  70.693  1.00  0.00    -0.417 C  
HETATM   16  C   UNL     1     -13.307  15.461  70.613  1.00  0.00    -0.286 C  
ENDBRANCH  12  13
BRANCH  10  17
HETATM   17  C   UNL     1      -9.334  18.200  67.684  1.00  0.00    -0.260 C  
HETATM   18  C   UNL     1      -8.589  18.198  66.333  1.00  0.00    -0.251 C  
HETATM   19  C   UNL     1     -10.532  19.178  67.489  1.00  0.00    -0.549 C  
HETATM   20  C   UNL     1      -8.456  18.833  68.781  1.00  0.00    -0.320 C  
ENDBRANCH  10  17
ENDBRANCH   4   5
ENDBRANCH   2   4
BRANCH   2  21
HETATM   21  S   UNL     1     -11.495  11.521  66.747  1.00  0.00    -0.037 SA 
BRANCH  21  22
HETATM   22  C   UNL     1     -10.855  10.089  67.614  1.00  0.00    -0.278 A  
HETATM   23  C   UNL     1     -10.161   9.049  66.992  1.00  0.00    -0.318 A  
HETATM   24  C   UNL     1     -11.210   9.941  68.946  1.00  0.00    -0.126 A  
HETATM   25  H   UNL     1      -9.454   5.884  69.158  1.00  0.00     0.000 HD 
HETATM   26  O   UNL     1      -9.922   6.571  69.618  1.00  0.00    -0.161 OA 
HETATM   27  C   UNL     1     -10.904   8.786  69.689  1.00  0.00    -0.175 A  
HETATM   28  C   UNL     1      -9.802   7.865  67.650  1.00  0.00    -0.212 A  
HETATM   29  C   UNL     1     -10.202   7.755  68.998  1.00  0.00    -0.208 A  
BRANCH  27  30
HETATM   30  C   UNL     1     -11.402   8.687  71.153  1.00  0.00    -0.329 C  
HETATM   31  C   UNL     1     -12.323   7.458  71.408  1.00  0.00    -0.394 C  
HETATM   32  C   UNL     1     -10.207   8.530  72.115  1.00  0.00    -0.403 C  
HETATM   33  C   UNL     1     -12.256   9.912  71.548  1.00  0.00    -0.505 C  
ENDBRANCH  27  30
BRANCH  28  34
HETATM   34  C   UNL     1      -8.986   6.775  66.897  1.00  0.00    -0.133 C  
HETATM   35  C   UNL     1      -7.743   6.255  67.680  1.00  0.00    -0.098 C  
HETATM   36  C   UNL     1      -8.435   7.297  65.552  1.00  0.00    -0.119 C  
HETATM   37  C   UNL     1      -9.873   5.535  66.654  1.00  0.00    -0.190 C  
ENDBRANCH  28  34
ENDBRANCH  21  22
ENDBRANCH   2  21
TORSDOF 8
ENDMDL
MODEL       34
REMARK 921   NORMALIZED FREE ENERGY PREDICTED BY IDOCK:   -5.49 KCAL/MOL
REMARK 922        TOTAL FREE ENERGY PREDICTED BY IDOCK:   -8.65 KCAL/MOL
REMARK 923 INTER-LIGAND FREE ENERGY PREDICTED BY IDOCK:   -8.96 KCAL/MOL
REMARK 924 INTRA-LIGAND FREE ENERGY PREDICTED BY IDOCK:    0.31 KCAL/MOL
REMARK 927      BINDING AFFINITY PREDICTED BY RF-SCORE:    0.00 PKD
ROOT
HETATM    1  C   UNL     1     -10.645  11.031  64.752  1.00  0.00    -0.350 C  
HETATM    2  C   UNL     1     -10.502  12.356  65.521  1.00  0.00    -0.275 C  
HETATM    3  C   UNL     1     -10.266  13.482  64.501  1.00  0.00    -0.296 C  
ENDROOT
BRANCH   2   4
HETATM    4  S   UNL     1      -9.019  12.247  66.616  1.00  0.00    -0.155 SA 
BRANCH   4   5
HETATM    5  C   UNL     1      -9.092  10.602  67.319  1.00  0.00    -0.143 A  
HETATM    6  C   UNL     1      -8.931   8.080  68.519  1.00  0.00    -0.133 A  
HETATM    7  O   UNL     1      -8.827   6.897  69.192  1.00  0.00    -0.134 OA 
HETATM    8  H   UNL     1      -9.258   6.762  70.028  1.00  0.00     0.000 HD 
HETATM    9  C   UNL     1      -8.372   9.579  66.711  1.00  0.00    -0.116 A  
HETATM   10  C   UNL     1      -9.671   9.090  69.171  1.00  0.00    -0.167 A  
HETATM   11  C   UNL     1      -9.741  10.321  68.516  1.00  0.00    -0.167 A  
HETATM   12  C   UNL     1      -8.286   8.281  67.265  1.00  0.00    -0.120 A  
BRANCH  12  13
HETATM   13  C   UNL     1      -7.479   7.195  66.510  1.00  0.00    -0.088 C  
HETATM   14  C   UNL     1      -6.281   6.699  67.351  1.00  0.00    -0.033 C  
HETATM   15  C   UNL     1      -6.994   7.727  65.145  1.00  0.00    -0.059 C  
HETATM   16  C   UNL     1      -8.304   5.912  66.201  1.00  0.00    -0.124 C  
ENDBRANCH  12  13
BRANCH  10  17
HETATM   17  C   UNL     1     -10.400   8.906  70.528  1.00  0.00    -0.246 C  
HETATM   18  C   UNL     1     -11.422  10.037  70.772  1.00  0.00    -0.438 C  
HETATM   19  C   UNL     1     -11.218   7.585  70.642  1.00  0.00    -0.286 C  
HETATM   20  C   UNL     1      -9.370   8.857  71.674  1.00  0.00    -0.328 C  
ENDBRANCH  10  17
ENDBRANCH   4   5
ENDBRANCH   2   4
BRANCH   2  21
HETATM   21  S   UNL     1     -12.101  12.691  66.379  1.00  0.00    -0.121 SA 
BRANCH  21  22
HETATM   22  C   UNL     1     -11.694  13.869  67.666  1.00  0.00    -0.368 A  
HETATM   23  C   UNL     1     -12.225  13.827  68.957  1.00  0.00    -0.259 A  
HETATM   24  C   UNL     1     -10.929  14.967  67.304  1.00  0.00    -0.323 A  
HETATM   25  H   UNL     1     -11.500  16.902  71.243  1.00  0.00     0.000 HD 
HETATM   26  O   UNL     1     -11.116  16.966  70.376  1.00  0.00    -0.078 OA 
HETATM   27  C   UNL     1     -10.674  16.038  68.181  1.00  0.00    -0.311 A  
HETATM   28  C   UNL     1     -12.021  14.839  69.904  1.00  0.00    -0.378 A  
HETATM   29  C   UNL     1     -11.251  15.943  69.481  1.00  0.00    -0.325 A  
BRANCH  27  30
HETATM   30  C   UNL     1      -9.863  17.252  67.660  1.00  0.00    -0.279 C  
HETATM   31  C   UNL     1      -8.589  17.549  68.505  1.00  0.00    -0.276 C  
HETATM   32  C   UNL     1      -9.368  16.988  66.224  1.00  0.00    -0.276 C  
HETATM   33  C   UNL     1     -10.690  18.555  67.717  1.00  0.00    -0.378 C  
ENDBRANCH  27  30
BRANCH  28  34
HETATM   34  C   UNL     1     -12.609  14.692  71.337  1.00  0.00    -0.404 C  
HETATM   35  C   UNL     1     -13.992  15.383  71.533  1.00  0.00    -0.601 C  
HETATM   36  C   UNL     1     -11.684  15.315  72.405  1.00  0.00    -0.538 C  
HETATM   37  C   UNL     1     -12.843  13.198  71.652  1.00  0.00    -0.388 C  
ENDBRANCH  28  34
ENDBRANCH  21  22
ENDBRANCH   2  21
TORSDOF 8
ENDMDL
MODEL       35
REMARK 921   NORMALIZED FREE ENERGY PREDICTED BY IDOCK:   -5.49 KCAL/MOL
REMARK 922        TOTAL FREE ENERGY PREDICTED BY IDOCK:   -8.65 KCAL/MOL
REMARK 923 INTER-LIGAND FREE ENERGY PREDICTED BY IDOCK:   -9.19 KCAL/MOL
REMARK 924 INTRA-LIGAND FREE ENERGY PREDICTED BY IDOCK:    0.54 KCAL/MOL
REMARK 927      BINDING AFFINITY PREDICTED BY RF-SCORE:    0.00 PKD
ROOT
HETATM    1  C   UNL     1     -11.873  12.344  67.295  1.00  0.00    -0.357 C  
HETATM    2  C   UNL     1     -10.680  13.259  67.624  1.00  0.00    -0.239 C  
HETATM    3  C   UNL     1     -10.121  13.815  66.304  1.00  0.00    -0.304 C  
ENDROOT
BRANCH   2   4
HETATM    4  S   UNL     1      -9.363  12.245  68.430  1.00  0.00    -0.114 SA 
BRANCH   4   5
HETATM    5  C   UNL     1     -10.155  10.685  68.805  1.00  0.00    -0.191 A  
HETATM    6  C   UNL     1     -11.140   8.168  69.526  1.00  0.00     0.052 A  
HETATM    7  O   UNL     1     -11.594   6.960  69.975  1.00  0.00    -0.485 OA 
HETATM    8  H   UNL     1     -12.174   6.896  70.724  1.00  0.00     0.000 HD 
HETATM    9  C   UNL     1      -9.777   9.551  68.093  1.00  0.00    -0.166 A  
HETATM   10  C   UNL     1     -11.548   9.290  70.277  1.00  0.00    -0.151 A  
HETATM   11  C   UNL     1     -11.048  10.525  69.858  1.00  0.00    -0.371 A  
HETATM   12  C   UNL     1     -10.270   8.263  68.402  1.00  0.00    -0.242 A  
BRANCH  12  13
HETATM   13  C   UNL     1      -9.812   7.057  67.543  1.00  0.00    -0.186 C  
HETATM   14  C   UNL     1      -8.877   7.508  66.396  1.00  0.00    -0.178 C  
HETATM   15  C   UNL     1     -11.030   6.298  66.977  1.00  0.00    -0.442 C  
HETATM   16  C   UNL     1      -8.984   6.007  68.339  1.00  0.00    -0.114 C  
ENDBRANCH  12  13
BRANCH  10  17
HETATM   17  C   UNL     1     -12.506   9.230  71.497  1.00  0.00    -0.435 C  
HETATM   18  C   UNL     1     -12.937  10.644  71.941  1.00  0.00    -0.542 C  
HETATM   19  C   UNL     1     -13.835   8.461  71.231  1.00  0.00    -0.208 C  
HETATM   20  C   UNL     1     -11.822   8.486  72.662  1.00  0.00    -0.311 C  
ENDBRANCH  10  17
ENDBRANCH   4   5
ENDBRANCH   2   4
BRANCH   2  21
HETATM   21  S   UNL     1     -11.310  14.680  68.620  1.00  0.00    -0.300 SA 
BRANCH  21  22
HETATM   22  C   UNL     1     -10.041  15.937  68.480  1.00  0.00    -0.217 A  
HETATM   23  C   UNL     1     -10.206  17.135  67.780  1.00  0.00    -0.324 A  
HETATM   24  C   UNL     1      -8.781  15.626  68.966  1.00  0.00    -0.240 A  
HETATM   25  H   UNL     1      -7.010  19.309  67.268  1.00  0.00     0.000 HD 
HETATM   26  O   UNL     1      -6.858  18.507  67.754  1.00  0.00    -0.209 OA 
HETATM   27  C   UNL     1      -7.666  16.463  68.776  1.00  0.00    -0.214 A  
HETATM   28  C   UNL     1      -9.160  18.038  67.548  1.00  0.00    -0.253 A  
HETATM   29  C   UNL     1      -7.893  17.666  68.046  1.00  0.00    -0.235 A  
BRANCH  27  30
HETATM   30  C   UNL     1      -6.284  15.994  69.299  1.00  0.00    -0.151 C  
HETATM   31  C   UNL     1      -6.358  14.695  70.154  1.00  0.00    -0.173 C  
HETATM   32  C   UNL     1      -5.346  15.673  68.118  1.00  0.00    -0.121 C  
HETATM   33  C   UNL     1      -5.642  17.045  70.230  1.00  0.00    -0.212 C  
ENDBRANCH  27  30
BRANCH  28  34
HETATM   34  C   UNL     1      -9.439  19.373  66.801  1.00  0.00    -0.404 C  
HETATM   35  C   UNL     1      -8.261  19.861  65.906  1.00  0.00    -0.229 C  
HETATM   36  C   UNL     1      -9.717  20.534  67.782  1.00  0.00    -0.433 C  
HETATM   37  C   UNL     1     -10.640  19.195  65.846  1.00  0.00    -0.495 C  
ENDBRANCH  28  34
ENDBRANCH  21  22
ENDBRANCH   2  21
TORSDOF 8
ENDMDL
MODEL       36
REMARK 921   NORMALIZED FREE ENERGY PREDICTED BY IDOCK:   -5.48 KCAL/MOL
REMARK 922        TOTAL FREE ENERGY PREDICTED BY IDOCK:   -8.65 KCAL/MOL
REMARK 923 INTER-LIGAND FREE ENERGY PREDICTED BY IDOCK:   -9.44 KCAL/MOL
REMARK 924 INTRA-LIGAND FREE ENERGY PREDICTED BY IDOCK:    0.80 KCAL/MOL
REMARK 927      BINDING AFFINITY PREDICTED BY RF-SCORE:    0.00 PKD
ROOT
HETATM    1  C   UNL     1      -8.914  11.955  66.599  1.00  0.00    -0.198 C  
HETATM    2  C   UNL     1      -9.654  10.903  67.445  1.00  0.00    -0.163 C  
HETATM    3  C   UNL     1      -9.099  10.959  68.877  1.00  0.00    -0.151 C  
ENDROOT
BRANCH   2   4
HETATM    4  S   UNL     1      -9.298   9.230  66.750  1.00  0.00    -0.167 SA 
BRANCH   4   5
HETATM    5  C   UNL     1      -9.741   8.090  68.058  1.00  0.00    -0.160 A  
HETATM    6  C   UNL     1     -10.175   6.383  70.231  1.00  0.00    -0.195 A  
HETATM    7  O   UNL     1     -10.370   5.630  71.353  1.00  0.00    -0.211 OA 
HETATM    8  H   UNL     1     -10.958   5.914  72.044  1.00  0.00     0.000 HD 
HETATM    9  C   UNL     1      -9.085   6.866  68.132  1.00  0.00    -0.124 A  
HETATM   10  C   UNL     1     -10.859   7.617  70.197  1.00  0.00    -0.255 A  
HETATM   11  C   UNL     1     -10.626   8.419  69.078  1.00  0.00    -0.172 A  
HETATM   12  C   UNL     1      -9.294   5.958  69.196  1.00  0.00    -0.137 A  
BRANCH  12  13
HETATM   13  C   UNL     1      -8.537   4.606  69.188  1.00  0.00    -0.097 C  
HETATM   14  C   UNL     1      -9.515   3.415  69.317  1.00  0.00    -0.212 C  
HETATM   15  C   UNL     1      -7.486   4.563  70.317  1.00  0.00    -0.050 C  
HETATM   16  C   UNL     1      -7.759   4.337  67.867  1.00  0.00    -0.079 C  
ENDBRANCH  12  13
BRANCH  10  17
HETATM   17  C   UNL     1     -11.838   8.109  71.296  1.00  0.00    -0.317 C  
HETATM   18  C   UNL     1     -11.167   8.104  72.686  1.00  0.00    -0.447 C  
HETATM   19  C   UNL     1     -12.348   9.568  71.094  1.00  0.00    -0.410 C  
HETATM   20  C   UNL     1     -13.101   7.225  71.306  1.00  0.00    -0.363 C  
ENDBRANCH  10  17
ENDBRANCH   4   5
ENDBRANCH   2   4
BRANCH   2  21
HETATM   21  S   UNL     1     -11.437  11.375  67.506  1.00  0.00    -0.210 SA 
BRANCH  21  22
HETATM   22  C   UNL     1     -11.450  13.035  68.181  1.00  0.00    -0.319 A  
HETATM   23  C   UNL     1     -10.739  14.104  67.632  1.00  0.00    -0.260 A  
HETATM   24  C   UNL     1     -12.080  13.219  69.402  1.00  0.00    -0.301 A  
HETATM   25  H   UNL     1     -10.611  17.380  69.744  1.00  0.00     0.000 HD 
HETATM   26  O   UNL     1     -11.110  16.679  70.148  1.00  0.00    -0.310 OA 
HETATM   27  C   UNL     1     -12.025  14.435  70.109  1.00  0.00    -0.386 A  
HETATM   28  C   UNL     1     -10.633  15.355  68.255  1.00  0.00    -0.253 A  
HETATM   29  C   UNL     1     -11.276  15.487  69.504  1.00  0.00    -0.299 A  
BRANCH  27  30
HETATM   30  C   UNL     1     -12.706  14.522  71.498  1.00  0.00    -0.409 C  
HETATM   31  C   UNL     1     -13.080  13.130  72.088  1.00  0.00    -0.481 C  
HETATM   32  C   UNL     1     -11.753  15.174  72.520  1.00  0.00    -0.475 C  
HETATM   33  C   UNL     1     -14.040  15.296  71.431  1.00  0.00    -0.595 C  
ENDBRANCH  27  30
BRANCH  28  34
HETATM   34  C   UNL     1      -9.861  16.509  67.552  1.00  0.00    -0.248 C  
HETATM   35  C   UNL     1     -10.601  17.880  67.578  1.00  0.00    -0.386 C  
HETATM   36  C   UNL     1      -9.611  16.206  66.058  1.00  0.00    -0.381 C  
HETATM   37  C   UNL     1      -8.516  16.749  68.271  1.00  0.00    -0.222 C  
ENDBRANCH  28  34
ENDBRANCH  21  22
ENDBRANCH   2  21
TORSDOF 8
ENDMDL
MODEL       37
REMARK 921   NORMALIZED FREE ENERGY PREDICTED BY IDOCK:   -5.47 KCAL/MOL
REMARK 922        TOTAL FREE ENERGY PREDICTED BY IDOCK:   -8.63 KCAL/MOL
REMARK 923 INTER-LIGAND FREE ENERGY PREDICTED BY IDOCK:   -8.53 KCAL/MOL
REMARK 924 INTRA-LIGAND FREE ENERGY PREDICTED BY IDOCK:   -0.09 KCAL/MOL
REMARK 927      BINDING AFFINITY PREDICTED BY RF-SCORE:    0.00 PKD
ROOT
HETATM    1  C   UNL     1     -12.403  15.054  64.430  1.00  0.00    -0.283 C  
HETATM    2  C   UNL     1     -11.636  14.014  65.265  1.00  0.00    -0.337 C  
HETATM    3  C   UNL     1     -10.131  14.221  65.029  1.00  0.00    -0.324 C  
ENDROOT
BRANCH   2   4
HETATM    4  S   UNL     1     -12.089  12.327  64.669  1.00  0.00    -0.343 SA 
BRANCH   4   5
HETATM    5  C   UNL     1     -10.843  11.247  65.366  1.00  0.00    -0.188 A  
HETATM    6  C   UNL     1      -9.108   9.351  66.470  1.00  0.00    -0.153 A  
HETATM    7  O   UNL     1      -8.290   8.362  66.935  1.00  0.00    -0.105 OA 
HETATM    8  H   UNL     1      -7.691   7.902  66.358  1.00  0.00     0.000 HD 
HETATM    9  C   UNL     1     -10.881  10.968  66.728  1.00  0.00    -0.307 A  
HETATM   10  C   UNL     1      -9.037   9.600  65.083  1.00  0.00    -0.279 A  
HETATM   11  C   UNL     1      -9.907  10.574  64.589  1.00  0.00    -0.404 A  
HETATM   12  C   UNL     1     -10.006  10.040  67.336  1.00  0.00    -0.242 A  
BRANCH  12  13
HETATM   13  C   UNL     1     -10.102   9.807  68.865  1.00  0.00    -0.194 C  
HETATM   14  C   UNL     1      -8.763  10.127  69.568  1.00  0.00    -0.189 C  
HETATM   15  C   UNL     1     -10.536   8.357  69.169  1.00  0.00    -0.218 C  
HETATM   16  C   UNL     1     -11.147  10.722  69.567  1.00  0.00    -0.334 C  
ENDBRANCH  12  13
BRANCH  10  17
HETATM   17  C   UNL     1      -8.064   8.883  64.110  1.00  0.00    -0.160 C  
HETATM   18  C   UNL     1      -6.621   9.405  64.276  1.00  0.00    -0.094 C  
HETATM   19  C   UNL     1      -7.968   7.342  64.321  1.00  0.00    -0.093 C  
HETATM   20  C   UNL     1      -8.542   9.074  62.657  1.00  0.00    -0.201 C  
ENDBRANCH  10  17
ENDBRANCH   4   5
ENDBRANCH   2   4
BRANCH   2  21
HETATM   21  S   UNL     1     -11.984  14.347  67.047  1.00  0.00    -0.333 SA 
BRANCH  21  22
HETATM   22  C   UNL     1     -10.647  15.411  67.586  1.00  0.00    -0.280 A  
HETATM   23  C   UNL     1     -10.666  16.803  67.475  1.00  0.00    -0.275 A  
HETATM   24  C   UNL     1      -9.471  14.798  67.989  1.00  0.00    -0.204 A  
HETATM   25  H   UNL     1      -7.327  18.661  68.250  1.00  0.00     0.000 HD 
HETATM   26  O   UNL     1      -7.274  17.717  68.343  1.00  0.00    -0.217 OA 
HETATM   27  C   UNL     1      -8.300  15.522  68.285  1.00  0.00    -0.147 A  
HETATM   28  C   UNL     1      -9.556  17.611  67.755  1.00  0.00    -0.267 A  
HETATM   29  C   UNL     1      -8.378  16.938  68.144  1.00  0.00    -0.212 A  
BRANCH  27  30
HETATM   30  C   UNL     1      -7.016  14.741  68.663  1.00  0.00    -0.110 C  
HETATM   31  C   UNL     1      -6.566  14.973  70.136  1.00  0.00    -0.116 C  
HETATM   32  C   UNL     1      -7.253  13.223  68.526  1.00  0.00    -0.110 C  
HETATM   33  C   UNL     1      -5.810  15.180  67.805  1.00  0.00    -0.134 C  
ENDBRANCH  27  30
BRANCH  28  34
HETATM   34  C   UNL     1      -9.677  19.158  67.654  1.00  0.00    -0.391 C  
HETATM   35  C   UNL     1     -10.909  19.649  66.835  1.00  0.00    -0.505 C  
HETATM   36  C   UNL     1      -8.447  19.786  66.961  1.00  0.00    -0.366 C  
HETATM   37  C   UNL     1      -9.849  19.761  69.065  1.00  0.00    -0.419 C  
ENDBRANCH  28  34
ENDBRANCH  21  22
ENDBRANCH   2  21
TORSDOF 8
ENDMDL
MODEL       38
REMARK 921   NORMALIZED FREE ENERGY PREDICTED BY IDOCK:   -5.47 KCAL/MOL
REMARK 922        TOTAL FREE ENERGY PREDICTED BY IDOCK:   -8.63 KCAL/MOL
REMARK 923 INTER-LIGAND FREE ENERGY PREDICTED BY IDOCK:   -9.78 KCAL/MOL
REMARK 924 INTRA-LIGAND FREE ENERGY PREDICTED BY IDOCK:    1.16 KCAL/MOL
REMARK 927      BINDING AFFINITY PREDICTED BY RF-SCORE:    0.00 PKD
ROOT
HETATM    1  C   UNL     1     -10.604   8.824  72.199  1.00  0.00    -0.386 C  
HETATM    2  C   UNL     1     -11.860   8.403  71.414  1.00  0.00    -0.296 C  
HETATM    3  C   UNL     1     -11.535   8.468  69.913  1.00  0.00     0.159 C  
ENDROOT
BRANCH   2   4
HETATM    4  S   UNL     1     -13.210   9.611  71.768  1.00  0.00    -0.450 SA 
BRANCH   4   5
HETATM    5  C   UNL     1     -12.631  11.157  71.077  1.00  0.00    -0.403 A  
HETATM    6  C   UNL     1     -11.967  13.567  69.822  1.00  0.00    -0.340 A  
HETATM    7  O   UNL     1     -11.737  14.778  69.233  1.00  0.00    -0.284 OA 
HETATM    8  H   UNL     1     -11.918  15.592  69.688  1.00  0.00     0.000 HD 
HETATM    9  C   UNL     1     -12.073  11.156  69.803  1.00  0.00    -0.414 A  
HETATM   10  C   UNL     1     -12.534  13.615  71.114  1.00  0.00    -0.442 A  
HETATM   11  C   UNL     1     -12.822  12.383  71.704  1.00  0.00    -0.375 A  
HETATM   12  C   UNL     1     -11.695  12.346  69.141  1.00  0.00    -0.376 A  
BRANCH  12  13
HETATM   13  C   UNL     1     -11.059  12.252  67.731  1.00  0.00    -0.304 C  
HETATM   14  C   UNL     1     -10.950  10.783  67.262  1.00  0.00    -0.359 C  
HETATM   15  C   UNL     1      -9.672  12.927  67.712  1.00  0.00    -0.214 C  
HETATM   16  C   UNL     1     -11.895  12.959  66.624  1.00  0.00    -0.461 C  
ENDBRANCH  12  13
BRANCH  10  17
HETATM   17  C   UNL     1     -12.832  14.923  71.895  1.00  0.00    -0.402 C  
HETATM   18  C   UNL     1     -12.755  14.694  73.419  1.00  0.00    -0.528 C  
HETATM   19  C   UNL     1     -11.833  16.083  71.604  1.00  0.00    -0.582 C  
HETATM   20  C   UNL     1     -14.222  15.462  71.501  1.00  0.00    -0.584 C  
ENDBRANCH  10  17
ENDBRANCH   4   5
ENDBRANCH   2   4
BRANCH   2  21
HETATM   21  S   UNL     1     -12.233   6.646  71.840  1.00  0.00    -0.292 SA 
BRANCH  21  22
HETATM   22  C   UNL     1     -10.824   5.717  71.238  1.00  0.00    -0.247 A  
HETATM   23  C   UNL     1     -10.577   5.468  69.886  1.00  0.00    -0.387 A  
HETATM   24  C   UNL     1     -10.028   5.087  72.181  1.00  0.00    -0.236 A  
HETATM   25  H   UNL     1      -7.720   2.940  69.074  1.00  0.00     0.000 HD 
HETATM   26  O   UNL     1      -7.853   3.088  70.003  1.00  0.00    -0.043 OA 
HETATM   27  C   UNL     1      -8.990   4.204  71.830  1.00  0.00    -0.154 A  
HETATM   28  C   UNL     1      -9.562   4.613  69.437  1.00  0.00    -0.257 A  
HETATM   29  C   UNL     1      -8.791   3.981  70.436  1.00  0.00    -0.083 A  
BRANCH  27  30
HETATM   30  C   UNL     1      -8.199   3.496  72.960  1.00  0.00    -0.078 C  
HETATM   31  C   UNL     1      -8.563   4.013  74.383  1.00  0.00    -0.095 C  
HETATM   32  C   UNL     1      -8.511   1.986  72.964  1.00  0.00    -0.062 C  
HETATM   33  C   UNL     1      -6.680   3.735  72.827  1.00  0.00    -0.037 C  
ENDBRANCH  27  30
BRANCH  28  34
HETATM   34  C   UNL     1      -9.322   4.427  67.911  1.00  0.00    -0.190 C  
HETATM   35  C   UNL     1     -10.370   5.146  67.009  1.00  0.00    -0.267 C  
HETATM   36  C   UNL     1      -9.376   2.939  67.498  1.00  0.00    -0.218 C  
HETATM   37  C   UNL     1      -7.955   5.030  67.522  1.00  0.00    -0.095 C  
ENDBRANCH  28  34
ENDBRANCH  21  22
ENDBRANCH   2  21
TORSDOF 8
ENDMDL
MODEL       39
REMARK 921   NORMALIZED FREE ENERGY PREDICTED BY IDOCK:   -5.46 KCAL/MOL
REMARK 922        TOTAL FREE ENERGY PREDICTED BY IDOCK:   -8.61 KCAL/MOL
REMARK 923 INTER-LIGAND FREE ENERGY PREDICTED BY IDOCK:   -8.97 KCAL/MOL
REMARK 924 INTRA-LIGAND FREE ENERGY PREDICTED BY IDOCK:    0.36 KCAL/MOL
REMARK 927      BINDING AFFINITY PREDICTED BY RF-SCORE:    0.00 PKD
ROOT
HETATM    1  C   UNL     1      -8.823  10.858  67.002  1.00  0.00    -0.141 C  
HETATM    2  C   UNL     1     -10.145  10.361  67.613  1.00  0.00    -0.188 C  
HETATM    3  C   UNL     1     -10.028  10.440  69.143  1.00  0.00    -0.237 C  
ENDROOT
BRANCH   2   4
HETATM    4  S   UNL     1     -10.384   8.592  67.141  1.00  0.00    -0.302 SA 
BRANCH   4   5
HETATM    5  C   UNL     1      -9.836   7.661  68.569  1.00  0.00    -0.167 A  
HETATM    6  C   UNL     1      -8.849   6.458  70.893  1.00  0.00    -0.136 A  
HETATM    7  O   UNL     1      -8.410   5.946  72.081  1.00  0.00    -0.117 OA 
HETATM    8  H   UNL     1      -9.001   5.821  72.815  1.00  0.00     0.000 HD 
HETATM    9  C   UNL     1      -8.501   7.282  68.651  1.00  0.00    -0.129 A  
HETATM   10  C   UNL     1     -10.210   6.829  70.854  1.00  0.00    -0.215 A  
HETATM   11  C   UNL     1     -10.656   7.402  69.661  1.00  0.00    -0.243 A  
HETATM   12  C   UNL     1      -7.963   6.645  69.793  1.00  0.00    -0.120 A  
BRANCH  12  13
HETATM   13  C   UNL     1      -6.468   6.237  69.791  1.00  0.00    -0.043 C  
HETATM   14  C   UNL     1      -5.660   7.059  70.821  1.00  0.00    -0.027 C  
HETATM   15  C   UNL     1      -5.862   6.395  68.381  1.00  0.00    -0.016 C  
HETATM   16  C   UNL     1      -6.230   4.753  70.195  1.00  0.00    -0.026 C  
ENDBRANCH  12  13
BRANCH  10  17
HETATM   17  C   UNL     1     -11.209   6.629  72.024  1.00  0.00    -0.301 C  
HETATM   18  C   UNL     1     -12.665   6.847  71.560  1.00  0.00    -0.396 C  
HETATM   19  C   UNL     1     -11.187   5.200  72.647  1.00  0.00    -0.277 C  
HETATM   20  C   UNL     1     -10.863   7.590  73.178  1.00  0.00    -0.448 C  
ENDBRANCH  10  17
ENDBRANCH   4   5
ENDBRANCH   2   4
BRANCH   2  21
HETATM   21  S   UNL     1     -11.485  11.513  67.082  1.00  0.00    -0.155 SA 
BRANCH  21  22
HETATM   22  C   UNL     1     -11.321  12.936  68.158  1.00  0.00    -0.289 A  
HETATM   23  C   UNL     1     -12.025  13.094  69.354  1.00  0.00    -0.347 A  
HETATM   24  C   UNL     1     -10.567  14.002  67.692  1.00  0.00    -0.249 A  
HETATM   25  H   UNL     1     -11.778  16.583  71.077  1.00  0.00     0.000 HD 
HETATM   26  O   UNL     1     -11.280  16.514  70.271  1.00  0.00    -0.333 OA 
HETATM   27  C   UNL     1     -10.490  15.232  68.371  1.00  0.00    -0.236 A  
HETATM   28  C   UNL     1     -12.006  14.276  70.106  1.00  0.00    -0.391 A  
HETATM   29  C   UNL     1     -11.239  15.337  69.580  1.00  0.00    -0.281 A  
BRANCH  27  30
HETATM   30  C   UNL     1      -9.674  16.386  67.735  1.00  0.00    -0.235 C  
HETATM   31  C   UNL     1     -10.495  17.699  67.564  1.00  0.00    -0.365 C  
HETATM   32  C   UNL     1      -8.473  16.749  68.631  1.00  0.00    -0.259 C  
HETATM   33  C   UNL     1      -9.198  16.028  66.310  1.00  0.00    -0.368 C  
ENDBRANCH  27  30
BRANCH  28  34
HETATM   34  C   UNL     1     -12.781  14.352  71.452  1.00  0.00    -0.413 C  
HETATM   35  C   UNL     1     -11.970  14.988  72.620  1.00  0.00    -0.421 C  
HETATM   36  C   UNL     1     -13.196  12.952  71.957  1.00  0.00    -0.549 C  
HETATM   37  C   UNL     1     -14.032  15.240  71.283  1.00  0.00    -0.548 C  
ENDBRANCH  28  34
ENDBRANCH  21  22
ENDBRANCH   2  21
TORSDOF 8
ENDMDL
MODEL       40
REMARK 921   NORMALIZED FREE ENERGY PREDICTED BY IDOCK:   -5.45 KCAL/MOL
REMARK 922        TOTAL FREE ENERGY PREDICTED BY IDOCK:   -8.60 KCAL/MOL
REMARK 923 INTER-LIGAND FREE ENERGY PREDICTED BY IDOCK:   -9.04 KCAL/MOL
REMARK 924 INTRA-LIGAND FREE ENERGY PREDICTED BY IDOCK:    0.44 KCAL/MOL
REMARK 927      BINDING AFFINITY PREDICTED BY RF-SCORE:    0.00 PKD
ROOT
HETATM    1  C   UNL     1     -11.397   7.746  73.001  1.00  0.00    -0.331 C  
HETATM    2  C   UNL     1     -11.572   8.418  71.628  1.00  0.00    -0.289 C  
HETATM    3  C   UNL     1     -10.359   9.330  71.380  1.00  0.00    -0.392 C  
ENDROOT
BRANCH   2   4
HETATM    4  S   UNL     1     -13.088   9.471  71.675  1.00  0.00    -0.428 SA 
BRANCH   4   5
HETATM    5  C   UNL     1     -12.575  11.039  70.982  1.00  0.00    -0.411 A  
HETATM    6  C   UNL     1     -12.014  13.473  69.722  1.00  0.00    -0.340 A  
HETATM    7  O   UNL     1     -11.835  14.691  69.131  1.00  0.00    -0.293 OA 
HETATM    8  H   UNL     1     -12.055  15.498  69.582  1.00  0.00     0.000 HD 
HETATM    9  C   UNL     1     -12.012  11.060  69.711  1.00  0.00    -0.428 A  
HETATM   10  C   UNL     1     -12.588  13.499  71.011  1.00  0.00    -0.438 A  
HETATM   11  C   UNL     1     -12.824  12.257  71.604  1.00  0.00    -0.378 A  
HETATM   12  C   UNL     1     -11.684  12.264  69.046  1.00  0.00    -0.376 A  
BRANCH  12  13
HETATM   13  C   UNL     1     -11.038  12.194  67.639  1.00  0.00    -0.320 C  
HETATM   14  C   UNL     1     -10.860  10.730  67.176  1.00  0.00    -0.335 C  
HETATM   15  C   UNL     1      -9.683  12.931  67.624  1.00  0.00    -0.212 C  
HETATM   16  C   UNL     1     -11.900  12.858  66.527  1.00  0.00    -0.473 C  
ENDBRANCH  12  13
BRANCH  10  17
HETATM   17  C   UNL     1     -12.948  14.795  71.787  1.00  0.00    -0.410 C  
HETATM   18  C   UNL     1     -14.352  15.306  71.402  1.00  0.00    -0.578 C  
HETATM   19  C   UNL     1     -12.984  14.625  73.336  1.00  0.00    -0.483 C  
HETATM   20  C   UNL     1     -11.887  15.880  71.513  1.00  0.00    -0.536 C  
ENDBRANCH  10  17
ENDBRANCH   4   5
ENDBRANCH   2   4
BRANCH   2  21
HETATM   21  S   UNL     1     -11.563   7.094  70.342  1.00  0.00    -0.220 SA 
BRANCH  21  22
HETATM   22  C   UNL     1      -9.858   6.988  69.803  1.00  0.00    -0.169 A  
HETATM   23  C   UNL     1      -9.416   7.371  68.535  1.00  0.00    -0.144 A  
HETATM   24  C   UNL     1      -8.964   6.346  70.646  1.00  0.00    -0.144 A  
HETATM   25  H   UNL     1      -5.743   6.442  67.612  1.00  0.00     0.000 HD 
HETATM   26  O   UNL     1      -6.003   6.172  68.485  1.00  0.00    -0.015 OA 
HETATM   27  C   UNL     1      -7.638   6.061  70.271  1.00  0.00    -0.095 A  
HETATM   28  C   UNL     1      -8.114   7.140  68.073  1.00  0.00    -0.120 A  
HETATM   29  C   UNL     1      -7.248   6.467  68.961  1.00  0.00    -0.084 A  
BRANCH  27  30
HETATM   30  C   UNL     1      -6.735   5.279  71.259  1.00  0.00    -0.044 C  
HETATM   31  C   UNL     1      -5.429   6.041  71.634  1.00  0.00    -0.022 C  
HETATM   32  C   UNL     1      -7.480   5.036  72.587  1.00  0.00    -0.095 C  
HETATM   33  C   UNL     1      -6.255   3.942  70.655  1.00  0.00    -0.019 C  
ENDBRANCH  27  30
BRANCH  28  34
HETATM   34  C   UNL     1      -7.690   7.641  66.663  1.00  0.00    -0.098 C  
HETATM   35  C   UNL     1      -7.074   6.537  65.753  1.00  0.00    -0.062 C  
HETATM   36  C   UNL     1      -6.617   8.750  66.746  1.00  0.00    -0.061 C  
HETATM   37  C   UNL     1      -8.927   8.164  65.903  1.00  0.00    -0.195 C  
ENDBRANCH  28  34
ENDBRANCH  21  22
ENDBRANCH   2  21
TORSDOF 8
ENDMDL
MODEL       41
REMARK 921   NORMALIZED FREE ENERGY PREDICTED BY IDOCK:   -5.43 KCAL/MOL
REMARK 922        TOTAL FREE ENERGY PREDICTED BY IDOCK:   -8.57 KCAL/MOL
REMARK 923 INTER-LIGAND FREE ENERGY PREDICTED BY IDOCK:   -9.65 KCAL/MOL
REMARK 924 INTRA-LIGAND FREE ENERGY PREDICTED BY IDOCK:    1.08 KCAL/MOL
REMARK 927      BINDING AFFINITY PREDICTED BY RF-SCORE:    0.00 PKD
ROOT
HETATM    1  C   UNL     1     -13.406  10.052  71.283  1.00  0.00    -0.410 C  
HETATM    2  C   UNL     1     -12.277   9.006  71.307  1.00  0.00    -0.312 C  
HETATM    3  C   UNL     1     -11.595   9.065  72.684  1.00  0.00     0.296 C  
ENDROOT
BRANCH   2   4
HETATM    4  S   UNL     1     -11.029   9.453  70.022  1.00  0.00    -0.228 SA 
BRANCH   4   5
HETATM    5  C   UNL     1     -11.512  11.085  69.466  1.00  0.00    -0.299 A  
HETATM    6  C   UNL     1     -12.004  13.730  68.701  1.00  0.00    -0.366 A  
HETATM    7  O   UNL     1     -12.155  15.020  68.277  1.00  0.00    -0.549 OA 
HETATM    8  H   UNL     1     -12.038  15.258  67.365  1.00  0.00     0.000 HD 
HETATM    9  C   UNL     1     -11.894  12.031  70.412  1.00  0.00    -0.302 A  
HETATM   10  C   UNL     1     -11.617  12.804  67.709  1.00  0.00    -0.405 A  
HETATM   11  C   UNL     1     -11.410  11.492  68.141  1.00  0.00    -0.367 A  
HETATM   12  C   UNL     1     -12.181  13.372  70.068  1.00  0.00    -0.367 A  
BRANCH  12  13
HETATM   13  C   UNL     1     -12.620  14.355  71.183  1.00  0.00    -0.422 C  
HETATM   14  C   UNL     1     -13.836  15.200  70.739  1.00  0.00    -0.176 C  
HETATM   15  C   UNL     1     -11.449  15.272  71.593  1.00  0.00    -0.471 C  
HETATM   16  C   UNL     1     -13.086  13.646  72.487  1.00  0.00    -0.487 C  
ENDBRANCH  12  13
BRANCH  10  17
HETATM   17  C   UNL     1     -11.430  13.150  66.208  1.00  0.00    -0.372 C  
HETATM   18  C   UNL     1     -11.212  11.878  65.363  1.00  0.00    -0.351 C  
HETATM   19  C   UNL     1     -12.651  13.869  65.560  1.00  0.00    -0.560 C  
HETATM   20  C   UNL     1     -10.241  14.118  66.039  1.00  0.00    -0.318 C  
ENDBRANCH  10  17
ENDBRANCH   4   5
ENDBRANCH   2   4
BRANCH   2  21
HETATM   21  S   UNL     1     -13.046   7.338  71.123  1.00  0.00    -0.127 SA 
BRANCH  21  22
HETATM   22  C   UNL     1     -11.664   6.217  70.906  1.00  0.00    -0.222 A  
HETATM   23  C   UNL     1     -10.935   5.667  71.962  1.00  0.00    -0.302 A  
HETATM   24  C   UNL     1     -11.207   6.015  69.613  1.00  0.00    -0.428 A  
HETATM   25  H   UNL     1      -7.679   3.741  71.015  1.00  0.00     0.000 HD 
HETATM   26  O   UNL     1      -8.150   4.094  70.269  1.00  0.00    -0.057 OA 
HETATM   27  C   UNL     1     -10.038   5.286  69.326  1.00  0.00    -0.300 A  
HETATM   28  C   UNL     1      -9.765   4.918  71.778  1.00  0.00    -0.223 A  
HETATM   29  C   UNL     1      -9.331   4.757  70.445  1.00  0.00    -0.151 A  
BRANCH  27  30
HETATM   30  C   UNL     1      -9.572   5.172  67.852  1.00  0.00    -0.167 C  
HETATM   31  C   UNL     1     -10.575   5.801  66.840  1.00  0.00    -0.377 C  
HETATM   32  C   UNL     1      -8.240   5.924  67.654  1.00  0.00    -0.105 C  
HETATM   33  C   UNL     1      -9.433   3.699  67.411  1.00  0.00    -0.238 C  
ENDBRANCH  27  30
BRANCH  28  34
HETATM   34  C   UNL     1      -9.038   4.299  73.007  1.00  0.00    -0.122 C  
HETATM   35  C   UNL     1      -9.721   4.609  74.373  1.00  0.00    -0.169 C  
HETATM   36  C   UNL     1      -7.592   4.823  73.143  1.00  0.00    -0.092 C  
HETATM   37  C   UNL     1      -9.030   2.760  72.886  1.00  0.00    -0.101 C  
ENDBRANCH  28  34
ENDBRANCH  21  22
ENDBRANCH   2  21
TORSDOF 8
ENDMDL
MODEL       42
REMARK 921   NORMALIZED FREE ENERGY PREDICTED BY IDOCK:   -5.43 KCAL/MOL
REMARK 922        TOTAL FREE ENERGY PREDICTED BY IDOCK:   -8.56 KCAL/MOL
REMARK 923 INTER-LIGAND FREE ENERGY PREDICTED BY IDOCK:  -10.24 KCAL/MOL
REMARK 924 INTRA-LIGAND FREE ENERGY PREDICTED BY IDOCK:    1.67 KCAL/MOL
REMARK 927      BINDING AFFINITY PREDICTED BY RF-SCORE:    0.00 PKD
ROOT
HETATM    1  C   UNL     1     -12.504  12.550  65.054  1.00  0.00    -0.494 C  
HETATM    2  C   UNL     1     -11.368  13.325  65.746  1.00  0.00    -0.307 C  
HETATM    3  C   UNL     1     -10.065  12.528  65.572  1.00  0.00    -0.282 C  
ENDROOT
BRANCH   2   4
HETATM    4  S   UNL     1     -11.743  13.437  67.550  1.00  0.00    -0.371 SA 
BRANCH   4   5
HETATM    5  C   UNL     1     -11.622  11.754  68.146  1.00  0.00    -0.323 A  
HETATM    6  C   UNL     1     -11.159   9.191  69.167  1.00  0.00     0.062 A  
HETATM    7  O   UNL     1     -10.907   7.984  69.755  1.00  0.00    -0.276 OA 
HETATM    8  H   UNL     1     -11.275   7.758  70.601  1.00  0.00     0.000 HD 
HETATM    9  C   UNL     1     -10.845  10.844  67.437  1.00  0.00    -0.333 A  
HETATM   10  C   UNL     1     -11.951  10.083  69.921  1.00  0.00    -0.084 A  
HETATM   11  C   UNL     1     -12.173  11.339  69.353  1.00  0.00    -0.315 A  
HETATM   12  C   UNL     1     -10.607   9.529  67.899  1.00  0.00    -0.299 A  
BRANCH  12  13
HETATM   13  C   UNL     1      -9.746   8.574  67.033  1.00  0.00    -0.266 C  
HETATM   14  C   UNL     1      -8.429   8.201  67.751  1.00  0.00    -0.132 C  
HETATM   15  C   UNL     1      -9.448   9.205  65.657  1.00  0.00    -0.309 C  
HETATM   16  C   UNL     1     -10.437   7.211  66.740  1.00  0.00    -0.300 C  
ENDBRANCH  12  13
BRANCH  10  17
HETATM   17  C   UNL     1     -12.583   9.747  71.299  1.00  0.00    -0.460 C  
HETATM   18  C   UNL     1     -13.131  11.015  71.987  1.00  0.00    -0.449 C  
HETATM   19  C   UNL     1     -13.791   8.766  71.227  1.00  0.00    -0.226 C  
HETATM   20  C   UNL     1     -11.539   9.056  72.198  1.00  0.00    -0.348 C  
ENDBRANCH  10  17
ENDBRANCH   4   5
ENDBRANCH   2   4
BRANCH   2  21
HETATM   21  S   UNL     1     -11.169  14.940  64.874  1.00  0.00    -0.403 SA 
BRANCH  21  22
HETATM   22  C   UNL     1      -9.952  15.835  65.836  1.00  0.00    -0.352 A  
HETATM   23  C   UNL     1      -8.893  15.226  66.513  1.00  0.00    -0.335 A  
HETATM   24  C   UNL     1     -10.173  17.188  66.040  1.00  0.00    -0.332 A  
HETATM   25  H   UNL     1      -6.834  17.491  68.929  1.00  0.00     0.000 HD 
HETATM   26  O   UNL     1      -7.540  17.944  68.482  1.00  0.00    -0.270 OA 
HETATM   27  C   UNL     1      -9.379  17.966  66.903  1.00  0.00    -0.276 A  
HETATM   28  C   UNL     1      -8.041  15.917  67.386  1.00  0.00    -0.187 A  
HETATM   29  C   UNL     1      -8.319  17.287  67.574  1.00  0.00    -0.196 A  
BRANCH  27  30
HETATM   30  C   UNL     1      -9.747  19.456  67.116  1.00  0.00    -0.425 C  
HETATM   31  C   UNL     1      -8.512  20.404  67.102  1.00  0.00    -0.393 C  
HETATM   32  C   UNL     1     -10.671  19.946  65.983  1.00  0.00    -0.446 C  
HETATM   33  C   UNL     1     -10.409  19.688  68.492  1.00  0.00    -0.459 C  
ENDBRANCH  27  30
BRANCH  28  34
HETATM   34  C   UNL     1      -6.855  15.172  68.063  1.00  0.00    -0.152 C  
HETATM   35  C   UNL     1      -6.956  15.093  69.616  1.00  0.00    -0.192 C  
HETATM   36  C   UNL     1      -5.504  15.863  67.774  1.00  0.00    -0.158 C  
HETATM   37  C   UNL     1      -6.811  13.709  67.574  1.00  0.00    -0.152 C  
ENDBRANCH  28  34
ENDBRANCH  21  22
ENDBRANCH   2  21
TORSDOF 8
ENDMDL
MODEL       43
REMARK 921   NORMALIZED FREE ENERGY PREDICTED BY IDOCK:   -5.42 KCAL/MOL
REMARK 922        TOTAL FREE ENERGY PREDICTED BY IDOCK:   -8.56 KCAL/MOL
REMARK 923 INTER-LIGAND FREE ENERGY PREDICTED BY IDOCK:   -8.48 KCAL/MOL
REMARK 924 INTRA-LIGAND FREE ENERGY PREDICTED BY IDOCK:   -0.07 KCAL/MOL
REMARK 927      BINDING AFFINITY PREDICTED BY RF-SCORE:    0.00 PKD
ROOT
HETATM    1  C   UNL     1     -10.166  14.168  64.812  1.00  0.00    -0.311 C  
HETATM    2  C   UNL     1     -11.645  14.111  65.231  1.00  0.00    -0.341 C  
HETATM    3  C   UNL     1     -12.403  15.216  64.478  1.00  0.00    -0.212 C  
ENDROOT
BRANCH   2   4
HETATM    4  S   UNL     1     -11.761  14.459  67.040  1.00  0.00    -0.398 SA 
BRANCH   4   5
HETATM    5  C   UNL     1     -10.330  15.473  67.401  1.00  0.00    -0.266 A  
HETATM    6  C   UNL     1      -8.224  17.118  68.227  1.00  0.00    -0.230 A  
HETATM    7  O   UNL     1      -7.190  17.865  68.715  1.00  0.00    -0.262 OA 
HETATM    8  H   UNL     1      -6.397  17.458  69.046  1.00  0.00     0.000 HD 
HETATM    9  C   UNL     1     -10.458  16.857  67.352  1.00  0.00    -0.310 A  
HETATM   10  C   UNL     1      -8.052  15.719  68.297  1.00  0.00    -0.142 A  
HETATM   11  C   UNL     1      -9.124  14.945  67.848  1.00  0.00    -0.182 A  
HETATM   12  C   UNL     1      -9.411  17.728  67.731  1.00  0.00    -0.262 A  
BRANCH  12  13
HETATM   13  C   UNL     1      -9.632  19.259  67.624  1.00  0.00    -0.392 C  
HETATM   14  C   UNL     1     -10.100  19.854  68.971  1.00  0.00    -0.395 C  
HETATM   15  C   UNL     1     -10.648  19.585  66.509  1.00  0.00    -0.579 C  
HETATM   16  C   UNL     1      -8.339  20.049  67.269  1.00  0.00    -0.381 C  
ENDBRANCH  12  13
BRANCH  10  17
HETATM   17  C   UNL     1      -6.769  15.016  68.815  1.00  0.00    -0.099 C  
HETATM   18  C   UNL     1      -6.404  15.496  70.236  1.00  0.00    -0.004 C  
HETATM   19  C   UNL     1      -6.888  13.466  68.925  1.00  0.00    -0.111 C  
HETATM   20  C   UNL     1      -5.601  15.275  67.843  1.00  0.00    -0.143 C  
ENDBRANCH  10  17
ENDBRANCH   4   5
ENDBRANCH   2   4
BRANCH   2  21
HETATM   21  S   UNL     1     -12.326  12.483  64.690  1.00  0.00    -0.442 SA 
BRANCH  21  22
HETATM   22  C   UNL     1     -11.186  11.266  65.348  1.00  0.00     0.004 A  
HETATM   23  C   UNL     1     -11.024  11.008  66.711  1.00  0.00    -0.279 A  
HETATM   24  C   UNL     1     -10.313  10.665  64.455  1.00  0.00    -0.347 A  
HETATM   25  H   UNL     1      -8.045   8.697  67.706  1.00  0.00     0.000 HD 
HETATM   26  O   UNL     1      -8.126   8.842  66.770  1.00  0.00    -0.102 OA 
HETATM   27  C   UNL     1      -9.271   9.815  64.868  1.00  0.00    -0.314 A  
HETATM   28  C   UNL     1     -10.023  10.170  67.219  1.00  0.00    -0.241 A  
HETATM   29  C   UNL     1      -9.149   9.597  66.272  1.00  0.00    -0.160 A  
BRANCH  27  30
HETATM   30  C   UNL     1      -8.305   9.244  63.798  1.00  0.00    -0.180 C  
HETATM   31  C   UNL     1      -7.985   7.734  64.001  1.00  0.00    -0.104 C  
HETATM   32  C   UNL     1      -8.933   9.360  62.395  1.00  0.00    -0.258 C  
HETATM   33  C   UNL     1      -6.932   9.949  63.837  1.00  0.00    -0.124 C  
ENDBRANCH  27  30
BRANCH  28  34
HETATM   34  C   UNL     1      -9.941   9.898  68.749  1.00  0.00    -0.183 C  
HETATM   35  C   UNL     1     -10.928  10.751  69.602  1.00  0.00    -0.320 C  
HETATM   36  C   UNL     1      -8.538  10.208  69.314  1.00  0.00    -0.180 C  
HETATM   37  C   UNL     1     -10.309   8.426  69.036  1.00  0.00    -0.231 C  
ENDBRANCH  28  34
ENDBRANCH  21  22
ENDBRANCH   2  21
TORSDOF 8
ENDMDL
MODEL       44
REMARK 921   NORMALIZED FREE ENERGY PREDICTED BY IDOCK:   -5.42 KCAL/MOL
REMARK 922        TOTAL FREE ENERGY PREDICTED BY IDOCK:   -8.55 KCAL/MOL
REMARK 923 INTER-LIGAND FREE ENERGY PREDICTED BY IDOCK:   -9.45 KCAL/MOL
REMARK 924 INTRA-LIGAND FREE ENERGY PREDICTED BY IDOCK:    0.89 KCAL/MOL
REMARK 927      BINDING AFFINITY PREDICTED BY RF-SCORE:    0.00 PKD
ROOT
HETATM    1  C   UNL     1      -9.311  12.574  66.493  1.00  0.00    -0.233 C  
HETATM    2  C   UNL     1     -10.500  12.426  65.527  1.00  0.00    -0.275 C  
HETATM    3  C   UNL     1     -10.418  13.555  64.486  1.00  0.00    -0.426 C  
ENDROOT
BRANCH   2   4
HETATM    4  S   UNL     1     -12.066  12.632  66.483  1.00  0.00    -0.078 SA 
BRANCH   4   5
HETATM    5  C   UNL     1     -11.688  13.874  67.715  1.00  0.00    -0.366 A  
HETATM    6  C   UNL     1     -11.314  15.979  69.519  1.00  0.00    -0.344 A  
HETATM    7  O   UNL     1     -11.231  17.002  70.420  1.00  0.00    -0.342 OA 
HETATM    8  H   UNL     1     -11.597  16.923  71.294  1.00  0.00     0.000 HD 
HETATM    9  C   UNL     1     -11.003  15.020  67.326  1.00  0.00    -0.326 A  
HETATM   10  C   UNL     1     -12.017  14.837  69.955  1.00  0.00    -0.369 A  
HETATM   11  C   UNL     1     -12.153  13.805  69.024  1.00  0.00    -0.359 A  
HETATM   12  C   UNL     1     -10.764  16.097  68.210  1.00  0.00    -0.307 A  
BRANCH  12  13
HETATM   13  C   UNL     1      -9.972  17.327  67.698  1.00  0.00    -0.297 C  
HETATM   14  C   UNL     1      -9.384  17.071  66.292  1.00  0.00    -0.276 C  
HETATM   15  C   UNL     1      -8.851  17.704  68.690  1.00  0.00    -0.259 C  
HETATM   16  C   UNL     1     -10.847  18.604  67.535  1.00  0.00    -0.373 C  
ENDBRANCH  12  13
BRANCH  10  17
HETATM   17  C   UNL     1     -12.617  14.664  71.376  1.00  0.00    -0.404 C  
HETATM   18  C   UNL     1     -11.671  15.232  72.456  1.00  0.00    -0.535 C  
HETATM   19  C   UNL     1     -13.974  15.399  71.592  1.00  0.00    -0.617 C  
HETATM   20  C   UNL     1     -12.906  13.173  71.644  1.00  0.00    -0.388 C  
ENDBRANCH  10  17
ENDBRANCH   4   5
ENDBRANCH   2   4
BRANCH   2  21
HETATM   21  S   UNL     1     -10.315  10.818  64.641  1.00  0.00    -0.266 SA 
BRANCH  21  22
HETATM   22  C   UNL     1      -9.628   9.698  65.859  1.00  0.00    -0.257 A  
HETATM   23  C   UNL     1      -8.787   8.628  65.546  1.00  0.00    -0.220 A  
HETATM   24  C   UNL     1     -10.089   9.815  67.161  1.00  0.00    -0.267 A  
HETATM   25  H   UNL     1      -7.993   6.131  68.434  1.00  0.00     0.000 HD 
HETATM   26  O   UNL     1      -8.563   6.848  68.688  1.00  0.00    -0.123 OA 
HETATM   27  C   UNL     1      -9.747   8.899  68.173  1.00  0.00    -0.180 A  
HETATM   28  C   UNL     1      -8.382   7.670  66.485  1.00  0.00    -0.129 A  
HETATM   29  C   UNL     1      -8.893   7.823  67.791  1.00  0.00    -0.126 A  
BRANCH  27  30
HETATM   30  C   UNL     1     -10.366   9.078  69.582  1.00  0.00    -0.217 C  
HETATM   31  C   UNL     1     -11.152   7.826  70.072  1.00  0.00    -0.182 C  
HETATM   32  C   UNL     1      -9.258   9.321  70.626  1.00  0.00    -0.321 C  
HETATM   33  C   UNL     1     -11.397  10.228  69.609  1.00  0.00    -0.315 C  
ENDBRANCH  27  30
BRANCH  28  34
HETATM   34  C   UNL     1      -7.403   6.537  66.064  1.00  0.00    -0.080 C  
HETATM   35  C   UNL     1      -6.164   6.387  66.997  1.00  0.00    -0.036 C  
HETATM   36  C   UNL     1      -6.827   6.770  64.650  1.00  0.00    -0.050 C  
HETATM   37  C   UNL     1      -8.130   5.175  66.116  1.00  0.00    -0.108 C  
ENDBRANCH  28  34
ENDBRANCH  21  22
ENDBRANCH   2  21
TORSDOF 8
ENDMDL
MODEL       45
REMARK 921   NORMALIZED FREE ENERGY PREDICTED BY IDOCK:   -5.41 KCAL/MOL
REMARK 922        TOTAL FREE ENERGY PREDICTED BY IDOCK:   -8.55 KCAL/MOL
REMARK 923 INTER-LIGAND FREE ENERGY PREDICTED BY IDOCK:   -9.69 KCAL/MOL
REMARK 924 INTRA-LIGAND FREE ENERGY PREDICTED BY IDOCK:    1.15 KCAL/MOL
REMARK 927      BINDING AFFINITY PREDICTED BY RF-SCORE:    0.00 PKD
ROOT
HETATM    1  C   UNL     1     -10.695   9.357  71.690  1.00  0.00    -0.298 C  
HETATM    2  C   UNL     1     -12.114   9.381  71.093  1.00  0.00    -0.328 C  
HETATM    3  C   UNL     1     -12.950  10.404  71.879  1.00  0.00    -0.555 C  
ENDROOT
BRANCH   2   4
HETATM    4  S   UNL     1     -12.877   7.715  71.318  1.00  0.00    -0.211 SA 
BRANCH   4   5
HETATM    5  C   UNL     1     -11.552   6.558  70.986  1.00  0.00    -0.348 A  
HETATM    6  C   UNL     1      -9.688   4.538  70.466  1.00  0.00    -0.220 A  
HETATM    7  O   UNL     1      -8.837   3.523  70.133  1.00  0.00    -0.072 OA 
HETATM    8  H   UNL     1      -8.522   3.412  69.243  1.00  0.00     0.000 HD 
HETATM    9  C   UNL     1     -11.120   5.720  72.008  1.00  0.00    -0.318 A  
HETATM   10  C   UNL     1     -10.101   5.363  69.399  1.00  0.00    -0.304 A  
HETATM   11  C   UNL     1     -11.012   6.372  69.718  1.00  0.00    -0.417 A  
HETATM   12  C   UNL     1     -10.159   4.704  71.800  1.00  0.00    -0.261 A  
BRANCH  12  13
HETATM   13  C   UNL     1      -9.718   3.830  73.002  1.00  0.00    -0.173 C  
HETATM   14  C   UNL     1      -8.183   3.854  73.180  1.00  0.00    -0.088 C  
HETATM   15  C   UNL     1     -10.217   2.380  72.832  1.00  0.00    -0.225 C  
HETATM   16  C   UNL     1     -10.283   4.321  74.367  1.00  0.00    -0.273 C  
ENDBRANCH  12  13
BRANCH  10  17
HETATM   17  C   UNL     1      -9.600   5.224  67.936  1.00  0.00    -0.161 C  
HETATM   18  C   UNL     1      -8.173   5.788  67.777  1.00  0.00    -0.101 C  
HETATM   19  C   UNL     1      -9.519   3.754  67.425  1.00  0.00    -0.239 C  
HETATM   20  C   UNL     1     -10.572   5.943  66.980  1.00  0.00    -0.376 C  
ENDBRANCH  10  17
ENDBRANCH   4   5
ENDBRANCH   2   4
BRANCH   2  21
HETATM   21  S   UNL     1     -11.987   9.969  69.348  1.00  0.00     0.357 SA 
BRANCH  21  22
HETATM   22  C   UNL     1     -11.744  11.739  69.476  1.00  0.00    -0.343 A  
HETATM   23  C   UNL     1     -12.304  12.532  70.481  1.00  0.00    -0.345 A  
HETATM   24  C   UNL     1     -11.090  12.368  68.428  1.00  0.00    -0.288 A  
HETATM   25  H   UNL     1     -11.974  16.392  70.044  1.00  0.00     0.000 HD 
HETATM   26  O   UNL     1     -11.575  15.889  69.345  1.00  0.00    -0.337 OA 
HETATM   27  C   UNL     1     -10.976  13.768  68.335  1.00  0.00    -0.275 A  
HETATM   28  C   UNL     1     -12.235  13.931  70.482  1.00  0.00    -0.443 A  
HETATM   29  C   UNL     1     -11.576  14.524  69.385  1.00  0.00    -0.303 A  
BRANCH  27  30
HETATM   30  C   UNL     1     -10.285  14.379  67.090  1.00  0.00    -0.257 C  
HETATM   31  C   UNL     1     -11.221  15.305  66.259  1.00  0.00    -0.223 C  
HETATM   32  C   UNL     1      -9.091  15.256  67.518  1.00  0.00    -0.189 C  
HETATM   33  C   UNL     1      -9.826  13.287  66.100  1.00  0.00    -0.286 C  
ENDBRANCH  27  30
BRANCH  28  34
HETATM   34  C   UNL     1     -12.844  14.737  71.666  1.00  0.00    -0.405 C  
HETATM   35  C   UNL     1     -11.973  15.942  72.132  1.00  0.00    -0.612 C  
HETATM   36  C   UNL     1     -13.035  13.858  72.922  1.00  0.00    -0.349 C  
HETATM   37  C   UNL     1     -14.199  15.344  71.240  1.00  0.00    -0.428 C  
ENDBRANCH  28  34
ENDBRANCH  21  22
ENDBRANCH   2  21
TORSDOF 8
ENDMDL
MODEL       46
REMARK 921   NORMALIZED FREE ENERGY PREDICTED BY IDOCK:   -5.40 KCAL/MOL
REMARK 922        TOTAL FREE ENERGY PREDICTED BY IDOCK:   -8.53 KCAL/MOL
REMARK 923 INTER-LIGAND FREE ENERGY PREDICTED BY IDOCK:   -8.50 KCAL/MOL
REMARK 924 INTRA-LIGAND FREE ENERGY PREDICTED BY IDOCK:   -0.03 KCAL/MOL
REMARK 927      BINDING AFFINITY PREDICTED BY RF-SCORE:    0.00 PKD
ROOT
HETATM    1  C   UNL     1     -10.076  14.082  64.949  1.00  0.00    -0.288 C  
HETATM    2  C   UNL     1     -11.574  13.907  65.251  1.00  0.00    -0.327 C  
HETATM    3  C   UNL     1     -12.360  14.904  64.384  1.00  0.00    -0.342 C  
ENDROOT
BRANCH   2   4
HETATM    4  S   UNL     1     -11.871  14.323  67.025  1.00  0.00    -0.427 SA 
BRANCH   4   5
HETATM    5  C   UNL     1     -10.533  15.426  67.465  1.00  0.00    -0.275 A  
HETATM    6  C   UNL     1      -8.312  17.071  67.896  1.00  0.00    -0.201 A  
HETATM    7  O   UNL     1      -7.245  17.916  68.014  1.00  0.00    -0.209 OA 
HETATM    8  H   UNL     1      -7.328  18.847  67.842  1.00  0.00     0.000 HD 
HETATM    9  C   UNL     1      -9.327  14.882  67.896  1.00  0.00    -0.191 A  
HETATM   10  C   UNL     1      -9.514  17.666  67.457  1.00  0.00    -0.256 A  
HETATM   11  C   UNL     1     -10.598  16.803  67.283  1.00  0.00    -0.275 A  
HETATM   12  C   UNL     1      -8.187  15.676  68.155  1.00  0.00    -0.144 A  
BRANCH  12  13
HETATM   13  C   UNL     1      -6.890  14.989  68.653  1.00  0.00    -0.109 C  
HETATM   14  C   UNL     1      -5.691  15.319  67.735  1.00  0.00    -0.127 C  
HETATM   15  C   UNL     1      -7.087  13.462  68.752  1.00  0.00    -0.101 C  
HETATM   16  C   UNL     1      -6.445  15.456  70.069  1.00  0.00    -0.122 C  
ENDBRANCH  12  13
BRANCH  10  17
HETATM   17  C   UNL     1      -9.694  19.182  67.179  1.00  0.00    -0.393 C  
HETATM   18  C   UNL     1     -10.234  19.918  68.424  1.00  0.00    -0.557 C  
HETATM   19  C   UNL     1      -8.377  19.925  66.802  1.00  0.00    -0.364 C  
HETATM   20  C   UNL     1     -10.643  19.385  65.981  1.00  0.00    -0.573 C  
ENDBRANCH  10  17
ENDBRANCH   4   5
ENDBRANCH   2   4
BRANCH   2  21
HETATM   21  S   UNL     1     -12.061  12.201  64.743  1.00  0.00    -0.225 SA 
BRANCH  21  22
HETATM   22  C   UNL     1     -10.752  11.146  65.362  1.00  0.00    -0.192 A  
HETATM   23  C   UNL     1      -9.887  10.416  64.543  1.00  0.00    -0.405 A  
HETATM   24  C   UNL     1     -10.704  10.929  66.730  1.00  0.00    -0.309 A  
HETATM   25  H   UNL     1      -7.571   7.831  66.320  1.00  0.00     0.000 HD 
HETATM   26  O   UNL     1      -8.138   8.311  66.911  1.00  0.00    -0.101 OA 
HETATM   27  C   UNL     1      -9.826  10.002  67.322  1.00  0.00    -0.225 A  
HETATM   28  C   UNL     1      -8.972   9.477  65.038  1.00  0.00    -0.258 A  
HETATM   29  C   UNL     1      -8.975   9.280  66.435  1.00  0.00    -0.154 A  
BRANCH  27  30
HETATM   30  C   UNL     1      -9.894   9.783  68.855  1.00  0.00    -0.177 C  
HETATM   31  C   UNL     1     -10.938  10.698  69.561  1.00  0.00    -0.321 C  
HETATM   32  C   UNL     1     -10.318   8.334  69.169  1.00  0.00    -0.225 C  
HETATM   33  C   UNL     1      -8.550  10.114  69.538  1.00  0.00    -0.177 C  
ENDBRANCH  27  30
BRANCH  28  34
HETATM   34  C   UNL     1      -8.010   8.742  64.061  1.00  0.00    -0.156 C  
HETATM   35  C   UNL     1      -8.130   7.188  64.098  1.00  0.00    -0.026 C  
HETATM   36  C   UNL     1      -6.529   9.047  64.375  1.00  0.00    -0.075 C  
HETATM   37  C   UNL     1      -8.333   9.149  62.607  1.00  0.00    -0.192 C  
ENDBRANCH  28  34
ENDBRANCH  21  22
ENDBRANCH   2  21
TORSDOF 8
ENDMDL
MODEL       47
REMARK 921   NORMALIZED FREE ENERGY PREDICTED BY IDOCK:   -5.39 KCAL/MOL
REMARK 922        TOTAL FREE ENERGY PREDICTED BY IDOCK:   -8.52 KCAL/MOL
REMARK 923 INTER-LIGAND FREE ENERGY PREDICTED BY IDOCK:   -8.83 KCAL/MOL
REMARK 924 INTRA-LIGAND FREE ENERGY PREDICTED BY IDOCK:    0.31 KCAL/MOL
REMARK 927      BINDING AFFINITY PREDICTED BY RF-SCORE:    0.00 PKD
ROOT
HETATM    1  C   UNL     1     -10.307   8.386  68.574  1.00  0.00    -0.232 C  
HETATM    2  C   UNL     1     -10.343   9.783  69.219  1.00  0.00    -0.215 C  
HETATM    3  C   UNL     1      -8.902  10.313  69.300  1.00  0.00    -0.186 C  
ENDROOT
BRANCH   2   4
HETATM    4  S   UNL     1     -11.000   9.624  70.937  1.00  0.00    -0.355 SA 
BRANCH   4   5
HETATM    5  C   UNL     1      -9.924   8.431  71.727  1.00  0.00    -0.241 A  
HETATM    6  C   UNL     1      -8.252   6.413  72.707  1.00  0.00    -0.107 A  
HETATM    7  O   UNL     1      -7.376   5.443  73.103  1.00  0.00    -0.088 OA 
HETATM    8  H   UNL     1      -6.440   5.603  73.133  1.00  0.00     0.000 HD 
HETATM    9  C   UNL     1     -10.456   7.212  72.133  1.00  0.00    -0.231 A  
HETATM   10  C   UNL     1      -7.669   7.634  72.303  1.00  0.00    -0.106 A  
HETATM   11  C   UNL     1      -8.551   8.615  71.847  1.00  0.00    -0.231 A  
HETATM   12  C   UNL     1      -9.656   6.174  72.661  1.00  0.00    -0.160 A  
BRANCH  12  13
HETATM   13  C   UNL     1     -10.335   4.855  73.110  1.00  0.00    -0.235 C  
HETATM   14  C   UNL     1      -9.941   4.485  74.558  1.00  0.00    -0.234 C  
HETATM   15  C   UNL     1      -9.981   3.704  72.145  1.00  0.00    -0.238 C  
HETATM   16  C   UNL     1     -11.889   4.934  73.131  1.00  0.00    -0.113 C  
ENDBRANCH  12  13
BRANCH  10  17
HETATM   17  C   UNL     1      -6.148   7.939  72.352  1.00  0.00    -0.043 C  
HETATM   18  C   UNL     1      -5.352   6.959  71.464  1.00  0.00    -0.028 C  
HETATM   19  C   UNL     1      -5.764   9.360  71.840  1.00  0.00    -0.041 C  
HETATM   20  C   UNL     1      -5.648   7.873  73.809  1.00  0.00    -0.053 C  
ENDBRANCH  10  17
ENDBRANCH   4   5
ENDBRANCH   2   4
BRANCH   2  21
HETATM   21  S   UNL     1     -11.299  10.900  68.103  1.00  0.00    -0.299 SA 
BRANCH  21  22
HETATM   22  C   UNL     1     -11.228  12.508  68.890  1.00  0.00    -0.281 A  
HETATM   23  C   UNL     1     -12.021  12.878  69.979  1.00  0.00    -0.380 A  
HETATM   24  C   UNL     1     -10.451  13.480  68.281  1.00  0.00    -0.258 A  
HETATM   25  H   UNL     1     -11.934  16.639  71.001  1.00  0.00     0.000 HD 
HETATM   26  O   UNL     1     -11.376  16.427  70.262  1.00  0.00    -0.338 OA 
HETATM   27  C   UNL     1     -10.436  14.820  68.710  1.00  0.00    -0.250 A  
HETATM   28  C   UNL     1     -12.068  14.183  70.486  1.00  0.00    -0.420 A  
HETATM   29  C   UNL     1     -11.273  15.139  69.819  1.00  0.00    -0.279 A  
BRANCH  27  30
HETATM   30  C   UNL     1      -9.585  15.847  67.921  1.00  0.00    -0.215 C  
HETATM   31  C   UNL     1      -8.627  16.677  68.826  1.00  0.00    -0.261 C  
HETATM   32  C   UNL     1      -8.684  15.123  66.900  1.00  0.00    -0.289 C  
HETATM   33  C   UNL     1     -10.470  16.896  67.213  1.00  0.00    -0.301 C  
ENDBRANCH  27  30
BRANCH  28  34
HETATM   34  C   UNL     1     -12.942  14.500  71.733  1.00  0.00    -0.413 C  
HETATM   35  C   UNL     1     -14.188  15.386  71.428  1.00  0.00    -0.519 C  
HETATM   36  C   UNL     1     -12.147  15.268  72.812  1.00  0.00    -0.525 C  
HETATM   37  C   UNL     1     -13.500  13.188  72.325  1.00  0.00    -0.665 C  
ENDBRANCH  28  34
ENDBRANCH  21  22
ENDBRANCH   2  21
TORSDOF 8
ENDMDL
MODEL       48
REMARK 921   NORMALIZED FREE ENERGY PREDICTED BY IDOCK:   -5.37 KCAL/MOL
REMARK 922        TOTAL FREE ENERGY PREDICTED BY IDOCK:   -8.47 KCAL/MOL
REMARK 923 INTER-LIGAND FREE ENERGY PREDICTED BY IDOCK:   -8.75 KCAL/MOL
REMARK 924 INTRA-LIGAND FREE ENERGY PREDICTED BY IDOCK:    0.28 KCAL/MOL
REMARK 927      BINDING AFFINITY PREDICTED BY RF-SCORE:    0.00 PKD
ROOT
HETATM    1  C   UNL     1     -11.517   7.396  72.820  1.00  0.00    -0.312 C  
HETATM    2  C   UNL     1     -11.556   8.244  71.536  1.00  0.00    -0.279 C  
HETATM    3  C   UNL     1     -11.716   7.295  70.337  1.00  0.00    -0.219 C  
ENDROOT
BRANCH   2   4
HETATM    4  S   UNL     1      -9.945   9.129  71.363  1.00  0.00    -0.262 SA 
BRANCH   4   5
HETATM    5  C   UNL     1      -8.945   8.058  70.335  1.00  0.00    -0.146 A  
HETATM    6  C   UNL     1      -7.633   6.241  68.660  1.00  0.00    -0.093 A  
HETATM    7  O   UNL     1      -7.060   5.378  67.770  1.00  0.00    -0.064 OA 
HETATM    8  H   UNL     1      -6.823   5.657  66.893  1.00  0.00     0.000 HD 
HETATM    9  C   UNL     1      -8.673   6.766  70.774  1.00  0.00    -0.146 A  
HETATM   10  C   UNL     1      -7.891   7.540  68.173  1.00  0.00    -0.122 A  
HETATM   11  C   UNL     1      -8.524   8.414  69.059  1.00  0.00    -0.123 A  
HETATM   12  C   UNL     1      -7.988   5.823  69.975  1.00  0.00    -0.099 A  
BRANCH  12  13
HETATM   13  C   UNL     1      -7.708   4.412  70.553  1.00  0.00    -0.053 C  
HETATM   14  C   UNL     1      -8.662   3.358  69.946  1.00  0.00    -0.131 C  
HETATM   15  C   UNL     1      -7.825   4.420  72.091  1.00  0.00    -0.090 C  
HETATM   16  C   UNL     1      -6.280   3.883  70.235  1.00  0.00    -0.026 C  
ENDBRANCH  12  13
BRANCH  10  17
HETATM   17  C   UNL     1      -7.507   8.038  66.754  1.00  0.00    -0.090 C  
HETATM   18  C   UNL     1      -7.287   9.565  66.738  1.00  0.00    -0.090 C  
HETATM   19  C   UNL     1      -6.185   7.427  66.197  1.00  0.00    -0.041 C  
HETATM   20  C   UNL     1      -8.604   7.642  65.746  1.00  0.00    -0.156 C  
ENDBRANCH  10  17
ENDBRANCH   4   5
ENDBRANCH   2   4
BRANCH   2  21
HETATM   21  S   UNL     1     -13.051   9.323  71.612  1.00  0.00    -0.403 SA 
BRANCH  21  22
HETATM   22  C   UNL     1     -12.516  10.898  70.945  1.00  0.00    -0.408 A  
HETATM   23  C   UNL     1     -12.791  12.130  71.541  1.00  0.00    -0.394 A  
HETATM   24  C   UNL     1     -11.932  10.889  69.687  1.00  0.00    -0.414 A  
HETATM   25  H   UNL     1     -11.925  15.309  69.455  1.00  0.00     0.000 HD 
HETATM   26  O   UNL     1     -11.717  14.491  69.018  1.00  0.00    -0.278 OA 
HETATM   27  C   UNL     1     -11.613  12.069  68.990  1.00  0.00    -0.370 A  
HETATM   28  C   UNL     1     -12.503  13.358  70.932  1.00  0.00    -0.439 A  
HETATM   29  C   UNL     1     -11.927  13.297  69.645  1.00  0.00    -0.314 A  
BRANCH  27  30
HETATM   30  C   UNL     1     -11.025  11.956  67.561  1.00  0.00    -0.299 C  
HETATM   31  C   UNL     1      -9.599  12.569  67.433  1.00  0.00    -0.192 C  
HETATM   32  C   UNL     1     -10.888  10.475  67.155  1.00  0.00    -0.319 C  
HETATM   33  C   UNL     1     -11.880  12.724  66.530  1.00  0.00    -0.471 C  
ENDBRANCH  27  30
BRANCH  28  34
HETATM   34  C   UNL     1     -12.798  14.687  71.686  1.00  0.00    -0.403 C  
HETATM   35  C   UNL     1     -14.096  15.411  71.218  1.00  0.00    -0.463 C  
HETATM   36  C   UNL     1     -11.663  15.718  71.499  1.00  0.00    -0.523 C  
HETATM   37  C   UNL     1     -13.002  14.398  73.189  1.00  0.00    -0.517 C  
ENDBRANCH  28  34
ENDBRANCH  21  22
ENDBRANCH   2  21
TORSDOF 8
ENDMDL
MODEL       49
REMARK 921   NORMALIZED FREE ENERGY PREDICTED BY IDOCK:   -5.36 KCAL/MOL
REMARK 922        TOTAL FREE ENERGY PREDICTED BY IDOCK:   -8.46 KCAL/MOL
REMARK 923 INTER-LIGAND FREE ENERGY PREDICTED BY IDOCK:   -8.72 KCAL/MOL
REMARK 924 INTRA-LIGAND FREE ENERGY PREDICTED BY IDOCK:    0.26 KCAL/MOL
REMARK 927      BINDING AFFINITY PREDICTED BY RF-SCORE:    0.00 PKD
ROOT
HETATM    1  C   UNL     1     -13.462   9.512  72.806  1.00  0.00    -0.085 C  
HETATM    2  C   UNL     1     -13.142   8.961  71.405  1.00  0.00    -0.269 C  
HETATM    3  C   UNL     1     -14.179   9.522  70.419  1.00  0.00     1.087 C  
ENDROOT
BRANCH   2   4
HETATM    4  S   UNL     1     -13.311   7.123  71.440  1.00  0.00    -0.215 SA 
BRANCH   4   5
HETATM    5  C   UNL     1     -11.772   6.511  70.763  1.00  0.00    -0.366 A  
HETATM    6  C   UNL     1      -9.504   5.293  69.666  1.00  0.00    -0.141 A  
HETATM    7  O   UNL     1      -8.456   4.672  69.051  1.00  0.00    -0.080 OA 
HETATM    8  H   UNL     1      -8.241   4.845  68.142  1.00  0.00     0.000 HD 
HETATM    9  C   UNL     1     -10.995   5.650  71.531  1.00  0.00    -0.268 A  
HETATM   10  C   UNL     1     -10.265   6.158  68.850  1.00  0.00    -0.232 A  
HETATM   11  C   UNL     1     -11.371   6.759  69.455  1.00  0.00    -0.292 A  
HETATM   12  C   UNL     1      -9.825   5.034  71.030  1.00  0.00    -0.266 A  
BRANCH  12  13
HETATM   13  C   UNL     1      -9.007   4.105  71.962  1.00  0.00    -0.151 C  
HETATM   14  C   UNL     1      -7.545   4.587  72.092  1.00  0.00    -0.089 C  
HETATM   15  C   UNL     1      -9.050   2.648  71.454  1.00  0.00    -0.171 C  
HETATM   16  C   UNL     1      -9.543   4.064  73.423  1.00  0.00    -0.139 C  
ENDBRANCH  12  13
BRANCH  10  17
HETATM   17  C   UNL     1      -9.939   6.478  67.367  1.00  0.00    -0.180 C  
HETATM   18  C   UNL     1     -10.546   7.832  66.941  1.00  0.00    -0.347 C  
HETATM   19  C   UNL     1      -8.417   6.596  67.056  1.00  0.00    -0.113 C  
HETATM   20  C   UNL     1     -10.462   5.346  66.461  1.00  0.00    -0.352 C  
ENDBRANCH  10  17
ENDBRANCH   4   5
ENDBRANCH   2   4
BRANCH   2  21
HETATM   21  S   UNL     1     -11.482   9.597  70.910  1.00  0.00    -0.382 SA 
BRANCH  21  22
HETATM   22  C   UNL     1     -11.809  11.174  70.125  1.00  0.00    -0.365 A  
HETATM   23  C   UNL     1     -11.513  11.455  68.789  1.00  0.00    -0.354 A  
HETATM   24  C   UNL     1     -12.237  12.212  70.938  1.00  0.00    -0.310 A  
HETATM   25  H   UNL     1     -11.874  15.173  67.668  1.00  0.00     0.000 HD 
HETATM   26  O   UNL     1     -12.091  15.021  68.580  1.00  0.00    -0.265 OA 
HETATM   27  C   UNL     1     -12.377  13.533  70.472  1.00  0.00    -0.412 A  
HETATM   28  C   UNL     1     -11.630  12.735  68.230  1.00  0.00    -0.375 A  
HETATM   29  C   UNL     1     -12.051  13.760  69.103  1.00  0.00    -0.333 A  
BRANCH  27  30
HETATM   30  C   UNL     1     -12.797  14.637  71.476  1.00  0.00    -0.404 C  
HETATM   31  C   UNL     1     -13.005  14.105  72.924  1.00  0.00    -0.498 C  
HETATM   32  C   UNL     1     -11.699  15.716  71.573  1.00  0.00    -0.504 C  
HETATM   33  C   UNL     1     -14.149  15.274  71.088  1.00  0.00    -0.438 C  
ENDBRANCH  27  30
BRANCH  28  34
HETATM   34  C   UNL     1     -11.326  12.953  66.720  1.00  0.00    -0.367 C  
HETATM   35  C   UNL     1     -10.157  13.944  66.442  1.00  0.00    -0.298 C  
HETATM   36  C   UNL     1     -12.544  13.533  65.967  1.00  0.00    -0.408 C  
HETATM   37  C   UNL     1     -10.900  11.615  66.077  1.00  0.00    -0.339 C  
ENDBRANCH  28  34
ENDBRANCH  21  22
ENDBRANCH   2  21
TORSDOF 8
ENDMDL
MODEL       50
REMARK 921   NORMALIZED FREE ENERGY PREDICTED BY IDOCK:   -5.36 KCAL/MOL
REMARK 922        TOTAL FREE ENERGY PREDICTED BY IDOCK:   -8.46 KCAL/MOL
REMARK 923 INTER-LIGAND FREE ENERGY PREDICTED BY IDOCK:   -9.29 KCAL/MOL
REMARK 924 INTRA-LIGAND FREE ENERGY PREDICTED BY IDOCK:    0.83 KCAL/MOL
REMARK 927      BINDING AFFINITY PREDICTED BY RF-SCORE:    0.00 PKD
ROOT
HETATM    1  C   UNL     1     -10.709   9.969  66.579  1.00  0.00    -0.094 C  
HETATM    2  C   UNL     1     -10.899  11.189  67.497  1.00  0.00    -0.254 C  
HETATM    3  C   UNL     1     -12.033  10.875  68.487  1.00  0.00    -0.137 C  
ENDROOT
BRANCH   2   4
HETATM    4  S   UNL     1     -11.413  12.631  66.465  1.00  0.00    -0.373 SA 
BRANCH   4   5
HETATM    5  C   UNL     1     -11.421  14.020  67.594  1.00  0.00    -0.334 A  
HETATM    6  C   UNL     1     -11.218  16.049  69.510  1.00  0.00    -0.348 A  
HETATM    7  O   UNL     1     -11.019  17.042  70.425  1.00  0.00    -0.317 OA 
HETATM    8  H   UNL     1     -10.532  17.828  70.206  1.00  0.00     0.000 HD 
HETATM    9  C   UNL     1     -12.000  13.863  68.849  1.00  0.00    -0.393 A  
HETATM   10  C   UNL     1     -10.613  16.249  68.250  1.00  0.00    -0.300 A  
HETATM   11  C   UNL     1     -10.767  15.216  67.323  1.00  0.00    -0.305 A  
HETATM   12  C   UNL     1     -11.949  14.871  69.839  1.00  0.00    -0.376 A  
BRANCH  12  13
HETATM   13  C   UNL     1     -12.641  14.620  71.202  1.00  0.00    -0.404 C  
HETATM   14  C   UNL     1     -12.764  13.108  71.500  1.00  0.00    -0.366 C  
HETATM   15  C   UNL     1     -14.030  15.290  71.240  1.00  0.00    -0.548 C  
HETATM   16  C   UNL     1     -11.853  15.198  72.414  1.00  0.00    -0.488 C  
ENDBRANCH  12  13
BRANCH  10  17
HETATM   17  C   UNL     1      -9.823  17.523  67.849  1.00  0.00    -0.293 C  
HETATM   18  C   UNL     1      -8.412  17.526  68.473  1.00  0.00    -0.280 C  
HETATM   19  C   UNL     1      -9.593  17.677  66.315  1.00  0.00    -0.259 C  
HETATM   20  C   UNL     1     -10.605  18.781  68.279  1.00  0.00    -0.214 C  
ENDBRANCH  10  17
ENDBRANCH   4   5
ENDBRANCH   2   4
BRANCH   2  21
HETATM   21  S   UNL     1      -9.345  11.418  68.465  1.00  0.00    -0.155 SA 
BRANCH  21  22
HETATM   22  C   UNL     1      -9.112   9.869  69.336  1.00  0.00    -0.206 A  
HETATM   23  C   UNL     1      -8.080   8.970  69.062  1.00  0.00    -0.107 A  
HETATM   24  C   UNL     1     -10.107   9.482  70.220  1.00  0.00    -0.314 A  
HETATM   25  H   UNL     1      -8.292   5.488  70.805  1.00  0.00     0.000 HD 
HETATM   26  O   UNL     1      -9.009   6.073  71.022  1.00  0.00    -0.141 OA 
HETATM   27  C   UNL     1     -10.119   8.220  70.844  1.00  0.00    -0.224 A  
HETATM   28  C   UNL     1      -7.999   7.696  69.640  1.00  0.00    -0.124 A  
HETATM   29  C   UNL     1      -9.045   7.342  70.518  1.00  0.00    -0.158 A  
BRANCH  27  30
HETATM   30  C   UNL     1     -11.311   7.855  71.765  1.00  0.00    -0.309 C  
HETATM   31  C   UNL     1     -12.263   9.055  72.045  1.00  0.00    -0.446 C  
HETATM   32  C   UNL     1     -12.182   6.767  71.105  1.00  0.00    -0.413 C  
HETATM   33  C   UNL     1     -10.833   7.394  73.159  1.00  0.00    -0.435 C  
ENDBRANCH  27  30
BRANCH  28  34
HETATM   34  C   UNL     1      -6.788   6.773  69.318  1.00  0.00    -0.061 C  
HETATM   35  C   UNL     1      -7.183   5.385  68.731  1.00  0.00    -0.066 C  
HETATM   36  C   UNL     1      -5.951   6.463  70.579  1.00  0.00    -0.023 C  
HETATM   37  C   UNL     1      -5.897   7.439  68.247  1.00  0.00    -0.027 C  
ENDBRANCH  28  34
ENDBRANCH  21  22
ENDBRANCH   2  21
TORSDOF 8
ENDMDL
MODEL       51
REMARK 921   NORMALIZED FREE ENERGY PREDICTED BY IDOCK:   -5.32 KCAL/MOL
REMARK 922        TOTAL FREE ENERGY PREDICTED BY IDOCK:   -8.41 KCAL/MOL
REMARK 923 INTER-LIGAND FREE ENERGY PREDICTED BY IDOCK:   -9.01 KCAL/MOL
REMARK 924 INTRA-LIGAND FREE ENERGY PREDICTED BY IDOCK:    0.60 KCAL/MOL
REMARK 927      BINDING AFFINITY PREDICTED BY RF-SCORE:    0.00 PKD
ROOT
HETATM    1  C   UNL     1      -8.995  11.422  67.534  1.00  0.00    -0.150 C  
HETATM    2  C   UNL     1     -10.409  10.851  67.744  1.00  0.00    -0.187 C  
HETATM    3  C   UNL     1     -10.719  10.874  69.250  1.00  0.00    -0.271 C  
ENDROOT
BRANCH   2   4
HETATM    4  S   UNL     1     -10.426   9.094  67.176  1.00  0.00    -0.224 SA 
BRANCH   4   5
HETATM    5  C   UNL     1      -9.723   8.168  68.537  1.00  0.00    -0.162 A  
HETATM    6  C   UNL     1      -8.536   6.982  70.776  1.00  0.00    -0.143 A  
HETATM    7  O   UNL     1      -8.012   6.467  71.926  1.00  0.00    -0.103 OA 
HETATM    8  H   UNL     1      -8.569   6.195  72.647  1.00  0.00     0.000 HD 
HETATM    9  C   UNL     1      -8.343   8.007  68.599  1.00  0.00    -0.127 A  
HETATM   10  C   UNL     1      -9.940   7.128  70.756  1.00  0.00    -0.194 A  
HETATM   11  C   UNL     1     -10.483   7.702  69.604  1.00  0.00    -0.235 A  
HETATM   12  C   UNL     1      -7.701   7.388  69.696  1.00  0.00    -0.107 A  
BRANCH  12  13
HETATM   13  C   UNL     1      -6.159   7.231  69.672  1.00  0.00    -0.030 C  
HETATM   14  C   UNL     1      -5.746   5.742  69.719  1.00  0.00    -0.019 C  
HETATM   15  C   UNL     1      -5.515   8.005  70.841  1.00  0.00    -0.029 C  
HETATM   16  C   UNL     1      -5.499   7.784  68.376  1.00  0.00    -0.028 C  
ENDBRANCH  12  13
BRANCH  10  17
HETATM   17  C   UNL     1     -10.885   6.684  71.904  1.00  0.00    -0.267 C  
HETATM   18  C   UNL     1     -10.706   5.186  72.230  1.00  0.00    -0.266 C  
HETATM   19  C   UNL     1     -10.647   7.428  73.253  1.00  0.00    -0.442 C  
HETATM   20  C   UNL     1     -12.349   6.979  71.521  1.00  0.00    -0.420 C  
ENDBRANCH  10  17
ENDBRANCH   4   5
ENDBRANCH   2   4
BRANCH   2  21
HETATM   21  S   UNL     1     -11.606  11.971  66.898  1.00  0.00    -0.269 SA 
BRANCH  21  22
HETATM   22  C   UNL     1     -11.518  13.511  67.810  1.00  0.00    -0.315 A  
HETATM   23  C   UNL     1     -10.764  14.615  67.405  1.00  0.00    -0.280 A  
HETATM   24  C   UNL     1     -12.111  13.542  69.063  1.00  0.00    -0.330 A  
HETATM   25  H   UNL     1     -10.419  17.530  69.971  1.00  0.00     0.000 HD 
HETATM   26  O   UNL     1     -10.945  16.802  70.282  1.00  0.00    -0.230 OA 
HETATM   27  C   UNL     1     -11.977  14.635  69.939  1.00  0.00    -0.381 A  
HETATM   28  C   UNL     1     -10.580  15.752  68.201  1.00  0.00    -0.275 A  
HETATM   29  C   UNL     1     -11.187  15.728  69.474  1.00  0.00    -0.317 A  
BRANCH  27  30
HETATM   30  C   UNL     1     -12.622  14.547  71.346  1.00  0.00    -0.411 C  
HETATM   31  C   UNL     1     -13.961  15.335  71.459  1.00  0.00    -0.627 C  
HETATM   32  C   UNL     1     -12.961  13.083  71.688  1.00  0.00    -0.417 C  
HETATM   33  C   UNL     1     -11.709  15.160  72.430  1.00  0.00    -0.487 C  
ENDBRANCH  27  30
BRANCH  28  34
HETATM   34  C   UNL     1      -9.764  16.959  67.654  1.00  0.00    -0.249 C  
HETATM   35  C   UNL     1     -10.565  18.294  67.592  1.00  0.00    -0.427 C  
HETATM   36  C   UNL     1      -9.268  16.711  66.212  1.00  0.00    -0.328 C  
HETATM   37  C   UNL     1      -8.562  17.238  68.582  1.00  0.00    -0.265 C  
ENDBRANCH  28  34
ENDBRANCH  21  22
ENDBRANCH   2  21
TORSDOF 8
ENDMDL
MODEL       52
REMARK 921   NORMALIZED FREE ENERGY PREDICTED BY IDOCK:   -5.31 KCAL/MOL
REMARK 922        TOTAL FREE ENERGY PREDICTED BY IDOCK:   -8.40 KCAL/MOL
REMARK 923 INTER-LIGAND FREE ENERGY PREDICTED BY IDOCK:   -9.44 KCAL/MOL
REMARK 924 INTRA-LIGAND FREE ENERGY PREDICTED BY IDOCK:    1.05 KCAL/MOL
REMARK 927      BINDING AFFINITY PREDICTED BY RF-SCORE:    0.00 PKD
ROOT
HETATM    1  C   UNL     1     -11.354   7.566  72.952  1.00  0.00    -0.355 C  
HETATM    2  C   UNL     1     -11.706   8.405  71.710  1.00  0.00    -0.310 C  
HETATM    3  C   UNL     1     -12.237   7.457  70.623  1.00  0.00    -0.125 C  
ENDROOT
BRANCH   2   4
HETATM    4  S   UNL     1     -10.164   9.203  71.081  1.00  0.00    -0.320 SA 
BRANCH   4   5
HETATM    5  C   UNL     1      -9.477   8.019  69.927  1.00  0.00    -0.160 A  
HETATM    6  C   UNL     1      -8.135   6.251  68.225  1.00  0.00    -0.112 A  
HETATM    7  O   UNL     1      -7.431   5.351  67.476  1.00  0.00    -0.081 OA 
HETATM    8  H   UNL     1      -7.389   4.432  67.716  1.00  0.00     0.000 HD 
HETATM    9  C   UNL     1      -8.862   8.486  68.771  1.00  0.00    -0.139 A  
HETATM   10  C   UNL     1      -8.742   5.733  69.389  1.00  0.00    -0.111 A  
HETATM   11  C   UNL     1      -9.420   6.655  70.190  1.00  0.00    -0.162 A  
HETATM   12  C   UNL     1      -8.197   7.628  67.866  1.00  0.00    -0.123 A  
BRANCH  12  13
HETATM   13  C   UNL     1      -7.558   8.232  66.589  1.00  0.00    -0.090 C  
HETATM   14  C   UNL     1      -7.253   9.736  66.772  1.00  0.00    -0.090 C  
HETATM   15  C   UNL     1      -8.474   8.013  65.367  1.00  0.00    -0.155 C  
HETATM   16  C   UNL     1      -6.189   7.592  66.219  1.00  0.00    -0.041 C  
ENDBRANCH  12  13
BRANCH  10  17
HETATM   17  C   UNL     1      -8.709   4.239  69.807  1.00  0.00    -0.114 C  
HETATM   18  C   UNL     1      -7.259   3.734  69.967  1.00  0.00    -0.042 C  
HETATM   19  C   UNL     1      -9.400   3.941  71.171  1.00  0.00    -0.216 C  
HETATM   20  C   UNL     1      -9.463   3.388  68.765  1.00  0.00    -0.201 C  
ENDBRANCH  10  17
ENDBRANCH   4   5
ENDBRANCH   2   4
BRANCH   2  21
HETATM   21  S   UNL     1     -13.067   9.562  72.172  1.00  0.00    -0.425 SA 
BRANCH  21  22
HETATM   22  C   UNL     1     -12.784  11.026  71.179  1.00  0.00    -0.419 A  
HETATM   23  C   UNL     1     -12.176  11.009  69.922  1.00  0.00    -0.408 A  
HETATM   24  C   UNL     1     -13.045  12.254  71.768  1.00  0.00    -0.449 A  
HETATM   25  H   UNL     1     -11.257  14.470  68.380  1.00  0.00     0.000 HD 
HETATM   26  O   UNL     1     -11.674  14.525  69.232  1.00  0.00    -0.275 OA 
HETATM   27  C   UNL     1     -12.718  13.476  71.152  1.00  0.00    -0.425 A  
HETATM   28  C   UNL     1     -11.820  12.171  69.225  1.00  0.00    -0.370 A  
HETATM   29  C   UNL     1     -12.090  13.394  69.874  1.00  0.00    -0.322 A  
BRANCH  27  30
HETATM   30  C   UNL     1     -12.989  14.794  71.920  1.00  0.00    -0.405 C  
HETATM   31  C   UNL     1     -11.999  15.938  71.548  1.00  0.00    -0.537 C  
HETATM   32  C   UNL     1     -14.398  15.327  71.588  1.00  0.00    -0.666 C  
HETATM   33  C   UNL     1     -12.826  14.609  73.444  1.00  0.00    -0.526 C  
ENDBRANCH  27  30
BRANCH  28  34
HETATM   34  C   UNL     1     -11.190  12.063  67.807  1.00  0.00    -0.331 C  
HETATM   35  C   UNL     1     -11.963  12.849  66.705  1.00  0.00    -0.418 C  
HETATM   36  C   UNL     1     -11.141  10.602  67.309  1.00  0.00    -0.313 C  
HETATM   37  C   UNL     1      -9.767  12.661  67.823  1.00  0.00    -0.206 C  
ENDBRANCH  28  34
ENDBRANCH  21  22
ENDBRANCH   2  21
TORSDOF 8
ENDMDL
MODEL       53
REMARK 921   NORMALIZED FREE ENERGY PREDICTED BY IDOCK:   -5.31 KCAL/MOL
REMARK 922        TOTAL FREE ENERGY PREDICTED BY IDOCK:   -8.39 KCAL/MOL
REMARK 923 INTER-LIGAND FREE ENERGY PREDICTED BY IDOCK:   -8.91 KCAL/MOL
REMARK 924 INTRA-LIGAND FREE ENERGY PREDICTED BY IDOCK:    0.51 KCAL/MOL
REMARK 927      BINDING AFFINITY PREDICTED BY RF-SCORE:    0.00 PKD
ROOT
HETATM    1  C   UNL     1     -11.420   7.544  72.930  1.00  0.00    -0.311 C  
HETATM    2  C   UNL     1     -11.590   8.496  71.733  1.00  0.00    -0.312 C  
HETATM    3  C   UNL     1     -12.009   7.662  70.511  1.00  0.00    -0.044 C  
ENDROOT
BRANCH   2   4
HETATM    4  S   UNL     1      -9.960   9.282  71.366  1.00  0.00    -0.165 SA 
BRANCH   4   5
HETATM    5  C   UNL     1      -9.087   8.077  70.372  1.00  0.00    -0.150 A  
HETATM    6  C   UNL     1      -7.989   6.090  68.737  1.00  0.00    -0.104 A  
HETATM    7  O   UNL     1      -7.512   5.155  67.863  1.00  0.00    -0.074 OA 
HETATM    8  H   UNL     1      -7.196   5.399  67.001  1.00  0.00     0.000 HD 
HETATM    9  C   UNL     1      -9.032   6.758  70.808  1.00  0.00    -0.151 A  
HETATM   10  C   UNL     1      -8.026   7.415  68.253  1.00  0.00    -0.124 A  
HETATM   11  C   UNL     1      -8.560   8.371  69.119  1.00  0.00    -0.134 A  
HETATM   12  C   UNL     1      -8.461   5.725  70.030  1.00  0.00    -0.124 A  
BRANCH  12  13
HETATM   13  C   UNL     1      -8.423   4.286  70.604  1.00  0.00    -0.096 C  
HETATM   14  C   UNL     1      -9.090   4.219  71.997  1.00  0.00    -0.158 C  
HETATM   15  C   UNL     1      -6.972   3.767  70.677  1.00  0.00    -0.033 C  
HETATM   16  C   UNL     1      -9.205   3.253  69.742  1.00  0.00    -0.221 C  
ENDBRANCH  12  13
BRANCH  10  17
HETATM   17  C   UNL     1      -7.508   7.855  66.858  1.00  0.00    -0.091 C  
HETATM   18  C   UNL     1      -8.403   7.303  65.728  1.00  0.00    -0.140 C  
HETATM   19  C   UNL     1      -7.482   9.399  66.642  1.00  0.00    -0.093 C  
HETATM   20  C   UNL     1      -6.051   7.386  66.669  1.00  0.00    -0.043 C  
ENDBRANCH  10  17
ENDBRANCH   4   5
ENDBRANCH   2   4
BRANCH   2  21
HETATM   21  S   UNL     1     -12.965   9.663  72.126  1.00  0.00    -0.378 SA 
BRANCH  21  22
HETATM   22  C   UNL     1     -12.653  11.101  71.104  1.00  0.00    -0.409 A  
HETATM   23  C   UNL     1     -12.057  11.045  69.842  1.00  0.00    -0.435 A  
HETATM   24  C   UNL     1     -12.879  12.345  71.671  1.00  0.00    -0.375 A  
HETATM   25  H   UNL     1     -11.066  14.454  68.229  1.00  0.00     0.000 HD 
HETATM   26  O   UNL     1     -11.474  14.535  69.083  1.00  0.00    -0.261 OA 
HETATM   27  C   UNL     1     -12.526  13.548  71.031  1.00  0.00    -0.451 A  
HETATM   28  C   UNL     1     -11.679  12.185  69.121  1.00  0.00    -0.384 A  
HETATM   29  C   UNL     1     -11.912  13.427  69.750  1.00  0.00    -0.330 A  
BRANCH  27  30
HETATM   30  C   UNL     1     -12.758  14.886  71.776  1.00  0.00    -0.401 C  
HETATM   31  C   UNL     1     -12.807  14.728  73.325  1.00  0.00    -0.621 C  
HETATM   32  C   UNL     1     -11.603  15.866  71.487  1.00  0.00    -0.537 C  
HETATM   33  C   UNL     1     -14.114  15.521  71.399  1.00  0.00    -0.440 C  
ENDBRANCH  27  30
BRANCH  28  34
HETATM   34  C   UNL     1     -11.064  12.036  67.699  1.00  0.00    -0.319 C  
HETATM   35  C   UNL     1      -9.628  12.624  67.561  1.00  0.00    -0.184 C  
HETATM   36  C   UNL     1     -11.909  12.762  66.629  1.00  0.00    -0.462 C  
HETATM   37  C   UNL     1     -10.937  10.540  67.342  1.00  0.00    -0.352 C  
ENDBRANCH  28  34
ENDBRANCH  21  22
ENDBRANCH   2  21
TORSDOF 8
ENDMDL
MODEL       54
REMARK 921   NORMALIZED FREE ENERGY PREDICTED BY IDOCK:   -5.31 KCAL/MOL
REMARK 922        TOTAL FREE ENERGY PREDICTED BY IDOCK:   -8.39 KCAL/MOL
REMARK 923 INTER-LIGAND FREE ENERGY PREDICTED BY IDOCK:   -8.83 KCAL/MOL
REMARK 924 INTRA-LIGAND FREE ENERGY PREDICTED BY IDOCK:    0.44 KCAL/MOL
REMARK 927      BINDING AFFINITY PREDICTED BY RF-SCORE:    0.00 PKD
ROOT
HETATM    1  C   UNL     1     -11.212  14.878  66.076  1.00  0.00    -0.327 C  
HETATM    2  C   UNL     1     -10.807  13.705  66.986  1.00  0.00    -0.286 C  
HETATM    3  C   UNL     1      -9.340  13.350  66.689  1.00  0.00    -0.248 C  
ENDROOT
BRANCH   2   4
HETATM    4  S   UNL     1     -11.853  12.243  66.565  1.00  0.00    -0.203 SA 
BRANCH   4   5
HETATM    5  C   UNL     1     -11.051  10.861  67.372  1.00  0.00    -0.307 A  
HETATM    6  C   UNL     1     -10.056   8.554  68.602  1.00  0.00    -0.190 A  
HETATM    7  O   UNL     1      -9.600   7.376  69.120  1.00  0.00    -0.156 OA 
HETATM    8  H   UNL     1      -9.046   6.793  68.614  1.00  0.00     0.000 HD 
HETATM    9  C   UNL     1     -11.387  10.565  68.689  1.00  0.00    -0.315 A  
HETATM   10  C   UNL     1      -9.691   8.814  67.264  1.00  0.00    -0.238 A  
HETATM   11  C   UNL     1     -10.194   9.992  66.707  1.00  0.00    -0.295 A  
HETATM   12  C   UNL     1     -10.887   9.427  69.362  1.00  0.00    -0.208 A  
BRANCH  12  13
HETATM   13  C   UNL     1     -11.296   9.186  70.837  1.00  0.00    -0.359 C  
HETATM   14  C   UNL     1     -12.241  10.298  71.346  1.00  0.00    -0.481 C  
HETATM   15  C   UNL     1     -10.048   9.086  71.739  1.00  0.00    -0.373 C  
HETATM   16  C   UNL     1     -12.088   7.864  71.053  1.00  0.00    -0.246 C  
ENDBRANCH  12  13
BRANCH  10  17
HETATM   17  C   UNL     1      -8.777   7.897  66.409  1.00  0.00    -0.170 C  
HETATM   18  C   UNL     1      -8.363   8.589  65.093  1.00  0.00    -0.178 C  
HETATM   19  C   UNL     1      -7.438   7.501  67.102  1.00  0.00    -0.099 C  
HETATM   20  C   UNL     1      -9.500   6.567  66.113  1.00  0.00    -0.067 C  
ENDBRANCH  10  17
ENDBRANCH   4   5
ENDBRANCH   2   4
BRANCH   2  21
HETATM   21  S   UNL     1     -10.912  14.279  68.736  1.00  0.00    -0.264 SA 
BRANCH  21  22
HETATM   22  C   UNL     1      -9.780  15.665  68.834  1.00  0.00    -0.220 A  
HETATM   23  C   UNL     1     -10.100  16.963  68.427  1.00  0.00    -0.304 A  
HETATM   24  C   UNL     1      -8.468  15.391  69.188  1.00  0.00    -0.241 A  
HETATM   25  H   UNL     1      -7.164  19.524  68.293  1.00  0.00     0.000 HD 
HETATM   26  O   UNL     1      -6.906  18.656  68.581  1.00  0.00    -0.255 OA 
HETATM   27  C   UNL     1      -7.452  16.363  69.149  1.00  0.00    -0.228 A  
HETATM   28  C   UNL     1      -9.162  18.001  68.363  1.00  0.00    -0.301 A  
HETATM   29  C   UNL     1      -7.837  17.666  68.716  1.00  0.00    -0.242 A  
BRANCH  27  30
HETATM   30  C   UNL     1      -6.002  15.942  69.500  1.00  0.00    -0.145 C  
HETATM   31  C   UNL     1      -5.913  14.534  70.159  1.00  0.00    -0.150 C  
HETATM   32  C   UNL     1      -5.142  15.868  68.222  1.00  0.00    -0.106 C  
HETATM   33  C   UNL     1      -5.364  16.902  70.527  1.00  0.00    -0.213 C  
ENDBRANCH  27  30
BRANCH  28  34
HETATM   34  C   UNL     1      -9.612  19.430  67.946  1.00  0.00    -0.428 C  
HETATM   35  C   UNL     1     -10.881  19.459  67.040  1.00  0.00    -0.540 C  
HETATM   36  C   UNL     1      -8.518  20.166  67.142  1.00  0.00    -0.403 C  
HETATM   37  C   UNL     1      -9.980  20.248  69.202  1.00  0.00    -0.042 C  
ENDBRANCH  28  34
ENDBRANCH  21  22
ENDBRANCH   2  21
TORSDOF 8
ENDMDL
MODEL       55
REMARK 921   NORMALIZED FREE ENERGY PREDICTED BY IDOCK:   -5.31 KCAL/MOL
REMARK 922        TOTAL FREE ENERGY PREDICTED BY IDOCK:   -8.39 KCAL/MOL
REMARK 923 INTER-LIGAND FREE ENERGY PREDICTED BY IDOCK:   -9.03 KCAL/MOL
REMARK 924 INTRA-LIGAND FREE ENERGY PREDICTED BY IDOCK:    0.64 KCAL/MOL
REMARK 927      BINDING AFFINITY PREDICTED BY RF-SCORE:    0.00 PKD
ROOT
HETATM    1  C   UNL     1     -12.215   9.198  72.698  1.00  0.00     0.019 C  
HETATM    2  C   UNL     1     -12.559   8.927  71.222  1.00  0.00    -0.262 C  
HETATM    3  C   UNL     1     -13.780   9.782  70.848  1.00  0.00     0.011 C  
ENDROOT
BRANCH   2   4
HETATM    4  S   UNL     1     -13.018   7.148  71.039  1.00  0.00    -0.037 SA 
BRANCH   4   5
HETATM    5  C   UNL     1     -11.462   6.299  70.791  1.00  0.00    -0.316 A  
HETATM    6  C   UNL     1      -8.929   5.226  70.287  1.00  0.00    -0.126 A  
HETATM    7  O   UNL     1      -7.652   4.781  70.093  1.00  0.00    -0.053 OA 
HETATM    8  H   UNL     1      -7.039   4.705  70.814  1.00  0.00     0.000 HD 
HETATM    9  C   UNL     1     -11.106   5.912  69.504  1.00  0.00    -0.403 A  
HETATM   10  C   UNL     1      -9.247   5.607  71.608  1.00  0.00    -0.157 A  
HETATM   11  C   UNL     1     -10.534   6.112  71.809  1.00  0.00    -0.259 A  
HETATM   12  C   UNL     1      -9.849   5.339  69.206  1.00  0.00    -0.256 A  
BRANCH  12  13
HETATM   13  C   UNL     1      -9.543   4.916  67.746  1.00  0.00    -0.184 C  
HETATM   14  C   UNL     1     -10.616   5.451  66.770  1.00  0.00    -0.339 C  
HETATM   15  C   UNL     1      -9.433   3.381  67.635  1.00  0.00    -0.231 C  
HETATM   16  C   UNL     1      -8.199   5.483  67.205  1.00  0.00    -0.101 C  
ENDBRANCH  12  13
BRANCH  10  17
HETATM   17  C   UNL     1      -8.279   5.486  72.815  1.00  0.00    -0.109 C  
HETATM   18  C   UNL     1      -7.919   4.012  73.097  1.00  0.00    -0.088 C  
HETATM   19  C   UNL     1      -6.914   6.210  72.617  1.00  0.00    -0.075 C  
HETATM   20  C   UNL     1      -8.915   6.132  74.063  1.00  0.00    -0.132 C  
ENDBRANCH  10  17
ENDBRANCH   4   5
ENDBRANCH   2   4
BRANCH   2  21
HETATM   21  S   UNL     1     -11.132   9.489  70.195  1.00  0.00    -0.250 SA 
BRANCH  21  22
HETATM   22  C   UNL     1     -11.591  11.126  69.628  1.00  0.00    -0.326 A  
HETATM   23  C   UNL     1     -11.362  11.594  68.332  1.00  0.00    -0.339 A  
HETATM   24  C   UNL     1     -12.058  12.020  70.579  1.00  0.00    -0.402 A  
HETATM   25  H   UNL     1     -12.008  15.389  67.709  1.00  0.00     0.000 HD 
HETATM   26  O   UNL     1     -12.182  15.108  68.600  1.00  0.00    -0.189 OA 
HETATM   27  C   UNL     1     -12.302  13.376  70.291  1.00  0.00    -0.354 A  
HETATM   28  C   UNL     1     -11.583  12.923  67.946  1.00  0.00    -0.391 A  
HETATM   29  C   UNL     1     -12.040  13.797  68.955  1.00  0.00    -0.313 A  
BRANCH  27  30
HETATM   30  C   UNL     1     -12.759  14.312  71.439  1.00  0.00    -0.424 C  
HETATM   31  C   UNL     1     -13.848  15.336  71.001  1.00  0.00    -0.414 C  
HETATM   32  C   UNL     1     -13.386  13.488  72.583  1.00  0.00    -0.546 C  
HETATM   33  C   UNL     1     -11.593  15.174  71.969  1.00  0.00    -0.496 C  
ENDBRANCH  27  30
BRANCH  28  34
HETATM   34  C   UNL     1     -11.347  13.351  66.469  1.00  0.00    -0.346 C  
HETATM   35  C   UNL     1     -10.331  14.520  66.299  1.00  0.00    -0.300 C  
HETATM   36  C   UNL     1     -12.650  13.838  65.797  1.00  0.00    -0.525 C  
HETATM   37  C   UNL     1     -10.756  12.168  65.672  1.00  0.00    -0.312 C  
ENDBRANCH  28  34
ENDBRANCH  21  22
ENDBRANCH   2  21
TORSDOF 8
ENDMDL
MODEL       56
REMARK 921   NORMALIZED FREE ENERGY PREDICTED BY IDOCK:   -5.30 KCAL/MOL
REMARK 922        TOTAL FREE ENERGY PREDICTED BY IDOCK:   -8.38 KCAL/MOL
REMARK 923 INTER-LIGAND FREE ENERGY PREDICTED BY IDOCK:   -9.40 KCAL/MOL
REMARK 924 INTRA-LIGAND FREE ENERGY PREDICTED BY IDOCK:    1.02 KCAL/MOL
REMARK 927      BINDING AFFINITY PREDICTED BY RF-SCORE:    0.00 PKD
ROOT
HETATM    1  C   UNL     1      -9.033  12.321  66.998  1.00  0.00    -0.204 C  
HETATM    2  C   UNL     1     -10.079  11.626  66.107  1.00  0.00    -0.224 C  
HETATM    3  C   UNL     1      -9.893  12.127  64.666  1.00  0.00    -0.153 C  
ENDROOT
BRANCH   2   4
HETATM    4  S   UNL     1     -11.763  12.118  66.680  1.00  0.00    -0.237 SA 
BRANCH   4   5
HETATM    5  C   UNL     1     -11.481  13.473  67.815  1.00  0.00    -0.315 A  
HETATM    6  C   UNL     1     -11.253  15.737  69.443  1.00  0.00    -0.324 A  
HETATM    7  O   UNL     1     -11.243  16.835  70.254  1.00  0.00    -0.466 OA 
HETATM    8  H   UNL     1     -11.651  16.822  71.112  1.00  0.00     0.000 HD 
HETATM    9  C   UNL     1     -10.806  14.601  67.361  1.00  0.00    -0.298 A  
HETATM   10  C   UNL     1     -11.948  14.615  69.943  1.00  0.00    -0.381 A  
HETATM   11  C   UNL     1     -12.010  13.504  69.101  1.00  0.00    -0.378 A  
HETATM   12  C   UNL     1     -10.641  15.758  68.157  1.00  0.00    -0.275 A  
BRANCH  12  13
HETATM   13  C   UNL     1      -9.856  16.962  67.578  1.00  0.00    -0.260 C  
HETATM   14  C   UNL     1      -8.511  17.161  68.314  1.00  0.00    -0.236 C  
HETATM   15  C   UNL     1     -10.704  18.249  67.649  1.00  0.00    -0.373 C  
HETATM   16  C   UNL     1      -9.466  16.787  66.082  1.00  0.00    -0.295 C  
ENDBRANCH  12  13
BRANCH  10  17
HETATM   17  C   UNL     1     -12.615  14.548  71.343  1.00  0.00    -0.411 C  
HETATM   18  C   UNL     1     -13.966  15.294  71.356  1.00  0.00    -0.601 C  
HETATM   19  C   UNL     1     -12.940  13.103  71.829  1.00  0.00    -0.435 C  
HETATM   20  C   UNL     1     -11.665  15.139  72.404  1.00  0.00    -0.487 C  
ENDBRANCH  10  17
ENDBRANCH   4   5
ENDBRANCH   2   4
BRANCH   2  21
HETATM   21  S   UNL     1      -9.730   9.814  66.130  1.00  0.00    -0.264 SA 
BRANCH  21  22
HETATM   22  C   UNL     1      -9.363   9.437  67.843  1.00  0.00    -0.129 A  
HETATM   23  C   UNL     1     -10.327   9.061  68.781  1.00  0.00    -0.236 A  
HETATM   24  C   UNL     1      -8.074   9.686  68.286  1.00  0.00    -0.105 A  
HETATM   25  H   UNL     1      -9.167   8.890  72.500  1.00  0.00     0.000 HD 
HETATM   26  O   UNL     1      -8.482   9.142  71.893  1.00  0.00    -0.334 OA 
HETATM   27  C   UNL     1      -7.703   9.581  69.640  1.00  0.00    -0.112 A  
HETATM   28  C   UNL     1     -10.054   8.921  70.148  1.00  0.00    -0.212 A  
HETATM   29  C   UNL     1      -8.731   9.204  70.551  1.00  0.00    -0.221 A  
BRANCH  27  30
HETATM   30  C   UNL     1      -6.252   9.945  70.046  1.00  0.00    -0.065 C  
HETATM   31  C   UNL     1      -5.184   9.443  69.030  1.00  0.00    -0.037 C  
HETATM   32  C   UNL     1      -6.085  11.477  70.115  1.00  0.00    -0.156 C  
HETATM   33  C   UNL     1      -5.857   9.297  71.390  1.00  0.00    -0.070 C  
ENDBRANCH  27  30
BRANCH  28  34
HETATM   34  C   UNL     1     -11.174   8.451  71.119  1.00  0.00    -0.307 C  
HETATM   35  C   UNL     1     -10.648   7.741  72.403  1.00  0.00    -0.336 C  
HETATM   36  C   UNL     1     -12.127   7.436  70.450  1.00  0.00     0.006 C  
HETATM   37  C   UNL     1     -11.976   9.672  71.619  1.00  0.00    -0.470 C  
ENDBRANCH  28  34
ENDBRANCH  21  22
ENDBRANCH   2  21
TORSDOF 8
ENDMDL
MODEL       57
REMARK 921   NORMALIZED FREE ENERGY PREDICTED BY IDOCK:   -5.28 KCAL/MOL
REMARK 922        TOTAL FREE ENERGY PREDICTED BY IDOCK:   -8.34 KCAL/MOL
REMARK 923 INTER-LIGAND FREE ENERGY PREDICTED BY IDOCK:   -9.45 KCAL/MOL
REMARK 924 INTRA-LIGAND FREE ENERGY PREDICTED BY IDOCK:    1.11 KCAL/MOL
REMARK 927      BINDING AFFINITY PREDICTED BY RF-SCORE:    0.00 PKD
ROOT
HETATM    1  C   UNL     1      -7.610  11.171  66.599  1.00  0.00    -0.147 C  
HETATM    2  C   UNL     1      -8.417  11.538  67.856  1.00  0.00    -0.142 C  
HETATM    3  C   UNL     1      -8.250  10.406  68.883  1.00  0.00    -0.132 C  
ENDROOT
BRANCH   2   4
HETATM    4  S   UNL     1     -10.203  11.648  67.401  1.00  0.00    -0.206 SA 
BRANCH   4   5
HETATM    5  C   UNL     1     -11.073  11.660  68.965  1.00  0.00    -0.241 A  
HETATM    6  C   UNL     1     -12.679  11.733  71.254  1.00  0.00    -0.316 A  
HETATM    7  O   UNL     1     -13.524  11.699  72.326  1.00  0.00    -0.610 OA 
HETATM    8  H   UNL     1     -13.789  10.877  72.723  1.00  0.00     0.000 HD 
HETATM    9  C   UNL     1     -11.493  12.877  69.490  1.00  0.00    -0.292 A  
HETATM   10  C   UNL     1     -12.278  10.476  70.754  1.00  0.00    -0.468 A  
HETATM   11  C   UNL     1     -11.455  10.498  69.625  1.00  0.00    -0.349 A  
HETATM   12  C   UNL     1     -12.282  12.965  70.660  1.00  0.00    -0.386 A  
BRANCH  12  13
HETATM   13  C   UNL     1     -12.688  14.365  71.188  1.00  0.00    -0.422 C  
HETATM   14  C   UNL     1     -12.354  15.471  70.162  1.00  0.00    -0.384 C  
HETATM   15  C   UNL     1     -12.000  14.658  72.538  1.00  0.00    -0.187 C  
HETATM   16  C   UNL     1     -14.216  14.512  71.445  1.00  0.00    -0.416 C  
ENDBRANCH  12  13
BRANCH  10  17
HETATM   17  C   UNL     1     -12.676   9.113  71.380  1.00  0.00    -0.383 C  
HETATM   18  C   UNL     1     -11.998   7.939  70.643  1.00  0.00    -0.064 C  
HETATM   19  C   UNL     1     -12.266   8.950  72.874  1.00  0.00     0.313 C  
HETATM   20  C   UNL     1     -14.209   8.953  71.351  1.00  0.00    -0.241 C  
ENDBRANCH  10  17
ENDBRANCH   4   5
ENDBRANCH   2   4
BRANCH   2  21
HETATM   21  S   UNL     1      -7.685  13.073  68.574  1.00  0.00    -0.076 SA 
BRANCH  21  22
HETATM   22  C   UNL     1      -8.411  14.413  67.632  1.00  0.00    -0.179 A  
HETATM   23  C   UNL     1      -8.190  15.765  67.904  1.00  0.00    -0.151 A  
HETATM   24  C   UNL     1      -9.364  14.079  66.683  1.00  0.00    -0.292 A  
HETATM   25  H   UNL     1     -10.408  18.319  65.965  1.00  0.00     0.000 HD 
HETATM   26  O   UNL     1     -10.584  17.411  65.747  1.00  0.00    -0.456 OA 
HETATM   27  C   UNL     1     -10.117  15.045  65.991  1.00  0.00    -0.322 A  
HETATM   28  C   UNL     1      -8.882  16.800  67.262  1.00  0.00    -0.216 A  
HETATM   29  C   UNL     1      -9.854  16.407  66.318  1.00  0.00    -0.314 A  
BRANCH  27  30
HETATM   30  C   UNL     1     -11.207  14.570  64.997  1.00  0.00    -0.384 C  
HETATM   31  C   UNL     1     -11.662  15.681  64.005  1.00  0.00     0.061 C  
HETATM   32  C   UNL     1     -10.670  13.416  64.126  1.00  0.00    -0.286 C  
HETATM   33  C   UNL     1     -12.497  14.140  65.729  1.00  0.00    -0.490 C  
ENDBRANCH  27  30
BRANCH  28  34
HETATM   34  C   UNL     1      -8.540  18.282  67.589  1.00  0.00    -0.261 C  
HETATM   35  C   UNL     1      -7.312  18.460  68.532  1.00  0.00    -0.302 C  
HETATM   36  C   UNL     1      -9.710  18.998  68.299  1.00  0.00    -0.419 C  
HETATM   37  C   UNL     1      -8.178  19.031  66.288  1.00  0.00    -0.294 C  
ENDBRANCH  28  34
ENDBRANCH  21  22
ENDBRANCH   2  21
TORSDOF 8
ENDMDL
MODEL       58
REMARK 921   NORMALIZED FREE ENERGY PREDICTED BY IDOCK:   -5.26 KCAL/MOL
REMARK 922        TOTAL FREE ENERGY PREDICTED BY IDOCK:   -8.32 KCAL/MOL
REMARK 923 INTER-LIGAND FREE ENERGY PREDICTED BY IDOCK:   -8.98 KCAL/MOL
REMARK 924 INTRA-LIGAND FREE ENERGY PREDICTED BY IDOCK:    0.66 KCAL/MOL
REMARK 927      BINDING AFFINITY PREDICTED BY RF-SCORE:    0.00 PKD
ROOT
HETATM    1  C   UNL     1     -11.111   7.617  73.088  1.00  0.00    -0.373 C  
HETATM    2  C   UNL     1     -11.482   8.270  71.745  1.00  0.00    -0.293 C  
HETATM    3  C   UNL     1     -10.309   9.157  71.300  1.00  0.00    -0.405 C  
ENDROOT
BRANCH   2   4
HETATM    4  S   UNL     1     -12.960   9.347  72.000  1.00  0.00    -0.436 SA 
BRANCH   4   5
HETATM    5  C   UNL     1     -12.632  10.809  71.020  1.00  0.00    -0.420 A  
HETATM    6  C   UNL     1     -11.869  13.123  69.646  1.00  0.00    -0.324 A  
HETATM    7  O   UNL     1     -11.407  14.207  68.956  1.00  0.00    -0.245 OA 
HETATM    8  H   UNL     1     -11.018  14.117  68.094  1.00  0.00     0.000 HD 
HETATM    9  C   UNL     1     -12.798  12.060  71.604  1.00  0.00    -0.399 A  
HETATM   10  C   UNL     1     -11.681  11.874  69.017  1.00  0.00    -0.391 A  
HETATM   11  C   UNL     1     -12.103  10.754  69.736  1.00  0.00    -0.389 A  
HETATM   12  C   UNL     1     -12.454  13.259  70.938  1.00  0.00    -0.424 A  
BRANCH  12  13
HETATM   13  C   UNL     1     -12.693  14.612  71.655  1.00  0.00    -0.399 C  
HETATM   14  C   UNL     1     -12.951  14.408  73.166  1.00  0.00    -0.517 C  
HETATM   15  C   UNL     1     -13.868  15.372  71.007  1.00  0.00    -0.361 C  
HETATM   16  C   UNL     1     -11.471  15.573  71.588  1.00  0.00    -0.496 C  
ENDBRANCH  12  13
BRANCH  10  17
HETATM   17  C   UNL     1     -11.063  11.686  67.606  1.00  0.00    -0.314 C  
HETATM   18  C   UNL     1     -11.905  12.398  66.526  1.00  0.00    -0.407 C  
HETATM   19  C   UNL     1      -9.625  12.268  67.454  1.00  0.00    -0.179 C  
HETATM   20  C   UNL     1     -10.938  10.183  67.286  1.00  0.00    -0.250 C  
ENDBRANCH  10  17
ENDBRANCH   4   5
ENDBRANCH   2   4
BRANCH   2  21
HETATM   21  S   UNL     1     -11.685   6.925  70.497  1.00  0.00    -0.327 SA 
BRANCH  21  22
HETATM   22  C   UNL     1     -10.245   5.880  70.710  1.00  0.00    -0.211 A  
HETATM   23  C   UNL     1     -10.212   4.760  71.544  1.00  0.00    -0.246 A  
HETATM   24  C   UNL     1      -9.060   6.305  70.130  1.00  0.00    -0.155 A  
HETATM   25  H   UNL     1      -6.721   3.124  72.129  1.00  0.00     0.000 HD 
HETATM   26  O   UNL     1      -6.703   3.878  71.551  1.00  0.00    -0.025 OA 
HETATM   27  C   UNL     1      -7.831   5.658  70.353  1.00  0.00    -0.102 A  
HETATM   28  C   UNL     1      -9.040   4.044  71.821  1.00  0.00    -0.171 A  
HETATM   29  C   UNL     1      -7.858   4.527  71.221  1.00  0.00    -0.085 A  
BRANCH  27  30
HETATM   30  C   UNL     1      -6.549   6.249  69.713  1.00  0.00    -0.044 C  
HETATM   31  C   UNL     1      -6.842   7.377  68.680  1.00  0.00    -0.073 C  
HETATM   32  C   UNL     1      -5.656   6.887  70.796  1.00  0.00    -0.024 C  
HETATM   33  C   UNL     1      -5.763   5.182  68.922  1.00  0.00    -0.015 C  
ENDBRANCH  27  30
BRANCH  28  34
HETATM   34  C   UNL     1      -9.099   2.778  72.723  1.00  0.00    -0.114 C  
HETATM   35  C   UNL     1      -8.404   1.525  72.110  1.00  0.00    -0.045 C  
HETATM   36  C   UNL     1     -10.553   2.342  73.007  1.00  0.00    -0.249 C  
HETATM   37  C   UNL     1      -8.364   3.052  74.053  1.00  0.00    -0.073 C  
ENDBRANCH  28  34
ENDBRANCH  21  22
ENDBRANCH   2  21
TORSDOF 8
ENDMDL
MODEL       59
REMARK 921   NORMALIZED FREE ENERGY PREDICTED BY IDOCK:   -5.25 KCAL/MOL
REMARK 922        TOTAL FREE ENERGY PREDICTED BY IDOCK:   -8.31 KCAL/MOL
REMARK 923 INTER-LIGAND FREE ENERGY PREDICTED BY IDOCK:   -8.36 KCAL/MOL
REMARK 924 INTRA-LIGAND FREE ENERGY PREDICTED BY IDOCK:    0.05 KCAL/MOL
REMARK 927      BINDING AFFINITY PREDICTED BY RF-SCORE:    0.00 PKD
ROOT
HETATM    1  C   UNL     1     -12.536  15.196  64.756  1.00  0.00     0.009 C  
HETATM    2  C   UNL     1     -11.607  14.193  65.463  1.00  0.00    -0.337 C  
HETATM    3  C   UNL     1     -10.194  14.348  64.877  1.00  0.00    -0.357 C  
ENDROOT
BRANCH   2   4
HETATM    4  S   UNL     1     -12.200  12.482  65.100  1.00  0.00    -0.389 SA 
BRANCH   4   5
HETATM    5  C   UNL     1     -10.872  11.414  65.646  1.00  0.00    -0.218 A  
HETATM    6  C   UNL     1      -8.989   9.520  66.478  1.00  0.00    -0.148 A  
HETATM    7  O   UNL     1      -8.092   8.541  66.800  1.00  0.00    -0.097 OA 
HETATM    8  H   UNL     1      -7.452   8.230  66.171  1.00  0.00     0.000 HD 
HETATM    9  C   UNL     1     -10.896  10.923  66.947  1.00  0.00    -0.307 A  
HETATM   10  C   UNL     1      -8.929   9.989  65.149  1.00  0.00    -0.227 A  
HETATM   11  C   UNL     1      -9.875  10.953  64.793  1.00  0.00    -0.343 A  
HETATM   12  C   UNL     1      -9.949   9.987  67.422  1.00  0.00    -0.242 A  
BRANCH  12  13
HETATM   13  C   UNL     1     -10.037   9.510  68.893  1.00  0.00    -0.199 C  
HETATM   14  C   UNL     1      -8.700   9.733  69.637  1.00  0.00    -0.211 C  
HETATM   15  C   UNL     1     -10.448   8.024  68.960  1.00  0.00    -0.212 C  
HETATM   16  C   UNL     1     -11.092  10.284  69.735  1.00  0.00    -0.340 C  
ENDBRANCH  12  13
BRANCH  10  17
HETATM   17  C   UNL     1      -7.890   9.517  64.096  1.00  0.00    -0.126 C  
HETATM   18  C   UNL     1      -6.483  10.063  64.415  1.00  0.00    -0.131 C  
HETATM   19  C   UNL     1      -7.720   7.970  64.015  1.00  0.00    -0.137 C  
HETATM   20  C   UNL     1      -8.334   9.960  62.688  1.00  0.00    -0.161 C  
ENDBRANCH  10  17
ENDBRANCH   4   5
ENDBRANCH   2   4
BRANCH   2  21
HETATM   21  S   UNL     1     -11.537  14.647  67.251  1.00  0.00    -0.375 SA 
BRANCH  21  22
HETATM   22  C   UNL     1     -10.091  15.695  67.402  1.00  0.00    -0.251 A  
HETATM   23  C   UNL     1      -8.908  15.304  68.031  1.00  0.00    -0.169 A  
HETATM   24  C   UNL     1     -10.221  17.017  67.005  1.00  0.00    -0.303 A  
HETATM   25  H   UNL     1      -6.242  18.088  68.620  1.00  0.00     0.000 HD 
HETATM   26  O   UNL     1      -7.029  18.393  68.184  1.00  0.00    -0.224 OA 
HETATM   27  C   UNL     1      -9.213  17.976  67.218  1.00  0.00    -0.255 A  
HETATM   28  C   UNL     1      -7.844  16.181  68.279  1.00  0.00    -0.153 A  
HETATM   29  C   UNL     1      -8.032  17.519  67.874  1.00  0.00    -0.227 A  
BRANCH  27  30
HETATM   30  C   UNL     1      -9.480  19.444  66.799  1.00  0.00    -0.404 C  
HETATM   31  C   UNL     1     -10.638  19.589  65.768  1.00  0.00    -0.522 C  
HETATM   32  C   UNL     1      -9.895  20.282  68.025  1.00  0.00    -0.447 C  
HETATM   33  C   UNL     1      -8.250  20.071  66.106  1.00  0.00    -0.302 C  
ENDBRANCH  27  30
BRANCH  28  34
HETATM   34  C   UNL     1      -6.540  15.652  68.943  1.00  0.00    -0.116 C  
HETATM   35  C   UNL     1      -6.699  14.272  69.648  1.00  0.00    -0.118 C  
HETATM   36  C   UNL     1      -6.020  16.613  70.035  1.00  0.00    -0.187 C  
HETATM   37  C   UNL     1      -5.454  15.446  67.865  1.00  0.00    -0.139 C  
ENDBRANCH  28  34
ENDBRANCH  21  22
ENDBRANCH   2  21
TORSDOF 8
ENDMDL
MODEL       60
REMARK 921   NORMALIZED FREE ENERGY PREDICTED BY IDOCK:   -5.25 KCAL/MOL
REMARK 922        TOTAL FREE ENERGY PREDICTED BY IDOCK:   -8.30 KCAL/MOL
REMARK 923 INTER-LIGAND FREE ENERGY PREDICTED BY IDOCK:   -8.88 KCAL/MOL
REMARK 924 INTRA-LIGAND FREE ENERGY PREDICTED BY IDOCK:    0.58 KCAL/MOL
REMARK 927      BINDING AFFINITY PREDICTED BY RF-SCORE:    0.00 PKD
ROOT
HETATM    1  C   UNL     1      -8.540  11.367  68.700  1.00  0.00    -0.126 C  
HETATM    2  C   UNL     1      -8.939   9.889  68.860  1.00  0.00    -0.153 C  
HETATM    3  C   UNL     1      -8.827   9.208  67.486  1.00  0.00    -0.124 C  
ENDROOT
BRANCH   2   4
HETATM    4  S   UNL     1     -10.701   9.808  69.405  1.00  0.00    -0.232 SA 
BRANCH   4   5
HETATM    5  C   UNL     1     -11.347  11.450  69.103  1.00  0.00    -0.288 A  
HETATM    6  C   UNL     1     -12.103  14.119  68.747  1.00  0.00    -0.291 A  
HETATM    7  O   UNL     1     -12.384  15.437  68.524  1.00  0.00    -0.534 OA 
HETATM    8  H   UNL     1     -12.304  15.821  67.658  1.00  0.00     0.000 HD 
HETATM    9  C   UNL     1     -11.804  12.201  70.181  1.00  0.00    -0.368 A  
HETATM   10  C   UNL     1     -11.644  13.395  67.626  1.00  0.00    -0.377 A  
HETATM   11  C   UNL     1     -11.304  12.060  67.855  1.00  0.00    -0.369 A  
HETATM   12  C   UNL     1     -12.223  13.544  70.045  1.00  0.00    -0.381 A  
BRANCH  12  13
HETATM   13  C   UNL     1     -12.739  14.301  71.295  1.00  0.00    -0.427 C  
HETATM   14  C   UNL     1     -13.991  15.144  70.965  1.00  0.00    -0.383 C  
HETATM   15  C   UNL     1     -11.629  15.194  71.887  1.00  0.00    -0.490 C  
HETATM   16  C   UNL     1     -13.190  13.358  72.448  1.00  0.00    -0.564 C  
ENDBRANCH  12  13
BRANCH  10  17
HETATM   17  C   UNL     1     -11.513  13.981  66.195  1.00  0.00    -0.350 C  
HETATM   18  C   UNL     1     -12.896  14.156  65.534  1.00  0.00    -0.404 C  
HETATM   19  C   UNL     1     -10.850  15.390  66.138  1.00  0.00    -0.313 C  
HETATM   20  C   UNL     1     -10.618  13.066  65.335  1.00  0.00    -0.307 C  
ENDBRANCH  10  17
ENDBRANCH   4   5
ENDBRANCH   2   4
BRANCH   2  21
HETATM   21  S   UNL     1      -7.719   9.090  69.992  1.00  0.00    -0.094 SA 
BRANCH  21  22
HETATM   22  C   UNL     1      -8.415   7.479  70.354  1.00  0.00    -0.141 A  
HETATM   23  C   UNL     1      -8.919   7.111  71.604  1.00  0.00    -0.136 A  
HETATM   24  C   UNL     1      -8.298   6.503  69.377  1.00  0.00    -0.123 A  
HETATM   25  H   UNL     1      -9.807   3.345  72.086  1.00  0.00     0.000 HD 
HETATM   26  O   UNL     1      -9.474   3.556  71.222  1.00  0.00    -0.134 OA 
HETATM   27  C   UNL     1      -8.662   5.161  69.597  1.00  0.00    -0.107 A  
HETATM   28  C   UNL     1      -9.316   5.805  71.916  1.00  0.00    -0.165 A  
HETATM   29  C   UNL     1      -9.161   4.844  70.895  1.00  0.00    -0.142 A  
BRANCH  27  30
HETATM   30  C   UNL     1      -8.431   4.130  68.463  1.00  0.00    -0.105 C  
HETATM   31  C   UNL     1      -9.683   3.253  68.166  1.00  0.00    -0.023 C  
HETATM   32  C   UNL     1      -8.096   4.853  67.143  1.00  0.00    -0.107 C  
HETATM   33  C   UNL     1      -7.319   3.123  68.827  1.00  0.00    -0.049 C  
ENDBRANCH  27  30
BRANCH  28  34
HETATM   34  C   UNL     1      -9.914   5.490  73.318  1.00  0.00    -0.188 C  
HETATM   35  C   UNL     1      -9.072   4.481  74.157  1.00  0.00    -0.108 C  
HETATM   36  C   UNL     1     -11.322   4.863  73.215  1.00  0.00    -0.408 C  
HETATM   37  C   UNL     1      -9.975   6.782  74.160  1.00  0.00    -0.373 C  
ENDBRANCH  28  34
ENDBRANCH  21  22
ENDBRANCH   2  21
TORSDOF 8
ENDMDL
MODEL       61
REMARK 921   NORMALIZED FREE ENERGY PREDICTED BY IDOCK:   -5.25 KCAL/MOL
REMARK 922        TOTAL FREE ENERGY PREDICTED BY IDOCK:   -8.30 KCAL/MOL
REMARK 923 INTER-LIGAND FREE ENERGY PREDICTED BY IDOCK:   -9.33 KCAL/MOL
REMARK 924 INTRA-LIGAND FREE ENERGY PREDICTED BY IDOCK:    1.04 KCAL/MOL
REMARK 927      BINDING AFFINITY PREDICTED BY RF-SCORE:    0.00 PKD
ROOT
HETATM    1  C   UNL     1     -10.364   8.976  72.039  1.00  0.00    -0.287 C  
HETATM    2  C   UNL     1     -11.540   8.449  71.197  1.00  0.00    -0.279 C  
HETATM    3  C   UNL     1     -11.154   8.553  69.713  1.00  0.00    -0.067 C  
ENDROOT
BRANCH   2   4
HETATM    4  S   UNL     1     -13.007   9.530  71.490  1.00  0.00    -0.407 SA 
BRANCH   4   5
HETATM    5  C   UNL     1     -12.533  11.129  70.839  1.00  0.00    -0.409 A  
HETATM    6  C   UNL     1     -12.038  13.614  69.654  1.00  0.00    -0.321 A  
HETATM    7  O   UNL     1     -11.890  14.855  69.104  1.00  0.00    -0.299 OA 
HETATM    8  H   UNL     1     -12.101  15.642  69.592  1.00  0.00     0.000 HD 
HETATM    9  C   UNL     1     -12.015  11.203  69.551  1.00  0.00    -0.425 A  
HETATM   10  C   UNL     1     -12.566  13.586  70.962  1.00  0.00    -0.438 A  
HETATM   11  C   UNL     1     -12.770  12.320  71.516  1.00  0.00    -0.339 A  
HETATM   12  C   UNL     1     -11.722  12.434  68.921  1.00  0.00    -0.372 A  
BRANCH  12  13
HETATM   13  C   UNL     1     -11.125  12.423  67.491  1.00  0.00    -0.313 C  
HETATM   14  C   UNL     1      -9.763  13.152  67.445  1.00  0.00    -0.220 C  
HETATM   15  C   UNL     1     -12.109  13.058  66.486  1.00  0.00    -0.410 C  
HETATM   16  C   UNL     1     -10.828  10.993  66.954  1.00  0.00    -0.324 C  
ENDBRANCH  12  13
BRANCH  10  17
HETATM   17  C   UNL     1     -12.909  14.847  71.799  1.00  0.00    -0.404 C  
HETATM   18  C   UNL     1     -11.896  15.982  71.541  1.00  0.00    -0.554 C  
HETATM   19  C   UNL     1     -14.305  15.465  71.483  1.00  0.00    -0.572 C  
HETATM   20  C   UNL     1     -12.944  14.488  73.298  1.00  0.00    -0.500 C  
ENDBRANCH  10  17
ENDBRANCH   4   5
ENDBRANCH   2   4
BRANCH   2  21
HETATM   21  S   UNL     1     -11.774   6.664  71.602  1.00  0.00    -0.329 SA 
BRANCH  21  22
HETATM   22  C   UNL     1     -10.333   5.845  70.922  1.00  0.00    -0.229 A  
HETATM   23  C   UNL     1      -9.154   5.623  71.637  1.00  0.00    -0.150 A  
HETATM   24  C   UNL     1     -10.345   5.561  69.566  1.00  0.00    -0.357 A  
HETATM   25  H   UNL     1      -6.096   4.321  69.597  1.00  0.00     0.000 HD 
HETATM   26  O   UNL     1      -6.880   4.453  69.077  1.00  0.00    -0.045 OA 
HETATM   27  C   UNL     1      -9.218   5.064  68.884  1.00  0.00    -0.155 A  
HETATM   28  C   UNL     1      -7.984   5.123  71.051  1.00  0.00    -0.102 A  
HETATM   29  C   UNL     1      -8.041   4.867  69.665  1.00  0.00    -0.073 A  
BRANCH  27  30
HETATM   30  C   UNL     1      -9.310   4.841  67.354  1.00  0.00    -0.153 C  
HETATM   31  C   UNL     1      -9.263   3.338  66.947  1.00  0.00    -0.196 C  
HETATM   32  C   UNL     1     -10.648   5.385  66.814  1.00  0.00    -0.339 C  
HETATM   33  C   UNL     1      -8.123   5.490  66.611  1.00  0.00    -0.105 C  
ENDBRANCH  27  30
BRANCH  28  34
HETATM   34  C   UNL     1      -6.727   4.858  71.930  1.00  0.00    -0.047 C  
HETATM   35  C   UNL     1      -5.461   5.652  71.487  1.00  0.00    -0.016 C  
HETATM   36  C   UNL     1      -6.309   3.372  71.902  1.00  0.00    -0.015 C  
HETATM   37  C   UNL     1      -7.007   5.298  73.383  1.00  0.00    -0.080 C  
ENDBRANCH  28  34
ENDBRANCH  21  22
ENDBRANCH   2  21
TORSDOF 8
ENDMDL
MODEL       62
REMARK 921   NORMALIZED FREE ENERGY PREDICTED BY IDOCK:   -5.24 KCAL/MOL
REMARK 922        TOTAL FREE ENERGY PREDICTED BY IDOCK:   -8.29 KCAL/MOL
REMARK 923 INTER-LIGAND FREE ENERGY PREDICTED BY IDOCK:   -8.25 KCAL/MOL
REMARK 924 INTRA-LIGAND FREE ENERGY PREDICTED BY IDOCK:   -0.04 KCAL/MOL
REMARK 927      BINDING AFFINITY PREDICTED BY RF-SCORE:    0.00 PKD
ROOT
HETATM    1  C   UNL     1      -8.489   8.940  67.753  1.00  0.00    -0.125 C  
HETATM    2  C   UNL     1      -8.893  10.422  67.836  1.00  0.00    -0.125 C  
HETATM    3  C   UNL     1      -8.793  10.868  69.304  1.00  0.00     0.020 C  
ENDROOT
BRANCH   2   4
HETATM    4  S   UNL     1     -10.652  10.586  67.298  1.00  0.00    -0.272 SA 
BRANCH   4   5
HETATM    5  C   UNL     1     -11.555  10.949  68.800  1.00  0.00    -0.309 A  
HETATM    6  C   UNL     1     -12.714  11.462  71.294  1.00  0.00    -0.393 A  
HETATM    7  O   UNL     1     -13.203  11.778  72.529  1.00  0.00    -0.488 OA 
HETATM    8  H   UNL     1     -13.321  12.682  72.799  1.00  0.00     0.000 HD 
HETATM    9  C   UNL     1     -11.924   9.899  69.634  1.00  0.00     0.126 A  
HETATM   10  C   UNL     1     -12.353  12.558  70.482  1.00  0.00    -0.345 A  
HETATM   11  C   UNL     1     -11.803  12.246  69.237  1.00  0.00    -0.363 A  
HETATM   12  C   UNL     1     -12.538  10.107  70.890  1.00  0.00    -0.454 A  
BRANCH  12  13
HETATM   13  C   UNL     1     -12.936   8.878  71.745  1.00  0.00    -0.418 C  
HETATM   14  C   UNL     1     -11.873   8.579  72.827  1.00  0.00    -0.158 C  
HETATM   15  C   UNL     1     -13.156   7.640  70.850  1.00  0.00     0.025 C  
HETATM   16  C   UNL     1     -14.262   9.075  72.536  1.00  0.00    -0.356 C  
ENDBRANCH  12  13
BRANCH  10  17
HETATM   17  C   UNL     1     -12.542  14.046  70.880  1.00  0.00    -0.431 C  
HETATM   18  C   UNL     1     -14.017  14.353  71.217  1.00  0.00    -0.307 C  
HETATM   19  C   UNL     1     -11.735  14.479  72.142  1.00  0.00     0.071 C  
HETATM   20  C   UNL     1     -12.050  14.959  69.740  1.00  0.00    -0.357 C  
ENDBRANCH  10  17
ENDBRANCH   4   5
ENDBRANCH   2   4
BRANCH   2  21
HETATM   21  S   UNL     1      -7.669  11.400  66.859  1.00  0.00    -0.151 SA 
BRANCH  21  22
HETATM   22  C   UNL     1      -8.440  13.001  66.627  1.00  0.00     0.106 A  
HETATM   23  C   UNL     1      -8.060  14.155  67.314  1.00  0.00    -0.188 A  
HETATM   24  C   UNL     1      -9.576  13.050  65.834  1.00  0.00    -0.126 A  
HETATM   25  H   UNL     1     -10.373  17.268  66.909  1.00  0.00     0.000 HD 
HETATM   26  O   UNL     1     -10.662  16.506  66.420  1.00  0.00    -0.261 OA 
HETATM   27  C   UNL     1     -10.359  14.211  65.700  1.00  0.00    -0.348 A  
HETATM   28  C   UNL     1      -8.769  15.361  67.239  1.00  0.00    -0.215 A  
HETATM   29  C   UNL     1      -9.927  15.355  66.434  1.00  0.00    -0.278 A  
BRANCH  27  30
HETATM   30  C   UNL     1     -11.649  14.147  64.843  1.00  0.00    -0.379 C  
HETATM   31  C   UNL     1     -11.917  15.452  64.036  1.00  0.00     0.007 C  
HETATM   32  C   UNL     1     -11.542  13.017  63.800  1.00  0.00    -0.517 C  
HETATM   33  C   UNL     1     -12.906  13.957  65.719  1.00  0.00    -0.437 C  
ENDBRANCH  27  30
BRANCH  28  34
HETATM   34  C   UNL     1      -8.249  16.615  68.000  1.00  0.00    -0.185 C  
HETATM   35  C   UNL     1      -7.092  16.320  69.000  1.00  0.00    -0.196 C  
HETATM   36  C   UNL     1      -9.361  17.278  68.843  1.00  0.00    -0.191 C  
HETATM   37  C   UNL     1      -7.677  17.635  66.992  1.00  0.00    -0.234 C  
ENDBRANCH  28  34
ENDBRANCH  21  22
ENDBRANCH   2  21
TORSDOF 8
ENDMDL
MODEL       63
REMARK 921   NORMALIZED FREE ENERGY PREDICTED BY IDOCK:   -5.23 KCAL/MOL
REMARK 922        TOTAL FREE ENERGY PREDICTED BY IDOCK:   -8.27 KCAL/MOL
REMARK 923 INTER-LIGAND FREE ENERGY PREDICTED BY IDOCK:   -8.77 KCAL/MOL
REMARK 924 INTRA-LIGAND FREE ENERGY PREDICTED BY IDOCK:    0.50 KCAL/MOL
REMARK 927      BINDING AFFINITY PREDICTED BY RF-SCORE:    0.00 PKD
ROOT
HETATM    1  C   UNL     1     -11.780  11.644  67.200  1.00  0.00    -0.215 C  
HETATM    2  C   UNL     1     -10.369  11.622  66.584  1.00  0.00    -0.222 C  
HETATM    3  C   UNL     1     -10.357  10.586  65.447  1.00  0.00    -0.292 C  
ENDROOT
BRANCH   2   4
HETATM    4  S   UNL     1      -9.169  11.078  67.877  1.00  0.00    -0.159 SA 
BRANCH   4   5
HETATM    5  C   UNL     1      -9.802   9.506  68.454  1.00  0.00    -0.158 A  
HETATM    6  C   UNL     1     -10.530   7.014  69.494  1.00  0.00    -0.220 A  
HETATM    7  O   UNL     1     -10.860   5.832  70.095  1.00  0.00    -0.303 OA 
HETATM    8  H   UNL     1     -11.423   5.805  70.860  1.00  0.00     0.000 HD 
HETATM    9  C   UNL     1      -9.323   8.335  67.875  1.00  0.00    -0.150 A  
HETATM   10  C   UNL     1     -11.037   8.176  70.115  1.00  0.00    -0.187 A  
HETATM   11  C   UNL     1     -10.663   9.392  69.539  1.00  0.00    -0.238 A  
HETATM   12  C   UNL     1      -9.686   7.053  68.348  1.00  0.00    -0.139 A  
BRANCH  12  13
HETATM   13  C   UNL     1      -9.123   5.801  67.629  1.00  0.00    -0.106 C  
HETATM   14  C   UNL     1     -10.260   4.918  67.067  1.00  0.00    -0.233 C  
HETATM   15  C   UNL     1      -8.227   4.983  68.582  1.00  0.00    -0.085 C  
HETATM   16  C   UNL     1      -8.238   6.140  66.394  1.00  0.00    -0.113 C  
ENDBRANCH  12  13
BRANCH  10  17
HETATM   17  C   UNL     1     -11.970   8.174  71.354  1.00  0.00    -0.330 C  
HETATM   18  C   UNL     1     -13.136   7.178  71.176  1.00  0.00    -0.294 C  
HETATM   19  C   UNL     1     -11.271   7.751  72.682  1.00  0.00    -0.438 C  
HETATM   20  C   UNL     1     -12.510   9.596  71.605  1.00  0.00    -0.494 C  
ENDBRANCH  10  17
ENDBRANCH   4   5
ENDBRANCH   2   4
BRANCH   2  21
HETATM   21  S   UNL     1     -10.045  13.282  65.846  1.00  0.00    -0.278 SA 
BRANCH  21  22
HETATM   22  C   UNL     1     -10.241  14.435  67.204  1.00  0.00    -0.257 A  
HETATM   23  C   UNL     1     -10.966  14.155  68.365  1.00  0.00    -0.270 A  
HETATM   24  C   UNL     1      -9.775  15.726  67.014  1.00  0.00    -0.235 A  
HETATM   25  H   UNL     1     -11.597  17.142  70.790  1.00  0.00     0.000 HD 
HETATM   26  O   UNL     1     -11.095  17.371  70.017  1.00  0.00     0.468 OA 
HETATM   27  C   UNL     1     -10.007  16.761  67.938  1.00  0.00    -0.268 A  
HETATM   28  C   UNL     1     -11.242  15.114  69.347  1.00  0.00    -0.293 A  
HETATM   29  C   UNL     1     -10.761  16.417  69.099  1.00  0.00    -0.317 A  
BRANCH  27  30
HETATM   30  C   UNL     1      -9.502  18.188  67.604  1.00  0.00    -0.264 C  
HETATM   31  C   UNL     1      -8.607  18.241  66.331  1.00  0.00    -0.262 C  
HETATM   32  C   UNL     1     -10.694  19.125  67.324  1.00  0.00    -0.585 C  
HETATM   33  C   UNL     1      -8.619  18.758  68.734  1.00  0.00    -0.316 C  
ENDBRANCH  27  30
BRANCH  28  34
HETATM   34  C   UNL     1     -12.015  14.707  70.634  1.00  0.00    -0.380 C  
HETATM   35  C   UNL     1     -13.453  15.301  70.729  1.00  0.00    -0.359 C  
HETATM   36  C   UNL     1     -11.291  15.180  71.914  1.00  0.00    -0.381 C  
HETATM   37  C   UNL     1     -12.196  13.174  70.670  1.00  0.00    -0.402 C  
ENDBRANCH  28  34
ENDBRANCH  21  22
ENDBRANCH   2  21
TORSDOF 8
ENDMDL
MODEL       64
REMARK 921   NORMALIZED FREE ENERGY PREDICTED BY IDOCK:   -5.23 KCAL/MOL
REMARK 922        TOTAL FREE ENERGY PREDICTED BY IDOCK:   -8.27 KCAL/MOL
REMARK 923 INTER-LIGAND FREE ENERGY PREDICTED BY IDOCK:   -8.76 KCAL/MOL
REMARK 924 INTRA-LIGAND FREE ENERGY PREDICTED BY IDOCK:    0.49 KCAL/MOL
REMARK 927      BINDING AFFINITY PREDICTED BY RF-SCORE:    0.00 PKD
ROOT
HETATM    1  C   UNL     1     -10.056   8.861  68.054  1.00  0.00    -0.239 C  
HETATM    2  C   UNL     1     -10.258  10.266  68.649  1.00  0.00    -0.180 C  
HETATM    3  C   UNL     1      -8.880  10.934  68.787  1.00  0.00    -0.162 C  
ENDROOT
BRANCH   2   4
HETATM    4  S   UNL     1     -10.990  10.094  70.335  1.00  0.00    -0.302 SA 
BRANCH   4   5
HETATM    5  C   UNL     1      -9.948   8.898  71.164  1.00  0.00    -0.272 A  
HETATM    6  C   UNL     1      -8.332   6.868  72.210  1.00  0.00    -0.104 A  
HETATM    7  O   UNL     1      -7.483   5.888  72.638  1.00  0.00    -0.093 OA 
HETATM    8  H   UNL     1      -6.542   6.025  72.667  1.00  0.00     0.000 HD 
HETATM    9  C   UNL     1     -10.513   7.706  71.605  1.00  0.00    -0.229 A  
HETATM   10  C   UNL     1      -7.716   8.061  71.772  1.00  0.00    -0.107 A  
HETATM   11  C   UNL     1      -8.571   9.050  71.284  1.00  0.00    -0.221 A  
HETATM   12  C   UNL     1      -9.741   6.664  72.167  1.00  0.00    -0.159 A  
BRANCH  12  13
HETATM   13  C   UNL     1     -10.455   5.377  72.652  1.00  0.00    -0.261 C  
HETATM   14  C   UNL     1      -9.998   4.142  71.843  1.00  0.00    -0.253 C  
HETATM   15  C   UNL     1     -11.987   5.540  72.566  1.00  0.00    -0.085 C  
HETATM   16  C   UNL     1     -10.145   5.016  74.134  1.00  0.00    -0.248 C  
ENDBRANCH  12  13
BRANCH  10  17
HETATM   17  C   UNL     1      -6.188   8.328  71.817  1.00  0.00    -0.050 C  
HETATM   18  C   UNL     1      -5.671   8.379  73.270  1.00  0.00    -0.068 C  
HETATM   19  C   UNL     1      -5.326   7.236  71.113  1.00  0.00    -0.027 C  
HETATM   20  C   UNL     1      -5.866   9.646  71.085  1.00  0.00    -0.077 C  
ENDBRANCH  10  17
ENDBRANCH   4   5
ENDBRANCH   2   4
BRANCH   2  21
HETATM   21  S   UNL     1     -11.253  11.254  67.448  1.00  0.00    -0.277 SA 
BRANCH  21  22
HETATM   22  C   UNL     1     -11.281  12.911  68.129  1.00  0.00    -0.270 A  
HETATM   23  C   UNL     1     -10.541  13.978  67.614  1.00  0.00    -0.249 A  
HETATM   24  C   UNL     1     -11.958  13.096  69.324  1.00  0.00    -0.344 A  
HETATM   25  H   UNL     1     -10.475  17.244  69.742  1.00  0.00     0.000 HD 
HETATM   26  O   UNL     1     -10.994  16.546  70.122  1.00  0.00    -0.347 OA 
HETATM   27  C   UNL     1     -11.923  14.308  70.037  1.00  0.00    -0.396 A  
HETATM   28  C   UNL     1     -10.451  15.225  68.245  1.00  0.00    -0.244 A  
HETATM   29  C   UNL     1     -11.143  15.357  69.467  1.00  0.00    -0.284 A  
BRANCH  27  30
HETATM   30  C   UNL     1     -12.659  14.395  71.399  1.00  0.00    -0.426 C  
HETATM   31  C   UNL     1     -13.973  15.228  71.336  1.00  0.00    -0.601 C  
HETATM   32  C   UNL     1     -13.070  12.987  71.875  1.00  0.00    -0.483 C  
HETATM   33  C   UNL     1     -11.795  15.097  72.469  1.00  0.00    -0.485 C  
ENDBRANCH  27  30
BRANCH  28  34
HETATM   34  C   UNL     1      -9.643  16.376  67.578  1.00  0.00    -0.227 C  
HETATM   35  C   UNL     1     -10.450  17.697  67.393  1.00  0.00    -0.356 C  
HETATM   36  C   UNL     1      -9.156  15.991  66.164  1.00  0.00    -0.387 C  
HETATM   37  C   UNL     1      -8.436  16.747  68.467  1.00  0.00    -0.244 C  
ENDBRANCH  28  34
ENDBRANCH  21  22
ENDBRANCH   2  21
TORSDOF 8
ENDMDL
MODEL       65
REMARK 921   NORMALIZED FREE ENERGY PREDICTED BY IDOCK:   -5.22 KCAL/MOL
REMARK 922        TOTAL FREE ENERGY PREDICTED BY IDOCK:   -8.26 KCAL/MOL
REMARK 923 INTER-LIGAND FREE ENERGY PREDICTED BY IDOCK:   -8.71 KCAL/MOL
REMARK 924 INTRA-LIGAND FREE ENERGY PREDICTED BY IDOCK:    0.44 KCAL/MOL
REMARK 927      BINDING AFFINITY PREDICTED BY RF-SCORE:    0.00 PKD
ROOT
HETATM    1  C   UNL     1      -8.723  10.509  68.167  1.00  0.00    -0.130 C  
HETATM    2  C   UNL     1     -10.148  10.001  68.448  1.00  0.00    -0.165 C  
HETATM    3  C   UNL     1     -10.394  10.073  69.964  1.00  0.00    -0.323 C  
ENDROOT
BRANCH   2   4
HETATM    4  S   UNL     1     -10.259   8.234  67.926  1.00  0.00    -0.224 SA 
BRANCH   4   5
HETATM    5  C   UNL     1      -9.553   7.311  69.288  1.00  0.00    -0.156 A  
HETATM    6  C   UNL     1      -8.604   5.635  71.317  1.00  0.00    -0.128 A  
HETATM    7  O   UNL     1      -8.111   4.751  72.234  1.00  0.00    -0.103 OA 
HETATM    8  H   UNL     1      -7.238   4.387  72.151  1.00  0.00     0.000 HD 
HETATM    9  C   UNL     1     -10.359   7.001  70.379  1.00  0.00    -0.219 A  
HETATM   10  C   UNL     1      -7.753   5.922  70.228  1.00  0.00    -0.096 A  
HETATM   11  C   UNL     1      -8.267   6.784  69.257  1.00  0.00    -0.124 A  
HETATM   12  C   UNL     1      -9.913   6.182  71.441  1.00  0.00    -0.218 A  
BRANCH  12  13
HETATM   13  C   UNL     1     -10.870   5.905  72.628  1.00  0.00    -0.290 C  
HETATM   14  C   UNL     1     -12.326   6.291  72.278  1.00  0.00    -0.147 C  
HETATM   15  C   UNL     1     -10.404   6.658  73.892  1.00  0.00    -0.385 C  
HETATM   16  C   UNL     1     -10.945   4.403  73.028  1.00  0.00    -0.289 C  
ENDBRANCH  12  13
BRANCH  10  17
HETATM   17  C   UNL     1      -6.317   5.359  70.063  1.00  0.00    -0.030 C  
HETATM   18  C   UNL     1      -5.406   5.800  71.229  1.00  0.00    -0.013 C  
HETATM   19  C   UNL     1      -6.236   3.802  70.048  1.00  0.00    -0.027 C  
HETATM   20  C   UNL     1      -5.726   5.818  68.715  1.00  0.00    -0.012 C  
ENDBRANCH  10  17
ENDBRANCH   4   5
ENDBRANCH   2   4
BRANCH   2  21
HETATM   21  S   UNL     1     -11.334  11.149  67.623  1.00  0.00    -0.246 SA 
BRANCH  21  22
HETATM   22  C   UNL     1     -11.221  12.675  68.555  1.00  0.00    -0.279 A  
HETATM   23  C   UNL     1     -11.966  12.941  69.706  1.00  0.00    -0.365 A  
HETATM   24  C   UNL     1     -10.464  13.700  68.008  1.00  0.00    -0.251 A  
HETATM   25  H   UNL     1     -11.815  16.589  71.077  1.00  0.00     0.000 HD 
HETATM   26  O   UNL     1     -11.290  16.447  70.298  1.00  0.00    -0.338 OA 
HETATM   27  C   UNL     1     -10.424  14.993  68.562  1.00  0.00    -0.232 A  
HETATM   28  C   UNL     1     -11.984  14.193  70.336  1.00  0.00    -0.400 A  
HETATM   29  C   UNL     1     -11.212  15.207  69.730  1.00  0.00    -0.279 A  
BRANCH  27  30
HETATM   30  C   UNL     1      -9.601  16.089  67.839  1.00  0.00    -0.219 C  
HETATM   31  C   UNL     1      -8.878  15.572  66.560  1.00  0.00    -0.348 C  
HETATM   32  C   UNL     1     -10.526  17.231  67.371  1.00  0.00    -0.338 C  
HETATM   33  C   UNL     1      -8.473  16.640  68.737  1.00  0.00    -0.255 C  
ENDBRANCH  27  30
BRANCH  28  34
HETATM   34  C   UNL     1     -12.804  14.392  71.643  1.00  0.00    -0.416 C  
HETATM   35  C   UNL     1     -14.059  15.300  71.476  1.00  0.00    -0.625 C  
HETATM   36  C   UNL     1     -11.961  15.057  72.754  1.00  0.00    -0.414 C  
HETATM   37  C   UNL     1     -13.338  13.029  72.135  1.00  0.00    -0.622 C  
ENDBRANCH  28  34
ENDBRANCH  21  22
ENDBRANCH   2  21
TORSDOF 8
ENDMDL
MODEL       66
REMARK 921   NORMALIZED FREE ENERGY PREDICTED BY IDOCK:   -5.22 KCAL/MOL
REMARK 922        TOTAL FREE ENERGY PREDICTED BY IDOCK:   -8.26 KCAL/MOL
REMARK 923 INTER-LIGAND FREE ENERGY PREDICTED BY IDOCK:   -9.00 KCAL/MOL
REMARK 924 INTRA-LIGAND FREE ENERGY PREDICTED BY IDOCK:    0.74 KCAL/MOL
REMARK 927      BINDING AFFINITY PREDICTED BY RF-SCORE:    0.00 PKD
ROOT
HETATM    1  C   UNL     1      -8.628  11.093  68.786  1.00  0.00    -0.133 C  
HETATM    2  C   UNL     1      -9.007   9.631  69.081  1.00  0.00    -0.154 C  
HETATM    3  C   UNL     1      -8.843   8.820  67.785  1.00  0.00    -0.137 C  
ENDROOT
BRANCH   2   4
HETATM    4  S   UNL     1     -10.784   9.571  69.580  1.00  0.00    -0.241 SA 
BRANCH   4   5
HETATM    5  C   UNL     1     -11.413  11.208  69.222  1.00  0.00    -0.294 A  
HETATM    6  C   UNL     1     -12.143  13.871  68.777  1.00  0.00    -0.309 A  
HETATM    7  O   UNL     1     -12.411  15.184  68.511  1.00  0.00    -0.572 OA 
HETATM    8  H   UNL     1     -12.320  15.540  67.635  1.00  0.00     0.000 HD 
HETATM    9  C   UNL     1     -11.873  11.996  70.272  1.00  0.00    -0.356 A  
HETATM   10  C   UNL     1     -11.679  13.109  67.684  1.00  0.00    -0.414 A  
HETATM   11  C   UNL     1     -11.353  11.779  67.956  1.00  0.00    -0.355 A  
HETATM   12  C   UNL     1     -12.281  13.337  70.090  1.00  0.00    -0.376 A  
BRANCH  12  13
HETATM   13  C   UNL     1     -12.801  14.136  71.312  1.00  0.00    -0.429 C  
HETATM   14  C   UNL     1     -11.694  15.036  71.907  1.00  0.00    -0.454 C  
HETATM   15  C   UNL     1     -13.356  13.182  72.391  1.00  0.00    -0.591 C  
HETATM   16  C   UNL     1     -13.962  15.112  70.966  1.00  0.00    -0.383 C  
ENDBRANCH  12  13
BRANCH  10  17
HETATM   17  C   UNL     1     -11.530  13.650  66.236  1.00  0.00    -0.352 C  
HETATM   18  C   UNL     1     -12.884  14.141  65.680  1.00  0.00    -0.402 C  
HETATM   19  C   UNL     1     -10.567  14.867  66.103  1.00  0.00    -0.322 C  
HETATM   20  C   UNL     1     -10.942  12.553  65.327  1.00  0.00    -0.329 C  
ENDBRANCH  10  17
ENDBRANCH   4   5
ENDBRANCH   2   4
BRANCH   2  21
HETATM   21  S   UNL     1      -7.810   8.972  70.321  1.00  0.00    -0.127 SA 
BRANCH  21  22
HETATM   22  C   UNL     1      -8.288   7.261  70.558  1.00  0.00    -0.133 A  
HETATM   23  C   UNL     1      -8.042   6.248  69.628  1.00  0.00    -0.120 A  
HETATM   24  C   UNL     1      -9.081   6.969  71.657  1.00  0.00    -0.139 A  
HETATM   25  H   UNL     1      -9.748   2.808  70.305  1.00  0.00     0.000 HD 
HETATM   26  O   UNL     1      -9.934   3.468  70.962  1.00  0.00    -0.143 OA 
HETATM   27  C   UNL     1      -9.649   5.699  71.867  1.00  0.00    -0.176 A  
HETATM   28  C   UNL     1      -8.555   4.951  69.754  1.00  0.00    -0.102 A  
HETATM   29  C   UNL     1      -9.371   4.709  70.879  1.00  0.00    -0.150 A  
BRANCH  27  30
HETATM   30  C   UNL     1     -10.576   5.489  73.091  1.00  0.00    -0.281 C  
HETATM   31  C   UNL     1     -10.371   4.113  73.790  1.00  0.00    -0.239 C  
HETATM   32  C   UNL     1     -10.293   6.558  74.165  1.00  0.00    -0.351 C  
HETATM   33  C   UNL     1     -12.066   5.510  72.686  1.00  0.00    -0.019 C  
ENDBRANCH  27  30
BRANCH  28  34
HETATM   34  C   UNL     1      -8.193   3.868  68.697  1.00  0.00    -0.083 C  
HETATM   35  C   UNL     1      -9.427   3.194  68.026  1.00  0.00    -0.218 C  
HETATM   36  C   UNL     1      -7.380   2.709  69.317  1.00  0.00    -0.044 C  
HETATM   37  C   UNL     1      -7.392   4.512  67.545  1.00  0.00    -0.073 C  
ENDBRANCH  28  34
ENDBRANCH  21  22
ENDBRANCH   2  21
TORSDOF 8
ENDMDL
MODEL       67
REMARK 921   NORMALIZED FREE ENERGY PREDICTED BY IDOCK:   -5.21 KCAL/MOL
REMARK 922        TOTAL FREE ENERGY PREDICTED BY IDOCK:   -8.24 KCAL/MOL
REMARK 923 INTER-LIGAND FREE ENERGY PREDICTED BY IDOCK:   -8.59 KCAL/MOL
REMARK 924 INTRA-LIGAND FREE ENERGY PREDICTED BY IDOCK:    0.35 KCAL/MOL
REMARK 927      BINDING AFFINITY PREDICTED BY RF-SCORE:    0.00 PKD
ROOT
HETATM    1  C   UNL     1     -10.108  10.301  65.784  1.00  0.00    -0.325 C  
HETATM    2  C   UNL     1     -10.421  11.332  66.883  1.00  0.00    -0.245 C  
HETATM    3  C   UNL     1     -11.607  10.809  67.710  1.00  0.00    -0.155 C  
ENDROOT
BRANCH   2   4
HETATM    4  S   UNL     1     -10.928  12.916  66.081  1.00  0.00    -0.287 SA 
BRANCH   4   5
HETATM    5  C   UNL     1     -10.858  14.133  67.391  1.00  0.00    -0.287 A  
HETATM    6  C   UNL     1     -10.959  16.185  69.290  1.00  0.00    -0.315 A  
HETATM    7  O   UNL     1     -11.109  17.171  70.222  1.00  0.00    -0.282 OA 
HETATM    8  H   UNL     1     -11.591  17.023  71.028  1.00  0.00     0.000 HD 
HETATM    9  C   UNL     1     -10.236  15.352  67.143  1.00  0.00    -0.251 A  
HETATM   10  C   UNL     1     -11.606  14.965  69.582  1.00  0.00    -0.337 A  
HETATM   11  C   UNL     1     -11.502  13.967  68.612  1.00  0.00    -0.333 A  
HETATM   12  C   UNL     1     -10.235  16.408  68.083  1.00  0.00    -0.262 A  
BRANCH  12  13
HETATM   13  C   UNL     1      -9.498  17.725  67.733  1.00  0.00    -0.262 C  
HETATM   14  C   UNL     1      -8.367  18.022  68.744  1.00  0.00    -0.223 C  
HETATM   15  C   UNL     1     -10.490  18.905  67.674  1.00  0.00    -0.514 C  
HETATM   16  C   UNL     1      -8.790  17.691  66.347  1.00  0.00    -0.263 C  
ENDBRANCH  12  13
BRANCH  10  17
HETATM   17  C   UNL     1     -12.390  14.679  70.890  1.00  0.00    -0.406 C  
HETATM   18  C   UNL     1     -11.650  15.243  72.122  1.00  0.00    -0.535 C  
HETATM   19  C   UNL     1     -13.811  15.317  70.938  1.00  0.00    -0.311 C  
HETATM   20  C   UNL     1     -12.612  13.161  71.045  1.00  0.00    -0.397 C  
ENDBRANCH  10  17
ENDBRANCH   4   5
ENDBRANCH   2   4
BRANCH   2  21
HETATM   21  S   UNL     1      -8.953  11.439  67.996  1.00  0.00    -0.169 SA 
BRANCH  21  22
HETATM   22  C   UNL     1      -8.857   9.834  68.787  1.00  0.00    -0.129 A  
HETATM   23  C   UNL     1      -9.604   9.474  69.911  1.00  0.00    -0.250 A  
HETATM   24  C   UNL     1      -7.873   8.965  68.344  1.00  0.00    -0.104 A  
HETATM   25  H   UNL     1      -8.663   6.098  71.621  1.00  0.00     0.000 HD 
HETATM   26  O   UNL     1      -8.138   6.304  70.857  1.00  0.00    -0.119 OA 
HETATM   27  C   UNL     1      -7.594   7.743  68.984  1.00  0.00    -0.100 A  
HETATM   28  C   UNL     1      -9.408   8.276  70.611  1.00  0.00    -0.172 A  
HETATM   29  C   UNL     1      -8.382   7.435  70.131  1.00  0.00    -0.136 A  
BRANCH  27  30
HETATM   30  C   UNL     1      -6.428   6.871  68.452  1.00  0.00    -0.039 C  
HETATM   31  C   UNL     1      -6.866   5.427  68.067  1.00  0.00    -0.060 C  
HETATM   32  C   UNL     1      -5.837   7.492  67.171  1.00  0.00    -0.032 C  
HETATM   33  C   UNL     1      -5.328   6.681  69.519  1.00  0.00    -0.014 C  
ENDBRANCH  27  30
BRANCH  28  34
HETATM   34  C   UNL     1     -10.316   7.929  71.825  1.00  0.00    -0.260 C  
HETATM   35  C   UNL     1     -11.593   8.815  71.940  1.00  0.00    -0.432 C  
HETATM   36  C   UNL     1      -9.573   8.105  73.168  1.00  0.00    -0.307 C  
HETATM   37  C   UNL     1     -10.828   6.478  71.695  1.00  0.00    -0.281 C  
ENDBRANCH  28  34
ENDBRANCH  21  22
ENDBRANCH   2  21
TORSDOF 8
ENDMDL
MODEL       68
REMARK 921   NORMALIZED FREE ENERGY PREDICTED BY IDOCK:   -5.21 KCAL/MOL
REMARK 922        TOTAL FREE ENERGY PREDICTED BY IDOCK:   -8.24 KCAL/MOL
REMARK 923 INTER-LIGAND FREE ENERGY PREDICTED BY IDOCK:   -8.98 KCAL/MOL
REMARK 924 INTRA-LIGAND FREE ENERGY PREDICTED BY IDOCK:    0.74 KCAL/MOL
REMARK 927      BINDING AFFINITY PREDICTED BY RF-SCORE:    0.00 PKD
ROOT
HETATM    1  C   UNL     1     -11.922   7.277  70.678  1.00  0.00    -0.259 C  
HETATM    2  C   UNL     1     -11.540   8.361  71.701  1.00  0.00    -0.289 C  
HETATM    3  C   UNL     1     -11.151   7.665  73.016  1.00  0.00    -0.437 C  
ENDROOT
BRANCH   2   4
HETATM    4  S   UNL     1     -13.019   9.418  72.021  1.00  0.00    -0.436 SA 
BRANCH   4   5
HETATM    5  C   UNL     1     -12.708  10.926  71.107  1.00  0.00    -0.429 A  
HETATM    6  C   UNL     1     -11.979  13.316  69.849  1.00  0.00    -0.330 A  
HETATM    7  O   UNL     1     -11.531  14.442  69.219  1.00  0.00    -0.253 OA 
HETATM    8  H   UNL     1     -11.095  14.397  68.376  1.00  0.00     0.000 HD 
HETATM    9  C   UNL     1     -12.957  12.148  71.722  1.00  0.00    -0.437 A  
HETATM   10  C   UNL     1     -11.705  12.098  69.190  1.00  0.00    -0.384 A  
HETATM   11  C   UNL     1     -12.113  10.937  69.850  1.00  0.00    -0.428 A  
HETATM   12  C   UNL     1     -12.633  13.382  71.113  1.00  0.00    -0.430 A  
BRANCH  12  13
HETATM   13  C   UNL     1     -12.965  14.698  71.861  1.00  0.00    -0.406 C  
HETATM   14  C   UNL     1     -12.965  14.489  73.392  1.00  0.00    -0.381 C  
HETATM   15  C   UNL     1     -14.325  15.260  71.395  1.00  0.00    -0.578 C  
HETATM   16  C   UNL     1     -11.927  15.831  71.615  1.00  0.00    -0.527 C  
ENDBRANCH  12  13
BRANCH  10  17
HETATM   17  C   UNL     1     -11.010  11.985  67.808  1.00  0.00    -0.279 C  
HETATM   18  C   UNL     1      -9.529  12.414  67.889  1.00  0.00    -0.198 C  
HETATM   19  C   UNL     1     -10.986  10.542  67.219  1.00  0.00    -0.325 C  
HETATM   20  C   UNL     1     -11.762  12.843  66.771  1.00  0.00    -0.445 C  
ENDBRANCH  10  17
ENDBRANCH   4   5
ENDBRANCH   2   4
BRANCH   2  21
HETATM   21  S   UNL     1     -10.052   9.246  71.063  1.00  0.00    -0.290 SA 
BRANCH  21  22
HETATM   22  C   UNL     1      -9.023   7.963  70.353  1.00  0.00    -0.147 A  
HETATM   23  C   UNL     1      -8.933   7.706  68.983  1.00  0.00    -0.137 A  
HETATM   24  C   UNL     1      -8.407   7.084  71.231  1.00  0.00    -0.114 A  
HETATM   25  H   UNL     1      -7.020   4.472  67.938  1.00  0.00     0.000 HD 
HETATM   26  O   UNL     1      -7.053   4.615  68.877  1.00  0.00    -0.051 OA 
HETATM   27  C   UNL     1      -7.704   5.946  70.796  1.00  0.00    -0.097 A  
HETATM   28  C   UNL     1      -8.248   6.604  68.453  1.00  0.00    -0.115 A  
HETATM   29  C   UNL     1      -7.654   5.730  69.388  1.00  0.00    -0.088 A  
BRANCH  27  30
HETATM   30  C   UNL     1      -7.107   4.987  71.858  1.00  0.00    -0.067 C  
HETATM   31  C   UNL     1      -5.595   4.686  71.635  1.00  0.00    -0.012 C  
HETATM   32  C   UNL     1      -7.213   5.613  73.263  1.00  0.00    -0.087 C  
HETATM   33  C   UNL     1      -7.795   3.605  71.828  1.00  0.00    -0.062 C  
ENDBRANCH  27  30
BRANCH  28  34
HETATM   34  C   UNL     1      -8.155   6.418  66.911  1.00  0.00    -0.109 C  
HETATM   35  C   UNL     1      -8.932   7.490  66.091  1.00  0.00    -0.188 C  
HETATM   36  C   UNL     1      -8.733   5.058  66.461  1.00  0.00    -0.109 C  
HETATM   37  C   UNL     1      -6.683   6.536  66.461  1.00  0.00    -0.056 C  
ENDBRANCH  28  34
ENDBRANCH  21  22
ENDBRANCH   2  21
TORSDOF 8
ENDMDL
MODEL       69
REMARK 921   NORMALIZED FREE ENERGY PREDICTED BY IDOCK:   -5.18 KCAL/MOL
REMARK 922        TOTAL FREE ENERGY PREDICTED BY IDOCK:   -8.20 KCAL/MOL
REMARK 923 INTER-LIGAND FREE ENERGY PREDICTED BY IDOCK:   -8.58 KCAL/MOL
REMARK 924 INTRA-LIGAND FREE ENERGY PREDICTED BY IDOCK:    0.39 KCAL/MOL
REMARK 927      BINDING AFFINITY PREDICTED BY RF-SCORE:    0.00 PKD
ROOT
HETATM    1  C   UNL     1     -10.437  13.342  64.864  1.00  0.00    -0.404 C  
HETATM    2  C   UNL     1     -10.384  12.201  65.895  1.00  0.00    -0.255 C  
HETATM    3  C   UNL     1     -11.723  12.171  66.650  1.00  0.00    -0.385 C  
ENDROOT
BRANCH   2   4
HETATM    4  S   UNL     1      -9.042  12.565  67.110  1.00  0.00    -0.211 SA 
BRANCH   4   5
HETATM    5  C   UNL     1      -9.627  13.991  68.021  1.00  0.00    -0.217 A  
HETATM    6  C   UNL     1     -10.733  16.263  69.221  1.00  0.00    -0.307 A  
HETATM    7  O   UNL     1     -11.366  17.328  69.797  1.00  0.00     0.028 OA 
HETATM    8  H   UNL     1     -11.994  17.210  70.500  1.00  0.00     0.000 HD 
HETATM    9  C   UNL     1      -9.281  15.262  67.574  1.00  0.00    -0.202 A  
HETATM   10  C   UNL     1     -11.114  14.993  69.705  1.00  0.00    -0.291 A  
HETATM   11  C   UNL     1     -10.512  13.894  69.088  1.00  0.00    -0.074 A  
HETATM   12  C   UNL     1      -9.792  16.439  68.167  1.00  0.00    -0.238 A  
BRANCH  12  13
HETATM   13  C   UNL     1      -9.336  17.815  67.619  1.00  0.00    -0.250 C  
HETATM   14  C   UNL     1      -8.620  18.644  68.710  1.00  0.00    -0.292 C  
HETATM   15  C   UNL     1     -10.536  18.599  67.049  1.00  0.00    -0.453 C  
HETATM   16  C   UNL     1      -8.302  17.710  66.460  1.00  0.00    -0.300 C  
ENDBRANCH  12  13
BRANCH  10  17
HETATM   17  C   UNL     1     -12.124  14.759  70.860  1.00  0.00    -0.387 C  
HETATM   18  C   UNL     1     -11.592  15.329  72.192  1.00  0.00    -0.535 C  
HETATM   19  C   UNL     1     -13.509  15.441  70.647  1.00  0.00    -0.213 C  
HETATM   20  C   UNL     1     -12.420  13.253  71.000  1.00  0.00    -0.422 C  
ENDBRANCH  10  17
ENDBRANCH   4   5
ENDBRANCH   2   4
BRANCH   2  21
HETATM   21  S   UNL     1     -10.212  10.611  64.974  1.00  0.00    -0.278 SA 
BRANCH  21  22
HETATM   22  C   UNL     1      -9.970   9.369  66.243  1.00  0.00    -0.283 A  
HETATM   23  C   UNL     1     -10.396   9.513  67.565  1.00  0.00    -0.306 A  
HETATM   24  C   UNL     1      -9.180   8.277  65.920  1.00  0.00    -0.185 A  
HETATM   25  H   UNL     1      -9.164   6.817  70.098  1.00  0.00     0.000 HD 
HETATM   26  O   UNL     1      -8.859   6.680  69.209  1.00  0.00    -0.133 OA 
HETATM   27  C   UNL     1      -8.788   7.316  66.871  1.00  0.00    -0.138 A  
HETATM   28  C   UNL     1     -10.066   8.606  68.580  1.00  0.00    -0.207 A  
HETATM   29  C   UNL     1      -9.245   7.522  68.206  1.00  0.00    -0.138 A  
BRANCH  27  30
HETATM   30  C   UNL     1      -7.847   6.167  66.427  1.00  0.00    -0.104 C  
HETATM   31  C   UNL     1      -7.602   6.133  64.889  1.00  0.00    -0.090 C  
HETATM   32  C   UNL     1      -6.458   6.332  67.075  1.00  0.00    -0.050 C  
HETATM   33  C   UNL     1      -8.441   4.783  66.765  1.00  0.00    -0.105 C  
ENDBRANCH  27  30
BRANCH  28  34
HETATM   34  C   UNL     1     -10.623   8.815  70.018  1.00  0.00    -0.232 C  
HETATM   35  C   UNL     1      -9.523   8.995  71.107  1.00  0.00    -0.348 C  
HETATM   36  C   UNL     1     -11.471   7.612  70.486  1.00  0.00    -0.236 C  
HETATM   37  C   UNL     1     -11.470  10.105  70.066  1.00  0.00    -0.344 C  
ENDBRANCH  28  34
ENDBRANCH  21  22
ENDBRANCH   2  21
TORSDOF 8
ENDMDL
MODEL       70
REMARK 921   NORMALIZED FREE ENERGY PREDICTED BY IDOCK:   -5.15 KCAL/MOL
REMARK 922        TOTAL FREE ENERGY PREDICTED BY IDOCK:   -8.16 KCAL/MOL
REMARK 923 INTER-LIGAND FREE ENERGY PREDICTED BY IDOCK:   -8.16 KCAL/MOL
REMARK 924 INTRA-LIGAND FREE ENERGY PREDICTED BY IDOCK:    0.01 KCAL/MOL
REMARK 927      BINDING AFFINITY PREDICTED BY RF-SCORE:    0.00 PKD
ROOT
HETATM    1  C   UNL     1     -11.647  12.035  65.785  1.00  0.00    -0.353 C  
HETATM    2  C   UNL     1     -11.529  13.537  66.099  1.00  0.00    -0.325 C  
HETATM    3  C   UNL     1     -12.882  14.200  65.797  1.00  0.00    -0.363 C  
ENDROOT
BRANCH   2   4
HETATM    4  S   UNL     1     -10.259  14.276  64.981  1.00  0.00    -0.296 SA 
BRANCH   4   5
HETATM    5  C   UNL     1      -9.358  15.428  66.013  1.00  0.00    -0.329 A  
HETATM    6  C   UNL     1      -8.177  17.210  67.816  1.00  0.00    -0.197 A  
HETATM    7  O   UNL     1      -7.614  18.010  68.770  1.00  0.00    -0.289 OA 
HETATM    8  H   UNL     1      -6.930  17.688  69.345  1.00  0.00     0.000 HD 
HETATM    9  C   UNL     1      -9.788  16.749  66.079  1.00  0.00    -0.311 A  
HETATM   10  C   UNL     1      -7.712  15.878  67.784  1.00  0.00    -0.156 A  
HETATM   11  C   UNL     1      -8.317  15.038  66.848  1.00  0.00    -0.247 A  
HETATM   12  C   UNL     1      -9.203  17.693  66.954  1.00  0.00    -0.270 A  
BRANCH  12  13
HETATM   13  C   UNL     1      -9.730  19.150  66.947  1.00  0.00    -0.389 C  
HETATM   14  C   UNL     1     -10.257  19.563  68.341  1.00  0.00    -0.536 C  
HETATM   15  C   UNL     1     -10.832  19.326  65.882  1.00  0.00    -0.364 C  
HETATM   16  C   UNL     1      -8.636  20.204  66.609  1.00  0.00    -0.352 C  
ENDBRANCH  12  13
BRANCH  10  17
HETATM   17  C   UNL     1      -6.587  15.319  68.696  1.00  0.00    -0.097 C  
HETATM   18  C   UNL     1      -5.644  16.442  69.175  1.00  0.00    -0.124 C  
HETATM   19  C   UNL     1      -7.100  14.632  69.997  1.00  0.00     0.005 C  
HETATM   20  C   UNL     1      -5.792  14.235  67.940  1.00  0.00    -0.132 C  
ENDBRANCH  10  17
ENDBRANCH   4   5
ENDBRANCH   2   4
BRANCH   2  21
HETATM   21  S   UNL     1     -11.197  13.715  67.906  1.00  0.00    -0.289 SA 
BRANCH  21  22
HETATM   22  C   UNL     1     -10.336  12.212  68.365  1.00  0.00    -0.229 A  
HETATM   23  C   UNL     1      -9.201  11.733  67.708  1.00  0.00    -0.181 A  
HETATM   24  C   UNL     1     -10.928  11.409  69.328  1.00  0.00    -0.282 A  
HETATM   25  H   UNL     1      -8.002   8.153  68.683  1.00  0.00     0.000 HD 
HETATM   26  O   UNL     1      -8.771   8.445  69.157  1.00  0.00    -0.139 OA 
HETATM   27  C   UNL     1     -10.435  10.134  69.661  1.00  0.00    -0.282 A  
HETATM   28  C   UNL     1      -8.630  10.482  67.976  1.00  0.00    -0.121 A  
HETATM   29  C   UNL     1      -9.280   9.695  68.950  1.00  0.00    -0.147 A  
BRANCH  27  30
HETATM   30  C   UNL     1     -11.207   9.285  70.703  1.00  0.00    -0.333 C  
HETATM   31  C   UNL     1     -10.339   8.879  71.931  1.00  0.00    -0.407 C  
HETATM   32  C   UNL     1     -12.397  10.085  71.270  1.00  0.00    -0.496 C  
HETATM   33  C   UNL     1     -11.692   7.948  70.101  1.00  0.00     0.154 C  
ENDBRANCH  27  30
BRANCH  28  34
HETATM   34  C   UNL     1      -7.335  10.044  67.232  1.00  0.00    -0.090 C  
HETATM   35  C   UNL     1      -7.446   8.662  66.519  1.00  0.00    -0.088 C  
HETATM   36  C   UNL     1      -6.135   9.913  68.195  1.00  0.00    -0.050 C  
HETATM   37  C   UNL     1      -7.006  11.061  66.118  1.00  0.00    -0.057 C  
ENDBRANCH  28  34
ENDBRANCH  21  22
ENDBRANCH   2  21
TORSDOF 8
ENDMDL
MODEL       71
REMARK 921   NORMALIZED FREE ENERGY PREDICTED BY IDOCK:   -5.15 KCAL/MOL
REMARK 922        TOTAL FREE ENERGY PREDICTED BY IDOCK:   -8.15 KCAL/MOL
REMARK 923 INTER-LIGAND FREE ENERGY PREDICTED BY IDOCK:   -9.69 KCAL/MOL
REMARK 924 INTRA-LIGAND FREE ENERGY PREDICTED BY IDOCK:    1.54 KCAL/MOL
REMARK 927      BINDING AFFINITY PREDICTED BY RF-SCORE:    0.00 PKD
ROOT
HETATM    1  C   UNL     1     -10.797   9.189  71.939  1.00  0.00    -0.353 C  
HETATM    2  C   UNL     1     -12.087   9.140  71.100  1.00  0.00    -0.299 C  
HETATM    3  C   UNL     1     -13.026  10.251  71.595  1.00  0.00    -0.570 C  
ENDROOT
BRANCH   2   4
HETATM    4  S   UNL     1     -12.914   7.513  71.382  1.00  0.00    -0.301 SA 
BRANCH   4   5
HETATM    5  C   UNL     1     -11.630   6.296  71.110  1.00  0.00    -0.275 A  
HETATM    6  C   UNL     1      -9.435   4.622  70.656  1.00  0.00    -0.172 A  
HETATM    7  O   UNL     1      -8.316   3.854  70.510  1.00  0.00    -0.060 OA 
HETATM    8  H   UNL     1      -7.904   3.431  71.254  1.00  0.00     0.000 HD 
HETATM    9  C   UNL     1     -11.140   6.113  69.821  1.00  0.00    -0.486 A  
HETATM   10  C   UNL     1      -9.898   4.781  71.979  1.00  0.00    -0.234 A  
HETATM   11  C   UNL     1     -11.012   5.606  72.146  1.00  0.00    -0.307 A  
HETATM   12  C   UNL     1     -10.052   5.255  69.539  1.00  0.00    -0.322 A  
BRANCH  12  13
HETATM   13  C   UNL     1      -9.585   5.093  68.070  1.00  0.00    -0.172 C  
HETATM   14  C   UNL     1     -10.574   5.765  67.089  1.00  0.00    -0.365 C  
HETATM   15  C   UNL     1      -9.406   3.602  67.717  1.00  0.00    -0.242 C  
HETATM   16  C   UNL     1      -8.215   5.771  67.776  1.00  0.00    -0.101 C  
ENDBRANCH  12  13
BRANCH  10  17
HETATM   17  C   UNL     1      -9.263   4.097  73.220  1.00  0.00    -0.120 C  
HETATM   18  C   UNL     1      -9.493   2.570  73.196  1.00  0.00    -0.122 C  
HETATM   19  C   UNL     1      -7.719   4.276  73.330  1.00  0.00    -0.085 C  
HETATM   20  C   UNL     1      -9.846   4.708  74.510  1.00  0.00    -0.209 C  
ENDBRANCH  10  17
ENDBRANCH   4   5
ENDBRANCH   2   4
BRANCH   2  21
HETATM   21  S   UNL     1     -11.639   9.510  69.348  1.00  0.00     0.400 SA 
BRANCH  21  22
HETATM   22  C   UNL     1     -11.586  11.299  69.256  1.00  0.00    -0.322 A  
HETATM   23  C   UNL     1     -12.011  12.145  70.283  1.00  0.00    -0.389 A  
HETATM   24  C   UNL     1     -11.249  11.862  68.035  1.00  0.00    -0.317 A  
HETATM   25  H   UNL     1     -12.243  15.943  69.432  1.00  0.00     0.000 HD 
HETATM   26  O   UNL     1     -11.944  15.402  68.710  1.00  0.00    -0.331 OA 
HETATM   27  C   UNL     1     -11.324  13.246  67.791  1.00  0.00    -0.327 A  
HETATM   28  C   UNL     1     -12.110  13.535  70.141  1.00  0.00    -0.425 A  
HETATM   29  C   UNL     1     -11.774  14.057  68.874  1.00  0.00    -0.340 A  
BRANCH  27  30
HETATM   30  C   UNL     1     -10.991  13.773  66.372  1.00  0.00    -0.298 C  
HETATM   31  C   UNL     1     -10.284  12.715  65.474  1.00  0.00    -0.298 C  
HETATM   32  C   UNL     1     -12.284  14.165  65.629  1.00  0.00    -0.449 C  
HETATM   33  C   UNL     1     -10.013  14.967  66.423  1.00  0.00    -0.290 C  
ENDBRANCH  27  30
BRANCH  28  34
HETATM   34  C   UNL     1     -12.546  14.410  71.351  1.00  0.00    -0.426 C  
HETATM   35  C   UNL     1     -11.479  15.453  71.800  1.00  0.00    -0.497 C  
HETATM   36  C   UNL     1     -12.835  13.554  72.604  1.00  0.00    -0.170 C  
HETATM   37  C   UNL     1     -13.799  15.230  70.976  1.00  0.00    -0.414 C  
ENDBRANCH  28  34
ENDBRANCH  21  22
ENDBRANCH   2  21
TORSDOF 8
ENDMDL
MODEL       72
REMARK 921   NORMALIZED FREE ENERGY PREDICTED BY IDOCK:   -5.14 KCAL/MOL
REMARK 922        TOTAL FREE ENERGY PREDICTED BY IDOCK:   -8.15 KCAL/MOL
REMARK 923 INTER-LIGAND FREE ENERGY PREDICTED BY IDOCK:   -8.67 KCAL/MOL
REMARK 924 INTRA-LIGAND FREE ENERGY PREDICTED BY IDOCK:    0.52 KCAL/MOL
REMARK 927      BINDING AFFINITY PREDICTED BY RF-SCORE:    0.00 PKD
ROOT
HETATM    1  C   UNL     1     -10.850  13.798  64.527  1.00  0.00    -0.399 C  
HETATM    2  C   UNL     1     -10.738  12.621  65.512  1.00  0.00    -0.274 C  
HETATM    3  C   UNL     1     -12.066  12.507  66.278  1.00  0.00    -0.315 C  
ENDROOT
BRANCH   2   4
HETATM    4  S   UNL     1      -9.398  12.993  66.727  1.00  0.00    -0.233 SA 
BRANCH   4   5
HETATM    5  C   UNL     1     -10.013  14.385  67.671  1.00  0.00    -0.224 A  
HETATM    6  C   UNL     1     -10.764  16.493  69.348  1.00  0.00    -0.330 A  
HETATM    7  O   UNL     1     -11.034  17.553  70.166  1.00  0.00    -0.040 OA 
HETATM    8  H   UNL     1     -10.740  18.431  69.953  1.00  0.00     0.000 HD 
HETATM    9  C   UNL     1     -10.777  14.141  68.807  1.00  0.00    -0.265 A  
HETATM   10  C   UNL     1      -9.987  16.786  68.207  1.00  0.00    -0.273 A  
HETATM   11  C   UNL     1      -9.661  15.700  67.391  1.00  0.00    -0.222 A  
HETATM   12  C   UNL     1     -11.205  15.177  69.669  1.00  0.00    -0.288 A  
BRANCH  12  13
HETATM   13  C   UNL     1     -12.073  14.818  70.901  1.00  0.00    -0.387 C  
HETATM   14  C   UNL     1     -13.478  15.454  70.803  1.00  0.00    -0.324 C  
HETATM   15  C   UNL     1     -11.374  15.257  72.205  1.00  0.00    -0.393 C  
HETATM   16  C   UNL     1     -12.339  13.292  71.050  1.00  0.00    -0.379 C  
ENDBRANCH  12  13
BRANCH  10  17
HETATM   17  C   UNL     1      -9.501  18.207  67.816  1.00  0.00    -0.269 C  
HETATM   18  C   UNL     1     -10.673  19.210  67.782  1.00  0.00    -0.463 C  
HETATM   19  C   UNL     1      -8.463  18.823  68.802  1.00  0.00    -0.320 C  
HETATM   20  C   UNL     1      -8.794  18.159  66.446  1.00  0.00    -0.255 C  
ENDBRANCH  10  17
ENDBRANCH   4   5
ENDBRANCH   2   4
BRANCH   2  21
HETATM   21  S   UNL     1     -10.512  11.076  64.528  1.00  0.00    -0.313 SA 
BRANCH  21  22
HETATM   22  C   UNL     1      -9.733   9.923  65.657  1.00  0.00    -0.279 A  
HETATM   23  C   UNL     1      -8.895   8.882  65.251  1.00  0.00    -0.227 A  
HETATM   24  C   UNL     1     -10.113   9.982  66.988  1.00  0.00    -0.274 A  
HETATM   25  H   UNL     1      -7.884   6.290  67.983  1.00  0.00     0.000 HD 
HETATM   26  O   UNL     1      -8.448   6.986  68.300  1.00  0.00    -0.122 OA 
HETATM   27  C   UNL     1      -9.694   9.033  67.940  1.00  0.00    -0.185 A  
HETATM   28  C   UNL     1      -8.418   7.896  66.124  1.00  0.00    -0.139 A  
HETATM   29  C   UNL     1      -8.849   7.989  67.465  1.00  0.00    -0.128 A  
BRANCH  27  30
HETATM   30  C   UNL     1     -10.228   9.147  69.391  1.00  0.00    -0.212 C  
HETATM   31  C   UNL     1     -10.897   7.837  69.904  1.00  0.00    -0.228 C  
HETATM   32  C   UNL     1      -9.070   9.442  70.365  1.00  0.00    -0.302 C  
HETATM   33  C   UNL     1     -11.325  10.226  69.511  1.00  0.00    -0.299 C  
ENDBRANCH  27  30
BRANCH  28  34
HETATM   34  C   UNL     1      -7.449   6.797  65.600  1.00  0.00    -0.082 C  
HETATM   35  C   UNL     1      -6.184   6.588  66.485  1.00  0.00    -0.040 C  
HETATM   36  C   UNL     1      -6.913   7.130  64.190  1.00  0.00    -0.056 C  
HETATM   37  C   UNL     1      -8.172   5.433  65.578  1.00  0.00    -0.127 C  
ENDBRANCH  28  34
ENDBRANCH  21  22
ENDBRANCH   2  21
TORSDOF 8
ENDMDL
MODEL       73
REMARK 921   NORMALIZED FREE ENERGY PREDICTED BY IDOCK:   -5.14 KCAL/MOL
REMARK 922        TOTAL FREE ENERGY PREDICTED BY IDOCK:   -8.15 KCAL/MOL
REMARK 923 INTER-LIGAND FREE ENERGY PREDICTED BY IDOCK:   -8.30 KCAL/MOL
REMARK 924 INTRA-LIGAND FREE ENERGY PREDICTED BY IDOCK:    0.15 KCAL/MOL
REMARK 927      BINDING AFFINITY PREDICTED BY RF-SCORE:    0.00 PKD
ROOT
HETATM    1  C   UNL     1      -7.562   9.100  67.690  1.00  0.00    -0.085 C  
HETATM    2  C   UNL     1      -8.285  10.439  67.922  1.00  0.00    -0.106 C  
HETATM    3  C   UNL     1      -8.355  10.693  69.436  1.00  0.00    -0.073 C  
ENDROOT
BRANCH   2   4
HETATM    4  S   UNL     1     -10.010  10.297  67.279  1.00  0.00    -0.199 SA 
BRANCH   4   5
HETATM    5  C   UNL     1     -11.051  10.755  68.661  1.00  0.00    -0.259 A  
HETATM    6  C   UNL     1     -12.440  11.424  70.995  1.00  0.00    -0.383 A  
HETATM    7  O   UNL     1     -13.044  11.819  72.155  1.00  0.00    -0.452 OA 
HETATM    8  H   UNL     1     -13.185  12.737  72.352  1.00  0.00     0.000 HD 
HETATM    9  C   UNL     1     -11.499   9.759  69.523  1.00  0.00    -0.058 A  
HETATM   10  C   UNL     1     -12.001  12.467  70.151  1.00  0.00    -0.376 A  
HETATM   11  C   UNL     1     -11.336  12.076  68.986  1.00  0.00    -0.331 A  
HETATM   12  C   UNL     1     -12.230  10.047  70.698  1.00  0.00    -0.360 A  
BRANCH  12  13
HETATM   13  C   UNL     1     -12.709   8.874  71.590  1.00  0.00    -0.403 C  
HETATM   14  C   UNL     1     -11.745   8.639  72.775  1.00  0.00    -0.029 C  
HETATM   15  C   UNL     1     -12.863   7.584  70.758  1.00  0.00     0.031 C  
HETATM   16  C   UNL     1     -14.096   9.125  72.252  1.00  0.00    -0.439 C  
ENDBRANCH  12  13
BRANCH  10  17
HETATM   17  C   UNL     1     -12.224  13.977  70.430  1.00  0.00    -0.433 C  
HETATM   18  C   UNL     1     -13.602  14.228  71.080  1.00  0.00    -0.216 C  
HETATM   19  C   UNL     1     -11.189  14.606  71.410  1.00  0.00     0.169 C  
HETATM   20  C   UNL     1     -12.094  14.777  69.119  1.00  0.00    -0.278 C  
ENDBRANCH  10  17
ENDBRANCH   4   5
ENDBRANCH   2   4
BRANCH   2  21
HETATM   21  S   UNL     1      -7.262  11.776  67.166  1.00  0.00    -0.138 SA 
BRANCH  21  22
HETATM   22  C   UNL     1      -8.408  13.122  66.873  1.00  0.00    -0.008 A  
HETATM   23  C   UNL     1      -9.562  13.007  66.094  1.00  0.00    -0.209 A  
HETATM   24  C   UNL     1      -8.038  14.380  67.321  1.00  0.00    -0.209 A  
HETATM   25  H   UNL     1     -11.448  16.318  65.270  1.00  0.00     0.000 HD 
HETATM   26  O   UNL     1     -10.674  16.438  65.807  1.00  0.00    -0.313 OA 
HETATM   27  C   UNL     1      -8.774  15.541  67.017  1.00  0.00    -0.258 A  
HETATM   28  C   UNL     1     -10.365  14.100  65.745  1.00  0.00    -0.338 A  
HETATM   29  C   UNL     1      -9.936  15.362  66.210  1.00  0.00    -0.288 A  
BRANCH  27  30
HETATM   30  C   UNL     1      -8.242  16.911  67.508  1.00  0.00    -0.191 C  
HETATM   31  C   UNL     1      -7.922  17.899  66.347  1.00  0.00    -0.302 C  
HETATM   32  C   UNL     1      -9.301  17.613  68.382  1.00  0.00    -0.289 C  
HETATM   33  C   UNL     1      -6.914  16.763  68.280  1.00  0.00    -0.161 C  
ENDBRANCH  27  30
BRANCH  28  34
HETATM   34  C   UNL     1     -11.661  13.878  64.914  1.00  0.00    -0.365 C  
HETATM   35  C   UNL     1     -12.018  15.059  63.962  1.00  0.00    -0.081 C  
HETATM   36  C   UNL     1     -12.899  13.691  65.819  1.00  0.00    -0.390 C  
HETATM   37  C   UNL     1     -11.488  12.646  64.000  1.00  0.00    -0.475 C  
ENDBRANCH  28  34
ENDBRANCH  21  22
ENDBRANCH   2  21
TORSDOF 8
ENDMDL
MODEL       74
REMARK 921   NORMALIZED FREE ENERGY PREDICTED BY IDOCK:   -5.13 KCAL/MOL
REMARK 922        TOTAL FREE ENERGY PREDICTED BY IDOCK:   -8.13 KCAL/MOL
REMARK 923 INTER-LIGAND FREE ENERGY PREDICTED BY IDOCK:   -8.42 KCAL/MOL
REMARK 924 INTRA-LIGAND FREE ENERGY PREDICTED BY IDOCK:    0.29 KCAL/MOL
REMARK 927      BINDING AFFINITY PREDICTED BY RF-SCORE:    0.00 PKD
ROOT
HETATM    1  C   UNL     1     -11.764  11.284  66.770  1.00  0.00     0.253 C  
HETATM    2  C   UNL     1     -10.720  12.111  66.000  1.00  0.00    -0.273 C  
HETATM    3  C   UNL     1     -10.476  11.435  64.641  1.00  0.00    -0.373 C  
ENDROOT
BRANCH   2   4
HETATM    4  S   UNL     1      -9.136  12.095  66.949  1.00  0.00    -0.206 SA 
BRANCH   4   5
HETATM    5  C   UNL     1      -9.027  10.440  67.623  1.00  0.00    -0.138 A  
HETATM    6  C   UNL     1      -9.133   7.814  68.579  1.00  0.00    -0.132 A  
HETATM    7  O   UNL     1      -9.213   6.502  68.952  1.00  0.00    -0.130 OA 
HETATM    8  H   UNL     1      -8.790   5.817  68.448  1.00  0.00     0.000 HD 
HETATM    9  C   UNL     1      -9.710  10.147  68.798  1.00  0.00    -0.174 A  
HETATM   10  C   UNL     1      -8.431   8.066  67.382  1.00  0.00    -0.126 A  
HETATM   11  C   UNL     1      -8.387   9.397  66.963  1.00  0.00    -0.127 A  
HETATM   12  C   UNL     1      -9.767   8.841  69.336  1.00  0.00    -0.172 A  
BRANCH  12  13
HETATM   13  C   UNL     1     -10.533   8.608  70.663  1.00  0.00    -0.243 C  
HETATM   14  C   UNL     1     -11.431   9.817  71.013  1.00  0.00    -0.458 C  
HETATM   15  C   UNL     1      -9.550   8.316  71.815  1.00  0.00    -0.274 C  
HETATM   16  C   UNL     1     -11.507   7.394  70.612  1.00  0.00    -0.307 C  
ENDBRANCH  12  13
BRANCH  10  17
HETATM   17  C   UNL     1      -7.715   6.978  66.538  1.00  0.00    -0.104 C  
HETATM   18  C   UNL     1      -6.875   7.609  65.407  1.00  0.00    -0.045 C  
HETATM   19  C   UNL     1      -6.716   6.095  67.346  1.00  0.00    -0.061 C  
HETATM   20  C   UNL     1      -8.754   6.000  65.954  1.00  0.00    -0.157 C  
ENDBRANCH  10  17
ENDBRANCH   4   5
ENDBRANCH   2   4
BRANCH   2  21
HETATM   21  S   UNL     1     -11.440  13.781  65.684  1.00  0.00    -0.319 SA 
BRANCH  21  22
HETATM   22  C   UNL     1     -11.165  14.695  67.201  1.00  0.00    -0.344 A  
HETATM   23  C   UNL     1     -11.763  14.376  68.422  1.00  0.00    -0.367 A  
HETATM   24  C   UNL     1     -10.438  15.872  67.111  1.00  0.00    -0.313 A  
HETATM   25  H   UNL     1     -11.322  16.959  71.309  1.00  0.00     0.000 HD 
HETATM   26  O   UNL     1     -10.894  17.209  70.498  1.00  0.00     0.212 OA 
HETATM   27  C   UNL     1     -10.287  16.756  68.196  1.00  0.00    -0.318 A  
HETATM   28  C   UNL     1     -11.663  15.186  69.561  1.00  0.00    -0.351 A  
HETATM   29  C   UNL     1     -10.929  16.381  69.412  1.00  0.00    -0.325 A  
BRANCH  27  30
HETATM   30  C   UNL     1      -9.512  18.080  67.977  1.00  0.00    -0.284 C  
HETATM   31  C   UNL     1     -10.255  19.328  68.539  1.00  0.00    -0.471 C  
HETATM   32  C   UNL     1      -8.153  18.031  68.704  1.00  0.00    -0.293 C  
HETATM   33  C   UNL     1      -9.312  18.381  66.475  1.00  0.00    -0.311 C  
ENDBRANCH  27  30
BRANCH  28  34
HETATM   34  C   UNL     1     -12.320  14.732  70.896  1.00  0.00    -0.388 C  
HETATM   35  C   UNL     1     -13.723  15.357  71.160  1.00  0.00    -0.497 C  
HETATM   36  C   UNL     1     -11.462  15.121  72.120  1.00  0.00    -0.430 C  
HETATM   37  C   UNL     1     -12.542  13.204  70.874  1.00  0.00    -0.377 C  
ENDBRANCH  28  34
ENDBRANCH  21  22
ENDBRANCH   2  21
TORSDOF 8
ENDMDL
MODEL       75
REMARK 921   NORMALIZED FREE ENERGY PREDICTED BY IDOCK:   -5.13 KCAL/MOL
REMARK 922        TOTAL FREE ENERGY PREDICTED BY IDOCK:   -8.13 KCAL/MOL
REMARK 923 INTER-LIGAND FREE ENERGY PREDICTED BY IDOCK:   -9.19 KCAL/MOL
REMARK 924 INTRA-LIGAND FREE ENERGY PREDICTED BY IDOCK:    1.05 KCAL/MOL
REMARK 927      BINDING AFFINITY PREDICTED BY RF-SCORE:    0.00 PKD
ROOT
HETATM    1  C   UNL     1     -10.296   9.337  71.254  1.00  0.00    -0.397 C  
HETATM    2  C   UNL     1     -11.467   8.413  71.632  1.00  0.00    -0.287 C  
HETATM    3  C   UNL     1     -11.663   7.394  70.497  1.00  0.00    -0.220 C  
ENDROOT
BRANCH   2   4
HETATM    4  S   UNL     1     -13.001   9.430  71.768  1.00  0.00    -0.435 SA 
BRANCH   4   5
HETATM    5  C   UNL     1     -12.641  10.924  70.850  1.00  0.00    -0.397 A  
HETATM    6  C   UNL     1     -11.837  13.286  69.587  1.00  0.00    -0.327 A  
HETATM    7  O   UNL     1     -11.353  14.395  68.954  1.00  0.00    -0.245 OA 
HETATM    8  H   UNL     1     -10.917  14.335  68.111  1.00  0.00     0.000 HD 
HETATM    9  C   UNL     1     -12.853  12.155  71.461  1.00  0.00    -0.394 A  
HETATM   10  C   UNL     1     -11.600  12.058  68.932  1.00  0.00    -0.377 A  
HETATM   11  C   UNL     1     -12.045  10.913  69.595  1.00  0.00    -0.400 A  
HETATM   12  C   UNL     1     -12.490  13.377  70.849  1.00  0.00    -0.439 A  
BRANCH  12  13
HETATM   13  C   UNL     1     -12.782  14.705  71.592  1.00  0.00    -0.399 C  
HETATM   14  C   UNL     1     -12.800  14.499  73.124  1.00  0.00    -0.547 C  
HETATM   15  C   UNL     1     -14.118  15.313  71.116  1.00  0.00    -0.438 C  
HETATM   16  C   UNL     1     -11.704  15.801  71.352  1.00  0.00    -0.508 C  
ENDBRANCH  12  13
BRANCH  10  17
HETATM   17  C   UNL     1     -10.906  11.919  67.551  1.00  0.00    -0.283 C  
HETATM   18  C   UNL     1     -11.714  12.630  66.444  1.00  0.00    -0.466 C  
HETATM   19  C   UNL     1      -9.481  12.545  67.484  1.00  0.00    -0.185 C  
HETATM   20  C   UNL     1     -10.721  10.427  67.206  1.00  0.00    -0.331 C  
ENDBRANCH  10  17
ENDBRANCH   4   5
ENDBRANCH   2   4
BRANCH   2  21
HETATM   21  S   UNL     1     -10.990   7.485  73.155  1.00  0.00    -0.289 SA 
BRANCH  21  22
HETATM   22  C   UNL     1      -9.900   6.185  72.578  1.00  0.00    -0.167 A  
HETATM   23  C   UNL     1      -8.864   6.385  71.663  1.00  0.00    -0.136 A  
HETATM   24  C   UNL     1     -10.210   4.886  72.949  1.00  0.00    -0.217 A  
HETATM   25  H   UNL     1      -7.122   3.186  70.273  1.00  0.00     0.000 HD 
HETATM   26  O   UNL     1      -7.816   3.008  70.897  1.00  0.00    -0.046 OA 
HETATM   27  C   UNL     1      -9.527   3.767  72.437  1.00  0.00    -0.183 A  
HETATM   28  C   UNL     1      -8.121   5.338  71.104  1.00  0.00    -0.109 A  
HETATM   29  C   UNL     1      -8.487   4.033  71.499  1.00  0.00    -0.092 A  
BRANCH  27  30
HETATM   30  C   UNL     1      -9.992   2.350  72.862  1.00  0.00    -0.197 C  
HETATM   31  C   UNL     1     -11.308   2.358  73.695  1.00  0.00    -0.311 C  
HETATM   32  C   UNL     1     -10.282   1.487  71.617  1.00  0.00    -0.134 C  
HETATM   33  C   UNL     1      -8.952   1.659  73.769  1.00  0.00    -0.058 C  
ENDBRANCH  27  30
BRANCH  28  34
HETATM   34  C   UNL     1      -6.951   5.651  70.127  1.00  0.00    -0.065 C  
HETATM   35  C   UNL     1      -6.830   7.155  69.740  1.00  0.00    -0.050 C  
HETATM   36  C   UNL     1      -7.100   4.893  68.790  1.00  0.00    -0.053 C  
HETATM   37  C   UNL     1      -5.607   5.283  70.792  1.00  0.00    -0.005 C  
ENDBRANCH  28  34
ENDBRANCH  21  22
ENDBRANCH   2  21
TORSDOF 8
ENDMDL
MODEL       76
REMARK 921   NORMALIZED FREE ENERGY PREDICTED BY IDOCK:   -5.12 KCAL/MOL
REMARK 922        TOTAL FREE ENERGY PREDICTED BY IDOCK:   -8.11 KCAL/MOL
REMARK 923 INTER-LIGAND FREE ENERGY PREDICTED BY IDOCK:   -8.83 KCAL/MOL
REMARK 924 INTRA-LIGAND FREE ENERGY PREDICTED BY IDOCK:    0.72 KCAL/MOL
REMARK 927      BINDING AFFINITY PREDICTED BY RF-SCORE:    0.00 PKD
ROOT
HETATM    1  C   UNL     1     -11.463   7.972  72.952  1.00  0.00    -0.329 C  
HETATM    2  C   UNL     1     -11.697   8.437  71.504  1.00  0.00    -0.290 C  
HETATM    3  C   UNL     1     -10.488   9.281  71.069  1.00  0.00    -0.384 C  
ENDROOT
BRANCH   2   4
HETATM    4  S   UNL     1     -13.198   9.511  71.464  1.00  0.00    -0.393 SA 
BRANCH   4   5
HETATM    5  C   UNL     1     -12.616  11.084  70.840  1.00  0.00    -0.391 A  
HETATM    6  C   UNL     1     -11.942  13.540  69.682  1.00  0.00    -0.337 A  
HETATM    7  O   UNL     1     -11.707  14.771  69.139  1.00  0.00    -0.283 OA 
HETATM    8  H   UNL     1     -11.914  15.569  69.612  1.00  0.00     0.000 HD 
HETATM    9  C   UNL     1     -12.016  11.130  69.586  1.00  0.00    -0.429 A  
HETATM   10  C   UNL     1     -12.551  13.541  70.955  1.00  0.00    -0.438 A  
HETATM   11  C   UNL     1     -12.843  12.288  71.498  1.00  0.00    -0.384 A  
HETATM   12  C   UNL     1     -11.632  12.344  68.973  1.00  0.00    -0.362 A  
BRANCH  12  13
HETATM   13  C   UNL     1     -10.949  12.301  67.583  1.00  0.00    -0.287 C  
HETATM   14  C   UNL     1     -10.955  10.869  66.999  1.00  0.00    -0.310 C  
HETATM   15  C   UNL     1      -9.506  12.841  67.667  1.00  0.00    -0.190 C  
HETATM   16  C   UNL     1     -11.670  13.168  66.510  1.00  0.00    -0.433 C  
ENDBRANCH  12  13
BRANCH  10  17
HETATM   17  C   UNL     1     -12.890  14.820  71.766  1.00  0.00    -0.396 C  
HETATM   18  C   UNL     1     -13.142  14.491  73.252  1.00  0.00    -0.440 C  
HETATM   19  C   UNL     1     -11.761  15.894  71.770  1.00  0.00    -0.575 C  
HETATM   20  C   UNL     1     -14.123  15.516  71.153  1.00  0.00    -0.222 C  
ENDBRANCH  10  17
ENDBRANCH   4   5
ENDBRANCH   2   4
BRANCH   2  21
HETATM   21  S   UNL     1     -11.763   6.938  70.430  1.00  0.00    -0.290 SA 
BRANCH  21  22
HETATM   22  C   UNL     1     -10.186   6.124  70.679  1.00  0.00    -0.199 A  
HETATM   23  C   UNL     1      -9.000   6.515  70.054  1.00  0.00    -0.144 A  
HETATM   24  C   UNL     1     -10.188   4.949  71.414  1.00  0.00    -0.257 A  
HETATM   25  H   UNL     1      -5.948   4.121  70.452  1.00  0.00     0.000 HD 
HETATM   26  O   UNL     1      -6.733   3.824  70.897  1.00  0.00    -0.030 OA 
HETATM   27  C   UNL     1      -9.047   4.136  71.549  1.00  0.00    -0.175 A  
HETATM   28  C   UNL     1      -7.811   5.779  70.136  1.00  0.00    -0.099 A  
HETATM   29  C   UNL     1      -7.869   4.581  70.880  1.00  0.00    -0.068 A  
BRANCH  27  30
HETATM   30  C   UNL     1      -9.166   2.806  72.336  1.00  0.00    -0.139 C  
HETATM   31  C   UNL     1      -8.144   2.689  73.505  1.00  0.00    -0.063 C  
HETATM   32  C   UNL     1     -10.563   2.689  72.979  1.00  0.00    -0.247 C  
HETATM   33  C   UNL     1      -8.880   1.584  71.436  1.00  0.00    -0.098 C  
ENDBRANCH  27  30
BRANCH  28  34
HETATM   34  C   UNL     1      -6.520   6.310  69.449  1.00  0.00    -0.043 C  
HETATM   35  C   UNL     1      -5.996   5.407  68.292  1.00  0.00    -0.018 C  
HETATM   36  C   UNL     1      -5.345   6.425  70.444  1.00  0.00    -0.014 C  
HETATM   37  C   UNL     1      -6.801   7.686  68.807  1.00  0.00    -0.065 C  
ENDBRANCH  28  34
ENDBRANCH  21  22
ENDBRANCH   2  21
TORSDOF 8
ENDMDL
MODEL       77
REMARK 921   NORMALIZED FREE ENERGY PREDICTED BY IDOCK:   -5.09 KCAL/MOL
REMARK 922        TOTAL FREE ENERGY PREDICTED BY IDOCK:   -8.07 KCAL/MOL
REMARK 923 INTER-LIGAND FREE ENERGY PREDICTED BY IDOCK:   -9.14 KCAL/MOL
REMARK 924 INTRA-LIGAND FREE ENERGY PREDICTED BY IDOCK:    1.07 KCAL/MOL
REMARK 927      BINDING AFFINITY PREDICTED BY RF-SCORE:    0.00 PKD
ROOT
HETATM    1  C   UNL     1     -10.477  13.522  64.419  1.00  0.00    -0.366 C  
HETATM    2  C   UNL     1     -10.468  12.397  65.470  1.00  0.00    -0.275 C  
HETATM    3  C   UNL     1      -9.292  12.643  66.429  1.00  0.00    -0.198 C  
ENDROOT
BRANCH   2   4
HETATM    4  S   UNL     1     -10.188  10.788  64.609  1.00  0.00    -0.327 SA 
BRANCH   4   5
HETATM    5  C   UNL     1      -9.589   9.687  65.887  1.00  0.00    -0.257 A  
HETATM    6  C   UNL     1      -8.914   7.823  67.860  1.00  0.00    -0.125 A  
HETATM    7  O   UNL     1      -8.607   6.839  68.757  1.00  0.00    -0.123 OA 
HETATM    8  H   UNL     1      -8.036   6.117  68.524  1.00  0.00     0.000 HD 
HETATM    9  C   UNL     1     -10.105   9.806  67.173  1.00  0.00    -0.267 A  
HETATM   10  C   UNL     1      -8.369   7.662  66.568  1.00  0.00    -0.129 A  
HETATM   11  C   UNL     1      -8.718   8.635  65.629  1.00  0.00    -0.214 A  
HETATM   12  C   UNL     1      -9.770   8.906  68.210  1.00  0.00    -0.174 A  
BRANCH  12  13
HETATM   13  C   UNL     1     -10.374   9.127  69.620  1.00  0.00    -0.226 C  
HETATM   14  C   UNL     1     -11.300  10.364  69.647  1.00  0.00    -0.333 C  
HETATM   15  C   UNL     1      -9.257   9.267  70.675  1.00  0.00    -0.321 C  
HETATM   16  C   UNL     1     -11.273   7.950  70.101  1.00  0.00    -0.157 C  
ENDBRANCH  12  13
BRANCH  10  17
HETATM   17  C   UNL     1      -7.421   6.506  66.152  1.00  0.00    -0.081 C  
HETATM   18  C   UNL     1      -6.904   6.697  64.711  1.00  0.00    -0.050 C  
HETATM   19  C   UNL     1      -6.142   6.378  67.033  1.00  0.00    -0.025 C  
HETATM   20  C   UNL     1      -8.153   5.155  66.286  1.00  0.00    -0.108 C  
ENDBRANCH  10  17
ENDBRANCH   4   5
ENDBRANCH   2   4
BRANCH   2  21
HETATM   21  S   UNL     1     -12.032  12.517  66.443  1.00  0.00    -0.214 SA 
BRANCH  21  22
HETATM   22  C   UNL     1     -11.812  13.952  67.493  1.00  0.00    -0.396 A  
HETATM   23  C   UNL     1     -11.072  15.078  67.127  1.00  0.00    -0.332 A  
HETATM   24  C   UNL     1     -12.276  13.863  68.796  1.00  0.00    -0.232 A  
HETATM   25  H   UNL     1     -10.395  17.705  69.928  1.00  0.00     0.000 HD 
HETATM   26  O   UNL     1     -10.907  16.958  70.215  1.00  0.00    -0.133 OA 
HETATM   27  C   UNL     1     -12.026  14.856  69.761  1.00  0.00    -0.366 A  
HETATM   28  C   UNL     1     -10.778  16.124  68.012  1.00  0.00    -0.321 A  
HETATM   29  C   UNL     1     -11.257  15.978  69.331  1.00  0.00    -0.349 A  
BRANCH  27  30
HETATM   30  C   UNL     1     -12.531  14.634  71.209  1.00  0.00    -0.408 C  
HETATM   31  C   UNL     1     -13.883  15.348  71.506  1.00  0.00    -0.599 C  
HETATM   32  C   UNL     1     -12.778  13.134  71.465  1.00  0.00    -0.366 C  
HETATM   33  C   UNL     1     -11.543  15.205  72.250  1.00  0.00    -0.473 C  
ENDBRANCH  27  30
BRANCH  28  34
HETATM   34  C   UNL     1      -9.988  17.367  67.510  1.00  0.00    -0.298 C  
HETATM   35  C   UNL     1     -10.834  18.673  67.437  1.00  0.00    -0.381 C  
HETATM   36  C   UNL     1      -9.433  17.157  66.084  1.00  0.00    -0.228 C  
HETATM   37  C   UNL     1      -8.830  17.675  68.484  1.00  0.00    -0.285 C  
ENDBRANCH  28  34
ENDBRANCH  21  22
ENDBRANCH   2  21
TORSDOF 8
ENDMDL
MODEL       78
REMARK 921   NORMALIZED FREE ENERGY PREDICTED BY IDOCK:   -5.07 KCAL/MOL
REMARK 922        TOTAL FREE ENERGY PREDICTED BY IDOCK:   -8.05 KCAL/MOL
REMARK 923 INTER-LIGAND FREE ENERGY PREDICTED BY IDOCK:   -9.19 KCAL/MOL
REMARK 924 INTRA-LIGAND FREE ENERGY PREDICTED BY IDOCK:    1.14 KCAL/MOL
REMARK 927      BINDING AFFINITY PREDICTED BY RF-SCORE:    0.00 PKD
ROOT
HETATM    1  C   UNL     1     -11.130   7.731  73.063  1.00  0.00    -0.419 C  
HETATM    2  C   UNL     1     -11.636   8.282  71.718  1.00  0.00    -0.299 C  
HETATM    3  C   UNL     1     -10.507   9.108  71.081  1.00  0.00    -0.385 C  
ENDROOT
BRANCH   2   4
HETATM    4  S   UNL     1     -13.066   9.405  72.039  1.00  0.00    -0.452 SA 
BRANCH   4   5
HETATM    5  C   UNL     1     -12.712  10.877  71.084  1.00  0.00    -0.429 A  
HETATM    6  C   UNL     1     -11.913  13.204  69.753  1.00  0.00    -0.314 A  
HETATM    7  O   UNL     1     -11.433  14.295  69.086  1.00  0.00    -0.257 OA 
HETATM    8  H   UNL     1     -11.025  14.213  68.231  1.00  0.00     0.000 HD 
HETATM    9  C   UNL     1     -12.885  12.122  71.679  1.00  0.00    -0.390 A  
HETATM   10  C   UNL     1     -11.716  11.962  69.113  1.00  0.00    -0.380 A  
HETATM   11  C   UNL     1     -12.157  10.835  69.810  1.00  0.00    -0.389 A  
HETATM   12  C   UNL     1     -12.523  13.327  71.034  1.00  0.00    -0.422 A  
BRANCH  12  13
HETATM   13  C   UNL     1     -12.772  14.672  71.762  1.00  0.00    -0.405 C  
HETATM   14  C   UNL     1     -14.091  15.328  71.296  1.00  0.00    -0.527 C  
HETATM   15  C   UNL     1     -11.586  15.636  71.545  1.00  0.00    -0.507 C  
HETATM   16  C   UNL     1     -12.927  14.524  73.304  1.00  0.00    -0.500 C  
ENDBRANCH  12  13
BRANCH  10  17
HETATM   17  C   UNL     1     -11.070  11.788  67.713  1.00  0.00    -0.302 C  
HETATM   18  C   UNL     1     -10.944  10.296  67.336  1.00  0.00    -0.317 C  
HETATM   19  C   UNL     1     -11.877  12.437  66.549  1.00  0.00    -0.407 C  
HETATM   20  C   UNL     1      -9.686  12.467  67.687  1.00  0.00    -0.195 C  
ENDBRANCH  10  17
ENDBRANCH   4   5
ENDBRANCH   2   4
BRANCH   2  21
HETATM   21  S   UNL     1     -11.986   6.847  70.612  1.00  0.00    -0.291 SA 
BRANCH  21  22
HETATM   22  C   UNL     1     -10.385   6.105  70.301  1.00  0.00    -0.214 A  
HETATM   23  C   UNL     1      -9.494   5.724  71.308  1.00  0.00    -0.179 A  
HETATM   24  C   UNL     1      -9.953   6.052  68.985  1.00  0.00    -0.199 A  
HETATM   25  H   UNL     1      -5.915   4.679  70.167  1.00  0.00     0.000 HD 
HETATM   26  O   UNL     1      -6.492   4.924  69.453  1.00  0.00    -0.033 OA 
HETATM   27  C   UNL     1      -8.656   5.639  68.627  1.00  0.00    -0.104 A  
HETATM   28  C   UNL     1      -8.187   5.290  71.052  1.00  0.00    -0.116 A  
HETATM   29  C   UNL     1      -7.790   5.272  69.698  1.00  0.00    -0.073 A  
BRANCH  27  30
HETATM   30  C   UNL     1      -8.246   5.679  67.133  1.00  0.00    -0.101 C  
HETATM   31  C   UNL     1      -7.624   4.343  66.630  1.00  0.00    -0.089 C  
HETATM   32  C   UNL     1      -9.481   5.933  66.246  1.00  0.00    -0.161 C  
HETATM   33  C   UNL     1      -7.161   6.746  66.869  1.00  0.00    -0.081 C  
ENDBRANCH  27  30
BRANCH  28  34
HETATM   34  C   UNL     1      -7.275   4.838  72.229  1.00  0.00    -0.080 C  
HETATM   35  C   UNL     1      -7.926   4.995  73.636  1.00  0.00    -0.106 C  
HETATM   36  C   UNL     1      -5.967   5.656  72.289  1.00  0.00    -0.034 C  
HETATM   37  C   UNL     1      -6.949   3.336  72.087  1.00  0.00    -0.030 C  
ENDBRANCH  28  34
ENDBRANCH  21  22
ENDBRANCH   2  21
TORSDOF 8
ENDMDL
MODEL       79
REMARK 921   NORMALIZED FREE ENERGY PREDICTED BY IDOCK:   -5.07 KCAL/MOL
REMARK 922        TOTAL FREE ENERGY PREDICTED BY IDOCK:   -8.04 KCAL/MOL
REMARK 923 INTER-LIGAND FREE ENERGY PREDICTED BY IDOCK:   -9.44 KCAL/MOL
REMARK 924 INTRA-LIGAND FREE ENERGY PREDICTED BY IDOCK:    1.41 KCAL/MOL
REMARK 927      BINDING AFFINITY PREDICTED BY RF-SCORE:    0.00 PKD
ROOT
HETATM    1  C   UNL     1      -7.392  11.357  66.976  1.00  0.00    -0.144 C  
HETATM    2  C   UNL     1      -7.873  11.867  68.346  1.00  0.00    -0.141 C  
HETATM    3  C   UNL     1      -7.256  10.975  69.436  1.00  0.00    -0.114 C  
ENDROOT
BRANCH   2   4
HETATM    4  S   UNL     1      -9.709  11.696  68.428  1.00  0.00    -0.188 SA 
BRANCH   4   5
HETATM    5  C   UNL     1      -9.987   9.995  68.911  1.00  0.00    -0.192 A  
HETATM    6  C   UNL     1     -10.701   7.370  69.566  1.00  0.00    -0.224 A  
HETATM    7  O   UNL     1     -11.081   6.078  69.788  1.00  0.00    -0.366 OA 
HETATM    8  H   UNL     1     -10.811   5.375  69.208  1.00  0.00     0.000 HD 
HETATM    9  C   UNL     1     -10.743   9.734  70.049  1.00  0.00    -0.326 A  
HETATM   10  C   UNL     1      -9.935   7.589  68.400  1.00  0.00    -0.185 A  
HETATM   11  C   UNL     1      -9.584   8.914  68.135  1.00  0.00    -0.161 A  
HETATM   12  C   UNL     1     -11.104   8.423  70.436  1.00  0.00    -0.240 A  
BRANCH  12  13
HETATM   13  C   UNL     1     -11.930   8.223  71.732  1.00  0.00    -0.364 C  
HETATM   14  C   UNL     1     -12.566   9.551  72.203  1.00  0.00    -0.411 C  
HETATM   15  C   UNL     1     -11.053   7.621  72.849  1.00  0.00    -0.448 C  
HETATM   16  C   UNL     1     -13.131   7.248  71.557  1.00  0.00    -0.434 C  
ENDBRANCH  12  13
BRANCH  10  17
HETATM   17  C   UNL     1      -9.463   6.468  67.436  1.00  0.00    -0.135 C  
HETATM   18  C   UNL     1      -8.502   7.021  66.362  1.00  0.00    -0.130 C  
HETATM   19  C   UNL     1      -8.681   5.313  68.130  1.00  0.00    -0.102 C  
HETATM   20  C   UNL     1     -10.685   5.801  66.772  1.00  0.00    -0.369 C  
ENDBRANCH  10  17
ENDBRANCH   4   5
ENDBRANCH   2   4
BRANCH   2  21
HETATM   21  S   UNL     1      -7.223  13.579  68.576  1.00  0.00    -0.115 SA 
BRANCH  21  22
HETATM   22  C   UNL     1      -8.412  14.636  67.752  1.00  0.00    -0.174 A  
HETATM   23  C   UNL     1      -9.335  14.182  66.807  1.00  0.00    -0.295 A  
HETATM   24  C   UNL     1      -8.297  16.002  67.958  1.00  0.00    -0.162 A  
HETATM   25  H   UNL     1     -11.335  16.912  64.870  1.00  0.00     0.000 HD 
HETATM   26  O   UNL     1     -10.723  17.261  65.508  1.00  0.00    -0.515 OA 
HETATM   27  C   UNL     1      -9.067  16.944  67.250  1.00  0.00    -0.225 A  
HETATM   28  C   UNL     1     -10.152  15.040  66.059  1.00  0.00    -0.322 A  
HETATM   29  C   UNL     1      -9.984  16.421  66.291  1.00  0.00    -0.323 A  
BRANCH  27  30
HETATM   30  C   UNL     1      -8.818  18.452  67.502  1.00  0.00    -0.267 C  
HETATM   31  C   UNL     1      -8.349  19.220  66.231  1.00  0.00    -0.327 C  
HETATM   32  C   UNL     1     -10.120  19.140  67.958  1.00  0.00    -0.482 C  
HETATM   33  C   UNL     1      -7.695  18.679  68.538  1.00  0.00    -0.342 C  
ENDBRANCH  27  30
BRANCH  28  34
HETATM   34  C   UNL     1     -11.188  14.449  65.060  1.00  0.00    -0.376 C  
HETATM   35  C   UNL     1     -10.662  13.233  64.240  1.00  0.00    -0.408 C  
HETATM   36  C   UNL     1     -11.633  15.490  64.010  1.00  0.00     0.082 C  
HETATM   37  C   UNL     1     -12.418  13.927  65.835  1.00  0.00    -0.519 C  
ENDBRANCH  28  34
ENDBRANCH  21  22
ENDBRANCH   2  21
TORSDOF 8
ENDMDL
MODEL       80
REMARK 921   NORMALIZED FREE ENERGY PREDICTED BY IDOCK:   -5.07 KCAL/MOL
REMARK 922        TOTAL FREE ENERGY PREDICTED BY IDOCK:   -8.04 KCAL/MOL
REMARK 923 INTER-LIGAND FREE ENERGY PREDICTED BY IDOCK:   -9.47 KCAL/MOL
REMARK 924 INTRA-LIGAND FREE ENERGY PREDICTED BY IDOCK:    1.43 KCAL/MOL
REMARK 927      BINDING AFFINITY PREDICTED BY RF-SCORE:    0.00 PKD
ROOT
HETATM    1  C   UNL     1      -9.856  13.801  65.525  1.00  0.00    -0.189 C  
HETATM    2  C   UNL     1     -11.262  13.242  65.242  1.00  0.00    -0.295 C  
HETATM    3  C   UNL     1     -12.140  14.390  64.719  1.00  0.00    -0.462 C  
ENDROOT
BRANCH   2   4
HETATM    4  S   UNL     1     -11.986  12.633  66.827  1.00  0.00    -0.188 SA 
BRANCH   4   5
HETATM    5  C   UNL     1     -11.820  14.007  67.962  1.00  0.00    -0.368 A  
HETATM    6  C   UNL     1     -11.354  15.993  69.876  1.00  0.00    -0.340 A  
HETATM    7  O   UNL     1     -11.027  16.956  70.788  1.00  0.00    -0.213 OA 
HETATM    8  H   UNL     1     -10.480  17.696  70.552  1.00  0.00     0.000 HD 
HETATM    9  C   UNL     1     -12.360  13.893  69.238  1.00  0.00    -0.201 A  
HETATM   10  C   UNL     1     -10.785  16.148  68.594  1.00  0.00    -0.295 A  
HETATM   11  C   UNL     1     -11.071  15.141  67.669  1.00  0.00    -0.318 A  
HETATM   12  C   UNL     1     -12.176  14.884  70.230  1.00  0.00    -0.389 A  
BRANCH  12  13
HETATM   13  C   UNL     1     -12.831  14.686  71.620  1.00  0.00    -0.403 C  
HETATM   14  C   UNL     1     -11.924  15.223  72.750  1.00  0.00    -0.522 C  
HETATM   15  C   UNL     1     -13.164  13.198  71.858  1.00  0.00    -0.526 C  
HETATM   16  C   UNL     1     -14.172  15.458  71.789  1.00  0.00    -0.632 C  
ENDBRANCH  12  13
BRANCH  10  17
HETATM   17  C   UNL     1      -9.898  17.347  68.166  1.00  0.00    -0.301 C  
HETATM   18  C   UNL     1      -9.846  17.484  66.629  1.00  0.00    -0.308 C  
HETATM   19  C   UNL     1     -10.398  18.730  68.683  1.00  0.00    -0.261 C  
HETATM   20  C   UNL     1      -8.477  17.178  68.739  1.00  0.00    -0.225 C  
ENDBRANCH  10  17
ENDBRANCH   4   5
ENDBRANCH   2   4
BRANCH   2  21
HETATM   21  S   UNL     1     -11.112  11.983  63.900  1.00  0.00    -0.446 SA 
BRANCH  21  22
HETATM   22  C   UNL     1      -9.856  10.843  64.478  1.00  0.00    -0.300 A  
HETATM   23  C   UNL     1      -8.713  10.509  63.749  1.00  0.00    -0.185 A  
HETATM   24  C   UNL     1     -10.122  10.143  65.645  1.00  0.00    -0.324 A  
HETATM   25  H   UNL     1      -6.553   7.575  65.139  1.00  0.00     0.000 HD 
HETATM   26  O   UNL     1      -7.317   7.776  65.666  1.00  0.00    -0.070 OA 
HETATM   27  C   UNL     1      -9.290   9.110  66.116  1.00  0.00    -0.288 A  
HETATM   28  C   UNL     1      -7.820   9.503  64.140  1.00  0.00    -0.126 A  
HETATM   29  C   UNL     1      -8.144   8.808  65.324  1.00  0.00    -0.129 A  
BRANCH  27  30
HETATM   30  C   UNL     1      -9.708   8.341  67.395  1.00  0.00    -0.225 C  
HETATM   31  C   UNL     1      -8.540   8.150  68.408  1.00  0.00    -0.130 C  
HETATM   32  C   UNL     1     -10.803   9.119  68.153  1.00  0.00    -0.118 C  
HETATM   33  C   UNL     1     -10.188   6.910  67.069  1.00  0.00    -0.317 C  
ENDBRANCH  27  30
BRANCH  28  34
HETATM   34  C   UNL     1      -6.543   9.227  63.295  1.00  0.00    -0.091 C  
HETATM   35  C   UNL     1      -6.640   7.964  62.387  1.00  0.00    -0.085 C  
HETATM   36  C   UNL     1      -5.303   8.997  64.187  1.00  0.00    -0.059 C  
HETATM   37  C   UNL     1      -6.287  10.410  62.336  1.00  0.00    -0.139 C  
ENDBRANCH  28  34
ENDBRANCH  21  22
ENDBRANCH   2  21
TORSDOF 8
ENDMDL
MODEL       81
REMARK 921   NORMALIZED FREE ENERGY PREDICTED BY IDOCK:   -5.05 KCAL/MOL
REMARK 922        TOTAL FREE ENERGY PREDICTED BY IDOCK:   -8.00 KCAL/MOL
REMARK 923 INTER-LIGAND FREE ENERGY PREDICTED BY IDOCK:   -8.08 KCAL/MOL
REMARK 924 INTRA-LIGAND FREE ENERGY PREDICTED BY IDOCK:    0.07 KCAL/MOL
REMARK 927      BINDING AFFINITY PREDICTED BY RF-SCORE:    0.00 PKD
ROOT
HETATM    1  C   UNL     1      -8.949   8.915  67.612  1.00  0.00    -0.141 C  
HETATM    2  C   UNL     1      -7.521   9.310  68.029  1.00  0.00    -0.083 C  
HETATM    3  C   UNL     1      -6.658   8.039  68.055  1.00  0.00    -0.057 C  
ENDROOT
BRANCH   2   4
HETATM    4  S   UNL     1      -7.576  10.009  69.737  1.00  0.00    -0.175 SA 
BRANCH   4   5
HETATM    5  C   UNL     1      -9.040   9.292  70.476  1.00  0.00    -0.259 A  
HETATM    6  C   UNL     1     -11.237   8.290  71.888  1.00  0.00    -0.300 A  
HETATM    7  O   UNL     1     -12.327   7.896  72.610  1.00  0.00    -0.568 OA 
HETATM    8  H   UNL     1     -13.159   8.348  72.538  1.00  0.00     0.000 HD 
HETATM    9  C   UNL     1      -8.902   8.170  71.287  1.00  0.00    -0.176 A  
HETATM   10  C   UNL     1     -11.421   9.431  71.079  1.00  0.00    -0.403 A  
HETATM   11  C   UNL     1     -10.298   9.874  70.376  1.00  0.00    -0.322 A  
HETATM   12  C   UNL     1      -9.989   7.611  71.997  1.00  0.00    -0.220 A  
BRANCH  12  13
HETATM   13  C   UNL     1      -9.751   6.346  72.861  1.00  0.00    -0.164 C  
HETATM   14  C   UNL     1      -8.296   5.840  72.725  1.00  0.00    -0.119 C  
HETATM   15  C   UNL     1     -10.746   5.231  72.480  1.00  0.00    -0.290 C  
HETATM   16  C   UNL     1      -9.944   6.591  74.385  1.00  0.00    -0.374 C  
ENDBRANCH  12  13
BRANCH  10  17
HETATM   17  C   UNL     1     -12.766  10.189  70.922  1.00  0.00    -0.448 C  
HETATM   18  C   UNL     1     -13.964   9.217  70.966  1.00  0.00     0.044 C  
HETATM   19  C   UNL     1     -13.046  11.235  72.042  1.00  0.00    -0.431 C  
HETATM   20  C   UNL     1     -12.768  10.984  69.601  1.00  0.00     0.059 C  
ENDBRANCH  10  17
ENDBRANCH   4   5
ENDBRANCH   2   4
BRANCH   2  21
HETATM   21  S   UNL     1      -6.841  10.434  66.732  1.00  0.00    -0.097 SA 
BRANCH  21  22
HETATM   22  C   UNL     1      -7.774  11.954  66.906  1.00  0.00    -0.106 A  
HETATM   23  C   UNL     1      -9.072  12.132  66.422  1.00  0.00    -0.177 A  
HETATM   24  C   UNL     1      -7.103  13.056  67.414  1.00  0.00    -0.124 A  
HETATM   25  H   UNL     1     -10.491  15.762  66.526  1.00  0.00     0.000 HD 
HETATM   26  O   UNL     1      -9.609  15.682  66.871  1.00  0.00    -0.221 OA 
HETATM   27  C   UNL     1      -7.676  14.341  67.454  1.00  0.00    -0.194 A  
HETATM   28  C   UNL     1      -9.730  13.368  66.426  1.00  0.00    -0.282 A  
HETATM   29  C   UNL     1      -8.999  14.462  66.936  1.00  0.00    -0.243 A  
BRANCH  27  30
HETATM   30  C   UNL     1      -6.821  15.522  67.979  1.00  0.00    -0.148 C  
HETATM   31  C   UNL     1      -5.330  15.143  68.223  1.00  0.00    -0.113 C  
HETATM   32  C   UNL     1      -6.804  16.669  66.948  1.00  0.00    -0.253 C  
HETATM   33  C   UNL     1      -7.329  16.030  69.346  1.00  0.00    -0.212 C  
ENDBRANCH  27  30
BRANCH  28  34
HETATM   34  C   UNL     1     -11.195  13.470  65.912  1.00  0.00    -0.310 C  
HETATM   35  C   UNL     1     -11.851  12.096  65.583  1.00  0.00    -0.343 C  
HETATM   36  C   UNL     1     -11.290  14.292  64.608  1.00  0.00    -0.375 C  
HETATM   37  C   UNL     1     -12.086  14.107  67.000  1.00  0.00    -0.449 C  
ENDBRANCH  28  34
ENDBRANCH  21  22
ENDBRANCH   2  21
TORSDOF 8
ENDMDL
MODEL       82
REMARK 921   NORMALIZED FREE ENERGY PREDICTED BY IDOCK:   -5.01 KCAL/MOL
REMARK 922        TOTAL FREE ENERGY PREDICTED BY IDOCK:   -7.95 KCAL/MOL
REMARK 923 INTER-LIGAND FREE ENERGY PREDICTED BY IDOCK:   -8.85 KCAL/MOL
REMARK 924 INTRA-LIGAND FREE ENERGY PREDICTED BY IDOCK:    0.90 KCAL/MOL
REMARK 927      BINDING AFFINITY PREDICTED BY RF-SCORE:    0.00 PKD
ROOT
HETATM    1  C   UNL     1     -10.952  10.707  67.910  1.00  0.00    -0.351 C  
HETATM    2  C   UNL     1     -10.431  11.527  66.717  1.00  0.00    -0.239 C  
HETATM    3  C   UNL     1      -9.220  12.349  67.188  1.00  0.00    -0.199 C  
ENDROOT
BRANCH   2   4
HETATM    4  S   UNL     1     -11.754  12.699  66.182  1.00  0.00    -0.408 SA 
BRANCH   4   5
HETATM    5  C   UNL     1     -11.633  14.073  67.323  1.00  0.00    -0.369 A  
HETATM    6  C   UNL     1     -11.219  16.074  69.233  1.00  0.00    -0.346 A  
HETATM    7  O   UNL     1     -10.919  17.053  70.137  1.00  0.00    -0.361 OA 
HETATM    8  H   UNL     1     -10.443  17.835  69.881  1.00  0.00     0.000 HD 
HETATM    9  C   UNL     1     -12.092  13.908  68.625  1.00  0.00    -0.337 A  
HETATM   10  C   UNL     1     -10.734  16.283  67.924  1.00  0.00    -0.329 A  
HETATM   11  C   UNL     1     -10.991  15.264  67.004  1.00  0.00    -0.324 A  
HETATM   12  C   UNL     1     -11.932  14.902  69.617  1.00  0.00    -0.360 A  
BRANCH  12  13
HETATM   13  C   UNL     1     -12.494  14.643  71.038  1.00  0.00    -0.399 C  
HETATM   14  C   UNL     1     -12.604  13.129  71.330  1.00  0.00    -0.352 C  
HETATM   15  C   UNL     1     -13.866  15.326  71.213  1.00  0.00    -0.562 C  
HETATM   16  C   UNL     1     -11.589  15.202  72.174  1.00  0.00    -0.490 C  
ENDBRANCH  12  13
BRANCH  10  17
HETATM   17  C   UNL     1      -9.967  17.551  67.463  1.00  0.00    -0.315 C  
HETATM   18  C   UNL     1     -10.902  18.777  67.398  1.00  0.00    -0.414 C  
HETATM   19  C   UNL     1      -8.802  17.974  68.408  1.00  0.00    -0.300 C  
HETATM   20  C   UNL     1      -9.316  17.298  66.089  1.00  0.00    -0.196 C  
ENDBRANCH  10  17
ENDBRANCH   4   5
ENDBRANCH   2   4
BRANCH   2  21
HETATM   21  S   UNL     1      -9.848  10.343  65.426  1.00  0.00    -0.301 SA 
BRANCH  21  22
HETATM   22  C   UNL     1      -8.961   9.077  66.330  1.00  0.00    -0.155 A  
HETATM   23  C   UNL     1      -9.358   7.739  66.389  1.00  0.00    -0.237 A  
HETATM   24  C   UNL     1      -7.912   9.489  67.138  1.00  0.00    -0.102 A  
HETATM   25  H   UNL     1      -7.455   5.465  68.921  1.00  0.00     0.000 HD 
HETATM   26  O   UNL     1      -7.151   6.365  68.906  1.00  0.00    -0.076 OA 
HETATM   27  C   UNL     1      -7.240   8.617  68.014  1.00  0.00    -0.087 A  
HETATM   28  C   UNL     1      -8.746   6.793  67.222  1.00  0.00    -0.119 A  
HETATM   29  C   UNL     1      -7.697   7.266  68.038  1.00  0.00    -0.117 A  
BRANCH  27  30
HETATM   30  C   UNL     1      -6.125   9.188  68.925  1.00  0.00    -0.044 C  
HETATM   31  C   UNL     1      -5.173   8.094  69.493  1.00  0.00    -0.026 C  
HETATM   32  C   UNL     1      -5.229  10.159  68.130  1.00  0.00    -0.035 C  
HETATM   33  C   UNL     1      -6.710   9.890  70.170  1.00  0.00    -0.112 C  
ENDBRANCH  27  30
BRANCH  28  34
HETATM   34  C   UNL     1      -9.219   5.311  67.191  1.00  0.00    -0.113 C  
HETATM   35  C   UNL     1      -9.585   4.730  68.590  1.00  0.00    -0.223 C  
HETATM   36  C   UNL     1      -8.129   4.372  66.629  1.00  0.00    -0.102 C  
HETATM   37  C   UNL     1     -10.503   5.192  66.343  1.00  0.00    -0.356 C  
ENDBRANCH  28  34
ENDBRANCH  21  22
ENDBRANCH   2  21
TORSDOF 8
ENDMDL
MODEL       83
REMARK 921   NORMALIZED FREE ENERGY PREDICTED BY IDOCK:   -5.01 KCAL/MOL
REMARK 922        TOTAL FREE ENERGY PREDICTED BY IDOCK:   -7.95 KCAL/MOL
REMARK 923 INTER-LIGAND FREE ENERGY PREDICTED BY IDOCK:   -9.00 KCAL/MOL
REMARK 924 INTRA-LIGAND FREE ENERGY PREDICTED BY IDOCK:    1.06 KCAL/MOL
REMARK 927      BINDING AFFINITY PREDICTED BY RF-SCORE:    0.00 PKD
ROOT
HETATM    1  C   UNL     1      -9.227  12.341  67.005  1.00  0.00    -0.205 C  
HETATM    2  C   UNL     1     -10.204  11.599  66.076  1.00  0.00    -0.232 C  
HETATM    3  C   UNL     1      -9.781  11.862  64.622  1.00  0.00    -0.138 C  
ENDROOT
BRANCH   2   4
HETATM    4  S   UNL     1     -11.896  12.295  66.322  1.00  0.00    -0.217 SA 
BRANCH   4   5
HETATM    5  C   UNL     1     -11.658  13.702  67.403  1.00  0.00    -0.356 A  
HETATM    6  C   UNL     1     -11.076  15.739  69.229  1.00  0.00    -0.297 A  
HETATM    7  O   UNL     1     -10.693  16.725  70.093  1.00  0.00    -0.234 OA 
HETATM    8  H   UNL     1     -10.145  17.448  69.810  1.00  0.00     0.000 HD 
HETATM    9  C   UNL     1     -12.142  13.639  68.705  1.00  0.00    -0.332 A  
HETATM   10  C   UNL     1     -10.562  15.843  67.919  1.00  0.00    -0.300 A  
HETATM   11  C   UNL     1     -10.904  14.813  67.041  1.00  0.00    -0.315 A  
HETATM   12  C   UNL     1     -11.898  14.657  69.655  1.00  0.00    -0.367 A  
BRANCH  12  13
HETATM   13  C   UNL     1     -12.495  14.515  71.078  1.00  0.00    -0.412 C  
HETATM   14  C   UNL     1     -13.797  15.335  71.225  1.00  0.00    -0.562 C  
HETATM   15  C   UNL     1     -11.466  14.944  72.145  1.00  0.00    -0.194 C  
HETATM   16  C   UNL     1     -12.902  13.057  71.437  1.00  0.00    -0.385 C  
ENDBRANCH  12  13
BRANCH  10  17
HETATM   17  C   UNL     1      -9.676  17.013  67.413  1.00  0.00    -0.252 C  
HETATM   18  C   UNL     1     -10.451  18.348  67.424  1.00  0.00    -0.443 C  
HETATM   19  C   UNL     1      -8.403  17.271  68.274  1.00  0.00    -0.242 C  
HETATM   20  C   UNL     1      -9.161  16.703  65.993  1.00  0.00    -0.259 C  
ENDBRANCH  10  17
ENDBRANCH   4   5
ENDBRANCH   2   4
BRANCH   2  21
HETATM   21  S   UNL     1     -10.034   9.790  66.402  1.00  0.00    -0.248 SA 
BRANCH  21  22
HETATM   22  C   UNL     1      -9.454   9.681  68.094  1.00  0.00    -0.132 A  
HETATM   23  C   UNL     1      -8.120   9.848  68.472  1.00  0.00    -0.101 A  
HETATM   24  C   UNL     1     -10.361   9.253  69.051  1.00  0.00    -0.228 A  
HETATM   25  H   UNL     1      -7.229   8.968  72.165  1.00  0.00     0.000 HD 
HETATM   26  O   UNL     1      -8.147   8.847  71.949  1.00  0.00    -0.338 OA 
HETATM   27  C   UNL     1      -9.990   8.977  70.379  1.00  0.00    -0.244 A  
HETATM   28  C   UNL     1      -7.654   9.607  69.771  1.00  0.00    -0.123 A  
HETATM   29  C   UNL     1      -8.613   9.156  70.703  1.00  0.00    -0.226 A  
BRANCH  27  30
HETATM   30  C   UNL     1     -11.064   8.439  71.358  1.00  0.00    -0.312 C  
HETATM   31  C   UNL     1     -12.186   9.474  71.670  1.00  0.00    -0.477 C  
HETATM   32  C   UNL     1     -11.775   7.213  70.751  1.00  0.00    -0.363 C  
HETATM   33  C   UNL     1     -10.457   8.086  72.733  1.00  0.00    -0.415 C  
ENDBRANCH  27  30
BRANCH  28  34
HETATM   34  C   UNL     1      -6.160   9.865  70.120  1.00  0.00    -0.063 C  
HETATM   35  C   UNL     1      -5.228   9.990  68.878  1.00  0.00    -0.035 C  
HETATM   36  C   UNL     1      -5.563   8.720  70.968  1.00  0.00    -0.035 C  
HETATM   37  C   UNL     1      -6.026  11.204  70.877  1.00  0.00     0.081 C  
ENDBRANCH  28  34
ENDBRANCH  21  22
ENDBRANCH   2  21
TORSDOF 8
ENDMDL
MODEL       84
REMARK 921   NORMALIZED FREE ENERGY PREDICTED BY IDOCK:   -4.96 KCAL/MOL
REMARK 922        TOTAL FREE ENERGY PREDICTED BY IDOCK:   -7.88 KCAL/MOL
REMARK 923 INTER-LIGAND FREE ENERGY PREDICTED BY IDOCK:   -8.95 KCAL/MOL
REMARK 924 INTRA-LIGAND FREE ENERGY PREDICTED BY IDOCK:    1.08 KCAL/MOL
REMARK 927      BINDING AFFINITY PREDICTED BY RF-SCORE:    0.00 PKD
ROOT
HETATM    1  C   UNL     1     -10.473  13.524  64.422  1.00  0.00    -0.366 C  
HETATM    2  C   UNL     1     -10.471  12.420  65.494  1.00  0.00    -0.275 C  
HETATM    3  C   UNL     1      -9.288  12.673  66.443  1.00  0.00    -0.198 C  
ENDROOT
BRANCH   2   4
HETATM    4  S   UNL     1     -10.211  10.791  64.666  1.00  0.00    -0.327 SA 
BRANCH   4   5
HETATM    5  C   UNL     1      -9.607   9.713  65.961  1.00  0.00    -0.242 A  
HETATM    6  C   UNL     1      -8.440   8.221  68.019  1.00  0.00    -0.132 A  
HETATM    7  O   UNL     1      -7.871   7.577  69.081  1.00  0.00    -0.114 OA 
HETATM    8  H   UNL     1      -8.242   7.638  69.954  1.00  0.00     0.000 HD 
HETATM    9  C   UNL     1      -8.490   8.922  65.710  1.00  0.00    -0.157 A  
HETATM   10  C   UNL     1      -9.570   9.011  68.318  1.00  0.00    -0.158 A  
HETATM   11  C   UNL     1     -10.129   9.715  67.249  1.00  0.00    -0.267 A  
HETATM   12  C   UNL     1      -7.884   8.129  66.711  1.00  0.00    -0.095 A  
BRANCH  12  13
HETATM   13  C   UNL     1      -6.655   7.261  66.339  1.00  0.00    -0.053 C  
HETATM   14  C   UNL     1      -6.387   7.291  64.816  1.00  0.00    -0.037 C  
HETATM   15  C   UNL     1      -6.847   5.809  66.823  1.00  0.00    -0.063 C  
HETATM   16  C   UNL     1      -5.328   7.755  66.984  1.00  0.00    -0.031 C  
ENDBRANCH  12  13
BRANCH  10  17
HETATM   17  C   UNL     1     -10.214   9.125  69.726  1.00  0.00    -0.219 C  
HETATM   18  C   UNL     1     -11.101  10.384  69.835  1.00  0.00    -0.367 C  
HETATM   19  C   UNL     1     -11.147   7.934  70.102  1.00  0.00    -0.204 C  
HETATM   20  C   UNL     1      -9.113   9.147  70.805  1.00  0.00    -0.313 C  
ENDBRANCH  10  17
ENDBRANCH   4   5
ENDBRANCH   2   4
BRANCH   2  21
HETATM   21  S   UNL     1     -12.028  12.575  66.472  1.00  0.00    -0.184 SA 
BRANCH  21  22
HETATM   22  C   UNL     1     -11.789  14.030  67.490  1.00  0.00    -0.407 A  
HETATM   23  C   UNL     1     -11.033  15.138  67.101  1.00  0.00    -0.326 A  
HETATM   24  C   UNL     1     -12.257  13.977  68.794  1.00  0.00    -0.237 A  
HETATM   25  H   UNL     1     -10.322  17.817  69.843  1.00  0.00     0.000 HD 
HETATM   26  O   UNL     1     -10.845  17.084  70.145  1.00  0.00    -0.089 OA 
HETATM   27  C   UNL     1     -11.994  14.989  69.737  1.00  0.00    -0.366 A  
HETATM   28  C   UNL     1     -10.726  16.199  67.962  1.00  0.00    -0.321 A  
HETATM   29  C   UNL     1     -11.208  16.089  69.283  1.00  0.00    -0.346 A  
BRANCH  27  30
HETATM   30  C   UNL     1     -12.503  14.806  71.189  1.00  0.00    -0.397 C  
HETATM   31  C   UNL     1     -13.844  15.548  71.469  1.00  0.00    -0.539 C  
HETATM   32  C   UNL     1     -12.774  13.316  71.477  1.00  0.00    -0.376 C  
HETATM   33  C   UNL     1     -11.508  15.384  72.218  1.00  0.00    -0.506 C  
ENDBRANCH  27  30
BRANCH  28  34
HETATM   34  C   UNL     1      -9.917  17.419  67.434  1.00  0.00    -0.305 C  
HETATM   35  C   UNL     1     -10.744  18.736  67.335  1.00  0.00    -0.487 C  
HETATM   36  C   UNL     1      -9.368  17.171  66.011  1.00  0.00    -0.156 C  
HETATM   37  C   UNL     1      -8.753  17.729  68.399  1.00  0.00    -0.292 C  
ENDBRANCH  28  34
ENDBRANCH  21  22
ENDBRANCH   2  21
TORSDOF 8
ENDMDL
MODEL       85
REMARK 921   NORMALIZED FREE ENERGY PREDICTED BY IDOCK:   -4.93 KCAL/MOL
REMARK 922        TOTAL FREE ENERGY PREDICTED BY IDOCK:   -7.83 KCAL/MOL
REMARK 923 INTER-LIGAND FREE ENERGY PREDICTED BY IDOCK:   -7.86 KCAL/MOL
REMARK 924 INTRA-LIGAND FREE ENERGY PREDICTED BY IDOCK:    0.03 KCAL/MOL
REMARK 927      BINDING AFFINITY PREDICTED BY RF-SCORE:    0.00 PKD
ROOT
HETATM    1  C   UNL     1      -9.935  13.970  65.464  1.00  0.00    -0.302 C  
HETATM    2  C   UNL     1     -11.438  14.058  65.785  1.00  0.00    -0.318 C  
HETATM    3  C   UNL     1     -12.052  15.167  64.915  1.00  0.00    -0.127 C  
ENDROOT
BRANCH   2   4
HETATM    4  S   UNL     1     -11.636  14.535  67.557  1.00  0.00    -0.391 SA 
BRANCH   4   5
HETATM    5  C   UNL     1     -10.119  15.391  67.971  1.00  0.00    -0.226 A  
HETATM    6  C   UNL     1      -7.648  16.647  68.349  1.00  0.00    -0.197 A  
HETATM    7  O   UNL     1      -6.458  17.310  68.446  1.00  0.00    -0.156 OA 
HETATM    8  H   UNL     1      -6.404  18.251  68.330  1.00  0.00     0.000 HD 
HETATM    9  C   UNL     1      -8.992  14.643  68.295  1.00  0.00    -0.184 A  
HETATM   10  C   UNL     1      -8.765  17.445  68.020  1.00  0.00    -0.241 A  
HETATM   11  C   UNL     1      -9.979  16.770  67.868  1.00  0.00    -0.268 A  
HETATM   12  C   UNL     1      -7.729  15.236  68.523  1.00  0.00    -0.128 A  
BRANCH  12  13
HETATM   13  C   UNL     1      -6.531  14.328  68.901  1.00  0.00    -0.092 C  
HETATM   14  C   UNL     1      -5.305  14.615  68.003  1.00  0.00    -0.114 C  
HETATM   15  C   UNL     1      -6.926  12.840  68.812  1.00  0.00    -0.096 C  
HETATM   16  C   UNL     1      -6.018  14.550  70.353  1.00  0.00    -0.165 C  
ENDBRANCH  12  13
BRANCH  10  17
HETATM   17  C   UNL     1      -8.722  18.985  67.837  1.00  0.00    -0.333 C  
HETATM   18  C   UNL     1      -8.243  19.367  66.421  1.00  0.00    -0.335 C  
HETATM   19  C   UNL     1     -10.101  19.690  68.007  1.00  0.00    -0.555 C  
HETATM   20  C   UNL     1      -7.801  19.613  68.903  1.00  0.00    -0.299 C  
ENDBRANCH  10  17
ENDBRANCH   4   5
ENDBRANCH   2   4
BRANCH   2  21
HETATM   21  S   UNL     1     -12.217  12.456  65.301  1.00  0.00    -0.243 SA 
BRANCH  21  22
HETATM   22  C   UNL     1     -11.136  11.197  65.976  1.00  0.00    -0.048 A  
HETATM   23  C   UNL     1     -11.074  10.869  67.332  1.00  0.00    -0.373 A  
HETATM   24  C   UNL     1     -10.205  10.632  65.118  1.00  0.00    -0.368 A  
HETATM   25  H   UNL     1      -8.191   8.479  68.419  1.00  0.00     0.000 HD 
HETATM   26  O   UNL     1      -8.203   8.671  67.488  1.00  0.00    -0.109 OA 
HETATM   27  C   UNL     1      -9.202   9.750  65.561  1.00  0.00    -0.270 A  
HETATM   28  C   UNL     1     -10.118   9.996  67.868  1.00  0.00    -0.203 A  
HETATM   29  C   UNL     1      -9.182   9.461  66.957  1.00  0.00    -0.142 A  
BRANCH  27  30
HETATM   30  C   UNL     1      -8.166   9.223  64.535  1.00  0.00    -0.151 C  
HETATM   31  C   UNL     1      -6.744   9.827  64.732  1.00  0.00    -0.114 C  
HETATM   32  C   UNL     1      -8.002   7.697  64.677  1.00  0.00    -0.136 C  
HETATM   33  C   UNL     1      -8.558   9.594  63.089  1.00  0.00    -0.208 C  
ENDBRANCH  27  30
BRANCH  28  34
HETATM   34  C   UNL     1     -10.149   9.646  69.383  1.00  0.00    -0.213 C  
HETATM   35  C   UNL     1      -8.806   9.917  70.127  1.00  0.00    -0.146 C  
HETATM   36  C   UNL     1     -10.456   8.152  69.623  1.00  0.00    -0.224 C  
HETATM   37  C   UNL     1     -11.203  10.520  70.098  1.00  0.00    -0.389 C  
ENDBRANCH  28  34
ENDBRANCH  21  22
ENDBRANCH   2  21
TORSDOF 8
ENDMDL
MODEL       86
REMARK 921   NORMALIZED FREE ENERGY PREDICTED BY IDOCK:   -4.92 KCAL/MOL
REMARK 922        TOTAL FREE ENERGY PREDICTED BY IDOCK:   -7.82 KCAL/MOL
REMARK 923 INTER-LIGAND FREE ENERGY PREDICTED BY IDOCK:   -9.43 KCAL/MOL
REMARK 924 INTRA-LIGAND FREE ENERGY PREDICTED BY IDOCK:    1.61 KCAL/MOL
REMARK 927      BINDING AFFINITY PREDICTED BY RF-SCORE:    0.00 PKD
ROOT
HETATM    1  C   UNL     1      -7.581  11.441  66.791  1.00  0.00    -0.143 C  
HETATM    2  C   UNL     1      -7.894  11.948  68.211  1.00  0.00    -0.141 C  
HETATM    3  C   UNL     1      -7.361  10.917  69.219  1.00  0.00    -0.125 C  
ENDROOT
BRANCH   2   4
HETATM    4  S   UNL     1      -9.726  12.057  68.408  1.00  0.00    -0.169 SA 
BRANCH   4   5
HETATM    5  C   UNL     1     -10.244  10.386  68.787  1.00  0.00    -0.187 A  
HETATM    6  C   UNL     1     -10.776   7.728  69.477  1.00  0.00    -0.198 A  
HETATM    7  O   UNL     1     -11.000   6.451  69.907  1.00  0.00    -0.278 OA 
HETATM    8  H   UNL     1     -11.461   6.275  70.719  1.00  0.00     0.000 HD 
HETATM    9  C   UNL     1      -9.816   9.347  67.967  1.00  0.00    -0.191 A  
HETATM   10  C   UNL     1     -11.227   8.750  70.339  1.00  0.00    -0.247 A  
HETATM   11  C   UNL     1     -10.958  10.059  69.934  1.00  0.00    -0.339 A  
HETATM   12  C   UNL     1     -10.086   7.991  68.259  1.00  0.00    -0.227 A  
BRANCH  12  13
HETATM   13  C   UNL     1      -9.590   6.898  67.278  1.00  0.00    -0.173 C  
HETATM   14  C   UNL     1      -8.583   5.945  67.961  1.00  0.00    -0.113 C  
HETATM   15  C   UNL     1      -8.959   7.538  66.024  1.00  0.00    -0.164 C  
HETATM   16  C   UNL     1     -10.726   5.969  66.759  1.00  0.00    -0.374 C  
ENDBRANCH  12  13
BRANCH  10  17
HETATM   17  C   UNL     1     -11.994   8.505  71.666  1.00  0.00    -0.372 C  
HETATM   18  C   UNL     1     -13.115   7.460  71.479  1.00  0.00    -0.424 C  
HETATM   19  C   UNL     1     -11.111   7.954  72.825  1.00  0.00    -0.462 C  
HETATM   20  C   UNL     1     -12.579   9.834  72.185  1.00  0.00    -0.367 C  
ENDBRANCH  10  17
ENDBRANCH   4   5
ENDBRANCH   2   4
BRANCH   2  21
HETATM   21  S   UNL     1      -6.971  13.525  68.467  1.00  0.00    -0.111 SA 
BRANCH  21  22
HETATM   22  C   UNL     1      -7.980  14.781  67.681  1.00  0.00    -0.176 A  
HETATM   23  C   UNL     1      -7.913  16.141  67.991  1.00  0.00    -0.150 A  
HETATM   24  C   UNL     1      -8.987  14.347  66.832  1.00  0.00    -0.263 A  
HETATM   25  H   UNL     1     -10.674  18.420  66.447  1.00  0.00     0.000 HD 
HETATM   26  O   UNL     1     -10.750  17.504  66.207  1.00  0.00    -0.233 OA 
HETATM   27  C   UNL     1      -9.942  15.220  66.279  1.00  0.00    -0.304 A  
HETATM   28  C   UNL     1      -8.812  17.089  67.484  1.00  0.00    -0.214 A  
HETATM   29  C   UNL     1      -9.828  16.595  66.640  1.00  0.00    -0.274 A  
BRANCH  27  30
HETATM   30  C   UNL     1     -11.069  14.629  65.394  1.00  0.00    -0.349 C  
HETATM   31  C   UNL     1     -10.620  13.382  64.577  1.00  0.00    -0.441 C  
HETATM   32  C   UNL     1     -12.247  14.161  66.272  1.00  0.00    -0.474 C  
HETATM   33  C   UNL     1     -11.553  15.644  64.336  1.00  0.00    -0.250 C  
ENDBRANCH  27  30
BRANCH  28  34
HETATM   34  C   UNL     1      -8.637  18.593  67.842  1.00  0.00    -0.305 C  
HETATM   35  C   UNL     1      -8.612  19.543  66.607  1.00  0.00    -0.369 C  
HETATM   36  C   UNL     1      -7.310  18.855  68.589  1.00  0.00    -0.343 C  
HETATM   37  C   UNL     1      -9.827  19.064  68.705  1.00  0.00    -0.485 C  
ENDBRANCH  28  34
ENDBRANCH  21  22
ENDBRANCH   2  21
TORSDOF 8
ENDMDL
MODEL       87
REMARK 921   NORMALIZED FREE ENERGY PREDICTED BY IDOCK:   -4.91 KCAL/MOL
REMARK 922        TOTAL FREE ENERGY PREDICTED BY IDOCK:   -7.80 KCAL/MOL
REMARK 923 INTER-LIGAND FREE ENERGY PREDICTED BY IDOCK:   -9.26 KCAL/MOL
REMARK 924 INTRA-LIGAND FREE ENERGY PREDICTED BY IDOCK:    1.45 KCAL/MOL
REMARK 927      BINDING AFFINITY PREDICTED BY RF-SCORE:    0.00 PKD
ROOT
HETATM    1  C   UNL     1     -12.033  12.102  66.441  1.00  0.00    -0.201 C  
HETATM    2  C   UNL     1     -10.624  12.195  65.830  1.00  0.00    -0.260 C  
HETATM    3  C   UNL     1     -10.486  11.094  64.766  1.00  0.00    -0.388 C  
ENDROOT
BRANCH   2   4
HETATM    4  S   UNL     1      -9.381  11.878  67.158  1.00  0.00    -0.185 SA 
BRANCH   4   5
HETATM    5  C   UNL     1      -9.848  10.294  67.849  1.00  0.00    -0.157 A  
HETATM    6  C   UNL     1     -10.294   7.791  69.017  1.00  0.00    -0.211 A  
HETATM    7  O   UNL     1     -10.471   6.607  69.673  1.00  0.00    -0.191 OA 
HETATM    8  H   UNL     1     -10.883   6.571  70.529  1.00  0.00     0.000 HD 
HETATM    9  C   UNL     1      -9.448   9.132  67.197  1.00  0.00    -0.197 A  
HETATM   10  C   UNL     1     -10.714   8.944  69.714  1.00  0.00    -0.230 A  
HETATM   11  C   UNL     1     -10.491  10.165  69.075  1.00  0.00    -0.239 A  
HETATM   12  C   UNL     1      -9.677   7.845  67.734  1.00  0.00    -0.189 A  
BRANCH  12  13
HETATM   13  C   UNL     1      -9.218   6.602  66.929  1.00  0.00    -0.158 C  
HETATM   14  C   UNL     1      -8.213   5.750  67.738  1.00  0.00    -0.101 C  
HETATM   15  C   UNL     1      -8.600   7.025  65.580  1.00  0.00    -0.121 C  
HETATM   16  C   UNL     1     -10.377   5.624  66.582  1.00  0.00    -0.311 C  
ENDBRANCH  12  13
BRANCH  10  17
HETATM   17  C   UNL     1     -11.403   8.927  71.105  1.00  0.00    -0.357 C  
HETATM   18  C   UNL     1     -10.367   8.795  72.241  1.00  0.00    -0.320 C  
HETATM   19  C   UNL     1     -12.211  10.218  71.435  1.00  0.00    -0.481 C  
HETATM   20  C   UNL     1     -12.422   7.772  71.170  1.00  0.00    -0.245 C  
ENDBRANCH  10  17
ENDBRANCH   4   5
ENDBRANCH   2   4
BRANCH   2  21
HETATM   21  S   UNL     1     -10.480  13.828  64.981  1.00  0.00    -0.405 SA 
BRANCH  21  22
HETATM   22  C   UNL     1     -10.641  15.042  66.289  1.00  0.00    -0.307 A  
HETATM   23  C   UNL     1     -10.062  16.312  66.249  1.00  0.00    -0.340 A  
HETATM   24  C   UNL     1     -11.246  14.631  67.466  1.00  0.00    -0.343 A  
HETATM   25  H   UNL     1     -10.202  18.398  69.540  1.00  0.00     0.000 HD 
HETATM   26  O   UNL     1     -10.612  17.544  69.606  1.00  0.00    -0.080 OA 
HETATM   27  C   UNL     1     -11.293  15.438  68.618  1.00  0.00    -0.337 A  
HETATM   28  C   UNL     1     -10.065  17.192  67.339  1.00  0.00    -0.301 A  
HETATM   29  C   UNL     1     -10.676  16.719  68.519  1.00  0.00    -0.358 A  
BRANCH  27  30
HETATM   30  C   UNL     1     -11.933  14.862  69.907  1.00  0.00    -0.376 C  
HETATM   31  C   UNL     1     -11.089  15.133  71.187  1.00  0.00    -0.274 C  
HETATM   32  C   UNL     1     -13.308  15.515  70.158  1.00  0.00     0.367 C  
HETATM   33  C   UNL     1     -12.068  13.326  69.838  1.00  0.00    -0.377 C  
ENDBRANCH  27  30
BRANCH  28  34
HETATM   34  C   UNL     1      -9.439  18.609  67.195  1.00  0.00    -0.308 C  
HETATM   35  C   UNL     1     -10.424  19.689  66.656  1.00  0.00    -0.610 C  
HETATM   36  C   UNL     1      -8.248  18.613  66.211  1.00  0.00    -0.258 C  
HETATM   37  C   UNL     1      -8.979  19.118  68.578  1.00  0.00    -0.406 C  
ENDBRANCH  28  34
ENDBRANCH  21  22
ENDBRANCH   2  21
TORSDOF 8
ENDMDL
MODEL       88
REMARK 921   NORMALIZED FREE ENERGY PREDICTED BY IDOCK:   -4.90 KCAL/MOL
REMARK 922        TOTAL FREE ENERGY PREDICTED BY IDOCK:   -7.79 KCAL/MOL
REMARK 923 INTER-LIGAND FREE ENERGY PREDICTED BY IDOCK:   -7.55 KCAL/MOL
REMARK 924 INTRA-LIGAND FREE ENERGY PREDICTED BY IDOCK:   -0.24 KCAL/MOL
REMARK 927      BINDING AFFINITY PREDICTED BY RF-SCORE:    0.00 PKD
ROOT
HETATM    1  C   UNL     1     -12.168  12.489  66.221  1.00  0.00    -0.159 C  
HETATM    2  C   UNL     1     -11.662  12.827  64.807  1.00  0.00    -0.352 C  
HETATM    3  C   UNL     1     -12.641  12.223  63.787  1.00  0.00    -0.577 C  
ENDROOT
BRANCH   2   4
HETATM    4  S   UNL     1     -10.011  12.036  64.565  1.00  0.00    -0.172 SA 
BRANCH   4   5
HETATM    5  C   UNL     1      -9.224  12.122  66.171  1.00  0.00    -0.155 A  
HETATM    6  C   UNL     1      -7.764  12.114  68.557  1.00  0.00    -0.119 A  
HETATM    7  O   UNL     1      -6.974  12.153  69.670  1.00  0.00    -0.338 OA 
HETATM    8  H   UNL     1      -6.518  12.946  69.927  1.00  0.00     0.000 HD 
HETATM    9  C   UNL     1      -9.149  10.970  66.945  1.00  0.00    -0.165 A  
HETATM   10  C   UNL     1      -7.812  13.305  67.801  1.00  0.00    -0.157 A  
HETATM   11  C   UNL     1      -8.576  13.262  66.632  1.00  0.00     0.054 A  
HETATM   12  C   UNL     1      -8.448  10.925  68.172  1.00  0.00    -0.131 A  
BRANCH  12  13
HETATM   13  C   UNL     1      -8.434   9.604  68.982  1.00  0.00    -0.131 C  
HETATM   14  C   UNL     1      -9.001   8.430  68.151  1.00  0.00    -0.139 C  
HETATM   15  C   UNL     1      -9.225   9.763  70.297  1.00  0.00    -0.225 C  
HETATM   16  C   UNL     1      -7.006   9.144  69.394  1.00  0.00    -0.052 C  
ENDBRANCH  12  13
BRANCH  10  17
HETATM   17  C   UNL     1      -7.094  14.624  68.193  1.00  0.00    -0.127 C  
HETATM   18  C   UNL     1      -7.141  15.651  67.042  1.00  0.00    -0.127 C  
HETATM   19  C   UNL     1      -7.722  15.354  69.419  1.00  0.00    -0.227 C  
HETATM   20  C   UNL     1      -5.634  14.328  68.590  1.00  0.00    -0.089 C  
ENDBRANCH  10  17
ENDBRANCH   4   5
ENDBRANCH   2   4
BRANCH   2  21
HETATM   21  S   UNL     1     -11.698  14.663  64.615  1.00  0.00    -0.411 SA 
BRANCH  21  22
HETATM   22  C   UNL     1     -11.338  15.303  66.249  1.00  0.00    -0.155 A  
HETATM   23  C   UNL     1     -11.763  14.698  67.434  1.00  0.00    -0.413 A  
HETATM   24  C   UNL     1     -10.736  16.550  66.325  1.00  0.00    -0.146 A  
HETATM   25  H   UNL     1     -11.236  16.733  70.718  1.00  0.00     0.000 HD 
HETATM   26  O   UNL     1     -10.927  17.175  69.936  1.00  0.00    -0.004 OA 
HETATM   27  C   UNL     1     -10.545  17.228  67.543  1.00  0.00    -0.329 A  
HETATM   28  C   UNL     1     -11.609  15.289  68.695  1.00  0.00    -0.370 A  
HETATM   29  C   UNL     1     -11.008  16.565  68.717  1.00  0.00    -0.330 A  
BRANCH  27  30
HETATM   30  C   UNL     1      -9.924  18.647  67.517  1.00  0.00    -0.371 C  
HETATM   31  C   UNL     1     -10.985  19.782  67.407  1.00  0.00    -0.325 C  
HETATM   32  C   UNL     1      -9.148  18.916  68.822  1.00  0.00    -0.352 C  
HETATM   33  C   UNL     1      -9.005  18.845  66.291  1.00  0.00    -0.267 C  
ENDBRANCH  27  30
BRANCH  28  34
HETATM   34  C   UNL     1     -12.067  14.525  69.971  1.00  0.00    -0.395 C  
HETATM   35  C   UNL     1     -11.231  14.852  71.244  1.00  0.00    -0.183 C  
HETATM   36  C   UNL     1     -11.962  12.994  69.793  1.00  0.00    -0.377 C  
HETATM   37  C   UNL     1     -13.521  14.914  70.316  1.00  0.00     0.261 C  
ENDBRANCH  28  34
ENDBRANCH  21  22
ENDBRANCH   2  21
TORSDOF 8
ENDMDL
MODEL       89
REMARK 921   NORMALIZED FREE ENERGY PREDICTED BY IDOCK:   -4.88 KCAL/MOL
REMARK 922        TOTAL FREE ENERGY PREDICTED BY IDOCK:   -7.77 KCAL/MOL
REMARK 923 INTER-LIGAND FREE ENERGY PREDICTED BY IDOCK:   -9.13 KCAL/MOL
REMARK 924 INTRA-LIGAND FREE ENERGY PREDICTED BY IDOCK:    1.36 KCAL/MOL
REMARK 927      BINDING AFFINITY PREDICTED BY RF-SCORE:    0.00 PKD
ROOT
HETATM    1  C   UNL     1      -7.179  10.989  69.314  1.00  0.00    -0.124 C  
HETATM    2  C   UNL     1      -7.768  12.068  68.388  1.00  0.00    -0.138 C  
HETATM    3  C   UNL     1      -7.375  11.727  66.941  1.00  0.00    -0.104 C  
ENDROOT
BRANCH   2   4
HETATM    4  S   UNL     1      -7.016  13.696  68.824  1.00  0.00    -0.107 SA 
BRANCH   4   5
HETATM    5  C   UNL     1      -7.982  14.902  67.919  1.00  0.00    -0.138 A  
HETATM    6  C   UNL     1      -9.711  16.729  66.696  1.00  0.00    -0.269 A  
HETATM    7  O   UNL     1     -10.568  17.664  66.191  1.00  0.00    -0.322 OA 
HETATM    8  H   UNL     1     -10.457  18.590  66.377  1.00  0.00     0.000 HD 
HETATM    9  C   UNL     1      -8.998  14.456  67.080  1.00  0.00    -0.245 A  
HETATM   10  C   UNL     1      -8.696  17.225  67.542  1.00  0.00    -0.212 A  
HETATM   11  C   UNL     1      -7.845  16.272  68.105  1.00  0.00    -0.156 A  
HETATM   12  C   UNL     1      -9.877  15.342  66.418  1.00  0.00    -0.301 A  
BRANCH  12  13
HETATM   13  C   UNL     1     -10.968  14.759  65.484  1.00  0.00    -0.350 C  
HETATM   14  C   UNL     1     -12.252  14.408  66.270  1.00  0.00    -0.366 C  
HETATM   15  C   UNL     1     -10.439  13.518  64.737  1.00  0.00    -0.430 C  
HETATM   16  C   UNL     1     -11.438  15.754  64.383  1.00  0.00    -0.268 C  
ENDBRANCH  12  13
BRANCH  10  17
HETATM   17  C   UNL     1      -8.472  18.728  67.857  1.00  0.00    -0.316 C  
HETATM   18  C   UNL     1      -9.603  19.288  68.746  1.00  0.00    -0.485 C  
HETATM   19  C   UNL     1      -7.155  19.031  68.633  1.00  0.00    -0.341 C  
HETATM   20  C   UNL     1      -8.374  19.530  66.544  1.00  0.00    -0.352 C  
ENDBRANCH  10  17
ENDBRANCH   4   5
ENDBRANCH   2   4
BRANCH   2  21
HETATM   21  S   UNL     1      -9.608  11.982  68.514  1.00  0.00    -0.089 SA 
BRANCH  21  22
HETATM   22  C   UNL     1      -9.961  10.274  68.921  1.00  0.00    -0.201 A  
HETATM   23  C   UNL     1      -9.678   9.197  68.078  1.00  0.00    -0.177 A  
HETATM   24  C   UNL     1     -10.697  10.034  70.071  1.00  0.00    -0.348 A  
HETATM   25  H   UNL     1     -11.126   5.732  69.125  1.00  0.00     0.000 HD 
HETATM   26  O   UNL     1     -11.335   6.436  69.727  1.00  0.00    -0.384 OA 
HETATM   27  C   UNL     1     -11.171   8.754  70.416  1.00  0.00    -0.247 A  
HETATM   28  C   UNL     1     -10.098   7.886  68.338  1.00  0.00    -0.218 A  
HETATM   29  C   UNL     1     -10.859   7.697  69.511  1.00  0.00    -0.165 A  
BRANCH  27  30
HETATM   30  C   UNL     1     -12.043   8.600  71.688  1.00  0.00    -0.385 C  
HETATM   31  C   UNL     1     -13.335   7.763  71.451  1.00  0.00    -0.309 C  
HETATM   32  C   UNL     1     -11.255   7.862  72.789  1.00  0.00    -0.466 C  
HETATM   33  C   UNL     1     -12.544   9.966  72.204  1.00  0.00    -0.323 C  
ENDBRANCH  27  30
BRANCH  28  34
HETATM   34  C   UNL     1      -9.698   6.736  67.371  1.00  0.00    -0.164 C  
HETATM   35  C   UNL     1     -10.907   5.950  66.780  1.00  0.00    -0.347 C  
HETATM   36  C   UNL     1      -8.822   5.674  68.071  1.00  0.00    -0.105 C  
HETATM   37  C   UNL     1      -8.946   7.317  66.154  1.00  0.00    -0.179 C  
ENDBRANCH  28  34
ENDBRANCH  21  22
ENDBRANCH   2  21
TORSDOF 8
ENDMDL
MODEL       90
REMARK 921   NORMALIZED FREE ENERGY PREDICTED BY IDOCK:   -4.88 KCAL/MOL
REMARK 922        TOTAL FREE ENERGY PREDICTED BY IDOCK:   -7.76 KCAL/MOL
REMARK 923 INTER-LIGAND FREE ENERGY PREDICTED BY IDOCK:   -9.73 KCAL/MOL
REMARK 924 INTRA-LIGAND FREE ENERGY PREDICTED BY IDOCK:    1.97 KCAL/MOL
REMARK 927      BINDING AFFINITY PREDICTED BY RF-SCORE:    0.00 PKD
ROOT
HETATM    1  C   UNL     1     -10.001  13.697  65.548  1.00  0.00    -0.244 C  
HETATM    2  C   UNL     1     -11.345  12.964  65.395  1.00  0.00    -0.303 C  
HETATM    3  C   UNL     1     -12.411  13.993  64.985  1.00  0.00    -0.446 C  
ENDROOT
BRANCH   2   4
HETATM    4  S   UNL     1     -11.822  12.256  67.032  1.00  0.00    -0.154 SA 
BRANCH   4   5
HETATM    5  C   UNL     1     -11.572  13.592  68.196  1.00  0.00    -0.333 A  
HETATM    6  C   UNL     1     -11.387  15.831  69.862  1.00  0.00    -0.349 A  
HETATM    7  O   UNL     1     -11.398  16.919  70.688  1.00  0.00    -0.414 OA 
HETATM    8  H   UNL     1     -11.845  16.900  71.527  1.00  0.00     0.000 HD 
HETATM    9  C   UNL     1     -10.863  14.716  67.787  1.00  0.00    -0.268 A  
HETATM   10  C   UNL     1     -12.119  14.713  70.317  1.00  0.00    -0.380 A  
HETATM   11  C   UNL     1     -12.158  13.613  69.457  1.00  0.00    -0.368 A  
HETATM   12  C   UNL     1     -10.717  15.859  68.606  1.00  0.00    -0.274 A  
BRANCH  12  13
HETATM   13  C   UNL     1      -9.891  17.060  68.079  1.00  0.00    -0.275 C  
HETATM   14  C   UNL     1      -8.592  17.249  68.895  1.00  0.00    -0.170 C  
HETATM   15  C   UNL     1     -10.733  18.352  68.101  1.00  0.00    -0.208 C  
HETATM   16  C   UNL     1      -9.412  16.886  66.608  1.00  0.00    -0.282 C  
ENDBRANCH  12  13
BRANCH  10  17
HETATM   17  C   UNL     1     -12.849  14.638  71.684  1.00  0.00    -0.403 C  
HETATM   18  C   UNL     1     -11.977  15.221  72.817  1.00  0.00    -0.522 C  
HETATM   19  C   UNL     1     -14.185  15.438  71.742  1.00  0.00    -0.632 C  
HETATM   20  C   UNL     1     -13.227  13.176  71.995  1.00  0.00    -0.543 C  
ENDBRANCH  10  17
ENDBRANCH   4   5
ENDBRANCH   2   4
BRANCH   2  21
HETATM   21  S   UNL     1     -11.173  11.744  64.020  1.00  0.00    -0.383 SA 
BRANCH  21  22
HETATM   22  C   UNL     1      -9.954  10.566  64.601  1.00  0.00    -0.347 A  
HETATM   23  C   UNL     1      -8.789  10.242  63.903  1.00  0.00    -0.234 A  
HETATM   24  C   UNL     1     -10.271   9.828  65.731  1.00  0.00    -0.222 A  
HETATM   25  H   UNL     1      -6.719   7.231  65.262  1.00  0.00     0.000 HD 
HETATM   26  O   UNL     1      -7.500   7.423  65.768  1.00  0.00    -0.075 OA 
HETATM   27  C   UNL     1      -9.471   8.767  66.195  1.00  0.00    -0.315 A  
HETATM   28  C   UNL     1      -7.924   9.211  64.289  1.00  0.00    -0.139 A  
HETATM   29  C   UNL     1      -8.300   8.478  65.435  1.00  0.00    -0.156 A  
BRANCH  27  30
HETATM   30  C   UNL     1      -9.945   7.959  67.429  1.00  0.00    -0.261 C  
HETATM   31  C   UNL     1      -8.776   7.302  68.221  1.00  0.00    -0.125 C  
HETATM   32  C   UNL     1     -10.668   8.885  68.429  1.00  0.00    -0.126 C  
HETATM   33  C   UNL     1     -10.859   6.783  67.022  1.00  0.00    -0.453 C  
ENDBRANCH  27  30
BRANCH  28  34
HETATM   34  C   UNL     1      -6.620   8.947  63.482  1.00  0.00    -0.089 C  
HETATM   35  C   UNL     1      -6.612   7.594  62.709  1.00  0.00    -0.071 C  
HETATM   36  C   UNL     1      -5.376   8.905  64.396  1.00  0.00    -0.054 C  
HETATM   37  C   UNL     1      -6.444  10.041  62.407  1.00  0.00    -0.116 C  
ENDBRANCH  28  34
ENDBRANCH  21  22
ENDBRANCH   2  21
TORSDOF 8
ENDMDL
MODEL       91
REMARK 921   NORMALIZED FREE ENERGY PREDICTED BY IDOCK:   -4.87 KCAL/MOL
REMARK 922        TOTAL FREE ENERGY PREDICTED BY IDOCK:   -7.75 KCAL/MOL
REMARK 923 INTER-LIGAND FREE ENERGY PREDICTED BY IDOCK:   -8.74 KCAL/MOL
REMARK 924 INTRA-LIGAND FREE ENERGY PREDICTED BY IDOCK:    0.99 KCAL/MOL
REMARK 927      BINDING AFFINITY PREDICTED BY RF-SCORE:    0.00 PKD
ROOT
HETATM    1  C   UNL     1      -9.047  12.853  66.588  1.00  0.00    -0.181 C  
HETATM    2  C   UNL     1     -10.217  12.218  65.816  1.00  0.00    -0.255 C  
HETATM    3  C   UNL     1     -10.578  13.144  64.642  1.00  0.00    -0.410 C  
ENDROOT
BRANCH   2   4
HETATM    4  S   UNL     1     -11.678  12.110  66.939  1.00  0.00    -0.231 SA 
BRANCH   4   5
HETATM    5  C   UNL     1     -11.629  13.622  67.896  1.00  0.00    -0.341 A  
HETATM    6  C   UNL     1     -11.333  15.860  69.549  1.00  0.00    -0.335 A  
HETATM    7  O   UNL     1     -11.090  16.952  70.332  1.00  0.00    -0.410 OA 
HETATM    8  H   UNL     1     -10.609  17.702  70.001  1.00  0.00     0.000 HD 
HETATM    9  C   UNL     1     -12.155  13.620  69.184  1.00  0.00    -0.361 A  
HETATM   10  C   UNL     1     -10.783  15.905  68.250  1.00  0.00    -0.291 A  
HETATM   11  C   UNL     1     -10.982  14.772  67.459  1.00  0.00    -0.304 A  
HETATM   12  C   UNL     1     -12.055  14.737  70.045  1.00  0.00    -0.380 A  
BRANCH  12  13
HETATM   13  C   UNL     1     -12.689  14.655  71.457  1.00  0.00    -0.408 C  
HETATM   14  C   UNL     1     -13.989  15.487  71.538  1.00  0.00    -0.526 C  
HETATM   15  C   UNL     1     -11.685  15.120  72.532  1.00  0.00    -0.475 C  
HETATM   16  C   UNL     1     -13.115  13.214  71.864  1.00  0.00    -0.482 C  
ENDBRANCH  12  13
BRANCH  10  17
HETATM   17  C   UNL     1     -10.004  17.115  67.668  1.00  0.00    -0.283 C  
HETATM   18  C   UNL     1     -10.820  18.419  67.794  1.00  0.00    -0.268 C  
HETATM   19  C   UNL     1      -8.650  17.408  68.381  1.00  0.00    -0.270 C  
HETATM   20  C   UNL     1      -9.646  16.845  66.192  1.00  0.00    -0.280 C  
ENDBRANCH  10  17
ENDBRANCH   4   5
ENDBRANCH   2   4
BRANCH   2  21
HETATM   21  S   UNL     1      -9.632  10.613  65.117  1.00  0.00    -0.276 SA 
BRANCH  21  22
HETATM   22  C   UNL     1      -9.199   9.621  66.544  1.00  0.00    -0.158 A  
HETATM   23  C   UNL     1      -8.201   9.965  67.458  1.00  0.00    -0.114 A  
HETATM   24  C   UNL     1      -9.788   8.370  66.651  1.00  0.00    -0.343 A  
HETATM   25  H   UNL     1      -7.222   7.246  70.077  1.00  0.00     0.000 HD 
HETATM   26  O   UNL     1      -7.909   6.977  69.479  1.00  0.00    -0.114 OA 
HETATM   27  C   UNL     1      -9.415   7.437  67.636  1.00  0.00    -0.156 A  
HETATM   28  C   UNL     1      -7.768   9.109  68.479  1.00  0.00    -0.093 A  
HETATM   29  C   UNL     1      -8.384   7.841  68.534  1.00  0.00    -0.129 A  
BRANCH  27  30
HETATM   30  C   UNL     1     -10.084   6.039  67.631  1.00  0.00    -0.190 C  
HETATM   31  C   UNL     1     -10.670   5.632  69.015  1.00  0.00    -0.307 C  
HETATM   32  C   UNL     1     -11.270   6.017  66.645  1.00  0.00     0.047 C  
HETATM   33  C   UNL     1      -9.073   4.925  67.285  1.00  0.00    -0.122 C  
ENDBRANCH  27  30
BRANCH  28  34
HETATM   34  C   UNL     1      -6.683   9.589  69.486  1.00  0.00    -0.049 C  
HETATM   35  C   UNL     1      -6.414  11.123  69.449  1.00  0.00    -0.100 C  
HETATM   36  C   UNL     1      -5.314   8.925  69.216  1.00  0.00    -0.036 C  
HETATM   37  C   UNL     1      -7.140   9.282  70.929  1.00  0.00    -0.110 C  
ENDBRANCH  28  34
ENDBRANCH  21  22
ENDBRANCH   2  21
TORSDOF 8
ENDMDL
MODEL       92
REMARK 921   NORMALIZED FREE ENERGY PREDICTED BY IDOCK:   -4.87 KCAL/MOL
REMARK 922        TOTAL FREE ENERGY PREDICTED BY IDOCK:   -7.74 KCAL/MOL
REMARK 923 INTER-LIGAND FREE ENERGY PREDICTED BY IDOCK:   -8.74 KCAL/MOL
REMARK 924 INTRA-LIGAND FREE ENERGY PREDICTED BY IDOCK:    1.00 KCAL/MOL
REMARK 927      BINDING AFFINITY PREDICTED BY RF-SCORE:    0.00 PKD
ROOT
HETATM    1  C   UNL     1     -11.685  14.383  67.619  1.00  0.00    -0.421 C  
HETATM    2  C   UNL     1     -10.775  13.517  66.730  1.00  0.00    -0.278 C  
HETATM    3  C   UNL     1      -9.650  12.944  67.607  1.00  0.00    -0.196 C  
ENDROOT
BRANCH   2   4
HETATM    4  S   UNL     1     -10.012  14.595  65.440  1.00  0.00    -0.266 SA 
BRANCH   4   5
HETATM    5  C   UNL     1      -9.047  15.791  66.357  1.00  0.00    -0.322 A  
HETATM    6  C   UNL     1      -7.748  17.643  68.003  1.00  0.00    -0.232 A  
HETATM    7  O   UNL     1      -7.118  18.478  68.882  1.00  0.00    -0.279 OA 
HETATM    8  H   UNL     1      -6.374  18.186  69.396  1.00  0.00     0.000 HD 
HETATM    9  C   UNL     1      -9.503  17.103  66.437  1.00  0.00    -0.290 A  
HETATM   10  C   UNL     1      -7.253  16.322  67.954  1.00  0.00    -0.145 A  
HETATM   11  C   UNL     1      -7.922  15.446  67.097  1.00  0.00    -0.251 A  
HETATM   12  C   UNL     1      -8.863  18.081  67.232  1.00  0.00    -0.247 A  
BRANCH  12  13
HETATM   13  C   UNL     1      -9.427  19.524  67.246  1.00  0.00    -0.422 C  
HETATM   14  C   UNL     1     -10.130  19.839  68.585  1.00  0.00    -0.546 C  
HETATM   15  C   UNL     1     -10.396  19.742  66.065  1.00  0.00    -0.612 C  
HETATM   16  C   UNL     1      -8.330  20.620  67.108  1.00  0.00    -0.292 C  
ENDBRANCH  12  13
BRANCH  10  17
HETATM   17  C   UNL     1      -6.032  15.811  68.766  1.00  0.00    -0.100 C  
HETATM   18  C   UNL     1      -5.137  16.981  69.226  1.00  0.00    -0.133 C  
HETATM   19  C   UNL     1      -6.406  15.044  70.069  1.00  0.00    -0.163 C  
HETATM   20  C   UNL     1      -5.219  14.814  67.916  1.00  0.00    -0.079 C  
ENDBRANCH  10  17
ENDBRANCH   4   5
ENDBRANCH   2   4
BRANCH   2  21
HETATM   21  S   UNL     1     -11.779  12.105  66.095  1.00  0.00    -0.224 SA 
BRANCH  21  22
HETATM   22  C   UNL     1     -11.154  10.669  66.964  1.00  0.00    -0.145 A  
HETATM   23  C   UNL     1     -11.430  10.388  68.304  1.00  0.00    -0.218 A  
HETATM   24  C   UNL     1     -10.221   9.883  66.305  1.00  0.00    -0.282 A  
HETATM   25  H   UNL     1      -9.410   7.474  69.928  1.00  0.00     0.000 HD 
HETATM   26  O   UNL     1      -9.199   7.629  69.015  1.00  0.00    -0.141 OA 
HETATM   27  C   UNL     1      -9.541   8.823  66.933  1.00  0.00    -0.249 A  
HETATM   28  C   UNL     1     -10.812   9.350  69.014  1.00  0.00    -0.161 A  
HETATM   29  C   UNL     1      -9.857   8.591  68.304  1.00  0.00    -0.169 A  
BRANCH  27  30
HETATM   30  C   UNL     1      -8.467   8.045  66.131  1.00  0.00    -0.141 C  
HETATM   31  C   UNL     1      -7.049   8.118  66.770  1.00  0.00    -0.077 C  
HETATM   32  C   UNL     1      -8.828   6.548  66.067  1.00  0.00    -0.154 C  
HETATM   33  C   UNL     1      -8.291   8.621  64.709  1.00  0.00    -0.167 C  
ENDBRANCH  27  30
BRANCH  28  34
HETATM   34  C   UNL     1     -11.213   9.074  70.492  1.00  0.00    -0.301 C  
HETATM   35  C   UNL     1     -11.715   7.623  70.756  1.00  0.00    -0.260 C  
HETATM   36  C   UNL     1     -12.361   9.997  70.957  1.00  0.00    -0.458 C  
HETATM   37  C   UNL     1      -9.984   9.262  71.408  1.00  0.00    -0.323 C  
ENDBRANCH  28  34
ENDBRANCH  21  22
ENDBRANCH   2  21
TORSDOF 8
ENDMDL
MODEL       93
REMARK 921   NORMALIZED FREE ENERGY PREDICTED BY IDOCK:   -4.86 KCAL/MOL
REMARK 922        TOTAL FREE ENERGY PREDICTED BY IDOCK:   -7.73 KCAL/MOL
REMARK 923 INTER-LIGAND FREE ENERGY PREDICTED BY IDOCK:   -9.08 KCAL/MOL
REMARK 924 INTRA-LIGAND FREE ENERGY PREDICTED BY IDOCK:    1.36 KCAL/MOL
REMARK 927      BINDING AFFINITY PREDICTED BY RF-SCORE:    0.00 PKD
ROOT
HETATM    1  C   UNL     1     -11.649  11.704  67.490  1.00  0.00    -0.345 C  
HETATM    2  C   UNL     1     -10.520  12.727  67.706  1.00  0.00    -0.223 C  
HETATM    3  C   UNL     1     -10.196  13.380  66.353  1.00  0.00    -0.293 C  
ENDROOT
BRANCH   2   4
HETATM    4  S   UNL     1      -9.016  11.833  68.293  1.00  0.00    -0.170 SA 
BRANCH   4   5
HETATM    5  C   UNL     1      -9.596  10.193  68.714  1.00  0.00    -0.170 A  
HETATM    6  C   UNL     1     -10.767   7.712  69.262  1.00  0.00    -0.161 A  
HETATM    7  O   UNL     1     -11.368   6.497  69.431  1.00  0.00    -0.479 OA 
HETATM    8  H   UNL     1     -11.195   5.772  68.842  1.00  0.00     0.000 HD 
HETATM    9  C   UNL     1     -10.435  10.038  69.813  1.00  0.00    -0.291 A  
HETATM   10  C   UNL     1      -9.924   7.824  68.136  1.00  0.00    -0.207 A  
HETATM   11  C   UNL     1      -9.346   9.077  67.923  1.00  0.00    -0.155 A  
HETATM   12  C   UNL     1     -11.027   8.798  70.146  1.00  0.00    -0.236 A  
BRANCH  12  13
HETATM   13  C   UNL     1     -11.932   8.711  71.401  1.00  0.00    -0.355 C  
HETATM   14  C   UNL     1     -13.056   7.668  71.211  1.00  0.00    -0.279 C  
HETATM   15  C   UNL     1     -12.532  10.093  71.737  1.00  0.00    -0.455 C  
HETATM   16  C   UNL     1     -11.176   8.250  72.681  1.00  0.00    -0.410 C  
ENDBRANCH  12  13
BRANCH  10  17
HETATM   17  C   UNL     1      -9.605   6.661  67.158  1.00  0.00    -0.168 C  
HETATM   18  C   UNL     1      -8.695   5.607  67.822  1.00  0.00    -0.107 C  
HETATM   19  C   UNL     1     -10.857   5.873  66.670  1.00  0.00    -0.292 C  
HETATM   20  C   UNL     1      -8.941   7.218  65.883  1.00  0.00    -0.103 C  
ENDBRANCH  10  17
ENDBRANCH   4   5
ENDBRANCH   2   4
BRANCH   2  21
HETATM   21  S   UNL     1     -11.154  14.042  68.836  1.00  0.00    -0.278 SA 
BRANCH  21  22
HETATM   22  C   UNL     1      -9.950  15.364  68.725  1.00  0.00    -0.208 A  
HETATM   23  C   UNL     1     -10.215  16.614  68.161  1.00  0.00    -0.280 A  
HETATM   24  C   UNL     1      -8.643  15.065  69.080  1.00  0.00    -0.205 A  
HETATM   25  H   UNL     1      -7.155  18.970  67.624  1.00  0.00     0.000 HD 
HETATM   26  O   UNL     1      -6.934  18.133  68.015  1.00  0.00    -0.208 OA 
HETATM   27  C   UNL     1      -7.580  15.966  68.889  1.00  0.00    -0.190 A  
HETATM   28  C   UNL     1      -9.226  17.582  67.940  1.00  0.00    -0.265 A  
HETATM   29  C   UNL     1      -7.910  17.222  68.301  1.00  0.00    -0.244 A  
BRANCH  27  30
HETATM   30  C   UNL     1      -6.143  15.514  69.256  1.00  0.00    -0.116 C  
HETATM   31  C   UNL     1      -5.377  16.549  70.132  1.00  0.00    -0.194 C  
HETATM   32  C   UNL     1      -6.187  14.211  70.080  1.00  0.00    -0.151 C  
HETATM   33  C   UNL     1      -5.266  15.330  68.000  1.00  0.00    -0.130 C  
ENDBRANCH  27  30
BRANCH  28  34
HETATM   34  C   UNL     1      -9.615  18.968  67.352  1.00  0.00    -0.358 C  
HETATM   35  C   UNL     1      -8.399  19.837  66.911  1.00  0.00    -0.348 C  
HETATM   36  C   UNL     1     -10.387  19.831  68.375  1.00  0.00    -0.513 C  
HETATM   37  C   UNL     1     -10.469  18.773  66.080  1.00  0.00    -0.499 C  
ENDBRANCH  28  34
ENDBRANCH  21  22
ENDBRANCH   2  21
TORSDOF 8
ENDMDL
MODEL       94
REMARK 921   NORMALIZED FREE ENERGY PREDICTED BY IDOCK:   -4.84 KCAL/MOL
REMARK 922        TOTAL FREE ENERGY PREDICTED BY IDOCK:   -7.70 KCAL/MOL
REMARK 923 INTER-LIGAND FREE ENERGY PREDICTED BY IDOCK:   -8.22 KCAL/MOL
REMARK 924 INTRA-LIGAND FREE ENERGY PREDICTED BY IDOCK:    0.53 KCAL/MOL
REMARK 927      BINDING AFFINITY PREDICTED BY RF-SCORE:    0.00 PKD
ROOT
HETATM    1  C   UNL     1     -11.895  10.690  70.546  1.00  0.00    -0.453 C  
HETATM    2  C   UNL     1     -11.216   9.311  70.468  1.00  0.00    -0.265 C  
HETATM    3  C   UNL     1     -10.008   9.315  71.420  1.00  0.00    -0.323 C  
ENDROOT
BRANCH   2   4
HETATM    4  S   UNL     1     -10.598   9.052  68.748  1.00  0.00    -0.120 SA 
BRANCH   4   5
HETATM    5  C   UNL     1      -9.982  10.655  68.240  1.00  0.00    -0.158 A  
HETATM    6  C   UNL     1      -8.855  13.013  67.244  1.00  0.00    -0.208 A  
HETATM    7  O   UNL     1      -8.334  14.135  66.665  1.00  0.00    -0.409 OA 
HETATM    8  H   UNL     1      -8.846  14.666  66.065  1.00  0.00     0.000 HD 
HETATM    9  C   UNL     1      -8.689  11.022  68.598  1.00  0.00    -0.161 A  
HETATM   10  C   UNL     1     -10.168  12.678  66.853  1.00  0.00    -0.242 A  
HETATM   11  C   UNL     1     -10.692  11.504  67.399  1.00  0.00    -0.275 A  
HETATM   12  C   UNL     1      -8.088  12.218  68.144  1.00  0.00    -0.158 A  
BRANCH  12  13
HETATM   13  C   UNL     1      -6.651  12.560  68.610  1.00  0.00    -0.083 C  
HETATM   14  C   UNL     1      -6.176  11.595  69.721  1.00  0.00    -0.139 C  
HETATM   15  C   UNL     1      -6.570  14.022  69.098  1.00  0.00    -0.113 C  
HETATM   16  C   UNL     1      -5.584  12.424  67.485  1.00  0.00    -0.130 C  
ENDBRANCH  12  13
BRANCH  10  17
HETATM   17  C   UNL     1     -11.041  13.525  65.888  1.00  0.00    -0.292 C  
HETATM   18  C   UNL     1     -10.464  13.515  64.457  1.00  0.00    -0.426 C  
HETATM   19  C   UNL     1     -12.508  13.020  65.741  1.00  0.00    -0.394 C  
HETATM   20  C   UNL     1     -11.150  14.970  66.414  1.00  0.00    -0.329 C  
ENDBRANCH  10  17
ENDBRANCH   4   5
ENDBRANCH   2   4
BRANCH   2  21
HETATM   21  S   UNL     1     -12.418   8.050  71.078  1.00  0.00    -0.028 SA 
BRANCH  21  22
HETATM   22  C   UNL     1     -11.539   6.492  70.983  1.00  0.00    -0.348 A  
HETATM   23  C   UNL     1     -11.197   5.721  72.097  1.00  0.00    -0.327 A  
HETATM   24  C   UNL     1     -11.040   6.119  69.745  1.00  0.00    -0.486 A  
HETATM   25  H   UNL     1      -8.805   2.708  71.465  1.00  0.00     0.000 HD 
HETATM   26  O   UNL     1      -9.019   3.202  70.682  1.00  0.00    -0.077 OA 
HETATM   27  C   UNL     1     -10.202   5.002  69.570  1.00  0.00    -0.286 A  
HETATM   28  C   UNL     1     -10.377   4.588  72.023  1.00  0.00    -0.216 A  
HETATM   29  C   UNL     1      -9.880   4.260  70.744  1.00  0.00    -0.195 A  
BRANCH  27  30
HETATM   30  C   UNL     1      -9.640   4.705  68.156  1.00  0.00    -0.204 C  
HETATM   31  C   UNL     1     -10.488   5.336  67.012  1.00  0.00    -0.290 C  
HETATM   32  C   UNL     1      -8.223   5.295  68.009  1.00  0.00    -0.098 C  
HETATM   33  C   UNL     1      -9.631   3.191  67.854  1.00  0.00    -0.130 C  
ENDBRANCH  27  30
BRANCH  28  34
HETATM   34  C   UNL     1     -10.085   3.757  73.306  1.00  0.00    -0.207 C  
HETATM   35  C   UNL     1      -8.579   3.414  73.513  1.00  0.00    -0.074 C  
HETATM   36  C   UNL     1     -10.816   2.397  73.288  1.00  0.00    -0.282 C  
HETATM   37  C   UNL     1     -10.504   4.562  74.554  1.00  0.00    -0.298 C  
ENDBRANCH  28  34
ENDBRANCH  21  22
ENDBRANCH   2  21
TORSDOF 8
ENDMDL
MODEL       95
REMARK 921   NORMALIZED FREE ENERGY PREDICTED BY IDOCK:   -4.84 KCAL/MOL
REMARK 922        TOTAL FREE ENERGY PREDICTED BY IDOCK:   -7.70 KCAL/MOL
REMARK 923 INTER-LIGAND FREE ENERGY PREDICTED BY IDOCK:   -7.97 KCAL/MOL
REMARK 924 INTRA-LIGAND FREE ENERGY PREDICTED BY IDOCK:    0.27 KCAL/MOL
REMARK 927      BINDING AFFINITY PREDICTED BY RF-SCORE:    0.00 PKD
ROOT
HETATM    1  C   UNL     1      -9.965   8.408  67.498  1.00  0.00    -0.259 C  
HETATM    2  C   UNL     1      -8.435   8.446  67.335  1.00  0.00    -0.124 C  
HETATM    3  C   UNL     1      -7.948   7.021  67.021  1.00  0.00    -0.116 C  
ENDROOT
BRANCH   2   4
HETATM    4  S   UNL     1      -7.683   8.976  68.935  1.00  0.00    -0.095 SA 
BRANCH   4   5
HETATM    5  C   UNL     1      -8.999   8.801  70.137  1.00  0.00    -0.166 A  
HETATM    6  C   UNL     1     -11.213   8.399  71.798  1.00  0.00    -0.293 A  
HETATM    7  O   UNL     1     -12.292   8.104  72.582  1.00  0.00    -0.572 OA 
HETATM    8  H   UNL     1     -12.276   7.376  73.193  1.00  0.00     0.000 HD 
HETATM    9  C   UNL     1     -10.107   9.636  70.045  1.00  0.00    -0.293 A  
HETATM   10  C   UNL     1     -10.111   7.527  71.923  1.00  0.00    -0.205 A  
HETATM   11  C   UNL     1      -9.022   7.788  71.089  1.00  0.00    -0.146 A  
HETATM   12  C   UNL     1     -11.237   9.489  70.882  1.00  0.00    -0.411 A  
BRANCH  12  13
HETATM   13  C   UNL     1     -12.421  10.478  70.725  1.00  0.00    -0.472 C  
HETATM   14  C   UNL     1     -13.775   9.734  70.709  1.00  0.00     0.118 C  
HETATM   15  C   UNL     1     -12.257  11.326  69.447  1.00  0.00    -0.315 C  
HETATM   16  C   UNL     1     -12.541  11.492  71.899  1.00  0.00    -0.104 C  
ENDBRANCH  12  13
BRANCH  10  17
HETATM   17  C   UNL     1     -10.040   6.338  72.918  1.00  0.00    -0.196 C  
HETATM   18  C   UNL     1      -8.692   5.594  72.807  1.00  0.00    -0.119 C  
HETATM   19  C   UNL     1     -10.157   6.750  74.417  1.00  0.00    -0.282 C  
HETATM   20  C   UNL     1     -11.212   5.370  72.661  1.00  0.00    -0.333 C  
ENDBRANCH  10  17
ENDBRANCH   4   5
ENDBRANCH   2   4
BRANCH   2  21
HETATM   21  S   UNL     1      -8.044   9.514  65.881  1.00  0.00    -0.117 SA 
BRANCH  21  22
HETATM   22  C   UNL     1      -8.810  11.092  66.252  1.00  0.00    -0.180 A  
HETATM   23  C   UNL     1      -9.964  11.564  65.623  1.00  0.00    -0.275 A  
HETATM   24  C   UNL     1      -8.123  11.948  67.098  1.00  0.00    -0.172 A  
HETATM   25  H   UNL     1     -10.945  15.270  66.335  1.00  0.00     0.000 HD 
HETATM   26  O   UNL     1     -10.159  14.985  66.786  1.00  0.00    -0.247 OA 
HETATM   27  C   UNL     1      -8.539  13.270  67.342  1.00  0.00    -0.204 A  
HETATM   28  C   UNL     1     -10.463  12.860  65.809  1.00  0.00    -0.293 A  
HETATM   29  C   UNL     1      -9.718  13.698  66.665  1.00  0.00    -0.284 A  
BRANCH  27  30
HETATM   30  C   UNL     1      -7.666  14.171  68.252  1.00  0.00    -0.139 C  
HETATM   31  C   UNL     1      -6.812  15.204  67.459  1.00  0.00    -0.203 C  
HETATM   32  C   UNL     1      -8.558  14.997  69.201  1.00  0.00    -0.188 C  
HETATM   33  C   UNL     1      -6.641  13.344  69.057  1.00  0.00    -0.107 C  
ENDBRANCH  27  30
BRANCH  28  34
HETATM   34  C   UNL     1     -11.783  13.291  65.108  1.00  0.00    -0.358 C  
HETATM   35  C   UNL     1     -12.380  12.212  64.154  1.00  0.00    -0.508 C  
HETATM   36  C   UNL     1     -11.585  14.548  64.232  1.00  0.00    -0.253 C  
HETATM   37  C   UNL     1     -12.873  13.557  66.168  1.00  0.00    -0.058 C  
ENDBRANCH  28  34
ENDBRANCH  21  22
ENDBRANCH   2  21
TORSDOF 8
ENDMDL
MODEL       96
REMARK 921   NORMALIZED FREE ENERGY PREDICTED BY IDOCK:   -4.83 KCAL/MOL
REMARK 922        TOTAL FREE ENERGY PREDICTED BY IDOCK:   -7.69 KCAL/MOL
REMARK 923 INTER-LIGAND FREE ENERGY PREDICTED BY IDOCK:   -9.18 KCAL/MOL
REMARK 924 INTRA-LIGAND FREE ENERGY PREDICTED BY IDOCK:    1.49 KCAL/MOL
REMARK 927      BINDING AFFINITY PREDICTED BY RF-SCORE:    0.00 PKD
ROOT
HETATM    1  C   UNL     1      -7.700  11.147  67.083  1.00  0.00    -0.136 C  
HETATM    2  C   UNL     1      -8.200  11.791  68.388  1.00  0.00    -0.154 C  
HETATM    3  C   UNL     1      -7.720  10.928  69.566  1.00  0.00    -0.022 C  
ENDROOT
BRANCH   2   4
HETATM    4  S   UNL     1     -10.046  11.785  68.379  1.00  0.00    -0.199 SA 
BRANCH   4   5
HETATM    5  C   UNL     1     -10.499  10.109  68.817  1.00  0.00    -0.204 A  
HETATM    6  C   UNL     1     -10.930   7.462  69.610  1.00  0.00    -0.172 A  
HETATM    7  O   UNL     1     -11.109   6.196  70.091  1.00  0.00    -0.323 OA 
HETATM    8  H   UNL     1     -11.591   6.034  70.894  1.00  0.00     0.000 HD 
HETATM    9  C   UNL     1      -9.992   9.057  68.061  1.00  0.00    -0.213 A  
HETATM   10  C   UNL     1     -11.460   8.498  70.408  1.00  0.00    -0.135 A  
HETATM   11  C   UNL     1     -11.238   9.799  69.953  1.00  0.00    -0.271 A  
HETATM   12  C   UNL     1     -10.209   7.704  68.406  1.00  0.00    -0.226 A  
BRANCH  12  13
HETATM   13  C   UNL     1      -9.626   6.594  67.495  1.00  0.00    -0.142 C  
HETATM   14  C   UNL     1      -8.849   7.198  66.302  1.00  0.00    -0.166 C  
HETATM   15  C   UNL     1     -10.745   5.660  66.990  1.00  0.00    -0.332 C  
HETATM   16  C   UNL     1      -8.595   5.677  68.215  1.00  0.00    -0.107 C  
ENDBRANCH  12  13
BRANCH  10  17
HETATM   17  C   UNL     1     -12.264   8.275  71.717  1.00  0.00    -0.367 C  
HETATM   18  C   UNL     1     -12.893   9.593  72.218  1.00  0.00    -0.407 C  
HETATM   19  C   UNL     1     -13.455   7.280  71.576  1.00  0.00    -0.439 C  
HETATM   20  C   UNL     1     -11.346   7.672  72.799  1.00  0.00    -0.419 C  
ENDBRANCH  10  17
ENDBRANCH   4   5
ENDBRANCH   2   4
BRANCH   2  21
HETATM   21  S   UNL     1      -7.411  13.453  68.540  1.00  0.00    -0.110 SA 
BRANCH  21  22
HETATM   22  C   UNL     1      -8.555  14.579  67.743  1.00  0.00    -0.175 A  
HETATM   23  C   UNL     1      -9.497  14.187  66.790  1.00  0.00    -0.290 A  
HETATM   24  C   UNL     1      -8.381  15.934  67.979  1.00  0.00    -0.161 A  
HETATM   25  H   UNL     1     -11.380  17.044  64.920  1.00  0.00     0.000 HD 
HETATM   26  O   UNL     1     -10.753  17.351  65.564  1.00  0.00    -0.530 OA 
HETATM   27  C   UNL     1      -9.109  16.924  67.294  1.00  0.00    -0.225 A  
HETATM   28  C   UNL     1     -10.277  15.096  66.063  1.00  0.00    -0.325 A  
HETATM   29  C   UNL     1     -10.050  16.463  66.326  1.00  0.00    -0.331 A  
BRANCH  27  30
HETATM   30  C   UNL     1      -8.795  18.414  67.580  1.00  0.00    -0.272 C  
HETATM   31  C   UNL     1      -8.323  19.196  66.319  1.00  0.00    -0.307 C  
HETATM   32  C   UNL     1     -10.059  19.140  68.083  1.00  0.00    -0.486 C  
HETATM   33  C   UNL     1      -7.642  18.568  68.596  1.00  0.00    -0.330 C  
ENDBRANCH  27  30
BRANCH  28  34
HETATM   34  C   UNL     1     -11.340  14.573  65.054  1.00  0.00    -0.377 C  
HETATM   35  C   UNL     1     -10.885  13.324  64.240  1.00  0.00    -0.414 C  
HETATM   36  C   UNL     1     -11.704  15.640  63.998  1.00  0.00     0.061 C  
HETATM   37  C   UNL     1     -12.609  14.134  65.815  1.00  0.00    -0.475 C  
ENDBRANCH  28  34
ENDBRANCH  21  22
ENDBRANCH   2  21
TORSDOF 8
ENDMDL
MODEL       97
REMARK 921   NORMALIZED FREE ENERGY PREDICTED BY IDOCK:   -4.82 KCAL/MOL
REMARK 922        TOTAL FREE ENERGY PREDICTED BY IDOCK:   -7.68 KCAL/MOL
REMARK 923 INTER-LIGAND FREE ENERGY PREDICTED BY IDOCK:   -8.16 KCAL/MOL
REMARK 924 INTRA-LIGAND FREE ENERGY PREDICTED BY IDOCK:    0.48 KCAL/MOL
REMARK 927      BINDING AFFINITY PREDICTED BY RF-SCORE:    0.00 PKD
ROOT
HETATM    1  C   UNL     1     -12.375  14.208  65.872  1.00  0.00    -0.486 C  
HETATM    2  C   UNL     1     -11.278  13.500  66.687  1.00  0.00    -0.312 C  
HETATM    3  C   UNL     1      -9.928  13.751  65.996  1.00  0.00    -0.319 C  
ENDROOT
BRANCH   2   4
HETATM    4  S   UNL     1     -11.608  11.684  66.672  1.00  0.00     0.026 SA 
BRANCH   4   5
HETATM    5  C   UNL     1     -10.499  11.009  67.904  1.00  0.00    -0.192 A  
HETATM    6  C   UNL     1      -8.791   9.693  69.686  1.00  0.00    -0.201 A  
HETATM    7  O   UNL     1      -7.903   9.020  70.475  1.00  0.00    -0.098 OA 
HETATM    8  H   UNL     1      -6.965   9.136  70.377  1.00  0.00     0.000 HD 
HETATM    9  C   UNL     1     -11.018  10.182  68.894  1.00  0.00    -0.261 A  
HETATM   10  C   UNL     1      -8.221  10.521  68.695  1.00  0.00    -0.130 A  
HETATM   11  C   UNL     1      -9.120  11.174  67.849  1.00  0.00    -0.150 A  
HETATM   12  C   UNL     1     -10.197   9.519  69.835  1.00  0.00    -0.261 A  
BRANCH  12  13
HETATM   13  C   UNL     1     -10.862   8.633  70.919  1.00  0.00    -0.288 C  
HETATM   14  C   UNL     1     -12.359   8.978  71.086  1.00  0.00    -0.306 C  
HETATM   15  C   UNL     1     -10.123   8.775  72.266  1.00  0.00    -0.308 C  
HETATM   16  C   UNL     1     -10.841   7.115  70.577  1.00  0.00    -0.269 C  
ENDBRANCH  12  13
BRANCH  10  17
HETATM   17  C   UNL     1      -6.697  10.749  68.511  1.00  0.00    -0.057 C  
HETATM   18  C   UNL     1      -6.037  11.208  69.828  1.00  0.00    -0.107 C  
HETATM   19  C   UNL     1      -5.908   9.477  68.078  1.00  0.00    -0.041 C  
HETATM   20  C   UNL     1      -6.455  11.787  67.397  1.00  0.00    -0.116 C  
ENDBRANCH  10  17
ENDBRANCH   4   5
ENDBRANCH   2   4
BRANCH   2  21
HETATM   21  S   UNL     1     -11.217  14.283  68.357  1.00  0.00    -0.285 SA 
BRANCH  21  22
HETATM   22  C   UNL     1      -9.838  15.424  68.280  1.00  0.00    -0.213 A  
HETATM   23  C   UNL     1      -8.578  15.161  68.824  1.00  0.00    -0.182 A  
HETATM   24  C   UNL     1     -10.091  16.695  67.789  1.00  0.00    -0.275 A  
HETATM   25  H   UNL     1      -6.063  18.139  68.918  1.00  0.00     0.000 HD 
HETATM   26  O   UNL     1      -6.904  18.356  68.535  1.00  0.00    -0.235 OA 
HETATM   27  C   UNL     1      -9.134  17.727  67.822  1.00  0.00    -0.249 A  
HETATM   28  C   UNL     1      -7.558  16.118  68.894  1.00  0.00    -0.201 A  
HETATM   29  C   UNL     1      -7.871  17.401  68.398  1.00  0.00    -0.257 A  
BRANCH  27  30
HETATM   30  C   UNL     1      -9.535  19.133  67.309  1.00  0.00    -0.367 C  
HETATM   31  C   UNL     1      -8.313  20.056  67.024  1.00  0.00    -0.373 C  
HETATM   32  C   UNL     1     -10.300  19.018  65.976  1.00  0.00    -0.512 C  
HETATM   33  C   UNL     1     -10.376  19.901  68.352  1.00  0.00    -0.507 C  
ENDBRANCH  27  30
BRANCH  28  34
HETATM   34  C   UNL     1      -6.166  15.728  69.471  1.00  0.00    -0.154 C  
HETATM   35  C   UNL     1      -5.155  15.214  68.403  1.00  0.00    -0.105 C  
HETATM   36  C   UNL     1      -6.274  14.593  70.513  1.00  0.00    -0.149 C  
HETATM   37  C   UNL     1      -5.503  16.967  70.111  1.00  0.00    -0.219 C  
ENDBRANCH  28  34
ENDBRANCH  21  22
ENDBRANCH   2  21
TORSDOF 8
ENDMDL
MODEL       98
REMARK 921   NORMALIZED FREE ENERGY PREDICTED BY IDOCK:   -4.80 KCAL/MOL
REMARK 922        TOTAL FREE ENERGY PREDICTED BY IDOCK:   -7.64 KCAL/MOL
REMARK 923 INTER-LIGAND FREE ENERGY PREDICTED BY IDOCK:   -9.61 KCAL/MOL
REMARK 924 INTRA-LIGAND FREE ENERGY PREDICTED BY IDOCK:    1.97 KCAL/MOL
REMARK 927      BINDING AFFINITY PREDICTED BY RF-SCORE:    0.00 PKD
ROOT
HETATM    1  C   UNL     1     -13.305  10.210  71.099  1.00  0.00    -0.372 C  
HETATM    2  C   UNL     1     -12.197   9.154  70.932  1.00  0.00    -0.183 C  
HETATM    3  C   UNL     1     -11.226   9.284  72.116  1.00  0.00    -0.043 C  
ENDROOT
BRANCH   2   4
HETATM    4  S   UNL     1     -11.268   9.514  69.378  1.00  0.00     0.050 SA 
BRANCH   4   5
HETATM    5  C   UNL     1     -11.434  11.282  69.146  1.00  0.00    -0.297 A  
HETATM    6  C   UNL     1     -11.959  13.986  68.662  1.00  0.00    -0.354 A  
HETATM    7  O   UNL     1     -12.305  15.294  68.475  1.00  0.00    -0.557 OA 
HETATM    8  H   UNL     1     -12.601  15.836  69.197  1.00  0.00     0.000 HD 
HETATM    9  C   UNL     1     -11.288  11.808  67.867  1.00  0.00    -0.362 A  
HETATM   10  C   UNL     1     -12.123  13.493  69.974  1.00  0.00    -0.411 A  
HETATM   11  C   UNL     1     -11.823  12.143  70.166  1.00  0.00    -0.368 A  
HETATM   12  C   UNL     1     -11.514  13.174  67.580  1.00  0.00    -0.371 A  
BRANCH  12  13
HETATM   13  C   UNL     1     -11.306  13.680  66.130  1.00  0.00    -0.324 C  
HETATM   14  C   UNL     1     -12.636  14.165  65.509  1.00  0.00    -0.501 C  
HETATM   15  C   UNL     1     -10.673  12.580  65.254  1.00  0.00    -0.318 C  
HETATM   16  C   UNL     1     -10.353  14.907  66.032  1.00  0.00    -0.313 C  
ENDBRANCH  12  13
BRANCH  10  17
HETATM   17  C   UNL     1     -12.591  14.349  71.182  1.00  0.00    -0.422 C  
HETATM   18  C   UNL     1     -13.166  13.462  72.307  1.00  0.00    -0.570 C  
HETATM   19  C   UNL     1     -11.458  15.181  71.854  1.00  0.00    -0.457 C  
HETATM   20  C   UNL     1     -13.642  15.377  70.718  1.00  0.00    -0.263 C  
ENDBRANCH  10  17
ENDBRANCH   4   5
ENDBRANCH   2   4
BRANCH   2  21
HETATM   21  S   UNL     1     -12.984   7.487  71.019  1.00  0.00    -0.023 SA 
BRANCH  21  22
HETATM   22  C   UNL     1     -11.622   6.329  70.896  1.00  0.00    -0.272 A  
HETATM   23  C   UNL     1     -10.932   5.819  71.997  1.00  0.00    -0.317 A  
HETATM   24  C   UNL     1     -11.137   6.052  69.627  1.00  0.00    -0.474 A  
HETATM   25  H   UNL     1      -7.695   3.782  71.236  1.00  0.00     0.000 HD 
HETATM   26  O   UNL     1      -8.140   4.106  70.461  1.00  0.00    -0.055 OA 
HETATM   27  C   UNL     1      -9.977   5.286  69.409  1.00  0.00    -0.288 A  
HETATM   28  C   UNL     1      -9.774   5.038  71.883  1.00  0.00    -0.212 A  
HETATM   29  C   UNL     1      -9.310   4.800  70.572  1.00  0.00    -0.154 A  
BRANCH  27  30
HETATM   30  C   UNL     1      -9.476   5.088  67.956  1.00  0.00    -0.165 C  
HETATM   31  C   UNL     1      -9.394   3.592  67.531  1.00  0.00    -0.249 C  
HETATM   32  C   UNL     1     -10.444   5.759  66.961  1.00  0.00    -0.342 C  
HETATM   33  C   UNL     1      -8.043   5.632  67.769  1.00  0.00    -0.101 C  
ENDBRANCH  27  30
BRANCH  28  34
HETATM   34  C   UNL     1      -9.093   4.468  73.160  1.00  0.00    -0.126 C  
HETATM   35  C   UNL     1      -8.116   3.285  72.887  1.00  0.00    -0.079 C  
HETATM   36  C   UNL     1     -10.128   3.921  74.168  1.00  0.00    -0.206 C  
HETATM   37  C   UNL     1      -8.240   5.567  73.829  1.00  0.00    -0.111 C  
ENDBRANCH  28  34
ENDBRANCH  21  22
ENDBRANCH   2  21
TORSDOF 8
ENDMDL
MODEL       99
REMARK 921   NORMALIZED FREE ENERGY PREDICTED BY IDOCK:   -4.78 KCAL/MOL
REMARK 922        TOTAL FREE ENERGY PREDICTED BY IDOCK:   -7.61 KCAL/MOL
REMARK 923 INTER-LIGAND FREE ENERGY PREDICTED BY IDOCK:   -8.36 KCAL/MOL
REMARK 924 INTRA-LIGAND FREE ENERGY PREDICTED BY IDOCK:    0.75 KCAL/MOL
REMARK 927      BINDING AFFINITY PREDICTED BY RF-SCORE:    0.00 PKD
ROOT
HETATM    1  C   UNL     1      -9.777   7.666  70.023  1.00  0.00    -0.172 C  
HETATM    2  C   UNL     1     -10.371   8.947  69.411  1.00  0.00    -0.213 C  
HETATM    3  C   UNL     1      -9.221   9.932  69.144  1.00  0.00    -0.184 C  
ENDROOT
BRANCH   2   4
HETATM    4  S   UNL     1     -11.517   9.713  70.639  1.00  0.00    -0.325 SA 
BRANCH   4   5
HETATM    5  C   UNL     1     -11.858  11.345  69.988  1.00  0.00    -0.359 A  
HETATM    6  C   UNL     1     -12.131  13.979  69.087  1.00  0.00    -0.337 A  
HETATM    7  O   UNL     1     -12.172  15.255  68.603  1.00  0.00    -0.575 OA 
HETATM    8  H   UNL     1     -11.983  15.446  67.691  1.00  0.00     0.000 HD 
HETATM    9  C   UNL     1     -12.237  12.354  70.868  1.00  0.00    -0.290 A  
HETATM   10  C   UNL     1     -11.742  12.988  68.161  1.00  0.00    -0.391 A  
HETATM   11  C   UNL     1     -11.647  11.686  68.657  1.00  0.00    -0.373 A  
HETATM   12  C   UNL     1     -12.415  13.693  70.453  1.00  0.00    -0.364 A  
BRANCH  12  13
HETATM   13  C   UNL     1     -12.860  14.750  71.496  1.00  0.00    -0.406 C  
HETATM   14  C   UNL     1     -14.270  15.296  71.176  1.00  0.00    -0.410 C  
HETATM   15  C   UNL     1     -11.840  15.905  71.570  1.00  0.00    -0.536 C  
HETATM   16  C   UNL     1     -12.973  14.185  72.942  1.00  0.00    -0.498 C  
ENDBRANCH  12  13
BRANCH  10  17
HETATM   17  C   UNL     1     -11.439  13.256  66.662  1.00  0.00    -0.384 C  
HETATM   18  C   UNL     1     -10.181  14.133  66.494  1.00  0.00    -0.278 C  
HETATM   19  C   UNL     1     -11.157  11.971  65.826  1.00  0.00    -0.371 C  
HETATM   20  C   UNL     1     -12.656  13.927  65.994  1.00  0.00    -0.467 C  
ENDBRANCH  10  17
ENDBRANCH   4   5
ENDBRANCH   2   4
BRANCH   2  21
HETATM   21  S   UNL     1     -11.128   8.502  67.788  1.00  0.00     0.627 SA 
BRANCH  21  22
HETATM   22  C   UNL     1      -9.751   7.991  66.762  1.00  0.00    -0.237 A  
HETATM   23  C   UNL     1      -9.099   8.832  65.857  1.00  0.00    -0.271 A  
HETATM   24  C   UNL     1      -9.423   6.644  66.764  1.00  0.00    -0.194 A  
HETATM   25  H   UNL     1      -6.540   7.150  63.444  1.00  0.00     0.000 HD 
HETATM   26  O   UNL     1      -6.956   6.547  64.048  1.00  0.00    -0.043 OA 
HETATM   27  C   UNL     1      -8.468   6.095  65.888  1.00  0.00    -0.145 A  
HETATM   28  C   UNL     1      -8.129   8.382  64.953  1.00  0.00    -0.149 A  
HETATM   29  C   UNL     1      -7.844   7.000  64.981  1.00  0.00    -0.125 A  
BRANCH  27  30
HETATM   30  C   UNL     1      -8.219   4.565  65.920  1.00  0.00    -0.110 C  
HETATM   31  C   UNL     1      -8.413   3.881  64.535  1.00  0.00    -0.102 C  
HETATM   32  C   UNL     1      -6.766   4.269  66.341  1.00  0.00    -0.050 C  
HETATM   33  C   UNL     1      -9.212   3.847  66.860  1.00  0.00    -0.190 C  
ENDBRANCH  27  30
BRANCH  28  34
HETATM   34  C   UNL     1      -7.417   9.395  64.011  1.00  0.00    -0.113 C  
HETATM   35  C   UNL     1      -8.315  10.585  63.559  1.00  0.00    -0.113 C  
HETATM   36  C   UNL     1      -6.936   8.724  62.705  1.00  0.00    -0.093 C  
HETATM   37  C   UNL     1      -6.218  10.034  64.744  1.00  0.00    -0.119 C  
ENDBRANCH  28  34
ENDBRANCH  21  22
ENDBRANCH   2  21
TORSDOF 8
ENDMDL
MODEL      100
REMARK 921   NORMALIZED FREE ENERGY PREDICTED BY IDOCK:   -4.78 KCAL/MOL
REMARK 922        TOTAL FREE ENERGY PREDICTED BY IDOCK:   -7.61 KCAL/MOL
REMARK 923 INTER-LIGAND FREE ENERGY PREDICTED BY IDOCK:   -9.57 KCAL/MOL
REMARK 924 INTRA-LIGAND FREE ENERGY PREDICTED BY IDOCK:    1.96 KCAL/MOL
REMARK 927      BINDING AFFINITY PREDICTED BY RF-SCORE:    0.00 PKD
ROOT
HETATM    1  C   UNL     1      -7.603  10.746  69.224  1.00  0.00    -0.129 C  
HETATM    2  C   UNL     1      -8.103  11.788  68.208  1.00  0.00    -0.154 C  
HETATM    3  C   UNL     1      -7.685  11.329  66.802  1.00  0.00    -0.155 C  
ENDROOT
BRANCH   2   4
HETATM    4  S   UNL     1      -7.277  13.401  68.560  1.00  0.00    -0.115 SA 
BRANCH   4   5
HETATM    5  C   UNL     1      -8.173  14.597  67.575  1.00  0.00    -0.188 A  
HETATM    6  C   UNL     1      -9.794  16.441  66.234  1.00  0.00    -0.314 A  
HETATM    7  O   UNL     1     -10.594  17.392  65.668  1.00  0.00    -0.534 OA 
HETATM    8  H   UNL     1     -10.417  18.319  65.779  1.00  0.00     0.000 HD 
HETATM    9  C   UNL     1      -9.232  14.159  66.787  1.00  0.00    -0.282 A  
HETATM   10  C   UNL     1      -8.732  16.929  67.025  1.00  0.00    -0.230 A  
HETATM   11  C   UNL     1      -7.939  15.965  67.651  1.00  0.00    -0.163 A  
HETATM   12  C   UNL     1     -10.060  15.051  66.068  1.00  0.00    -0.322 A  
BRANCH  12  13
HETATM   13  C   UNL     1     -11.205  14.475  65.196  1.00  0.00    -0.367 C  
HETATM   14  C   UNL     1     -12.385  13.988  66.068  1.00  0.00    -0.504 C  
HETATM   15  C   UNL     1     -10.686  13.328  64.304  1.00  0.00    -0.408 C  
HETATM   16  C   UNL     1     -11.833  15.520  64.228  1.00  0.00    -0.179 C  
ENDBRANCH  12  13
BRANCH  10  17
HETATM   17  C   UNL     1      -8.401  18.432  67.219  1.00  0.00    -0.251 C  
HETATM   18  C   UNL     1      -9.683  19.292  67.227  1.00  0.00    -0.409 C  
HETATM   19  C   UNL     1      -7.679  18.761  68.561  1.00  0.00    -0.357 C  
HETATM   20  C   UNL     1      -7.443  18.905  66.107  1.00  0.00    -0.292 C  
ENDBRANCH  10  17
ENDBRANCH   4   5
ENDBRANCH   2   4
BRANCH   2  21
HETATM   21  S   UNL     1      -9.947  11.808  68.276  1.00  0.00    -0.202 SA 
BRANCH  21  22
HETATM   22  C   UNL     1     -10.408  10.142  68.750  1.00  0.00    -0.194 A  
HETATM   23  C   UNL     1     -11.030   9.820  69.958  1.00  0.00    -0.319 A  
HETATM   24  C   UNL     1      -9.979   9.108  67.933  1.00  0.00    -0.228 A  
HETATM   25  H   UNL     1     -11.333   6.026  70.806  1.00  0.00     0.000 HD 
HETATM   26  O   UNL     1     -10.911   6.204  69.973  1.00  0.00    -0.275 OA 
HETATM   27  C   UNL     1     -10.140   7.753  68.276  1.00  0.00    -0.221 A  
HETATM   28  C   UNL     1     -11.244   8.502  70.383  1.00  0.00    -0.224 A  
HETATM   29  C   UNL     1     -10.773   7.486  69.525  1.00  0.00    -0.217 A  
BRANCH  27  30
HETATM   30  C   UNL     1      -9.567   6.670  67.327  1.00  0.00    -0.157 C  
HETATM   31  C   UNL     1      -8.456   5.800  67.986  1.00  0.00    -0.106 C  
HETATM   32  C   UNL     1     -10.678   5.689  66.902  1.00  0.00    -0.350 C  
HETATM   33  C   UNL     1      -8.895   7.297  66.086  1.00  0.00    -0.181 C  
ENDBRANCH  27  30
BRANCH  28  34
HETATM   34  C   UNL     1     -11.988   8.230  71.722  1.00  0.00    -0.364 C  
HETATM   35  C   UNL     1     -11.089   7.618  72.838  1.00  0.00    -0.448 C  
HETATM   36  C   UNL     1     -13.153   7.232  71.539  1.00  0.00    -0.434 C  
HETATM   37  C   UNL     1     -12.522   9.558  72.300  1.00  0.00    -0.299 C  
ENDBRANCH  28  34
ENDBRANCH  21  22
ENDBRANCH   2  21
TORSDOF 8
ENDMDL
MODEL      101
REMARK 921   NORMALIZED FREE ENERGY PREDICTED BY IDOCK:   -4.78 KCAL/MOL
REMARK 922        TOTAL FREE ENERGY PREDICTED BY IDOCK:   -7.61 KCAL/MOL
REMARK 923 INTER-LIGAND FREE ENERGY PREDICTED BY IDOCK:   -7.27 KCAL/MOL
REMARK 924 INTRA-LIGAND FREE ENERGY PREDICTED BY IDOCK:   -0.34 KCAL/MOL
REMARK 927      BINDING AFFINITY PREDICTED BY RF-SCORE:    0.00 PKD
ROOT
HETATM    1  C   UNL     1      -5.999  11.117  66.934  1.00  0.00    -0.103 C  
HETATM    2  C   UNL     1      -6.558  10.563  68.256  1.00  0.00    -0.059 C  
HETATM    3  C   UNL     1      -5.434   9.794  68.970  1.00  0.00    -0.036 C  
ENDROOT
BRANCH   2   4
HETATM    4  S   UNL     1      -7.918   9.375  67.871  1.00  0.00    -0.091 SA 
BRANCH   4   5
HETATM    5  C   UNL     1      -8.878   9.278  69.379  1.00  0.00    -0.149 A  
HETATM    6  C   UNL     1     -10.560   8.939  71.588  1.00  0.00    -0.352 A  
HETATM    7  O   UNL     1     -11.369   8.673  72.656  1.00  0.00    -0.286 OA 
HETATM    8  H   UNL     1     -11.096   8.082  73.349  1.00  0.00     0.000 HD 
HETATM    9  C   UNL     1     -10.098   9.943  69.443  1.00  0.00    -0.227 A  
HETATM   10  C   UNL     1      -9.332   8.243  71.564  1.00  0.00    -0.236 A  
HETATM   11  C   UNL     1      -8.520   8.468  70.451  1.00  0.00    -0.138 A  
HETATM   12  C   UNL     1     -10.968   9.826  70.551  1.00  0.00    -0.384 A  
BRANCH  12  13
HETATM   13  C   UNL     1     -12.299  10.620  70.548  1.00  0.00    -0.448 C  
HETATM   14  C   UNL     1     -13.517   9.674  70.651  1.00  0.00     0.091 C  
HETATM   15  C   UNL     1     -12.406  11.499  69.285  1.00  0.00    -0.121 C  
HETATM   16  C   UNL     1     -12.446  11.588  71.758  1.00  0.00    -0.072 C  
ENDBRANCH  12  13
BRANCH  10  17
HETATM   17  C   UNL     1      -8.846   7.282  72.681  1.00  0.00    -0.152 C  
HETATM   18  C   UNL     1      -9.947   6.273  73.071  1.00  0.00    -0.183 C  
HETATM   19  C   UNL     1      -7.615   6.412  72.285  1.00  0.00    -0.097 C  
HETATM   20  C   UNL     1      -8.400   8.095  73.914  1.00  0.00    -0.311 C  
ENDBRANCH  10  17
ENDBRANCH   4   5
ENDBRANCH   2   4
BRANCH   2  21
HETATM   21  S   UNL     1      -7.031  11.996  69.318  1.00  0.00     0.032 SA 
BRANCH  21  22
HETATM   22  C   UNL     1      -7.769  13.179  68.191  1.00  0.00    -0.143 A  
HETATM   23  C   UNL     1      -7.490  14.547  68.206  1.00  0.00    -0.120 A  
HETATM   24  C   UNL     1      -8.785  12.722  67.367  1.00  0.00    -0.196 A  
HETATM   25  H   UNL     1      -9.736  16.809  65.961  1.00  0.00     0.000 HD 
HETATM   26  O   UNL     1      -9.952  15.885  65.918  1.00  0.00    -0.302 OA 
HETATM   27  C   UNL     1      -9.547  13.581  66.553  1.00  0.00    -0.284 A  
HETATM   28  C   UNL     1      -8.186  15.480  67.427  1.00  0.00    -0.199 A  
HETATM   29  C   UNL     1      -9.223  14.968  66.619  1.00  0.00    -0.276 A  
BRANCH  27  30
HETATM   30  C   UNL     1     -10.707  12.984  65.717  1.00  0.00    -0.291 C  
HETATM   31  C   UNL     1     -12.092  13.614  66.048  1.00  0.00    -0.480 C  
HETATM   32  C   UNL     1     -10.471  13.241  64.215  1.00  0.00    -0.372 C  
HETATM   33  C   UNL     1     -10.883  11.474  65.986  1.00  0.00    -0.330 C  
ENDBRANCH  27  30
BRANCH  28  34
HETATM   34  C   UNL     1      -7.779  16.982  67.467  1.00  0.00    -0.187 C  
HETATM   35  C   UNL     1      -6.698  17.321  68.537  1.00  0.00    -0.185 C  
HETATM   36  C   UNL     1      -8.982  17.894  67.796  1.00  0.00    -0.254 C  
HETATM   37  C   UNL     1      -7.166  17.391  66.111  1.00  0.00    -0.327 C  
ENDBRANCH  28  34
ENDBRANCH  21  22
ENDBRANCH   2  21
TORSDOF 8
ENDMDL
MODEL      102
REMARK 921   NORMALIZED FREE ENERGY PREDICTED BY IDOCK:   -4.73 KCAL/MOL
REMARK 922        TOTAL FREE ENERGY PREDICTED BY IDOCK:   -7.54 KCAL/MOL
REMARK 923 INTER-LIGAND FREE ENERGY PREDICTED BY IDOCK:   -7.71 KCAL/MOL
REMARK 924 INTRA-LIGAND FREE ENERGY PREDICTED BY IDOCK:    0.17 KCAL/MOL
REMARK 927      BINDING AFFINITY PREDICTED BY RF-SCORE:    0.00 PKD
ROOT
HETATM    1  C   UNL     1     -10.686   9.264  67.122  1.00  0.00    -0.222 C  
HETATM    2  C   UNL     1      -9.196   8.922  67.298  1.00  0.00    -0.138 C  
HETATM    3  C   UNL     1      -9.026   7.405  67.115  1.00  0.00    -0.134 C  
ENDROOT
BRANCH   2   4
HETATM    4  S   UNL     1      -8.689   9.359  69.018  1.00  0.00    -0.141 SA 
BRANCH   4   5
HETATM    5  C   UNL     1      -9.762   8.387  70.071  1.00  0.00    -0.176 A  
HETATM    6  C   UNL     1     -11.298   6.991  71.946  1.00  0.00    -0.257 A  
HETATM    7  O   UNL     1     -12.069   6.399  72.906  1.00  0.00    -0.444 OA 
HETATM    8  H   UNL     1     -12.945   6.712  73.100  1.00  0.00     0.000 HD 
HETATM    9  C   UNL     1      -9.238   7.275  70.721  1.00  0.00    -0.156 A  
HETATM   10  C   UNL     1     -11.869   8.115  71.312  1.00  0.00    -0.317 A  
HETATM   11  C   UNL     1     -11.069   8.759  70.366  1.00  0.00    -0.261 A  
HETATM   12  C   UNL     1      -9.985   6.521  71.655  1.00  0.00    -0.194 A  
BRANCH  12  13
HETATM   13  C   UNL     1      -9.329   5.283  72.316  1.00  0.00    -0.160 C  
HETATM   14  C   UNL     1     -10.146   4.000  72.039  1.00  0.00    -0.227 C  
HETATM   15  C   UNL     1      -9.167   5.499  73.836  1.00  0.00    -0.126 C  
HETATM   16  C   UNL     1      -7.905   4.970  71.773  1.00  0.00    -0.108 C  
ENDBRANCH  12  13
BRANCH  10  17
HETATM   17  C   UNL     1     -13.299   8.648  71.591  1.00  0.00    -0.386 C  
HETATM   18  C   UNL     1     -14.362   7.559  71.337  1.00  0.00    -0.540 C  
HETATM   19  C   UNL     1     -13.534   9.115  73.059  1.00  0.00     0.221 C  
HETATM   20  C   UNL     1     -13.576   9.885  70.713  1.00  0.00     0.021 C  
ENDBRANCH  10  17
ENDBRANCH   4   5
ENDBRANCH   2   4
BRANCH   2  21
HETATM   21  S   UNL     1      -8.256   9.768  65.953  1.00  0.00    -0.120 SA 
BRANCH  21  22
HETATM   22  C   UNL     1      -8.692  11.499  66.107  1.00  0.00    -0.131 A  
HETATM   23  C   UNL     1      -8.077  12.381  66.999  1.00  0.00    -0.124 A  
HETATM   24  C   UNL     1      -9.805  11.939  65.407  1.00  0.00    -0.258 A  
HETATM   25  H   UNL     1      -9.721  15.895  67.388  1.00  0.00     0.000 HD 
HETATM   26  O   UNL     1     -10.163  15.328  66.767  1.00  0.00    -0.262 OA 
HETATM   27  C   UNL     1     -10.339  13.231  65.565  1.00  0.00    -0.298 A  
HETATM   28  C   UNL     1      -8.529  13.688  67.219  1.00  0.00    -0.203 A  
HETATM   29  C   UNL     1      -9.676  14.082  66.497  1.00  0.00    -0.295 A  
BRANCH  27  30
HETATM   30  C   UNL     1     -11.627  13.606  64.788  1.00  0.00    -0.374 C  
HETATM   31  C   UNL     1     -11.597  15.051  64.208  1.00  0.00    -0.190 C  
HETATM   32  C   UNL     1     -11.814  12.667  63.579  1.00  0.00    -0.619 C  
HETATM   33  C   UNL     1     -12.873  13.570  65.699  1.00  0.00    -0.380 C  
ENDBRANCH  27  30
BRANCH  28  34
HETATM   34  C   UNL     1      -7.757  14.622  68.195  1.00  0.00    -0.125 C  
HETATM   35  C   UNL     1      -8.654  15.287  69.283  1.00  0.00    -0.236 C  
HETATM   36  C   UNL     1      -7.076  15.793  67.453  1.00  0.00    -0.236 C  
HETATM   37  C   UNL     1      -6.700  13.806  68.970  1.00  0.00    -0.111 C  
ENDBRANCH  28  34
ENDBRANCH  21  22
ENDBRANCH   2  21
TORSDOF 8
ENDMDL
MODEL      103
REMARK 921   NORMALIZED FREE ENERGY PREDICTED BY IDOCK:   -4.70 KCAL/MOL
REMARK 922        TOTAL FREE ENERGY PREDICTED BY IDOCK:   -7.50 KCAL/MOL
REMARK 923 INTER-LIGAND FREE ENERGY PREDICTED BY IDOCK:   -8.98 KCAL/MOL
REMARK 924 INTRA-LIGAND FREE ENERGY PREDICTED BY IDOCK:    1.48 KCAL/MOL
REMARK 927      BINDING AFFINITY PREDICTED BY RF-SCORE:    0.00 PKD
ROOT
HETATM    1  C   UNL     1      -9.529  10.316  67.413  1.00  0.00    -0.174 C  
HETATM    2  C   UNL     1      -9.922   9.075  68.234  1.00  0.00    -0.173 C  
HETATM    3  C   UNL     1     -10.388   7.981  67.260  1.00  0.00    -0.371 C  
ENDROOT
BRANCH   2   4
HETATM    4  S   UNL     1     -11.339   9.516  69.331  1.00  0.00     0.153 SA 
BRANCH   4   5
HETATM    5  C   UNL     1     -11.531  11.286  69.139  1.00  0.00    -0.297 A  
HETATM    6  C   UNL     1     -12.101  13.994  68.730  1.00  0.00    -0.303 A  
HETATM    7  O   UNL     1     -12.465  15.302  68.585  1.00  0.00    -0.542 OA 
HETATM    8  H   UNL     1     -12.724  15.830  69.331  1.00  0.00     0.000 HD 
HETATM    9  C   UNL     1     -11.460  11.835  67.863  1.00  0.00    -0.387 A  
HETATM   10  C   UNL     1     -12.187  13.478  70.041  1.00  0.00    -0.381 A  
HETATM   11  C   UNL     1     -11.867  12.128  70.193  1.00  0.00    -0.368 A  
HETATM   12  C   UNL     1     -11.712  13.203  67.611  1.00  0.00    -0.414 A  
BRANCH  12  13
HETATM   13  C   UNL     1     -11.590  13.735  66.161  1.00  0.00    -0.369 C  
HETATM   14  C   UNL     1     -10.771  15.045  66.110  1.00  0.00    -0.328 C  
HETATM   15  C   UNL     1     -12.986  13.949  65.540  1.00  0.00    -0.375 C  
HETATM   16  C   UNL     1     -10.840  12.762  65.204  1.00  0.00    -0.318 C  
ENDBRANCH  12  13
BRANCH  10  17
HETATM   17  C   UNL     1     -12.592  14.310  71.287  1.00  0.00    -0.436 C  
HETATM   18  C   UNL     1     -11.418  15.179  71.786  1.00  0.00    -0.452 C  
HETATM   19  C   UNL     1     -13.763  15.308  71.038  1.00  0.00    -0.452 C  
HETATM   20  C   UNL     1     -13.079  13.370  72.408  1.00  0.00    -0.469 C  
ENDBRANCH  10  17
ENDBRANCH   4   5
ENDBRANCH   2   4
BRANCH   2  21
HETATM   21  S   UNL     1      -8.409   8.464  69.098  1.00  0.00    -0.122 SA 
BRANCH  21  22
HETATM   22  C   UNL     1      -8.891   6.893  69.812  1.00  0.00    -0.141 A  
HETATM   23  C   UNL     1      -9.407   6.750  71.102  1.00  0.00    -0.159 A  
HETATM   24  C   UNL     1      -8.587   5.747  69.093  1.00  0.00    -0.110 A  
HETATM   25  H   UNL     1      -9.786   3.105  72.435  1.00  0.00     0.000 HD 
HETATM   26  O   UNL     1      -9.439   3.160  71.552  1.00  0.00    -0.121 OA 
HETATM   27  C   UNL     1      -8.771   4.453  69.614  1.00  0.00    -0.114 A  
HETATM   28  C   UNL     1      -9.634   5.505  71.704  1.00  0.00    -0.187 A  
HETATM   29  C   UNL     1      -9.291   4.371  70.939  1.00  0.00    -0.150 A  
BRANCH  27  30
HETATM   30  C   UNL     1      -8.338   3.236  68.758  1.00  0.00    -0.084 C  
HETATM   31  C   UNL     1      -7.802   3.633  67.350  1.00  0.00    -0.079 C  
HETATM   32  C   UNL     1      -7.188   2.477  69.451  1.00  0.00    -0.044 C  
HETATM   33  C   UNL     1      -9.522   2.286  68.478  1.00  0.00    -0.213 C  
ENDBRANCH  27  30
BRANCH  28  34
HETATM   34  C   UNL     1     -10.257   5.434  73.128  1.00  0.00    -0.216 C  
HETATM   35  C   UNL     1      -9.336   4.766  74.194  1.00  0.00    -0.123 C  
HETATM   36  C   UNL     1     -11.565   4.612  73.143  1.00  0.00    -0.261 C  
HETATM   37  C   UNL     1     -10.529   6.861  73.650  1.00  0.00    -0.400 C  
ENDBRANCH  28  34
ENDBRANCH  21  22
ENDBRANCH   2  21
TORSDOF 8
ENDMDL
MODEL      104
REMARK 921   NORMALIZED FREE ENERGY PREDICTED BY IDOCK:   -4.68 KCAL/MOL
REMARK 922        TOTAL FREE ENERGY PREDICTED BY IDOCK:   -7.47 KCAL/MOL
REMARK 923 INTER-LIGAND FREE ENERGY PREDICTED BY IDOCK:   -7.96 KCAL/MOL
REMARK 924 INTRA-LIGAND FREE ENERGY PREDICTED BY IDOCK:    0.49 KCAL/MOL
REMARK 927      BINDING AFFINITY PREDICTED BY RF-SCORE:    0.00 PKD
ROOT
HETATM    1  C   UNL     1     -11.655   8.194  72.607  1.00  0.00    -0.441 C  
HETATM    2  C   UNL     1     -11.548   8.562  71.116  1.00  0.00    -0.281 C  
HETATM    3  C   UNL     1     -10.063   8.772  70.777  1.00  0.00    -0.261 C  
ENDROOT
BRANCH   2   4
HETATM    4  S   UNL     1     -12.437  10.155  70.836  1.00  0.00    -0.370 SA 
BRANCH   4   5
HETATM    5  C   UNL     1     -11.614  10.896  69.430  1.00  0.00    -0.316 A  
HETATM    6  C   UNL     1     -10.090  12.090  67.411  1.00  0.00    -0.194 A  
HETATM    7  O   UNL     1      -9.273  12.604  66.444  1.00  0.00    -0.308 OA 
HETATM    8  H   UNL     1      -8.868  12.046  65.790  1.00  0.00     0.000 HD 
HETATM    9  C   UNL     1     -11.435  12.275  69.406  1.00  0.00    -0.341 A  
HETATM   10  C   UNL     1     -10.243  10.687  67.398  1.00  0.00    -0.243 A  
HETATM   11  C   UNL     1     -11.034  10.146  68.413  1.00  0.00    -0.293 A  
HETATM   12  C   UNL     1     -10.698  12.926  68.390  1.00  0.00    -0.273 A  
BRANCH  12  13
HETATM   13  C   UNL     1     -10.568  14.470  68.429  1.00  0.00    -0.244 C  
HETATM   14  C   UNL     1     -11.303  15.125  67.237  1.00  0.00    -0.305 C  
HETATM   15  C   UNL     1      -9.084  14.891  68.443  1.00  0.00    -0.185 C  
HETATM   16  C   UNL     1     -11.209  15.115  69.692  1.00  0.00    -0.288 C  
ENDBRANCH  12  13
BRANCH  10  17
HETATM   17  C   UNL     1      -9.610   9.744  66.340  1.00  0.00    -0.256 C  
HETATM   18  C   UNL     1      -9.923  10.221  64.906  1.00  0.00    -0.393 C  
HETATM   19  C   UNL     1      -8.056   9.653  66.412  1.00  0.00    -0.112 C  
HETATM   20  C   UNL     1     -10.120   8.304  66.551  1.00  0.00    -0.303 C  
ENDBRANCH  10  17
ENDBRANCH   4   5
ENDBRANCH   2   4
BRANCH   2  21
HETATM   21  S   UNL     1     -12.160   7.126  70.131  1.00  0.00     0.196 SA 
BRANCH  21  22
HETATM   22  C   UNL     1     -10.911   5.858  70.343  1.00  0.00    -0.306 A  
HETATM   23  C   UNL     1     -10.207   5.275  69.287  1.00  0.00    -0.301 A  
HETATM   24  C   UNL     1     -10.756   5.326  71.613  1.00  0.00    -0.227 A  
HETATM   25  H   UNL     1      -8.006   2.177  70.160  1.00  0.00     0.000 HD 
HETATM   26  O   UNL     1      -8.463   2.549  70.906  1.00  0.00    -0.052 OA 
HETATM   27  C   UNL     1      -9.924   4.222  71.877  1.00  0.00    -0.255 A  
HETATM   28  C   UNL     1      -9.348   4.180  69.450  1.00  0.00    -0.238 A  
HETATM   29  C   UNL     1      -9.238   3.663  70.758  1.00  0.00    -0.131 A  
BRANCH  27  30
HETATM   30  C   UNL     1      -9.868   3.657  73.319  1.00  0.00    -0.169 C  
HETATM   31  C   UNL     1      -8.418   3.517  73.869  1.00  0.00    -0.082 C  
HETATM   32  C   UNL     1     -10.603   4.602  74.291  1.00  0.00    -0.328 C  
HETATM   33  C   UNL     1     -10.461   2.233  73.396  1.00  0.00    -0.222 C  
ENDBRANCH  27  30
BRANCH  28  34
HETATM   34  C   UNL     1      -8.563   3.621  68.229  1.00  0.00    -0.117 C  
HETATM   35  C   UNL     1      -8.874   4.347  66.885  1.00  0.00    -0.114 C  
HETATM   36  C   UNL     1      -8.883   2.131  67.973  1.00  0.00    -0.155 C  
HETATM   37  C   UNL     1      -7.047   3.800  68.458  1.00  0.00    -0.051 C  
ENDBRANCH  28  34
ENDBRANCH  21  22
ENDBRANCH   2  21
TORSDOF 8
ENDMDL
MODEL      105
REMARK 921   NORMALIZED FREE ENERGY PREDICTED BY IDOCK:   -4.68 KCAL/MOL
REMARK 922        TOTAL FREE ENERGY PREDICTED BY IDOCK:   -7.47 KCAL/MOL
REMARK 923 INTER-LIGAND FREE ENERGY PREDICTED BY IDOCK:   -9.15 KCAL/MOL
REMARK 924 INTRA-LIGAND FREE ENERGY PREDICTED BY IDOCK:    1.68 KCAL/MOL
REMARK 927      BINDING AFFINITY PREDICTED BY RF-SCORE:    0.00 PKD
ROOT
HETATM    1  C   UNL     1      -7.953  11.101  66.608  1.00  0.00    -0.159 C  
HETATM    2  C   UNL     1      -8.071  11.661  68.037  1.00  0.00    -0.139 C  
HETATM    3  C   UNL     1      -9.557  11.920  68.332  1.00  0.00    -0.196 C  
ENDROOT
BRANCH   2   4
HETATM    4  S   UNL     1      -7.176  13.274  68.114  1.00  0.00    -0.130 SA 
BRANCH   4   5
HETATM    5  C   UNL     1      -8.355  14.479  67.511  1.00  0.00    -0.188 A  
HETATM    6  C   UNL     1      -9.989  16.443  66.373  1.00  0.00    -0.303 A  
HETATM    7  O   UNL     1     -10.769  17.358  65.727  1.00  0.00    -0.361 OA 
HETATM    8  H   UNL     1     -11.442  17.090  65.111  1.00  0.00     0.000 HD 
HETATM    9  C   UNL     1      -8.163  15.820  67.824  1.00  0.00    -0.154 A  
HETATM   10  C   UNL     1     -10.217  15.094  66.026  1.00  0.00    -0.325 A  
HETATM   11  C   UNL     1      -9.390  14.152  66.643  1.00  0.00    -0.299 A  
HETATM   12  C   UNL     1      -8.982  16.845  67.296  1.00  0.00    -0.212 A  
BRANCH  12  13
HETATM   13  C   UNL     1      -8.711  18.313  67.715  1.00  0.00    -0.263 C  
HETATM   14  C   UNL     1      -7.459  18.418  68.615  1.00  0.00    -0.314 C  
HETATM   15  C   UNL     1      -9.940  18.910  68.432  1.00  0.00    -0.447 C  
HETATM   16  C   UNL     1      -8.415  19.256  66.513  1.00  0.00    -0.336 C  
ENDBRANCH  12  13
BRANCH  10  17
HETATM   17  C   UNL     1     -11.313  14.614  65.038  1.00  0.00    -0.390 C  
HETATM   18  C   UNL     1     -10.834  13.397  64.218  1.00  0.00    -0.383 C  
HETATM   19  C   UNL     1     -12.635  14.151  65.723  1.00  0.00    -0.475 C  
HETATM   20  C   UNL     1     -11.715  15.770  64.100  1.00  0.00    -0.070 C  
ENDBRANCH  10  17
ENDBRANCH   4   5
ENDBRANCH   2   4
BRANCH   2  21
HETATM   21  S   UNL     1      -7.474  10.364  69.207  1.00  0.00    -0.133 SA 
BRANCH  21  22
HETATM   22  C   UNL     1      -8.816   9.181  69.305  1.00  0.00    -0.144 A  
HETATM   23  C   UNL     1      -9.777   9.176  70.319  1.00  0.00    -0.248 A  
HETATM   24  C   UNL     1      -8.800   8.125  68.407  1.00  0.00    -0.133 A  
HETATM   25  H   UNL     1     -12.164   6.095  70.445  1.00  0.00     0.000 HD 
HETATM   26  O   UNL     1     -11.530   6.065  69.737  1.00  0.00    -0.395 OA 
HETATM   27  C   UNL     1      -9.706   7.051  68.482  1.00  0.00    -0.141 A  
HETATM   28  C   UNL     1     -10.726   8.157  70.472  1.00  0.00    -0.233 A  
HETATM   29  C   UNL     1     -10.656   7.096  69.544  1.00  0.00    -0.234 A  
BRANCH  27  30
HETATM   30  C   UNL     1      -9.564   5.884  67.472  1.00  0.00    -0.114 C  
HETATM   31  C   UNL     1     -10.842   5.657  66.611  1.00  0.00    -0.280 C  
HETATM   32  C   UNL     1      -8.426   6.176  66.475  1.00  0.00    -0.119 C  
HETATM   33  C   UNL     1      -9.325   4.537  68.189  1.00  0.00    -0.186 C  
ENDBRANCH  27  30
BRANCH  28  34
HETATM   34  C   UNL     1     -11.793   8.252  71.600  1.00  0.00    -0.345 C  
HETATM   35  C   UNL     1     -13.077   7.411  71.336  1.00  0.00    -0.401 C  
HETATM   36  C   UNL     1     -12.286   9.702  71.804  1.00  0.00    -0.474 C  
HETATM   37  C   UNL     1     -11.204   7.709  72.920  1.00  0.00    -0.426 C  
ENDBRANCH  28  34
ENDBRANCH  21  22
ENDBRANCH   2  21
TORSDOF 8
ENDMDL
MODEL      106
REMARK 921   NORMALIZED FREE ENERGY PREDICTED BY IDOCK:   -4.68 KCAL/MOL
REMARK 922        TOTAL FREE ENERGY PREDICTED BY IDOCK:   -7.46 KCAL/MOL
REMARK 923 INTER-LIGAND FREE ENERGY PREDICTED BY IDOCK:   -7.20 KCAL/MOL
REMARK 924 INTRA-LIGAND FREE ENERGY PREDICTED BY IDOCK:   -0.25 KCAL/MOL
REMARK 927      BINDING AFFINITY PREDICTED BY RF-SCORE:    0.00 PKD
ROOT
HETATM    1  C   UNL     1     -12.027   9.806  71.372  1.00  0.00    -0.493 C  
HETATM    2  C   UNL     1     -11.219   8.496  71.411  1.00  0.00    -0.266 C  
HETATM    3  C   UNL     1     -11.327   7.905  72.826  1.00  0.00    -0.453 C  
ENDROOT
BRANCH   2   4
HETATM    4  S   UNL     1      -9.445   8.886  71.080  1.00  0.00    -0.279 SA 
BRANCH   4   5
HETATM    5  C   UNL     1      -9.430   9.577  69.429  1.00  0.00    -0.176 A  
HETATM    6  C   UNL     1      -9.215  10.858  66.952  1.00  0.00    -0.161 A  
HETATM    7  O   UNL     1      -9.008  11.473  65.750  1.00  0.00    -0.303 OA 
HETATM    8  H   UNL     1      -8.452  11.085  65.084  1.00  0.00     0.000 HD 
HETATM    9  C   UNL     1     -10.103  10.771  69.194  1.00  0.00    -0.224 A  
HETATM   10  C   UNL     1      -8.513   9.649  67.147  1.00  0.00    -0.131 A  
HETATM   11  C   UNL     1      -8.676   9.038  68.392  1.00  0.00    -0.130 A  
HETATM   12  C   UNL     1     -10.048  11.440  67.950  1.00  0.00    -0.198 A  
BRANCH  12  13
HETATM   13  C   UNL     1     -10.846  12.756  67.769  1.00  0.00    -0.248 C  
HETATM   14  C   UNL     1     -11.848  12.647  66.596  1.00  0.00    -0.449 C  
HETATM   15  C   UNL     1      -9.891  13.947  67.551  1.00  0.00    -0.236 C  
HETATM   16  C   UNL     1     -11.720  13.126  69.002  1.00  0.00    -0.367 C  
ENDBRANCH  12  13
BRANCH  10  17
HETATM   17  C   UNL     1      -7.609   8.976  66.081  1.00  0.00    -0.095 C  
HETATM   18  C   UNL     1      -6.547   9.960  65.545  1.00  0.00    -0.092 C  
HETATM   19  C   UNL     1      -6.803   7.750  66.606  1.00  0.00    -0.070 C  
HETATM   20  C   UNL     1      -8.475   8.438  64.924  1.00  0.00    -0.141 C  
ENDBRANCH  10  17
ENDBRANCH   4   5
ENDBRANCH   2   4
BRANCH   2  21
HETATM   21  S   UNL     1     -12.004   7.309  70.236  1.00  0.00     0.083 SA 
BRANCH  21  22
HETATM   22  C   UNL     1     -10.829   5.965  70.085  1.00  0.00    -0.332 A  
HETATM   23  C   UNL     1     -10.239   5.577  68.880  1.00  0.00    -0.284 A  
HETATM   24  C   UNL     1     -10.619   5.177  71.206  1.00  0.00    -0.203 A  
HETATM   25  H   UNL     1      -8.187   2.262  68.930  1.00  0.00     0.000 HD 
HETATM   26  O   UNL     1      -8.565   2.495  69.770  1.00  0.00    -0.052 OA 
HETATM   27  C   UNL     1      -9.843   4.003  71.173  1.00  0.00    -0.236 A  
HETATM   28  C   UNL     1      -9.444   4.431  68.749  1.00  0.00    -0.227 A  
HETATM   29  C   UNL     1      -9.276   3.652  69.913  1.00  0.00    -0.144 A  
BRANCH  27  30
HETATM   30  C   UNL     1      -9.723   3.152  72.463  1.00  0.00    -0.206 C  
HETATM   31  C   UNL     1     -10.266   1.702  72.297  1.00  0.00    -0.224 C  
HETATM   32  C   UNL     1      -8.243   3.007  72.872  1.00  0.00    -0.075 C  
HETATM   33  C   UNL     1     -10.548   3.754  73.621  1.00  0.00    -0.285 C  
ENDBRANCH  27  30
BRANCH  28  34
HETATM   34  C   UNL     1      -8.784   4.097  67.380  1.00  0.00    -0.115 C  
HETATM   35  C   UNL     1      -7.232   4.236  67.370  1.00  0.00    -0.068 C  
HETATM   36  C   UNL     1      -9.287   5.031  66.257  1.00  0.00    -0.151 C  
HETATM   37  C   UNL     1      -9.073   2.626  67.009  1.00  0.00    -0.171 C  
ENDBRANCH  28  34
ENDBRANCH  21  22
ENDBRANCH   2  21
TORSDOF 8
ENDMDL
MODEL      107
REMARK 921   NORMALIZED FREE ENERGY PREDICTED BY IDOCK:   -4.67 KCAL/MOL
REMARK 922        TOTAL FREE ENERGY PREDICTED BY IDOCK:   -7.46 KCAL/MOL
REMARK 923 INTER-LIGAND FREE ENERGY PREDICTED BY IDOCK:   -7.16 KCAL/MOL
REMARK 924 INTRA-LIGAND FREE ENERGY PREDICTED BY IDOCK:   -0.30 KCAL/MOL
REMARK 927      BINDING AFFINITY PREDICTED BY RF-SCORE:    0.00 PKD
ROOT
HETATM    1  C   UNL     1     -11.128   7.807  72.941  1.00  0.00    -0.457 C  
HETATM    2  C   UNL     1     -11.061   8.425  71.533  1.00  0.00    -0.266 C  
HETATM    3  C   UNL     1     -11.838   9.752  71.553  1.00  0.00    -0.476 C  
ENDROOT
BRANCH   2   4
HETATM    4  S   UNL     1     -11.895   7.284  70.346  1.00  0.00    -0.068 SA 
BRANCH   4   5
HETATM    5  C   UNL     1     -10.826   5.850  70.265  1.00  0.00    -0.320 A  
HETATM    6  C   UNL     1      -9.403   3.447  70.113  1.00  0.00    -0.174 A  
HETATM    7  O   UNL     1      -8.760   2.253  69.952  1.00  0.00    -0.052 OA 
HETATM    8  H   UNL     1      -8.354   2.016  69.126  1.00  0.00     0.000 HD 
HETATM    9  C   UNL     1     -10.742   5.012  71.372  1.00  0.00    -0.099 A  
HETATM   10  C   UNL     1      -9.465   4.266  68.965  1.00  0.00    -0.242 A  
HETATM   11  C   UNL     1     -10.166   5.466  69.104  1.00  0.00    -0.302 A  
HETATM   12  C   UNL     1     -10.011   3.802  71.351  1.00  0.00    -0.178 A  
BRANCH  12  13
HETATM   13  C   UNL     1      -9.952   2.939  72.637  1.00  0.00    -0.221 C  
HETATM   14  C   UNL     1     -10.824   3.544  73.760  1.00  0.00    -0.317 C  
HETATM   15  C   UNL     1      -8.494   2.776  73.117  1.00  0.00    -0.075 C  
HETATM   16  C   UNL     1     -10.503   1.496  72.442  1.00  0.00    -0.225 C  
ENDBRANCH  12  13
BRANCH  10  17
HETATM   17  C   UNL     1      -8.805   3.921  67.604  1.00  0.00    -0.133 C  
HETATM   18  C   UNL     1      -7.266   4.011  67.690  1.00  0.00    -0.067 C  
HETATM   19  C   UNL     1      -9.103   2.480  67.093  1.00  0.00    -0.172 C  
HETATM   20  C   UNL     1      -9.338   4.868  66.510  1.00  0.00    -0.142 C  
ENDBRANCH  10  17
ENDBRANCH   4   5
ENDBRANCH   2   4
BRANCH   2  21
HETATM   21  S   UNL     1      -9.293   8.804  71.163  1.00  0.00    -0.256 SA 
BRANCH  21  22
HETATM   22  C   UNL     1      -9.299   9.425  69.482  1.00  0.00    -0.180 A  
HETATM   23  C   UNL     1      -8.491   8.917  68.462  1.00  0.00    -0.129 A  
HETATM   24  C   UNL     1     -10.036  10.571  69.230  1.00  0.00    -0.233 A  
HETATM   25  H   UNL     1      -8.424  10.932  65.124  1.00  0.00     0.000 HD 
HETATM   26  O   UNL     1      -8.990  11.305  65.790  1.00  0.00    -0.205 OA 
HETATM   27  C   UNL     1      -9.996  11.243  67.994  1.00  0.00    -0.191 A  
HETATM   28  C   UNL     1      -8.391   9.509  67.196  1.00  0.00    -0.131 A  
HETATM   29  C   UNL     1      -9.146  10.684  66.996  1.00  0.00    -0.144 A  
BRANCH  27  30
HETATM   30  C   UNL     1     -10.804  12.555  67.832  1.00  0.00    -0.251 C  
HETATM   31  C   UNL     1     -11.764  12.839  69.026  1.00  0.00    -0.371 C  
HETATM   32  C   UNL     1      -9.851  13.765  67.758  1.00  0.00    -0.234 C  
HETATM   33  C   UNL     1     -11.720  12.510  66.590  1.00  0.00    -0.453 C  
ENDBRANCH  27  30
BRANCH  28  34
HETATM   34  C   UNL     1      -7.503   8.852  66.100  1.00  0.00    -0.090 C  
HETATM   35  C   UNL     1      -6.725   7.590  66.582  1.00  0.00    -0.058 C  
HETATM   36  C   UNL     1      -6.424   9.824  65.575  1.00  0.00    -0.084 C  
HETATM   37  C   UNL     1      -8.390   8.371  64.932  1.00  0.00    -0.159 C  
ENDBRANCH  28  34
ENDBRANCH  21  22
ENDBRANCH   2  21
TORSDOF 8
ENDMDL
MODEL      108
REMARK 921   NORMALIZED FREE ENERGY PREDICTED BY IDOCK:   -4.67 KCAL/MOL
REMARK 922        TOTAL FREE ENERGY PREDICTED BY IDOCK:   -7.45 KCAL/MOL
REMARK 923 INTER-LIGAND FREE ENERGY PREDICTED BY IDOCK:   -8.28 KCAL/MOL
REMARK 924 INTRA-LIGAND FREE ENERGY PREDICTED BY IDOCK:    0.83 KCAL/MOL
REMARK 927      BINDING AFFINITY PREDICTED BY RF-SCORE:    0.00 PKD
ROOT
HETATM    1  C   UNL     1      -8.647   9.250  67.506  1.00  0.00    -0.116 C  
HETATM    2  C   UNL     1      -8.832   9.940  68.869  1.00  0.00    -0.145 C  
HETATM    3  C   UNL     1      -8.495  11.431  68.704  1.00  0.00    -0.131 C  
ENDROOT
BRANCH   2   4
HETATM    4  S   UNL     1      -7.637   9.206  70.070  1.00  0.00    -0.095 SA 
BRANCH   4   5
HETATM    5  C   UNL     1      -8.189   7.518  70.289  1.00  0.00    -0.128 A  
HETATM    6  C   UNL     1      -9.323   4.974  70.551  1.00  0.00    -0.156 A  
HETATM    7  O   UNL     1      -9.912   3.742  70.584  1.00  0.00    -0.149 OA 
HETATM    8  H   UNL     1      -9.779   3.111  69.887  1.00  0.00     0.000 HD 
HETATM    9  C   UNL     1      -8.954   7.201  71.407  1.00  0.00    -0.135 A  
HETATM   10  C   UNL     1      -8.557   5.253  69.400  1.00  0.00    -0.102 A  
HETATM   11  C   UNL     1      -7.992   6.529  69.332  1.00  0.00    -0.114 A  
HETATM   12  C   UNL     1      -9.523   5.921  71.597  1.00  0.00    -0.166 A  
BRANCH  12  13
HETATM   13  C   UNL     1     -10.343   5.647  72.883  1.00  0.00    -0.224 C  
HETATM   14  C   UNL     1     -10.343   6.877  73.820  1.00  0.00    -0.409 C  
HETATM   15  C   UNL     1      -9.799   4.407  73.623  1.00  0.00    -0.161 C  
HETATM   16  C   UNL     1     -11.848   5.358  72.610  1.00  0.00    -0.145 C  
ENDBRANCH  12  13
BRANCH  10  17
HETATM   17  C   UNL     1      -8.303   4.245  68.247  1.00  0.00    -0.098 C  
HETATM   18  C   UNL     1      -7.299   4.810  67.220  1.00  0.00    -0.077 C  
HETATM   19  C   UNL     1      -7.696   2.886  68.708  1.00  0.00    -0.047 C  
HETATM   20  C   UNL     1      -9.636   3.892  67.558  1.00  0.00    -0.212 C  
ENDBRANCH  10  17
ENDBRANCH   4   5
ENDBRANCH   2   4
BRANCH   2  21
HETATM   21  S   UNL     1     -10.612   9.805  69.337  1.00  0.00    -0.239 SA 
BRANCH  21  22
HETATM   22  C   UNL     1     -11.283  11.445  69.068  1.00  0.00    -0.256 A  
HETATM   23  C   UNL     1     -11.151  12.154  67.872  1.00  0.00    -0.295 A  
HETATM   24  C   UNL     1     -11.826  12.097  70.164  1.00  0.00    -0.368 A  
HETATM   25  H   UNL     1     -12.272  15.888  67.925  1.00  0.00     0.000 HD 
HETATM   26  O   UNL     1     -12.383  15.440  68.755  1.00  0.00    -0.117 OA 
HETATM   27  C   UNL     1     -12.241  13.441  70.119  1.00  0.00    -0.385 A  
HETATM   28  C   UNL     1     -11.544  13.491  67.725  1.00  0.00    -0.374 A  
HETATM   29  C   UNL     1     -12.073  14.115  68.874  1.00  0.00    -0.304 A  
BRANCH  27  30
HETATM   30  C   UNL     1     -12.773  14.102  71.417  1.00  0.00    -0.439 C  
HETATM   31  C   UNL     1     -13.975  15.060  71.171  1.00  0.00    -0.451 C  
HETATM   32  C   UNL     1     -13.282  13.024  72.395  1.00  0.00    -0.487 C  
HETATM   33  C   UNL     1     -11.697  14.980  72.091  1.00  0.00    -0.437 C  
ENDBRANCH  27  30
BRANCH  28  34
HETATM   34  C   UNL     1     -11.407  14.192  66.343  1.00  0.00    -0.342 C  
HETATM   35  C   UNL     1     -10.975  15.687  66.428  1.00  0.00    -0.197 C  
HETATM   36  C   UNL     1     -12.741  14.194  65.565  1.00  0.00    -0.468 C  
HETATM   37  C   UNL     1     -10.314  13.490  65.509  1.00  0.00    -0.309 C  
ENDBRANCH  28  34
ENDBRANCH  21  22
ENDBRANCH   2  21
TORSDOF 8
ENDMDL
MODEL      109
REMARK 921   NORMALIZED FREE ENERGY PREDICTED BY IDOCK:   -4.66 KCAL/MOL
REMARK 922        TOTAL FREE ENERGY PREDICTED BY IDOCK:   -7.44 KCAL/MOL
REMARK 923 INTER-LIGAND FREE ENERGY PREDICTED BY IDOCK:   -8.05 KCAL/MOL
REMARK 924 INTRA-LIGAND FREE ENERGY PREDICTED BY IDOCK:    0.61 KCAL/MOL
REMARK 927      BINDING AFFINITY PREDICTED BY RF-SCORE:    0.00 PKD
ROOT
HETATM    1  C   UNL     1      -6.957   9.392  68.571  1.00  0.00    -0.066 C  
HETATM    2  C   UNL     1      -7.915  10.251  67.726  1.00  0.00    -0.102 C  
HETATM    3  C   UNL     1      -7.091  10.971  66.646  1.00  0.00    -0.139 C  
ENDROOT
BRANCH   2   4
HETATM    4  S   UNL     1      -8.683  11.527  68.816  1.00  0.00     0.027 SA 
BRANCH   4   5
HETATM    5  C   UNL     1      -9.051  12.897  67.725  1.00  0.00    -0.197 A  
HETATM    6  C   UNL     1      -9.883  15.068  66.169  1.00  0.00    -0.301 A  
HETATM    7  O   UNL     1     -10.303  16.179  65.496  1.00  0.00    -0.380 OA 
HETATM    8  H   UNL     1      -9.939  17.037  65.680  1.00  0.00     0.000 HD 
HETATM    9  C   UNL     1      -9.998  12.721  66.722  1.00  0.00    -0.237 A  
HETATM   10  C   UNL     1      -8.922  15.292  67.177  1.00  0.00    -0.227 A  
HETATM   11  C   UNL     1      -8.523  14.170  67.906  1.00  0.00    -0.167 A  
HETATM   12  C   UNL     1     -10.429  13.781  65.892  1.00  0.00    -0.300 A  
BRANCH  12  13
HETATM   13  C   UNL     1     -11.473  13.491  64.784  1.00  0.00    -0.365 C  
HETATM   14  C   UNL     1     -12.647  12.646  65.327  1.00  0.00    -0.388 C  
HETATM   15  C   UNL     1     -10.811  12.783  63.583  1.00  0.00    -0.361 C  
HETATM   16  C   UNL     1     -12.140  14.774  64.209  1.00  0.00    -0.415 C  
ENDBRANCH  12  13
BRANCH  10  17
HETATM   17  C   UNL     1      -8.293  16.674  67.499  1.00  0.00    -0.189 C  
HETATM   18  C   UNL     1      -7.254  16.565  68.636  1.00  0.00    -0.186 C  
HETATM   19  C   UNL     1      -7.528  17.323  66.306  1.00  0.00    -0.354 C  
HETATM   20  C   UNL     1      -9.400  17.678  67.877  1.00  0.00    -0.268 C  
ENDBRANCH  10  17
ENDBRANCH   4   5
ENDBRANCH   2   4
BRANCH   2  21
HETATM   21  S   UNL     1      -9.097   9.115  66.878  1.00  0.00    -0.139 SA 
BRANCH  21  22
HETATM   22  C   UNL     1      -9.648   7.987  68.156  1.00  0.00    -0.153 A  
HETATM   23  C   UNL     1     -10.496   8.351  69.204  1.00  0.00    -0.218 A  
HETATM   24  C   UNL     1      -9.071   6.727  68.184  1.00  0.00    -0.123 A  
HETATM   25  H   UNL     1     -10.974   5.733  72.054  1.00  0.00     0.000 HD 
HETATM   26  O   UNL     1     -10.396   5.445  71.357  1.00  0.00    -0.213 OA 
HETATM   27  C   UNL     1      -9.302   5.808  69.225  1.00  0.00    -0.148 A  
HETATM   28  C   UNL     1     -10.795   7.505  70.280  1.00  0.00    -0.257 A  
HETATM   29  C   UNL     1     -10.168   6.241  70.271  1.00  0.00    -0.196 A  
BRANCH  27  30
HETATM   30  C   UNL     1      -8.557   4.449  69.199  1.00  0.00    -0.106 C  
HETATM   31  C   UNL     1      -9.516   3.222  69.212  1.00  0.00    -0.199 C  
HETATM   32  C   UNL     1      -7.721   4.322  67.910  1.00  0.00    -0.079 C  
HETATM   33  C   UNL     1      -7.663   4.266  70.445  1.00  0.00    -0.049 C  
ENDBRANCH  27  30
BRANCH  28  34
HETATM   34  C   UNL     1     -11.788   7.972  71.382  1.00  0.00    -0.326 C  
HETATM   35  C   UNL     1     -12.397   9.385  71.135  1.00  0.00    -0.386 C  
HETATM   36  C   UNL     1     -11.112   8.054  72.769  1.00  0.00    -0.448 C  
HETATM   37  C   UNL     1     -12.991   7.005  71.442  1.00  0.00    -0.395 C  
ENDBRANCH  28  34
ENDBRANCH  21  22
ENDBRANCH   2  21
TORSDOF 8
ENDMDL
MODEL      110
REMARK 921   NORMALIZED FREE ENERGY PREDICTED BY IDOCK:   -4.65 KCAL/MOL
REMARK 922        TOTAL FREE ENERGY PREDICTED BY IDOCK:   -7.42 KCAL/MOL
REMARK 923 INTER-LIGAND FREE ENERGY PREDICTED BY IDOCK:   -8.25 KCAL/MOL
REMARK 924 INTRA-LIGAND FREE ENERGY PREDICTED BY IDOCK:    0.83 KCAL/MOL
REMARK 927      BINDING AFFINITY PREDICTED BY RF-SCORE:    0.00 PKD
ROOT
HETATM    1  C   UNL     1      -8.935   9.068  67.314  1.00  0.00    -0.139 C  
HETATM    2  C   UNL     1      -8.924   9.818  68.658  1.00  0.00    -0.130 C  
HETATM    3  C   UNL     1      -8.489  11.269  68.397  1.00  0.00    -0.153 C  
ENDROOT
BRANCH   2   4
HETATM    4  S   UNL     1      -7.674   9.029  69.765  1.00  0.00    -0.084 SA 
BRANCH   4   5
HETATM    5  C   UNL     1      -8.356   7.419  70.148  1.00  0.00    -0.136 A  
HETATM    6  C   UNL     1      -9.146   4.822  70.824  1.00  0.00    -0.130 A  
HETATM    7  O   UNL     1      -9.487   3.568  71.244  1.00  0.00    -0.134 OA 
HETATM    8  H   UNL     1      -9.910   3.425  72.084  1.00  0.00     0.000 HD 
HETATM    9  C   UNL     1      -8.108   6.360  69.280  1.00  0.00    -0.111 A  
HETATM   10  C   UNL     1      -9.416   5.865  71.734  1.00  0.00    -0.168 A  
HETATM   11  C   UNL     1      -9.024   7.145  71.336  1.00  0.00    -0.135 A  
HETATM   12  C   UNL     1      -8.514   5.036  69.565  1.00  0.00    -0.091 A  
BRANCH  12  13
HETATM   13  C   UNL     1      -8.216   3.921  68.532  1.00  0.00    -0.083 C  
HETATM   14  C   UNL     1      -9.506   3.171  68.127  1.00  0.00    -0.217 C  
HETATM   15  C   UNL     1      -7.170   2.930  69.085  1.00  0.00    -0.045 C  
HETATM   16  C   UNL     1      -7.632   4.456  67.192  1.00  0.00    -0.085 C  
ENDBRANCH  12  13
BRANCH  10  17
HETATM   17  C   UNL     1     -10.116   5.675  73.106  1.00  0.00    -0.200 C  
HETATM   18  C   UNL     1      -9.342   4.679  73.996  1.00  0.00    -0.121 C  
HETATM   19  C   UNL     1     -10.229   6.978  73.954  1.00  0.00    -0.388 C  
HETATM   20  C   UNL     1     -11.564   5.192  72.892  1.00  0.00    -0.282 C  
ENDBRANCH  10  17
ENDBRANCH   4   5
ENDBRANCH   2   4
BRANCH   2  21
HETATM   21  S   UNL     1     -10.652   9.848  69.306  1.00  0.00    -0.235 SA 
BRANCH  21  22
HETATM   22  C   UNL     1     -11.227  11.517  69.002  1.00  0.00    -0.262 A  
HETATM   23  C   UNL     1     -11.054  12.193  67.793  1.00  0.00    -0.302 A  
HETATM   24  C   UNL     1     -11.733  12.222  70.084  1.00  0.00    -0.280 A  
HETATM   25  H   UNL     1     -11.958  15.986  67.768  1.00  0.00     0.000 HD 
HETATM   26  O   UNL     1     -12.096  15.561  68.606  1.00  0.00    -0.271 OA 
HETATM   27  C   UNL     1     -12.071  13.586  70.011  1.00  0.00    -0.411 A  
HETATM   28  C   UNL     1     -11.368  13.547  67.618  1.00  0.00    -0.326 A  
HETATM   29  C   UNL     1     -11.862  14.224  68.753  1.00  0.00    -0.341 A  
BRANCH  27  30
HETATM   30  C   UNL     1     -12.566  14.302  71.293  1.00  0.00    -0.436 C  
HETATM   31  C   UNL     1     -13.070  13.319  72.391  1.00  0.00    -0.443 C  
HETATM   32  C   UNL     1     -11.416  15.102  71.936  1.00  0.00    -0.457 C  
HETATM   33  C   UNL     1     -13.770  15.223  71.002  1.00  0.00    -0.452 C  
ENDBRANCH  27  30
BRANCH  28  34
HETATM   34  C   UNL     1     -11.190  14.212  66.223  1.00  0.00    -0.329 C  
HETATM   35  C   UNL     1     -10.455  13.316  65.180  1.00  0.00    -0.346 C  
HETATM   36  C   UNL     1     -10.357  15.510  66.307  1.00  0.00    -0.312 C  
HETATM   37  C   UNL     1     -12.574  14.515  65.609  1.00  0.00    -0.218 C  
ENDBRANCH  28  34
ENDBRANCH  21  22
ENDBRANCH   2  21
TORSDOF 8
ENDMDL
MODEL      111
REMARK 921   NORMALIZED FREE ENERGY PREDICTED BY IDOCK:   -4.63 KCAL/MOL
REMARK 922        TOTAL FREE ENERGY PREDICTED BY IDOCK:   -7.39 KCAL/MOL
REMARK 923 INTER-LIGAND FREE ENERGY PREDICTED BY IDOCK:   -8.00 KCAL/MOL
REMARK 924 INTRA-LIGAND FREE ENERGY PREDICTED BY IDOCK:    0.61 KCAL/MOL
REMARK 927      BINDING AFFINITY PREDICTED BY RF-SCORE:    0.00 PKD
ROOT
HETATM    1  C   UNL     1      -7.015   9.272  68.097  1.00  0.00    -0.076 C  
HETATM    2  C   UNL     1      -8.091  10.164  67.453  1.00  0.00    -0.114 C  
HETATM    3  C   UNL     1      -7.448  10.924  66.281  1.00  0.00    -0.129 C  
ENDROOT
BRANCH   2   4
HETATM    4  S   UNL     1      -8.660  11.399  68.701  1.00  0.00    -0.083 SA 
BRANCH   4   5
HETATM    5  C   UNL     1      -9.208  12.804  67.737  1.00  0.00    -0.199 A  
HETATM    6  C   UNL     1      -9.812  14.969  66.072  1.00  0.00    -0.319 A  
HETATM    7  O   UNL     1     -10.092  15.964  65.179  1.00  0.00    -0.451 OA 
HETATM    8  H   UNL     1     -10.713  15.834  64.471  1.00  0.00     0.000 HD 
HETATM    9  C   UNL     1      -8.589  14.034  67.931  1.00  0.00    -0.181 A  
HETATM   10  C   UNL     1     -10.462  13.739  65.838  1.00  0.00    -0.300 A  
HETATM   11  C   UNL     1     -10.143  12.699  66.714  1.00  0.00    -0.243 A  
HETATM   12  C   UNL     1      -8.883  15.164  67.134  1.00  0.00    -0.236 A  
BRANCH  12  13
HETATM   13  C   UNL     1      -8.161  16.503  67.433  1.00  0.00    -0.183 C  
HETATM   14  C   UNL     1      -7.215  16.902  66.278  1.00  0.00    -0.210 C  
HETATM   15  C   UNL     1      -7.381  16.415  68.761  1.00  0.00    -0.203 C  
HETATM   16  C   UNL     1      -9.132  17.710  67.585  1.00  0.00    -0.241 C  
ENDBRANCH  12  13
BRANCH  10  17
HETATM   17  C   UNL     1     -11.491  13.491  64.703  1.00  0.00    -0.381 C  
HETATM   18  C   UNL     1     -12.669  12.624  65.195  1.00  0.00    -0.329 C  
HETATM   19  C   UNL     1     -12.145  14.787  64.137  1.00  0.00    -0.323 C  
HETATM   20  C   UNL     1     -10.794  12.819  63.502  1.00  0.00    -0.281 C  
ENDBRANCH  10  17
ENDBRANCH   4   5
ENDBRANCH   2   4
BRANCH   2  21
HETATM   21  S   UNL     1      -9.405   9.064  66.766  1.00  0.00    -0.178 SA 
BRANCH  21  22
HETATM   22  C   UNL     1      -9.864   7.992  68.127  1.00  0.00    -0.170 A  
HETATM   23  C   UNL     1     -10.651   8.398  69.207  1.00  0.00    -0.193 A  
HETATM   24  C   UNL     1      -9.272   6.740  68.176  1.00  0.00    -0.121 A  
HETATM   25  H   UNL     1     -10.924   5.911  72.198  1.00  0.00     0.000 HD 
HETATM   26  O   UNL     1     -10.386   5.596  71.481  1.00  0.00    -0.206 OA 
HETATM   27  C   UNL     1      -9.428   5.869  69.271  1.00  0.00    -0.154 A  
HETATM   28  C   UNL     1     -10.873   7.600  70.337  1.00  0.00    -0.252 A  
HETATM   29  C   UNL     1     -10.234   6.343  70.348  1.00  0.00    -0.192 A  
BRANCH  27  30
HETATM   30  C   UNL     1      -8.671   4.517  69.262  1.00  0.00    -0.117 C  
HETATM   31  C   UNL     1      -8.123   4.127  67.857  1.00  0.00    -0.090 C  
HETATM   32  C   UNL     1      -7.444   4.585  70.193  1.00  0.00    -0.050 C  
HETATM   33  C   UNL     1      -9.593   3.346  69.667  1.00  0.00    -0.160 C  
ENDBRANCH  27  30
BRANCH  28  34
HETATM   34  C   UNL     1     -11.803   8.110  71.476  1.00  0.00    -0.332 C  
HETATM   35  C   UNL     1     -12.228   9.602  71.332  1.00  0.00    -0.471 C  
HETATM   36  C   UNL     1     -11.125   8.008  72.860  1.00  0.00    -0.399 C  
HETATM   37  C   UNL     1     -13.118   7.301  71.474  1.00  0.00    -0.434 C  
ENDBRANCH  28  34
ENDBRANCH  21  22
ENDBRANCH   2  21
TORSDOF 8
ENDMDL
MODEL      112
REMARK 921   NORMALIZED FREE ENERGY PREDICTED BY IDOCK:   -4.63 KCAL/MOL
REMARK 922        TOTAL FREE ENERGY PREDICTED BY IDOCK:   -7.39 KCAL/MOL
REMARK 923 INTER-LIGAND FREE ENERGY PREDICTED BY IDOCK:   -7.24 KCAL/MOL
REMARK 924 INTRA-LIGAND FREE ENERGY PREDICTED BY IDOCK:   -0.15 KCAL/MOL
REMARK 927      BINDING AFFINITY PREDICTED BY RF-SCORE:    0.00 PKD
ROOT
HETATM    1  C   UNL     1     -10.776  12.922  68.759  1.00  0.00    -0.249 C  
HETATM    2  C   UNL     1      -9.977  12.154  67.691  1.00  0.00    -0.197 C  
HETATM    3  C   UNL     1      -9.286  13.179  66.777  1.00  0.00    -0.244 C  
ENDROOT
BRANCH   2   4
HETATM    4  S   UNL     1     -11.155  11.167  66.668  1.00  0.00    -0.105 SA 
BRANCH   4   5
HETATM    5  C   UNL     1     -10.275   9.654  66.293  1.00  0.00    -0.216 A  
HETATM    6  C   UNL     1      -8.670   7.406  65.855  1.00  0.00    -0.140 A  
HETATM    7  O   UNL     1      -7.870   6.304  65.742  1.00  0.00    -0.094 OA 
HETATM    8  H   UNL     1      -8.007   5.535  66.283  1.00  0.00     0.000 HD 
HETATM    9  C   UNL     1      -9.282   9.678  65.320  1.00  0.00    -0.295 A  
HETATM   10  C   UNL     1      -9.664   7.338  66.854  1.00  0.00    -0.252 A  
HETATM   11  C   UNL     1     -10.454   8.478  67.013  1.00  0.00    -0.362 A  
HETATM   12  C   UNL     1      -8.465   8.558  65.043  1.00  0.00    -0.183 A  
BRANCH  12  13
HETATM   13  C   UNL     1      -7.396   8.666  63.926  1.00  0.00    -0.100 C  
HETATM   14  C   UNL     1      -7.340  10.095  63.339  1.00  0.00    -0.132 C  
HETATM   15  C   UNL     1      -7.668   7.636  62.811  1.00  0.00    -0.123 C  
HETATM   16  C   UNL     1      -5.948   8.386  64.424  1.00  0.00    -0.065 C  
ENDBRANCH  12  13
BRANCH  10  17
HETATM   17  C   UNL     1      -9.928   6.097  67.747  1.00  0.00    -0.143 C  
HETATM   18  C   UNL     1      -8.678   5.724  68.572  1.00  0.00    -0.111 C  
HETATM   19  C   UNL     1     -11.066   6.292  68.794  1.00  0.00    -0.424 C  
HETATM   20  C   UNL     1     -10.370   4.906  66.872  1.00  0.00    -0.237 C  
ENDBRANCH  10  17
ENDBRANCH   4   5
ENDBRANCH   2   4
BRANCH   2  21
HETATM   21  S   UNL     1      -8.666  11.183  68.553  1.00  0.00    -0.155 SA 
BRANCH  21  22
HETATM   22  C   UNL     1      -9.545  10.189  69.757  1.00  0.00    -0.177 A  
HETATM   23  C   UNL     1     -10.879  10.400  70.115  1.00  0.00    -0.333 A  
HETATM   24  C   UNL     1      -8.807   9.264  70.478  1.00  0.00    -0.285 A  
HETATM   25  H   UNL     1     -12.206   8.369  73.168  1.00  0.00     0.000 HD 
HETATM   26  O   UNL     1     -11.297   8.193  72.952  1.00  0.00    -0.387 OA 
HETATM   27  C   UNL     1      -9.346   8.536  71.555  1.00  0.00    -0.289 A  
HETATM   28  C   UNL     1     -11.508   9.719  71.165  1.00  0.00    -0.472 A  
HETATM   29  C   UNL     1     -10.709   8.801  71.880  1.00  0.00    -0.359 A  
BRANCH  27  30
HETATM   30  C   UNL     1      -8.422   7.573  72.342  1.00  0.00    -0.134 C  
HETATM   31  C   UNL     1      -6.966   7.528  71.789  1.00  0.00    -0.062 C  
HETATM   32  C   UNL     1      -8.304   8.026  73.811  1.00  0.00    -0.311 C  
HETATM   33  C   UNL     1      -8.921   6.114  72.263  1.00  0.00    -0.137 C  
ENDBRANCH  27  30
BRANCH  28  34
HETATM   34  C   UNL     1     -13.012   9.977  71.468  1.00  0.00    -0.535 C  
HETATM   35  C   UNL     1     -13.587   9.110  72.628  1.00  0.00    -0.402 C  
HETATM   36  C   UNL     1     -13.905   9.671  70.245  1.00  0.00     0.956 C  
HETATM   37  C   UNL     1     -13.209  11.444  71.908  1.00  0.00    -0.485 C  
ENDBRANCH  28  34
ENDBRANCH  21  22
ENDBRANCH   2  21
TORSDOF 8
ENDMDL
MODEL      113
REMARK 921   NORMALIZED FREE ENERGY PREDICTED BY IDOCK:   -4.61 KCAL/MOL
REMARK 922        TOTAL FREE ENERGY PREDICTED BY IDOCK:   -7.37 KCAL/MOL
REMARK 923 INTER-LIGAND FREE ENERGY PREDICTED BY IDOCK:   -7.40 KCAL/MOL
REMARK 924 INTRA-LIGAND FREE ENERGY PREDICTED BY IDOCK:    0.03 KCAL/MOL
REMARK 927      BINDING AFFINITY PREDICTED BY RF-SCORE:    0.00 PKD
ROOT
HETATM    1  C   UNL     1     -12.234   8.106  72.577  1.00  0.00    -0.335 C  
HETATM    2  C   UNL     1     -11.812   8.668  71.208  1.00  0.00    -0.295 C  
HETATM    3  C   UNL     1     -10.378   9.209  71.331  1.00  0.00    -0.409 C  
ENDROOT
BRANCH   2   4
HETATM    4  S   UNL     1     -12.928  10.074  70.778  1.00  0.00    -0.190 SA 
BRANCH   4   5
HETATM    5  C   UNL     1     -11.934  11.145  69.743  1.00  0.00    -0.357 A  
HETATM    6  C   UNL     1     -10.609  12.820  67.936  1.00  0.00    -0.221 A  
HETATM    7  O   UNL     1     -10.044  13.700  67.058  1.00  0.00    -0.242 OA 
HETATM    8  H   UNL     1     -10.009  14.631  67.243  1.00  0.00     0.000 HD 
HETATM    9  C   UNL     1     -11.364  10.622  68.587  1.00  0.00    -0.345 A  
HETATM   10  C   UNL     1     -11.174  13.393  69.096  1.00  0.00    -0.300 A  
HETATM   11  C   UNL     1     -11.801  12.509  69.976  1.00  0.00    -0.363 A  
HETATM   12  C   UNL     1     -10.661  11.424  67.659  1.00  0.00    -0.261 A  
BRANCH  12  13
HETATM   13  C   UNL     1     -10.040  10.754  66.407  1.00  0.00    -0.278 C  
HETATM   14  C   UNL     1      -8.521  11.030  66.319  1.00  0.00    -0.165 C  
HETATM   15  C   UNL     1     -10.749  11.235  65.124  1.00  0.00    -0.312 C  
HETATM   16  C   UNL     1     -10.161   9.203  66.409  1.00  0.00    -0.345 C  
ENDBRANCH  12  13
BRANCH  10  17
HETATM   17  C   UNL     1     -11.126  14.906  69.441  1.00  0.00    -0.296 C  
HETATM   18  C   UNL     1      -9.676  15.379  69.681  1.00  0.00    -0.251 C  
HETATM   19  C   UNL     1     -11.680  15.836  68.321  1.00  0.00    -0.229 C  
HETATM   20  C   UNL     1     -11.995  15.187  70.683  1.00  0.00    -0.371 C  
ENDBRANCH  10  17
ENDBRANCH   4   5
ENDBRANCH   2   4
BRANCH   2  21
HETATM   21  S   UNL     1     -11.793   7.271  70.002  1.00  0.00     0.196 SA 
BRANCH  21  22
HETATM   22  C   UNL     1     -10.349   6.305  70.441  1.00  0.00    -0.208 A  
HETATM   23  C   UNL     1      -9.143   6.344  69.738  1.00  0.00    -0.141 A  
HETATM   24  C   UNL     1     -10.499   5.356  71.440  1.00  0.00    -0.294 A  
HETATM   25  H   UNL     1      -6.474   3.670  70.703  1.00  0.00     0.000 HD 
HETATM   26  O   UNL     1      -7.276   3.615  71.208  1.00  0.00    -0.032 OA 
HETATM   27  C   UNL     1      -9.489   4.432  71.767  1.00  0.00    -0.206 A  
HETATM   28  C   UNL     1      -8.076   5.473  69.995  1.00  0.00    -0.090 A  
HETATM   29  C   UNL     1      -8.285   4.514  71.008  1.00  0.00    -0.089 A  
BRANCH  27  30
HETATM   30  C   UNL     1      -9.777   3.366  72.854  1.00  0.00    -0.185 C  
HETATM   31  C   UNL     1      -9.849   1.916  72.291  1.00  0.00    -0.197 C  
HETATM   32  C   UNL     1      -8.650   3.357  73.907  1.00  0.00    -0.081 C  
HETATM   33  C   UNL     1     -11.146   3.597  73.530  1.00  0.00    -0.320 C  
ENDBRANCH  27  30
BRANCH  28  34
HETATM   34  C   UNL     1      -6.748   5.616  69.197  1.00  0.00    -0.060 C  
HETATM   35  C   UNL     1      -6.272   4.300  68.512  1.00  0.00    -0.032 C  
HETATM   36  C   UNL     1      -5.576   6.052  70.105  1.00  0.00    -0.013 C  
HETATM   37  C   UNL     1      -6.934   6.636  68.054  1.00  0.00    -0.080 C  
ENDBRANCH  28  34
ENDBRANCH  21  22
ENDBRANCH   2  21
TORSDOF 8
ENDMDL
MODEL      114
REMARK 921   NORMALIZED FREE ENERGY PREDICTED BY IDOCK:   -4.60 KCAL/MOL
REMARK 922        TOTAL FREE ENERGY PREDICTED BY IDOCK:   -7.35 KCAL/MOL
REMARK 923 INTER-LIGAND FREE ENERGY PREDICTED BY IDOCK:   -7.53 KCAL/MOL
REMARK 924 INTRA-LIGAND FREE ENERGY PREDICTED BY IDOCK:    0.18 KCAL/MOL
REMARK 927      BINDING AFFINITY PREDICTED BY RF-SCORE:    0.00 PKD
ROOT
HETATM    1  C   UNL     1      -6.162   8.901  67.749  1.00  0.00    -0.055 C  
HETATM    2  C   UNL     1      -7.169  10.061  67.851  1.00  0.00    -0.087 C  
HETATM    3  C   UNL     1      -7.372  10.393  69.338  1.00  0.00    -0.123 C  
ENDROOT
BRANCH   2   4
HETATM    4  S   UNL     1      -8.785   9.503  67.155  1.00  0.00    -0.132 SA 
BRANCH   4   5
HETATM    5  C   UNL     1      -9.408   8.318  68.344  1.00  0.00    -0.135 A  
HETATM    6  C   UNL     1     -10.131   6.514  70.355  1.00  0.00    -0.184 A  
HETATM    7  O   UNL     1     -10.467   5.708  71.405  1.00  0.00    -0.222 OA 
HETATM    8  H   UNL     1     -11.089   5.989  72.067  1.00  0.00     0.000 HD 
HETATM    9  C   UNL     1      -8.845   7.047  68.384  1.00  0.00    -0.123 A  
HETATM   10  C   UNL     1     -10.726   7.793  70.354  1.00  0.00    -0.238 A  
HETATM   11  C   UNL     1     -10.350   8.645  69.313  1.00  0.00    -0.228 A  
HETATM   12  C   UNL     1      -9.200   6.092  69.364  1.00  0.00    -0.140 A  
BRANCH  12  13
HETATM   13  C   UNL     1      -8.538   4.691  69.321  1.00  0.00    -0.101 C  
HETATM   14  C   UNL     1      -9.600   3.569  69.303  1.00  0.00    -0.161 C  
HETATM   15  C   UNL     1      -7.580   4.505  70.516  1.00  0.00    -0.053 C  
HETATM   16  C   UNL     1      -7.682   4.448  68.044  1.00  0.00    -0.080 C  
ENDBRANCH  12  13
BRANCH  10  17
HETATM   17  C   UNL     1     -11.756   8.285  71.406  1.00  0.00    -0.327 C  
HETATM   18  C   UNL     1     -13.055   7.454  71.348  1.00  0.00    -0.401 C  
HETATM   19  C   UNL     1     -11.265   8.175  72.882  1.00  0.00    -0.312 C  
HETATM   20  C   UNL     1     -12.062   9.779  71.180  1.00  0.00    -0.460 C  
ENDBRANCH  10  17
ENDBRANCH   4   5
ENDBRANCH   2   4
BRANCH   2  21
HETATM   21  S   UNL     1      -6.419  11.536  67.034  1.00  0.00    -0.139 SA 
BRANCH  21  22
HETATM   22  C   UNL     1      -7.529  12.889  67.420  1.00  0.00    -0.132 A  
HETATM   23  C   UNL     1      -8.916  12.754  67.521  1.00  0.00    -0.192 A  
HETATM   24  C   UNL     1      -6.986  14.164  67.466  1.00  0.00    -0.173 A  
HETATM   25  H   UNL     1     -10.973  16.053  67.817  1.00  0.00     0.000 HD 
HETATM   26  O   UNL     1     -10.034  16.187  67.758  1.00  0.00    -0.231 OA 
HETATM   27  C   UNL     1      -7.776  15.320  67.603  1.00  0.00    -0.185 A  
HETATM   28  C   UNL     1      -9.784  13.843  67.669  1.00  0.00    -0.226 A  
HETATM   29  C   UNL     1      -9.184  15.120  67.692  1.00  0.00    -0.181 A  
BRANCH  27  30
HETATM   30  C   UNL     1      -7.080  16.705  67.576  1.00  0.00    -0.169 C  
HETATM   31  C   UNL     1      -5.526  16.613  67.555  1.00  0.00    -0.161 C  
HETATM   32  C   UNL     1      -7.477  17.478  66.302  1.00  0.00    -0.355 C  
HETATM   33  C   UNL     1      -7.412  17.533  68.837  1.00  0.00    -0.234 C  
ENDBRANCH  27  30
BRANCH  28  34
HETATM   34  C   UNL     1     -11.313  13.601  67.823  1.00  0.00    -0.336 C  
HETATM   35  C   UNL     1     -11.716  12.098  67.900  1.00  0.00    -0.403 C  
HETATM   36  C   UNL     1     -12.109  14.179  66.632  1.00  0.00    -0.480 C  
HETATM   37  C   UNL     1     -11.810  14.232  69.142  1.00  0.00    -0.368 C  
ENDBRANCH  28  34
ENDBRANCH  21  22
ENDBRANCH   2  21
TORSDOF 8
ENDMDL
MODEL      115
REMARK 921   NORMALIZED FREE ENERGY PREDICTED BY IDOCK:   -4.59 KCAL/MOL
REMARK 922        TOTAL FREE ENERGY PREDICTED BY IDOCK:   -7.33 KCAL/MOL
REMARK 923 INTER-LIGAND FREE ENERGY PREDICTED BY IDOCK:   -6.96 KCAL/MOL
REMARK 924 INTRA-LIGAND FREE ENERGY PREDICTED BY IDOCK:   -0.37 KCAL/MOL
REMARK 927      BINDING AFFINITY PREDICTED BY RF-SCORE:    0.00 PKD
ROOT
HETATM    1  C   UNL     1      -5.682   8.908  67.548  1.00  0.00    -0.039 C  
HETATM    2  C   UNL     1      -6.495  10.160  67.175  1.00  0.00    -0.068 C  
HETATM    3  C   UNL     1      -5.692  10.966  66.141  1.00  0.00    -0.142 C  
ENDROOT
BRANCH   2   4
HETATM    4  S   UNL     1      -6.703  11.201  68.686  1.00  0.00    -0.068 SA 
BRANCH   4   5
HETATM    5  C   UNL     1      -7.675  12.603  68.144  1.00  0.00    -0.142 A  
HETATM    6  C   UNL     1      -9.276  14.827  67.582  1.00  0.00    -0.191 A  
HETATM    7  O   UNL     1     -10.006  15.963  67.380  1.00  0.00    -0.234 OA 
HETATM    8  H   UNL     1      -9.586  16.807  67.259  1.00  0.00     0.000 HD 
HETATM    9  C   UNL     1      -9.058  12.473  68.071  1.00  0.00    -0.200 A  
HETATM   10  C   UNL     1      -7.877  15.004  67.649  1.00  0.00    -0.186 A  
HETATM   11  C   UNL     1      -7.124  13.857  67.907  1.00  0.00    -0.168 A  
HETATM   12  C   UNL     1      -9.905  13.561  67.762  1.00  0.00    -0.233 A  
BRANCH  12  13
HETATM   13  C   UNL     1     -11.434  13.323  67.680  1.00  0.00    -0.360 C  
HETATM   14  C   UNL     1     -12.153  13.849  68.943  1.00  0.00    -0.355 C  
HETATM   15  C   UNL     1     -11.741  11.825  67.471  1.00  0.00    -0.312 C  
HETATM   16  C   UNL     1     -12.116  14.069  66.497  1.00  0.00    -0.488 C  
ENDBRANCH  12  13
BRANCH  10  17
HETATM   17  C   UNL     1      -7.153  16.361  67.444  1.00  0.00    -0.190 C  
HETATM   18  C   UNL     1      -7.549  17.009  66.100  1.00  0.00    -0.280 C  
HETATM   19  C   UNL     1      -7.481  17.432  68.527  1.00  0.00    -0.251 C  
HETATM   20  C   UNL     1      -5.627  16.155  67.513  1.00  0.00    -0.162 C  
ENDBRANCH  10  17
ENDBRANCH   4   5
ENDBRANCH   2   4
BRANCH   2  21
HETATM   21  S   UNL     1      -8.061   9.603  66.373  1.00  0.00    -0.112 SA 
BRANCH  21  22
HETATM   22  C   UNL     1      -8.811   8.485  67.556  1.00  0.00    -0.135 A  
HETATM   23  C   UNL     1      -9.530   8.905  68.677  1.00  0.00    -0.153 A  
HETATM   24  C   UNL     1      -8.524   7.135  67.425  1.00  0.00    -0.122 A  
HETATM   25  H   UNL     1     -10.493   6.151  71.264  1.00  0.00     0.000 HD 
HETATM   26  O   UNL     1     -10.011   5.825  70.513  1.00  0.00    -0.178 OA 
HETATM   27  C   UNL     1      -8.922   6.179  68.377  1.00  0.00    -0.115 A  
HETATM   28  C   UNL     1      -9.977   8.029  69.675  1.00  0.00    -0.188 A  
HETATM   29  C   UNL     1      -9.644   6.669  69.505  1.00  0.00    -0.146 A  
BRANCH  27  30
HETATM   30  C   UNL     1      -8.494   4.703  68.175  1.00  0.00    -0.104 C  
HETATM   31  C   UNL     1      -7.665   4.134  69.365  1.00  0.00    -0.053 C  
HETATM   32  C   UNL     1      -9.737   3.798  68.053  1.00  0.00    -0.116 C  
HETATM   33  C   UNL     1      -7.581   4.538  66.941  1.00  0.00    -0.086 C  
ENDBRANCH  27  30
BRANCH  28  34
HETATM   34  C   UNL     1     -10.814   8.573  70.868  1.00  0.00    -0.275 C  
HETATM   35  C   UNL     1     -12.157   7.817  71.102  1.00  0.00    -0.306 C  
HETATM   36  C   UNL     1     -11.207  10.053  70.666  1.00  0.00    -0.425 C  
HETATM   37  C   UNL     1     -10.015   8.416  72.179  1.00  0.00    -0.376 C  
ENDBRANCH  28  34
ENDBRANCH  21  22
ENDBRANCH   2  21
TORSDOF 8
ENDMDL
MODEL      116
REMARK 921   NORMALIZED FREE ENERGY PREDICTED BY IDOCK:   -4.58 KCAL/MOL
REMARK 922        TOTAL FREE ENERGY PREDICTED BY IDOCK:   -7.32 KCAL/MOL
REMARK 923 INTER-LIGAND FREE ENERGY PREDICTED BY IDOCK:   -7.56 KCAL/MOL
REMARK 924 INTRA-LIGAND FREE ENERGY PREDICTED BY IDOCK:    0.24 KCAL/MOL
REMARK 927      BINDING AFFINITY PREDICTED BY RF-SCORE:    0.00 PKD
ROOT
HETATM    1  C   UNL     1      -8.148  13.751  69.494  1.00  0.00     0.738 C  
HETATM    2  C   UNL     1      -6.613  13.661  69.424  1.00  0.00    -0.090 C  
HETATM    3  C   UNL     1      -6.030  14.438  70.616  1.00  0.00    -0.197 C  
ENDROOT
BRANCH   2   4
HETATM    4  S   UNL     1      -6.044  14.476  67.868  1.00  0.00    -0.127 SA 
BRANCH   4   5
HETATM    5  C   UNL     1      -7.390  15.560  67.403  1.00  0.00    -0.210 A  
HETATM    6  C   UNL     1      -9.651  17.128  66.895  1.00  0.00    -0.262 A  
HETATM    7  O   UNL     1     -10.754  17.920  66.747  1.00  0.00    -0.279 OA 
HETATM    8  H   UNL     1     -10.770  18.813  67.070  1.00  0.00     0.000 HD 
HETATM    9  C   UNL     1      -8.475  15.028  66.715  1.00  0.00    -0.239 A  
HETATM   10  C   UNL     1      -8.574  17.708  67.599  1.00  0.00    -0.224 A  
HETATM   11  C   UNL     1      -7.461  16.890  67.803  1.00  0.00    -0.176 A  
HETATM   12  C   UNL     1      -9.627  15.789  66.410  1.00  0.00    -0.311 A  
BRANCH  12  13
HETATM   13  C   UNL     1     -10.781  15.122  65.620  1.00  0.00    -0.374 C  
HETATM   14  C   UNL     1     -11.362  16.082  64.556  1.00  0.00    -0.303 C  
HETATM   15  C   UNL     1     -11.892  14.644  66.578  1.00  0.00    -0.317 C  
HETATM   16  C   UNL     1     -10.338  13.864  64.817  1.00  0.00    -0.419 C  
ENDBRANCH  12  13
BRANCH  10  17
HETATM   17  C   UNL     1      -8.555  19.166  68.130  1.00  0.00    -0.359 C  
HETATM   18  C   UNL     1      -7.261  19.458  68.918  1.00  0.00    -0.397 C  
HETATM   19  C   UNL     1      -8.611  20.254  67.016  1.00  0.00    -0.398 C  
HETATM   20  C   UNL     1      -9.792  19.416  69.017  1.00  0.00    -0.487 C  
ENDBRANCH  10  17
ENDBRANCH   4   5
ENDBRANCH   2   4
BRANCH   2  21
HETATM   21  S   UNL     1      -6.138  11.888  69.612  1.00  0.00    -0.136 SA 
BRANCH  21  22
HETATM   22  C   UNL     1      -7.575  10.967  69.065  1.00  0.00    -0.135 A  
HETATM   23  C   UNL     1      -8.473  10.338  69.930  1.00  0.00    -0.013 A  
HETATM   24  C   UNL     1      -7.705  10.743  67.703  1.00  0.00    -0.104 A  
HETATM   25  H   UNL     1     -11.118   7.988  68.292  1.00  0.00     0.000 HD 
HETATM   26  O   UNL     1     -10.531   8.402  67.670  1.00  0.00    -0.243 OA 
HETATM   27  C   UNL     1      -8.699   9.906  67.163  1.00  0.00    -0.136 A  
HETATM   28  C   UNL     1      -9.501   9.494  69.489  1.00  0.00    -0.195 A  
HETATM   29  C   UNL     1      -9.580   9.284  68.096  1.00  0.00    -0.143 A  
BRANCH  27  30
HETATM   30  C   UNL     1      -8.721   9.666  65.632  1.00  0.00    -0.163 C  
HETATM   31  C   UNL     1      -8.644   8.159  65.244  1.00  0.00    -0.132 C  
HETATM   32  C   UNL     1     -10.037  10.193  65.027  1.00  0.00    -0.305 C  
HETATM   33  C   UNL     1      -7.506  10.317  64.936  1.00  0.00    -0.114 C  
ENDBRANCH  27  30
BRANCH  28  34
HETATM   34  C   UNL     1     -10.489   8.872  70.516  1.00  0.00    -0.257 C  
HETATM   35  C   UNL     1     -11.031   7.468  70.109  1.00  0.00    -0.267 C  
HETATM   36  C   UNL     1     -11.741   9.753  70.717  1.00  0.00    -0.407 C  
HETATM   37  C   UNL     1      -9.771   8.664  71.868  1.00  0.00    -0.383 C  
ENDBRANCH  28  34
ENDBRANCH  21  22
ENDBRANCH   2  21
TORSDOF 8
ENDMDL
MODEL      117
REMARK 921   NORMALIZED FREE ENERGY PREDICTED BY IDOCK:   -4.58 KCAL/MOL
REMARK 922        TOTAL FREE ENERGY PREDICTED BY IDOCK:   -7.32 KCAL/MOL
REMARK 923 INTER-LIGAND FREE ENERGY PREDICTED BY IDOCK:   -8.36 KCAL/MOL
REMARK 924 INTRA-LIGAND FREE ENERGY PREDICTED BY IDOCK:    1.04 KCAL/MOL
REMARK 927      BINDING AFFINITY PREDICTED BY RF-SCORE:    0.00 PKD
ROOT
HETATM    1  C   UNL     1      -9.923   7.432  69.497  1.00  0.00    -0.179 C  
HETATM    2  C   UNL     1     -10.287   8.859  69.051  1.00  0.00    -0.212 C  
HETATM    3  C   UNL     1      -9.020   9.726  69.129  1.00  0.00    -0.161 C  
ENDROOT
BRANCH   2   4
HETATM    4  S   UNL     1     -11.533   9.546  70.227  1.00  0.00    -0.163 SA 
BRANCH   4   5
HETATM    5  C   UNL     1     -11.654  11.281  69.801  1.00  0.00    -0.333 A  
HETATM    6  C   UNL     1     -12.104  13.925  69.007  1.00  0.00    -0.329 A  
HETATM    7  O   UNL     1     -12.415  15.210  68.666  1.00  0.00    -0.560 OA 
HETATM    8  H   UNL     1     -12.733  15.831  69.311  1.00  0.00     0.000 HD 
HETATM    9  C   UNL     1     -11.441  11.665  68.481  1.00  0.00    -0.358 A  
HETATM   10  C   UNL     1     -12.336  13.579  70.355  1.00  0.00    -0.397 A  
HETATM   11  C   UNL     1     -12.070  12.252  70.704  1.00  0.00    -0.330 A  
HETATM   12  C   UNL     1     -11.627  12.995  68.040  1.00  0.00    -0.383 A  
BRANCH  12  13
HETATM   13  C   UNL     1     -11.345  13.339  66.555  1.00  0.00    -0.353 C  
HETATM   14  C   UNL     1     -10.826  12.106  65.781  1.00  0.00    -0.319 C  
HETATM   15  C   UNL     1     -10.339  14.504  66.448  1.00  0.00    -0.296 C  
HETATM   16  C   UNL     1     -12.611  13.794  65.772  1.00  0.00    -0.525 C  
ENDBRANCH  12  13
BRANCH  10  17
HETATM   17  C   UNL     1     -12.840  14.566  71.442  1.00  0.00    -0.406 C  
HETATM   18  C   UNL     1     -13.089  13.842  72.782  1.00  0.00    -0.484 C  
HETATM   19  C   UNL     1     -11.842  15.715  71.776  1.00  0.00    -0.524 C  
HETATM   20  C   UNL     1     -14.128  15.262  70.959  1.00  0.00    -0.320 C  
ENDBRANCH  10  17
ENDBRANCH   4   5
ENDBRANCH   2   4
BRANCH   2  21
HETATM   21  S   UNL     1     -10.819   8.783  67.285  1.00  0.00     0.157 SA 
BRANCH  21  22
HETATM   22  C   UNL     1      -9.491   7.924  66.442  1.00  0.00    -0.192 A  
HETATM   23  C   UNL     1      -8.564   8.552  65.607  1.00  0.00    -0.200 A  
HETATM   24  C   UNL     1      -9.489   6.539  66.507  1.00  0.00    -0.190 A  
HETATM   25  H   UNL     1      -6.211   6.220  63.550  1.00  0.00     0.000 HD 
HETATM   26  O   UNL     1      -6.822   5.756  64.110  1.00  0.00    -0.047 OA 
HETATM   27  C   UNL     1      -8.596   5.746  65.762  1.00  0.00    -0.149 A  
HETATM   28  C   UNL     1      -7.630   7.850  64.834  1.00  0.00    -0.104 A  
HETATM   29  C   UNL     1      -7.680   6.443  64.921  1.00  0.00    -0.104 A  
BRANCH  27  30
HETATM   30  C   UNL     1      -8.716   4.204  65.851  1.00  0.00    -0.115 C  
HETATM   31  C   UNL     1      -9.484   3.718  67.116  1.00  0.00    -0.234 C  
HETATM   32  C   UNL     1      -9.502   3.658  64.642  1.00  0.00    -0.159 C  
HETATM   33  C   UNL     1      -7.330   3.529  65.945  1.00  0.00    -0.076 C  
ENDBRANCH  27  30
BRANCH  28  34
HETATM   34  C   UNL     1      -6.599   8.629  63.967  1.00  0.00    -0.076 C  
HETATM   35  C   UNL     1      -6.253   7.937  62.614  1.00  0.00    -0.077 C  
HETATM   36  C   UNL     1      -5.248   8.802  64.696  1.00  0.00    -0.039 C  
HETATM   37  C   UNL     1      -7.174  10.012  63.592  1.00  0.00    -0.128 C  
ENDBRANCH  28  34
ENDBRANCH  21  22
ENDBRANCH   2  21
TORSDOF 8
ENDMDL
MODEL      118
REMARK 921   NORMALIZED FREE ENERGY PREDICTED BY IDOCK:   -4.57 KCAL/MOL
REMARK 922        TOTAL FREE ENERGY PREDICTED BY IDOCK:   -7.31 KCAL/MOL
REMARK 923 INTER-LIGAND FREE ENERGY PREDICTED BY IDOCK:   -7.55 KCAL/MOL
REMARK 924 INTRA-LIGAND FREE ENERGY PREDICTED BY IDOCK:    0.24 KCAL/MOL
REMARK 927      BINDING AFFINITY PREDICTED BY RF-SCORE:    0.00 PKD
ROOT
HETATM    1  C   UNL     1      -7.054   9.842  66.672  1.00  0.00    -0.086 C  
HETATM    2  C   UNL     1      -7.423   8.444  67.200  1.00  0.00    -0.089 C  
HETATM    3  C   UNL     1      -6.368   7.445  66.697  1.00  0.00    -0.045 C  
ENDROOT
BRANCH   2   4
HETATM    4  S   UNL     1      -9.061   7.961  66.499  1.00  0.00    -0.178 SA 
BRANCH   4   5
HETATM    5  C   UNL     1     -10.097   9.402  66.725  1.00  0.00    -0.256 A  
HETATM    6  C   UNL     1     -11.480  11.786  67.206  1.00  0.00    -0.303 A  
HETATM    7  O   UNL     1     -12.080  12.998  67.392  1.00  0.00    -0.338 OA 
HETATM    8  H   UNL     1     -12.201  13.607  66.673  1.00  0.00     0.000 HD 
HETATM    9  C   UNL     1     -10.571   9.695  67.999  1.00  0.00    -0.292 A  
HETATM   10  C   UNL     1     -11.015  11.530  65.898  1.00  0.00    -0.301 A  
HETATM   11  C   UNL     1     -10.354  10.315  65.708  1.00  0.00    -0.236 A  
HETATM   12  C   UNL     1     -11.300  10.873  68.284  1.00  0.00    -0.374 A  
BRANCH  12  13
HETATM   13  C   UNL     1     -11.810  11.109  69.729  1.00  0.00    -0.422 C  
HETATM   14  C   UNL     1     -13.271  10.632  69.893  1.00  0.00     0.517 C  
HETATM   15  C   UNL     1     -11.683  12.598  70.114  1.00  0.00    -0.247 C  
HETATM   16  C   UNL     1     -11.012  10.319  70.806  1.00  0.00    -0.213 C  
ENDBRANCH  12  13
BRANCH  10  17
HETATM   17  C   UNL     1     -11.205  12.491  64.695  1.00  0.00    -0.353 C  
HETATM   18  C   UNL     1     -10.651  13.897  65.008  1.00  0.00    -0.418 C  
HETATM   19  C   UNL     1     -10.471  12.042  63.395  1.00  0.00    -0.474 C  
HETATM   20  C   UNL     1     -12.699  12.572  64.321  1.00  0.00    -0.432 C  
ENDBRANCH  10  17
ENDBRANCH   4   5
ENDBRANCH   2   4
BRANCH   2  21
HETATM   21  S   UNL     1      -7.330   8.490  69.043  1.00  0.00    -0.082 SA 
BRANCH  21  22
HETATM   22  C   UNL     1      -8.325   7.103  69.588  1.00  0.00    -0.133 A  
HETATM   23  C   UNL     1      -9.285   7.183  70.600  1.00  0.00    -0.158 A  
HETATM   24  C   UNL     1      -8.008   5.854  69.078  1.00  0.00    -0.099 A  
HETATM   25  H   UNL     1     -10.801   3.810  71.836  1.00  0.00     0.000 HD 
HETATM   26  O   UNL     1     -10.158   3.714  71.143  1.00  0.00    -0.112 OA 
HETATM   27  C   UNL     1      -8.609   4.669  69.542  1.00  0.00    -0.103 A  
HETATM   28  C   UNL     1      -9.945   6.063  71.122  1.00  0.00    -0.227 A  
HETATM   29  C   UNL     1      -9.573   4.813  70.583  1.00  0.00    -0.185 A  
BRANCH  27  30
HETATM   30  C   UNL     1      -8.139   3.314  68.955  1.00  0.00    -0.072 C  
HETATM   31  C   UNL     1      -9.311   2.423  68.449  1.00  0.00    -0.262 C  
HETATM   32  C   UNL     1      -7.226   3.548  67.735  1.00  0.00    -0.058 C  
HETATM   33  C   UNL     1      -7.416   2.455  70.015  1.00  0.00    -0.043 C  
ENDBRANCH  27  30
BRANCH  28  34
HETATM   34  C   UNL     1     -11.036   6.245  72.216  1.00  0.00    -0.311 C  
HETATM   35  C   UNL     1     -11.330   4.957  73.043  1.00  0.00    -0.354 C  
HETATM   36  C   UNL     1     -12.394   6.661  71.608  1.00  0.00    -0.382 C  
HETATM   37  C   UNL     1     -10.574   7.301  73.242  1.00  0.00    -0.428 C  
ENDBRANCH  28  34
ENDBRANCH  21  22
ENDBRANCH   2  21
TORSDOF 8
ENDMDL
MODEL      119
REMARK 921   NORMALIZED FREE ENERGY PREDICTED BY IDOCK:   -4.57 KCAL/MOL
REMARK 922        TOTAL FREE ENERGY PREDICTED BY IDOCK:   -7.31 KCAL/MOL
REMARK 923 INTER-LIGAND FREE ENERGY PREDICTED BY IDOCK:   -6.73 KCAL/MOL
REMARK 924 INTRA-LIGAND FREE ENERGY PREDICTED BY IDOCK:   -0.57 KCAL/MOL
REMARK 927      BINDING AFFINITY PREDICTED BY RF-SCORE:    0.00 PKD
ROOT
HETATM    1  C   UNL     1      -6.248  11.029  66.721  1.00  0.00    -0.110 C  
HETATM    2  C   UNL     1      -6.773  10.346  67.997  1.00  0.00    -0.065 C  
HETATM    3  C   UNL     1      -5.589   9.661  68.699  1.00  0.00    -0.036 C  
ENDROOT
BRANCH   2   4
HETATM    4  S   UNL     1      -7.990   9.045  67.511  1.00  0.00    -0.101 SA 
BRANCH   4   5
HETATM    5  C   UNL     1      -9.083   8.894  68.921  1.00  0.00    -0.140 A  
HETATM    6  C   UNL     1     -10.596   8.828  71.273  1.00  0.00    -0.262 A  
HETATM    7  O   UNL     1     -11.330   8.898  72.422  1.00  0.00    -0.299 OA 
HETATM    8  H   UNL     1     -12.086   9.469  72.493  1.00  0.00     0.000 HD 
HETATM    9  C   UNL     1      -8.714   8.060  69.971  1.00  0.00    -0.135 A  
HETATM   10  C   UNL     1     -11.004   9.691  70.234  1.00  0.00    -0.337 A  
HETATM   11  C   UNL     1     -10.229   9.666  69.073  1.00  0.00    -0.209 A  
HETATM   12  C   UNL     1      -9.463   7.971  71.167  1.00  0.00    -0.181 A  
BRANCH  12  13
HETATM   13  C   UNL     1      -8.992   6.997  72.277  1.00  0.00    -0.144 C  
HETATM   14  C   UNL     1      -7.641   6.340  71.911  1.00  0.00    -0.096 C  
HETATM   15  C   UNL     1     -10.061   5.917  72.544  1.00  0.00    -0.204 C  
HETATM   16  C   UNL     1      -8.735   7.694  73.645  1.00  0.00    -0.283 C  
ENDBRANCH  12  13
BRANCH  10  17
HETATM   17  C   UNL     1     -12.240  10.628  70.306  1.00  0.00    -0.417 C  
HETATM   18  C   UNL     1     -13.554   9.820  70.330  1.00  0.00     0.452 C  
HETATM   19  C   UNL     1     -12.288  11.528  71.577  1.00  0.00    -0.136 C  
HETATM   20  C   UNL     1     -12.229  11.600  69.109  1.00  0.00    -0.201 C  
ENDBRANCH  10  17
ENDBRANCH   4   5
ENDBRANCH   2   4
BRANCH   2  21
HETATM   21  S   UNL     1      -7.420  11.660  69.120  1.00  0.00     0.074 SA 
BRANCH  21  22
HETATM   22  C   UNL     1      -8.144  12.882  68.028  1.00  0.00    -0.159 A  
HETATM   23  C   UNL     1      -7.895  14.253  68.119  1.00  0.00    -0.139 A  
HETATM   24  C   UNL     1      -9.123  12.447  67.147  1.00  0.00    -0.199 A  
HETATM   25  H   UNL     1     -10.113  16.580  65.912  1.00  0.00     0.000 HD 
HETATM   26  O   UNL     1     -10.308  15.655  65.816  1.00  0.00    -0.315 OA 
HETATM   27  C   UNL     1      -9.875  13.331  66.351  1.00  0.00    -0.281 A  
HETATM   28  C   UNL     1      -8.584  15.210  67.363  1.00  0.00    -0.201 A  
HETATM   29  C   UNL     1      -9.583  14.719  66.496  1.00  0.00    -0.284 A  
BRANCH  27  30
HETATM   30  C   UNL     1     -10.993  12.753  65.447  1.00  0.00    -0.313 C  
HETATM   31  C   UNL     1     -12.401  13.344  65.755  1.00  0.00    -0.513 C  
HETATM   32  C   UNL     1     -10.709  13.083  63.968  1.00  0.00    -0.387 C  
HETATM   33  C   UNL     1     -11.152  11.229  65.641  1.00  0.00    -0.141 C  
ENDBRANCH  27  30
BRANCH  28  34
HETATM   34  C   UNL     1      -8.212  16.715  67.491  1.00  0.00    -0.180 C  
HETATM   35  C   UNL     1      -9.386  17.625  67.963  1.00  0.00    -0.274 C  
HETATM   36  C   UNL     1      -7.750  17.310  66.142  1.00  0.00    -0.317 C  
HETATM   37  C   UNL     1      -7.100  16.889  68.548  1.00  0.00    -0.198 C  
ENDBRANCH  28  34
ENDBRANCH  21  22
ENDBRANCH   2  21
TORSDOF 8
ENDMDL
MODEL      120
REMARK 921   NORMALIZED FREE ENERGY PREDICTED BY IDOCK:   -4.57 KCAL/MOL
REMARK 922        TOTAL FREE ENERGY PREDICTED BY IDOCK:   -7.30 KCAL/MOL
REMARK 923 INTER-LIGAND FREE ENERGY PREDICTED BY IDOCK:   -7.84 KCAL/MOL
REMARK 924 INTRA-LIGAND FREE ENERGY PREDICTED BY IDOCK:    0.54 KCAL/MOL
REMARK 927      BINDING AFFINITY PREDICTED BY RF-SCORE:    0.00 PKD
ROOT
HETATM    1  C   UNL     1     -11.142   9.801  70.602  1.00  0.00    -0.398 C  
HETATM    2  C   UNL     1     -10.082   9.790  69.487  1.00  0.00    -0.217 C  
HETATM    3  C   UNL     1      -9.807  11.244  69.069  1.00  0.00    -0.101 C  
ENDROOT
BRANCH   2   4
HETATM    4  S   UNL     1     -10.767   8.888  68.029  1.00  0.00    -0.037 SA 
BRANCH   4   5
HETATM    5  C   UNL     1     -10.262   9.860  66.613  1.00  0.00    -0.226 A  
HETATM    6  C   UNL     1      -9.635  11.192  64.234  1.00  0.00    -0.252 A  
HETATM    7  O   UNL     1      -9.429  11.849  63.055  1.00  0.00    -0.583 OA 
HETATM    8  H   UNL     1      -9.892  12.652  62.847  1.00  0.00     0.000 HD 
HETATM    9  C   UNL     1      -9.310   9.337  65.744  1.00  0.00    -0.306 A  
HETATM   10  C   UNL     1     -10.608  11.757  65.085  1.00  0.00    -0.332 A  
HETATM   11  C   UNL     1     -10.864  11.065  66.271  1.00  0.00    -0.234 A  
HETATM   12  C   UNL     1      -8.939   9.988  64.546  1.00  0.00    -0.261 A  
BRANCH  12  13
HETATM   13  C   UNL     1      -7.853   9.345  63.646  1.00  0.00    -0.131 C  
HETATM   14  C   UNL     1      -6.801  10.388  63.204  1.00  0.00    -0.070 C  
HETATM   15  C   UNL     1      -8.494   8.673  62.415  1.00  0.00    -0.194 C  
HETATM   16  C   UNL     1      -7.032   8.234  64.363  1.00  0.00    -0.073 C  
ENDBRANCH  12  13
BRANCH  10  17
HETATM   17  C   UNL     1     -11.376  13.073  64.790  1.00  0.00    -0.348 C  
HETATM   18  C   UNL     1     -12.409  13.378  65.895  1.00  0.00    -0.493 C  
HETATM   19  C   UNL     1     -10.471  14.339  64.714  1.00  0.00    -0.421 C  
HETATM   20  C   UNL     1     -12.070  12.976  63.416  1.00  0.00    -0.591 C  
ENDBRANCH  10  17
ENDBRANCH   4   5
ENDBRANCH   2   4
BRANCH   2  21
HETATM   21  S   UNL     1      -8.524   9.096  70.191  1.00  0.00    -0.196 SA 
BRANCH  21  22
HETATM   22  C   UNL     1      -8.911   7.387  70.566  1.00  0.00    -0.148 A  
HETATM   23  C   UNL     1      -9.396   6.951  71.801  1.00  0.00    -0.147 A  
HETATM   24  C   UNL     1      -8.559   6.434  69.623  1.00  0.00    -0.134 A  
HETATM   25  H   UNL     1      -9.560   3.094  72.349  1.00  0.00     0.000 HD 
HETATM   26  O   UNL     1      -9.232   3.350  71.495  1.00  0.00    -0.104 OA 
HETATM   27  C   UNL     1      -8.666   5.052  69.864  1.00  0.00    -0.122 A  
HETATM   28  C   UNL     1      -9.547   5.599  72.132  1.00  0.00    -0.170 A  
HETATM   29  C   UNL     1      -9.158   4.668  71.146  1.00  0.00    -0.133 A  
BRANCH  27  30
HETATM   30  C   UNL     1      -8.184   4.064  68.771  1.00  0.00    -0.082 C  
HETATM   31  C   UNL     1      -7.340   2.884  69.337  1.00  0.00    -0.044 C  
HETATM   32  C   UNL     1      -9.393   3.420  68.062  1.00  0.00    -0.241 C  
HETATM   33  C   UNL     1      -7.261   4.756  67.745  1.00  0.00    -0.066 C  
ENDBRANCH  27  30
BRANCH  28  34
HETATM   34  C   UNL     1     -10.141   5.199  73.514  1.00  0.00    -0.205 C  
HETATM   35  C   UNL     1      -9.276   4.174  74.307  1.00  0.00    -0.112 C  
HETATM   36  C   UNL     1     -11.532   4.542  73.373  1.00  0.00    -0.322 C  
HETATM   37  C   UNL     1     -10.240   6.447  74.418  1.00  0.00    -0.343 C  
ENDBRANCH  28  34
ENDBRANCH  21  22
ENDBRANCH   2  21
TORSDOF 8
ENDMDL
MODEL      121
REMARK 921   NORMALIZED FREE ENERGY PREDICTED BY IDOCK:   -4.57 KCAL/MOL
REMARK 922        TOTAL FREE ENERGY PREDICTED BY IDOCK:   -7.30 KCAL/MOL
REMARK 923 INTER-LIGAND FREE ENERGY PREDICTED BY IDOCK:   -6.95 KCAL/MOL
REMARK 924 INTRA-LIGAND FREE ENERGY PREDICTED BY IDOCK:   -0.35 KCAL/MOL
REMARK 927      BINDING AFFINITY PREDICTED BY RF-SCORE:    0.00 PKD
ROOT
HETATM    1  C   UNL     1     -12.033   9.843  71.297  1.00  0.00    -0.489 C  
HETATM    2  C   UNL     1     -11.246   8.527  71.442  1.00  0.00    -0.266 C  
HETATM    3  C   UNL     1     -11.558   7.929  72.823  1.00  0.00    -0.387 C  
ENDROOT
BRANCH   2   4
HETATM    4  S   UNL     1      -9.441   8.907  71.369  1.00  0.00    -0.265 SA 
BRANCH   4   5
HETATM    5  C   UNL     1      -9.159   9.458  69.689  1.00  0.00    -0.181 A  
HETATM    6  C   UNL     1      -8.932  10.128  66.983  1.00  0.00    -0.135 A  
HETATM    7  O   UNL     1      -8.922  10.473  65.661  1.00  0.00    -0.166 OA 
HETATM    8  H   UNL     1      -9.330  11.275  65.355  1.00  0.00     0.000 HD 
HETATM    9  C   UNL     1      -8.485   8.617  68.810  1.00  0.00    -0.129 A  
HETATM   10  C   UNL     1      -9.627  11.010  67.838  1.00  0.00    -0.180 A  
HETATM   11  C   UNL     1      -9.688  10.640  69.183  1.00  0.00    -0.205 A  
HETATM   12  C   UNL     1      -8.320   8.927  67.441  1.00  0.00    -0.108 A  
BRANCH  12  13
HETATM   13  C   UNL     1      -7.535   7.942  66.537  1.00  0.00    -0.088 C  
HETATM   14  C   UNL     1      -6.312   8.629  65.888  1.00  0.00    -0.056 C  
HETATM   15  C   UNL     1      -8.456   7.347  65.452  1.00  0.00    -0.101 C  
HETATM   16  C   UNL     1      -6.943   6.728  67.310  1.00  0.00    -0.074 C  
ENDBRANCH  12  13
BRANCH  10  17
HETATM   17  C   UNL     1     -10.294  12.334  67.381  1.00  0.00    -0.219 C  
HETATM   18  C   UNL     1     -10.959  13.064  68.567  1.00  0.00    -0.290 C  
HETATM   19  C   UNL     1      -9.305  13.370  66.765  1.00  0.00    -0.260 C  
HETATM   20  C   UNL     1     -11.331  12.044  66.278  1.00  0.00    -0.415 C  
ENDBRANCH  10  17
ENDBRANCH   4   5
ENDBRANCH   2   4
BRANCH   2  21
HETATM   21  S   UNL     1     -11.864   7.353  70.159  1.00  0.00     0.177 SA 
BRANCH  21  22
HETATM   22  C   UNL     1     -10.811   5.911  70.311  1.00  0.00    -0.320 A  
HETATM   23  C   UNL     1     -10.282   5.215  69.222  1.00  0.00    -0.276 A  
HETATM   24  C   UNL     1     -10.644   5.376  71.579  1.00  0.00    -0.285 A  
HETATM   25  H   UNL     1      -8.519   1.827  70.008  1.00  0.00     0.000 HD 
HETATM   26  O   UNL     1      -8.858   2.273  70.775  1.00  0.00    -0.060 OA 
HETATM   27  C   UNL     1      -9.972   4.161  71.808  1.00  0.00    -0.246 A  
HETATM   28  C   UNL     1      -9.590   4.003  69.349  1.00  0.00    -0.257 A  
HETATM   29  C   UNL     1      -9.464   3.491  70.657  1.00  0.00    -0.173 A  
BRANCH  27  30
HETATM   30  C   UNL     1      -9.897   3.612  73.256  1.00  0.00    -0.169 C  
HETATM   31  C   UNL     1     -10.405   4.623  74.325  1.00  0.00    -0.311 C  
HETATM   32  C   UNL     1     -10.786   2.360  73.399  1.00  0.00    -0.285 C  
HETATM   33  C   UNL     1      -8.444   3.294  73.669  1.00  0.00    -0.074 C  
ENDBRANCH  27  30
BRANCH  28  34
HETATM   34  C   UNL     1      -8.991   3.316  68.088  1.00  0.00    -0.187 C  
HETATM   35  C   UNL     1      -9.370   1.811  67.942  1.00  0.00    -0.199 C  
HETATM   36  C   UNL     1      -7.447   3.352  68.093  1.00  0.00    -0.054 C  
HETATM   37  C   UNL     1      -9.528   4.005  66.815  1.00  0.00    -0.219 C  
ENDBRANCH  28  34
ENDBRANCH  21  22
ENDBRANCH   2  21
TORSDOF 8
ENDMDL
MODEL      122
REMARK 921   NORMALIZED FREE ENERGY PREDICTED BY IDOCK:   -4.56 KCAL/MOL
REMARK 922        TOTAL FREE ENERGY PREDICTED BY IDOCK:   -7.28 KCAL/MOL
REMARK 923 INTER-LIGAND FREE ENERGY PREDICTED BY IDOCK:   -9.07 KCAL/MOL
REMARK 924 INTRA-LIGAND FREE ENERGY PREDICTED BY IDOCK:    1.79 KCAL/MOL
REMARK 927      BINDING AFFINITY PREDICTED BY RF-SCORE:    0.00 PKD
ROOT
HETATM    1  C   UNL     1      -9.702  13.837  65.496  1.00  0.00    -0.097 C  
HETATM    2  C   UNL     1     -11.020  13.122  65.150  1.00  0.00    -0.298 C  
HETATM    3  C   UNL     1     -11.957  14.138  64.475  1.00  0.00    -0.476 C  
ENDROOT
BRANCH   2   4
HETATM    4  S   UNL     1     -11.814  12.555  66.717  1.00  0.00    -0.270 SA 
BRANCH   4   5
HETATM    5  C   UNL     1     -11.739  13.974  67.805  1.00  0.00    -0.368 A  
HETATM    6  C   UNL     1     -11.404  16.050  69.651  1.00  0.00    -0.332 A  
HETATM    7  O   UNL     1     -11.141  17.063  70.528  1.00  0.00    -0.326 OA 
HETATM    8  H   UNL     1     -10.647  17.831  70.264  1.00  0.00     0.000 HD 
HETATM    9  C   UNL     1     -12.263  13.866  69.089  1.00  0.00    -0.305 A  
HETATM   10  C   UNL     1     -10.853  16.202  68.360  1.00  0.00    -0.318 A  
HETATM   11  C   UNL     1     -11.072  15.147  67.471  1.00  0.00    -0.319 A  
HETATM   12  C   UNL     1     -12.144  14.899  70.046  1.00  0.00    -0.387 A  
BRANCH  12  13
HETATM   13  C   UNL     1     -12.777  14.702  71.447  1.00  0.00    -0.403 C  
HETATM   14  C   UNL     1     -14.202  15.299  71.508  1.00  0.00    -0.629 C  
HETATM   15  C   UNL     1     -11.886  15.325  72.541  1.00  0.00    -0.532 C  
HETATM   16  C   UNL     1     -12.958  13.207  71.841  1.00  0.00    -0.414 C  
ENDBRANCH  12  13
BRANCH  10  17
HETATM   17  C   UNL     1     -10.055  17.445  67.886  1.00  0.00    -0.326 C  
HETATM   18  C   UNL     1      -8.668  17.510  68.561  1.00  0.00    -0.282 C  
HETATM   19  C   UNL     1      -9.766  17.476  66.355  1.00  0.00    -0.299 C  
HETATM   20  C   UNL     1     -10.858  18.727  68.183  1.00  0.00    -0.047 C  
ENDBRANCH  10  17
ENDBRANCH   4   5
ENDBRANCH   2   4
BRANCH   2  21
HETATM   21  S   UNL     1     -10.642  11.794  63.925  1.00  0.00    -0.439 SA 
BRANCH  21  22
HETATM   22  C   UNL     1      -9.745  10.553  64.855  1.00  0.00    -0.300 A  
HETATM   23  C   UNL     1      -9.612  10.566  66.246  1.00  0.00    -0.232 A  
HETATM   24  C   UNL     1      -9.018   9.620  64.133  1.00  0.00    -0.269 A  
HETATM   25  H   UNL     1      -7.115   7.998  67.784  1.00  0.00     0.000 HD 
HETATM   26  O   UNL     1      -7.182   7.952  66.838  1.00  0.00    -0.085 OA 
HETATM   27  C   UNL     1      -8.151   8.695  64.744  1.00  0.00    -0.149 A  
HETATM   28  C   UNL     1      -8.782   9.681  66.946  1.00  0.00    -0.139 A  
HETATM   29  C   UNL     1      -8.049   8.763  66.164  1.00  0.00    -0.107 A  
BRANCH  27  30
HETATM   30  C   UNL     1      -7.330   7.735  63.845  1.00  0.00    -0.096 C  
HETATM   31  C   UNL     1      -7.696   6.236  64.049  1.00  0.00    -0.104 C  
HETATM   32  C   UNL     1      -7.596   8.039  62.357  1.00  0.00    -0.113 C  
HETATM   33  C   UNL     1      -5.819   7.820  64.153  1.00  0.00    -0.052 C  
ENDBRANCH  27  30
BRANCH  28  34
HETATM   34  C   UNL     1      -8.729   9.732  68.500  1.00  0.00    -0.120 C  
HETATM   35  C   UNL     1      -7.365  10.218  69.075  1.00  0.00    -0.092 C  
HETATM   36  C   UNL     1      -8.968   8.342  69.129  1.00  0.00    -0.147 C  
HETATM   37  C   UNL     1      -9.782  10.733  69.024  1.00  0.00    -0.201 C  
ENDBRANCH  28  34
ENDBRANCH  21  22
ENDBRANCH   2  21
TORSDOF 8
ENDMDL
MODEL      123
REMARK 921   NORMALIZED FREE ENERGY PREDICTED BY IDOCK:   -4.55 KCAL/MOL
REMARK 922        TOTAL FREE ENERGY PREDICTED BY IDOCK:   -7.28 KCAL/MOL
REMARK 923 INTER-LIGAND FREE ENERGY PREDICTED BY IDOCK:   -7.88 KCAL/MOL
REMARK 924 INTRA-LIGAND FREE ENERGY PREDICTED BY IDOCK:    0.60 KCAL/MOL
REMARK 927      BINDING AFFINITY PREDICTED BY RF-SCORE:    0.00 PKD
ROOT
HETATM    1  C   UNL     1     -11.110   6.704  67.069  1.00  0.00    -0.395 C  
HETATM    2  C   UNL     1     -10.441   6.838  68.448  1.00  0.00    -0.205 C  
HETATM    3  C   UNL     1     -11.404   6.279  69.508  1.00  0.00    -0.475 C  
ENDROOT
BRANCH   2   4
HETATM    4  S   UNL     1     -10.169   8.630  68.801  1.00  0.00    -0.206 SA 
BRANCH   4   5
HETATM    5  C   UNL     1     -10.047   9.398  67.189  1.00  0.00    -0.231 A  
HETATM    6  C   UNL     1      -9.675  10.799  64.796  1.00  0.00    -0.283 A  
HETATM    7  O   UNL     1      -9.393  11.473  63.643  1.00  0.00    -0.426 OA 
HETATM    8  H   UNL     1      -8.785  11.125  63.001  1.00  0.00     0.000 HD 
HETATM    9  C   UNL     1     -10.722  10.593  66.962  1.00  0.00    -0.317 A  
HETATM   10  C   UNL     1      -8.969   9.592  64.986  1.00  0.00    -0.255 A  
HETATM   11  C   UNL     1      -9.211   8.920  66.186  1.00  0.00    -0.273 A  
HETATM   12  C   UNL     1     -10.588  11.321  65.757  1.00  0.00    -0.306 A  
BRANCH  12  13
HETATM   13  C   UNL     1     -11.394  12.633  65.579  1.00  0.00    -0.356 C  
HETATM   14  C   UNL     1     -12.509  12.467  64.522  1.00  0.00    -0.519 C  
HETATM   15  C   UNL     1     -10.459  13.799  65.197  1.00  0.00    -0.399 C  
HETATM   16  C   UNL     1     -12.137  13.084  66.870  1.00  0.00    -0.349 C  
ENDBRANCH  12  13
BRANCH  10  17
HETATM   17  C   UNL     1      -7.979   8.983  63.958  1.00  0.00    -0.145 C  
HETATM   18  C   UNL     1      -8.641   8.817  62.574  1.00  0.00    -0.171 C  
HETATM   19  C   UNL     1      -6.708   9.848  63.703  1.00  0.00    -0.125 C  
HETATM   20  C   UNL     1      -7.460   7.625  64.472  1.00  0.00    -0.094 C  
ENDBRANCH  10  17
ENDBRANCH   4   5
ENDBRANCH   2   4
BRANCH   2  21
HETATM   21  S   UNL     1      -8.923   5.788  68.447  1.00  0.00    -0.111 SA 
BRANCH  21  22
HETATM   22  C   UNL     1      -8.656   5.365  70.168  1.00  0.00    -0.119 A  
HETATM   23  C   UNL     1      -9.181   4.225  70.780  1.00  0.00    -0.205 A  
HETATM   24  C   UNL     1      -8.022   6.307  70.963  1.00  0.00    -0.116 A  
HETATM   25  H   UNL     1      -8.817   4.000  74.656  1.00  0.00     0.000 HD 
HETATM   26  O   UNL     1      -8.442   4.787  74.277  1.00  0.00    -0.104 OA 
HETATM   27  C   UNL     1      -7.893   6.161  72.357  1.00  0.00    -0.104 A  
HETATM   28  C   UNL     1      -9.096   3.985  72.158  1.00  0.00    -0.158 A  
HETATM   29  C   UNL     1      -8.458   4.981  72.926  1.00  0.00    -0.115 A  
BRANCH  27  30
HETATM   30  C   UNL     1      -7.227   7.301  73.168  1.00  0.00    -0.078 C  
HETATM   31  C   UNL     1      -6.630   8.426  72.272  1.00  0.00    -0.089 C  
HETATM   32  C   UNL     1      -8.266   7.988  74.077  1.00  0.00    -0.316 C  
HETATM   33  C   UNL     1      -6.035   6.784  74.003  1.00  0.00    -0.063 C  
ENDBRANCH  27  30
BRANCH  28  34
HETATM   34  C   UNL     1      -9.665   2.665  72.752  1.00  0.00    -0.181 C  
HETATM   35  C   UNL     1      -9.958   1.562  71.691  1.00  0.00    -0.211 C  
HETATM   36  C   UNL     1     -11.006   2.895  73.484  1.00  0.00    -0.320 C  
HETATM   37  C   UNL     1      -8.637   2.045  73.723  1.00  0.00    -0.062 C  
ENDBRANCH  28  34
ENDBRANCH  21  22
ENDBRANCH   2  21
TORSDOF 8
ENDMDL
MODEL      124
REMARK 921   NORMALIZED FREE ENERGY PREDICTED BY IDOCK:   -4.54 KCAL/MOL
REMARK 922        TOTAL FREE ENERGY PREDICTED BY IDOCK:   -7.26 KCAL/MOL
REMARK 923 INTER-LIGAND FREE ENERGY PREDICTED BY IDOCK:   -6.81 KCAL/MOL
REMARK 924 INTRA-LIGAND FREE ENERGY PREDICTED BY IDOCK:   -0.46 KCAL/MOL
REMARK 927      BINDING AFFINITY PREDICTED BY RF-SCORE:    0.00 PKD
ROOT
HETATM    1  C   UNL     1      -9.294   9.230  70.537  1.00  0.00    -0.316 C  
HETATM    2  C   UNL     1      -8.945   9.417  69.050  1.00  0.00    -0.141 C  
HETATM    3  C   UNL     1      -8.683  10.911  68.800  1.00  0.00    -0.158 C  
ENDROOT
BRANCH   2   4
HETATM    4  S   UNL     1     -10.400   8.906  68.034  1.00  0.00    -0.208 SA 
BRANCH   4   5
HETATM    5  C   UNL     1     -10.132   9.672  66.438  1.00  0.00    -0.247 A  
HETATM    6  C   UNL     1      -9.557  11.076  64.088  1.00  0.00    -0.266 A  
HETATM    7  O   UNL     1      -9.177  11.757  62.966  1.00  0.00    -0.598 OA 
HETATM    8  H   UNL     1      -8.486  11.433  62.401  1.00  0.00     0.000 HD 
HETATM    9  C   UNL     1     -10.830  10.834  66.124  1.00  0.00    -0.124 A  
HETATM   10  C   UNL     1      -8.823   9.903  64.368  1.00  0.00    -0.245 A  
HETATM   11  C   UNL     1      -9.168   9.227  65.540  1.00  0.00    -0.292 A  
HETATM   12  C   UNL     1     -10.594  11.561  64.935  1.00  0.00    -0.360 A  
BRANCH  12  13
HETATM   13  C   UNL     1     -11.433  12.834  64.655  1.00  0.00    -0.367 C  
HETATM   14  C   UNL     1     -12.243  12.695  63.346  1.00  0.00    -0.610 C  
HETATM   15  C   UNL     1     -10.527  14.081  64.597  1.00  0.00    -0.398 C  
HETATM   16  C   UNL     1     -12.498  13.129  65.751  1.00  0.00    -0.441 C  
ENDBRANCH  12  13
BRANCH  10  17
HETATM   17  C   UNL     1      -7.698   9.335  63.463  1.00  0.00    -0.119 C  
HETATM   18  C   UNL     1      -8.277   8.447  62.341  1.00  0.00    -0.181 C  
HETATM   19  C   UNL     1      -6.853  10.421  62.732  1.00  0.00    -0.118 C  
HETATM   20  C   UNL     1      -6.694   8.534  64.317  1.00  0.00    -0.071 C  
ENDBRANCH  10  17
ENDBRANCH   4   5
ENDBRANCH   2   4
BRANCH   2  21
HETATM   21  S   UNL     1      -7.380   8.499  68.714  1.00  0.00    -0.092 SA 
BRANCH  21  22
HETATM   22  C   UNL     1      -7.868   6.778  68.615  1.00  0.00    -0.118 A  
HETATM   23  C   UNL     1      -7.935   5.924  69.718  1.00  0.00    -0.101 A  
HETATM   24  C   UNL     1      -8.035   6.236  67.350  1.00  0.00    -0.109 A  
HETATM   25  H   UNL     1      -8.493   2.140  68.960  1.00  0.00     0.000 HD 
HETATM   26  O   UNL     1      -8.461   2.688  68.186  1.00  0.00    -0.071 OA 
HETATM   27  C   UNL     1      -8.263   4.864  67.136  1.00  0.00    -0.106 A  
HETATM   28  C   UNL     1      -8.167   4.546  69.608  1.00  0.00    -0.066 A  
HETATM   29  C   UNL     1      -8.312   4.041  68.299  1.00  0.00    -0.091 A  
BRANCH  27  30
HETATM   30  C   UNL     1      -8.371   4.344  65.680  1.00  0.00    -0.114 C  
HETATM   31  C   UNL     1      -9.570   3.375  65.460  1.00  0.00    -0.087 C  
HETATM   32  C   UNL     1      -8.591   5.520  64.707  1.00  0.00    -0.091 C  
HETATM   33  C   UNL     1      -7.123   3.531  65.273  1.00  0.00    -0.066 C  
ENDBRANCH  27  30
BRANCH  28  34
HETATM   34  C   UNL     1      -8.275   3.673  70.891  1.00  0.00    -0.079 C  
HETATM   35  C   UNL     1      -9.618   2.893  71.019  1.00  0.00    -0.219 C  
HETATM   36  C   UNL     1      -8.171   4.524  72.176  1.00  0.00    -0.105 C  
HETATM   37  C   UNL     1      -7.168   2.597  70.883  1.00  0.00    -0.033 C  
ENDBRANCH  28  34
ENDBRANCH  21  22
ENDBRANCH   2  21
TORSDOF 8
ENDMDL
MODEL      125
REMARK 921   NORMALIZED FREE ENERGY PREDICTED BY IDOCK:   -4.53 KCAL/MOL
REMARK 922        TOTAL FREE ENERGY PREDICTED BY IDOCK:   -7.25 KCAL/MOL
REMARK 923 INTER-LIGAND FREE ENERGY PREDICTED BY IDOCK:   -6.94 KCAL/MOL
REMARK 924 INTRA-LIGAND FREE ENERGY PREDICTED BY IDOCK:   -0.31 KCAL/MOL
REMARK 927      BINDING AFFINITY PREDICTED BY RF-SCORE:    0.00 PKD
ROOT
HETATM    1  C   UNL     1     -10.622   5.617  67.478  1.00  0.00    -0.296 C  
HETATM    2  C   UNL     1      -9.273   5.063  66.988  1.00  0.00    -0.120 C  
HETATM    3  C   UNL     1      -9.539   3.765  66.207  1.00  0.00    -0.176 C  
ENDROOT
BRANCH   2   4
HETATM    4  S   UNL     1      -8.235   4.651  68.458  1.00  0.00    -0.082 SA 
BRANCH   4   5
HETATM    5  C   UNL     1      -9.337   4.824  69.857  1.00  0.00    -0.140 A  
HETATM    6  C   UNL     1     -10.819   5.159  72.207  1.00  0.00    -0.176 A  
HETATM    7  O   UNL     1     -11.498   5.414  73.364  1.00  0.00    -0.490 OA 
HETATM    8  H   UNL     1     -11.966   6.231  73.494  1.00  0.00     0.000 HD 
HETATM    9  C   UNL     1      -9.362   3.823  70.822  1.00  0.00    -0.218 A  
HETATM   10  C   UNL     1     -10.821   6.202  71.256  1.00  0.00    -0.322 A  
HETATM   11  C   UNL     1     -10.086   5.972  70.090  1.00  0.00    -0.249 A  
HETATM   12  C   UNL     1     -10.118   3.934  72.011  1.00  0.00    -0.220 A  
BRANCH  12  13
HETATM   13  C   UNL     1     -10.104   2.760  73.023  1.00  0.00    -0.207 C  
HETATM   14  C   UNL     1      -9.392   1.521  72.434  1.00  0.00    -0.120 C  
HETATM   15  C   UNL     1     -11.540   2.399  73.458  1.00  0.00    -0.229 C  
HETATM   16  C   UNL     1      -9.327   3.079  74.333  1.00  0.00    -0.104 C  
ENDBRANCH  12  13
BRANCH  10  17
HETATM   17  C   UNL     1     -11.583   7.543  71.424  1.00  0.00    -0.302 C  
HETATM   18  C   UNL     1     -13.105   7.311  71.540  1.00  0.00    -0.434 C  
HETATM   19  C   UNL     1     -11.193   8.345  72.702  1.00  0.00    -0.339 C  
HETATM   20  C   UNL     1     -11.270   8.475  70.237  1.00  0.00    -0.185 C  
ENDBRANCH  10  17
ENDBRANCH   4   5
ENDBRANCH   2   4
BRANCH   2  21
HETATM   21  S   UNL     1      -8.544   6.292  65.820  1.00  0.00    -0.133 SA 
BRANCH  21  22
HETATM   22  C   UNL     1      -8.372   7.794  66.782  1.00  0.00    -0.125 A  
HETATM   23  C   UNL     1      -7.681   7.868  67.994  1.00  0.00    -0.125 A  
HETATM   24  C   UNL     1      -9.098   8.900  66.369  1.00  0.00    -0.217 A  
HETATM   25  H   UNL     1      -8.042  11.187  70.007  1.00  0.00     0.000 HD 
HETATM   26  O   UNL     1      -8.520  11.179  69.187  1.00  0.00    -0.089 OA 
HETATM   27  C   UNL     1      -9.170  10.086  67.123  1.00  0.00    -0.161 A  
HETATM   28  C   UNL     1      -7.685   9.006  68.811  1.00  0.00    -0.095 A  
HETATM   29  C   UNL     1      -8.453  10.098  68.355  1.00  0.00    -0.118 A  
BRANCH  27  30
HETATM   30  C   UNL     1     -10.063  11.243  66.609  1.00  0.00    -0.251 C  
HETATM   31  C   UNL     1     -10.575  11.026  65.154  1.00  0.00    -0.295 C  
HETATM   32  C   UNL     1     -11.323  11.377  67.488  1.00  0.00    -0.362 C  
HETATM   33  C   UNL     1      -9.291  12.580  66.562  1.00  0.00    -0.233 C  
ENDBRANCH  27  30
BRANCH  28  34
HETATM   34  C   UNL     1      -6.849   9.022  70.123  1.00  0.00    -0.045 C  
HETATM   35  C   UNL     1      -6.069  10.349  70.366  1.00  0.00    -0.118 C  
HETATM   36  C   UNL     1      -5.778   7.908  70.136  1.00  0.00    -0.023 C  
HETATM   37  C   UNL     1      -7.786   8.862  71.339  1.00  0.00    -0.141 C  
ENDBRANCH  28  34
ENDBRANCH  21  22
ENDBRANCH   2  21
TORSDOF 8
ENDMDL
MODEL      126
REMARK 921   NORMALIZED FREE ENERGY PREDICTED BY IDOCK:   -4.51 KCAL/MOL
REMARK 922        TOTAL FREE ENERGY PREDICTED BY IDOCK:   -7.22 KCAL/MOL
REMARK 923 INTER-LIGAND FREE ENERGY PREDICTED BY IDOCK:   -7.65 KCAL/MOL
REMARK 924 INTRA-LIGAND FREE ENERGY PREDICTED BY IDOCK:    0.43 KCAL/MOL
REMARK 927      BINDING AFFINITY PREDICTED BY RF-SCORE:    0.00 PKD
ROOT
HETATM    1  C   UNL     1     -11.015   9.841  70.770  1.00  0.00    -0.406 C  
HETATM    2  C   UNL     1     -10.051   9.913  69.573  1.00  0.00    -0.221 C  
HETATM    3  C   UNL     1      -9.918  11.385  69.149  1.00  0.00    -0.005 C  
ENDROOT
BRANCH   2   4
HETATM    4  S   UNL     1     -10.784   8.969  68.166  1.00  0.00    -0.042 SA 
BRANCH   4   5
HETATM    5  C   UNL     1     -10.281   9.868  66.702  1.00  0.00    -0.226 A  
HETATM    6  C   UNL     1      -9.662  11.082  64.259  1.00  0.00    -0.284 A  
HETATM    7  O   UNL     1      -9.461  11.682  63.049  1.00  0.00    -0.475 OA 
HETATM    8  H   UNL     1      -9.912  12.485  62.813  1.00  0.00     0.000 HD 
HETATM    9  C   UNL     1      -9.352   9.289  65.844  1.00  0.00    -0.297 A  
HETATM   10  C   UNL     1     -10.613  11.703  65.098  1.00  0.00    -0.343 A  
HETATM   11  C   UNL     1     -10.865  11.069  66.316  1.00  0.00    -0.234 A  
HETATM   12  C   UNL     1      -8.986   9.879  64.613  1.00  0.00    -0.260 A  
BRANCH  12  13
HETATM   13  C   UNL     1      -7.926   9.176  63.728  1.00  0.00    -0.146 C  
HETATM   14  C   UNL     1      -8.503   8.816  62.340  1.00  0.00    -0.204 C  
HETATM   15  C   UNL     1      -7.383   7.913  64.429  1.00  0.00    -0.087 C  
HETATM   16  C   UNL     1      -6.685  10.064  63.423  1.00  0.00    -0.134 C  
ENDBRANCH  12  13
BRANCH  10  17
HETATM   17  C   UNL     1     -11.359  13.020  64.755  1.00  0.00    -0.348 C  
HETATM   18  C   UNL     1     -10.400  14.230  64.783  1.00  0.00    -0.373 C  
HETATM   19  C   UNL     1     -12.003  13.041  63.336  1.00  0.00    -0.592 C  
HETATM   20  C   UNL     1     -12.523  13.234  65.743  1.00  0.00    -0.480 C  
ENDBRANCH  10  17
ENDBRANCH   4   5
ENDBRANCH   2   4
BRANCH   2  21
HETATM   21  S   UNL     1      -8.394   9.332  70.142  1.00  0.00    -0.197 SA 
BRANCH  21  22
HETATM   22  C   UNL     1      -8.562   7.556  70.308  1.00  0.00    -0.144 A  
HETATM   23  C   UNL     1      -8.312   6.650  69.274  1.00  0.00    -0.124 A  
HETATM   24  C   UNL     1      -9.119   7.078  71.483  1.00  0.00    -0.139 A  
HETATM   25  H   UNL     1      -9.346   2.946  69.915  1.00  0.00     0.000 HD 
HETATM   26  O   UNL     1      -9.525   3.528  70.643  1.00  0.00    -0.148 OA 
HETATM   27  C   UNL     1      -9.446   5.722  71.672  1.00  0.00    -0.172 A  
HETATM   28  C   UNL     1      -8.595   5.282  69.369  1.00  0.00    -0.102 A  
HETATM   29  C   UNL     1      -9.178   4.847  70.578  1.00  0.00    -0.142 A  
BRANCH  27  30
HETATM   30  C   UNL     1     -10.128   5.296  72.997  1.00  0.00    -0.203 C  
HETATM   31  C   UNL     1     -11.665   5.085  72.858  1.00  0.00    -0.200 C  
HETATM   32  C   UNL     1      -9.556   3.949  73.483  1.00  0.00    -0.133 C  
HETATM   33  C   UNL     1      -9.973   6.376  74.089  1.00  0.00    -0.326 C  
ENDBRANCH  27  30
BRANCH  28  34
HETATM   34  C   UNL     1      -8.241   4.333  68.188  1.00  0.00    -0.093 C  
HETATM   35  C   UNL     1      -7.621   5.055  66.954  1.00  0.00    -0.088 C  
HETATM   36  C   UNL     1      -9.487   3.596  67.649  1.00  0.00    -0.234 C  
HETATM   37  C   UNL     1      -7.181   3.306  68.645  1.00  0.00    -0.050 C  
ENDBRANCH  28  34
ENDBRANCH  21  22
ENDBRANCH   2  21
TORSDOF 8
ENDMDL
MODEL      127
REMARK 921   NORMALIZED FREE ENERGY PREDICTED BY IDOCK:   -4.50 KCAL/MOL
REMARK 922        TOTAL FREE ENERGY PREDICTED BY IDOCK:   -7.20 KCAL/MOL
REMARK 923 INTER-LIGAND FREE ENERGY PREDICTED BY IDOCK:   -8.86 KCAL/MOL
REMARK 924 INTRA-LIGAND FREE ENERGY PREDICTED BY IDOCK:    1.65 KCAL/MOL
REMARK 927      BINDING AFFINITY PREDICTED BY RF-SCORE:    0.00 PKD
ROOT
HETATM    1  C   UNL     1     -12.280  12.412  68.758  1.00  0.00     0.025 C  
HETATM    2  C   UNL     1     -11.119  13.338  68.355  1.00  0.00    -0.270 C  
HETATM    3  C   UNL     1     -11.343  13.786  66.901  1.00  0.00    -0.345 C  
ENDROOT
BRANCH   2   4
HETATM    4  S   UNL     1      -9.544  12.378  68.429  1.00  0.00    -0.135 SA 
BRANCH   4   5
HETATM    5  C   UNL     1     -10.056  10.683  68.691  1.00  0.00    -0.183 A  
HETATM    6  C   UNL     1     -10.578   7.981  69.193  1.00  0.00    -0.169 A  
HETATM    7  O   UNL     1     -10.796   6.676  69.532  1.00  0.00    -0.242 OA 
HETATM    8  H   UNL     1     -11.255   6.442  70.331  1.00  0.00     0.000 HD 
HETATM    9  C   UNL     1      -9.627   9.706  67.799  1.00  0.00    -0.161 A  
HETATM   10  C   UNL     1     -11.030   8.938  70.126  1.00  0.00    -0.245 A  
HETATM   11  C   UNL     1     -10.766  10.274  69.814  1.00  0.00    -0.328 A  
HETATM   12  C   UNL     1      -9.891   8.332  67.995  1.00  0.00    -0.201 A  
BRANCH  12  13
HETATM   13  C   UNL     1      -9.394   7.313  66.938  1.00  0.00    -0.192 C  
HETATM   14  C   UNL     1      -8.938   8.024  65.644  1.00  0.00    -0.102 C  
HETATM   15  C   UNL     1     -10.492   6.275  66.623  1.00  0.00    -0.255 C  
HETATM   16  C   UNL     1      -8.152   6.496  67.400  1.00  0.00    -0.121 C  
ENDBRANCH  12  13
BRANCH  10  17
HETATM   17  C   UNL     1     -11.794   8.598  71.433  1.00  0.00    -0.352 C  
HETATM   18  C   UNL     1     -12.727   7.385  71.237  1.00  0.00    -0.371 C  
HETATM   19  C   UNL     1     -10.874   8.217  72.632  1.00  0.00    -0.429 C  
HETATM   20  C   UNL     1     -12.600   9.826  71.903  1.00  0.00    -0.479 C  
ENDBRANCH  10  17
ENDBRANCH   4   5
ENDBRANCH   2   4
BRANCH   2  21
HETATM   21  S   UNL     1     -11.188  14.837  69.430  1.00  0.00    -0.298 SA 
BRANCH  21  22
HETATM   22  C   UNL     1      -9.814  15.853  68.891  1.00  0.00    -0.226 A  
HETATM   23  C   UNL     1      -8.479  15.586  69.203  1.00  0.00    -0.248 A  
HETATM   24  C   UNL     1     -10.117  17.050  68.262  1.00  0.00    -0.306 A  
HETATM   25  H   UNL     1      -5.889  18.358  68.303  1.00  0.00     0.000 HD 
HETATM   26  O   UNL     1      -6.784  18.575  68.068  1.00  0.00    -0.210 OA 
HETATM   27  C   UNL     1      -9.136  18.004  67.933  1.00  0.00    -0.269 A  
HETATM   28  C   UNL     1      -7.431  16.468  68.909  1.00  0.00    -0.225 A  
HETATM   29  C   UNL     1      -7.793  17.681  68.286  1.00  0.00    -0.256 A  
BRANCH  27  30
HETATM   30  C   UNL     1      -9.583  19.342  67.291  1.00  0.00    -0.415 C  
HETATM   31  C   UNL     1     -10.381  19.154  65.967  1.00  0.00    -0.538 C  
HETATM   32  C   UNL     1     -10.520  20.107  68.247  1.00  0.00    -0.357 C  
HETATM   33  C   UNL     1      -8.373  20.219  66.903  1.00  0.00    -0.348 C  
ENDBRANCH  27  30
BRANCH  28  34
HETATM   34  C   UNL     1      -5.965  16.072  69.248  1.00  0.00    -0.132 C  
HETATM   35  C   UNL     1      -5.832  14.731  70.031  1.00  0.00    -0.131 C  
HETATM   36  C   UNL     1      -5.273  17.133  70.133  1.00  0.00    -0.208 C  
HETATM   37  C   UNL     1      -5.165  15.874  67.943  1.00  0.00    -0.138 C  
ENDBRANCH  28  34
ENDBRANCH  21  22
ENDBRANCH   2  21
TORSDOF 8
ENDMDL
MODEL      128
REMARK 921   NORMALIZED FREE ENERGY PREDICTED BY IDOCK:   -4.49 KCAL/MOL
REMARK 922        TOTAL FREE ENERGY PREDICTED BY IDOCK:   -7.19 KCAL/MOL
REMARK 923 INTER-LIGAND FREE ENERGY PREDICTED BY IDOCK:   -7.81 KCAL/MOL
REMARK 924 INTRA-LIGAND FREE ENERGY PREDICTED BY IDOCK:    0.62 KCAL/MOL
REMARK 927      BINDING AFFINITY PREDICTED BY RF-SCORE:    0.00 PKD
ROOT
HETATM    1  C   UNL     1     -10.130   9.400  71.001  1.00  0.00    -0.353 C  
HETATM    2  C   UNL     1     -11.315   8.466  71.301  1.00  0.00    -0.266 C  
HETATM    3  C   UNL     1     -11.347   7.368  70.225  1.00  0.00    -0.244 C  
ENDROOT
BRANCH   2   4
HETATM    4  S   UNL     1     -12.880   9.438  71.182  1.00  0.00    -0.203 SA 
BRANCH   4   5
HETATM    5  C   UNL     1     -12.368  11.058  70.617  1.00  0.00    -0.386 A  
HETATM    6  C   UNL     1     -11.809  13.586  69.558  1.00  0.00    -0.334 A  
HETATM    7  O   UNL     1     -11.631  14.848  69.068  1.00  0.00    -0.275 OA 
HETATM    8  H   UNL     1     -11.845  15.616  69.586  1.00  0.00     0.000 HD 
HETATM    9  C   UNL     1     -11.813  11.182  69.347  1.00  0.00    -0.415 A  
HETATM   10  C   UNL     1     -12.373  13.507  70.849  1.00  0.00    -0.437 A  
HETATM   11  C   UNL     1     -12.608  12.220  71.339  1.00  0.00    -0.303 A  
HETATM   12  C   UNL     1     -11.488  12.436  68.782  1.00  0.00    -0.350 A  
BRANCH  12  13
HETATM   13  C   UNL     1     -10.853  12.480  67.369  1.00  0.00    -0.272 C  
HETATM   14  C   UNL     1      -9.593  13.376  67.347  1.00  0.00    -0.223 C  
HETATM   15  C   UNL     1     -11.879  12.970  66.326  1.00  0.00    -0.466 C  
HETATM   16  C   UNL     1     -10.359  11.092  66.866  1.00  0.00    -0.272 C  
ENDBRANCH  12  13
BRANCH  10  17
HETATM   17  C   UNL     1     -12.723  14.734  71.731  1.00  0.00    -0.396 C  
HETATM   18  C   UNL     1     -13.511  14.313  72.990  1.00  0.00    -0.332 C  
HETATM   19  C   UNL     1     -11.484  15.513  72.266  1.00  0.00    -0.496 C  
HETATM   20  C   UNL     1     -13.532  15.757  70.908  1.00  0.00     0.076 C  
ENDBRANCH  10  17
ENDBRANCH   4   5
ENDBRANCH   2   4
BRANCH   2  21
HETATM   21  S   UNL     1     -11.003   7.658  72.931  1.00  0.00    -0.392 SA 
BRANCH  21  22
HETATM   22  C   UNL     1      -9.839   6.342  72.576  1.00  0.00    -0.166 A  
HETATM   23  C   UNL     1     -10.134   4.984  72.711  1.00  0.00    -0.214 A  
HETATM   24  C   UNL     1      -8.530   6.708  72.302  1.00  0.00    -0.111 A  
HETATM   25  H   UNL     1      -7.142   2.507  72.376  1.00  0.00     0.000 HD 
HETATM   26  O   UNL     1      -6.901   3.420  72.271  1.00  0.00    -0.025 OA 
HETATM   27  C   UNL     1      -7.492   5.768  72.163  1.00  0.00    -0.096 A  
HETATM   28  C   UNL     1      -9.173   3.973  72.581  1.00  0.00    -0.138 A  
HETATM   29  C   UNL     1      -7.853   4.398  72.321  1.00  0.00    -0.091 A  
BRANCH  27  30
HETATM   30  C   UNL     1      -6.049   6.280  71.924  1.00  0.00    -0.041 C  
HETATM   31  C   UNL     1      -5.961   7.828  71.782  1.00  0.00    -0.035 C  
HETATM   32  C   UNL     1      -5.147   5.911  73.118  1.00  0.00    -0.023 C  
HETATM   33  C   UNL     1      -5.459   5.727  70.609  1.00  0.00    -0.013 C  
ENDBRANCH  27  30
BRANCH  28  34
HETATM   34  C   UNL     1      -9.596   2.480  72.699  1.00  0.00    -0.166 C  
HETATM   35  C   UNL     1      -8.894   1.709  73.857  1.00  0.00    -0.058 C  
HETATM   36  C   UNL     1      -9.263   1.686  71.416  1.00  0.00    -0.159 C  
HETATM   37  C   UNL     1     -11.108   2.389  72.994  1.00  0.00    -0.135 C  
ENDBRANCH  28  34
ENDBRANCH  21  22
ENDBRANCH   2  21
TORSDOF 8
ENDMDL
MODEL      129
REMARK 921   NORMALIZED FREE ENERGY PREDICTED BY IDOCK:   -4.49 KCAL/MOL
REMARK 922        TOTAL FREE ENERGY PREDICTED BY IDOCK:   -7.19 KCAL/MOL
REMARK 923 INTER-LIGAND FREE ENERGY PREDICTED BY IDOCK:   -7.83 KCAL/MOL
REMARK 924 INTRA-LIGAND FREE ENERGY PREDICTED BY IDOCK:    0.64 KCAL/MOL
REMARK 927      BINDING AFFINITY PREDICTED BY RF-SCORE:    0.00 PKD
ROOT
HETATM    1  C   UNL     1      -6.611   9.480  67.955  1.00  0.00    -0.062 C  
HETATM    2  C   UNL     1      -7.669  10.385  67.300  1.00  0.00    -0.099 C  
HETATM    3  C   UNL     1      -7.017  11.102  66.106  1.00  0.00    -0.000 C  
ENDROOT
BRANCH   2   4
HETATM    4  S   UNL     1      -8.194  11.663  68.525  1.00  0.00    -0.117 SA 
BRANCH   4   5
HETATM    5  C   UNL     1      -8.632  13.089  67.536  1.00  0.00    -0.192 A  
HETATM    6  C   UNL     1      -9.547  15.356  66.177  1.00  0.00    -0.329 A  
HETATM    7  O   UNL     1      -9.993  16.512  65.602  1.00  0.00    -0.497 OA 
HETATM    8  H   UNL     1      -9.558  17.343  65.758  1.00  0.00     0.000 HD 
HETATM    9  C   UNL     1      -9.719  13.000  66.673  1.00  0.00    -0.256 A  
HETATM   10  C   UNL     1      -8.443  15.492  67.045  1.00  0.00    -0.266 A  
HETATM   11  C   UNL     1      -8.011  14.325  67.678  1.00  0.00    -0.191 A  
HETATM   12  C   UNL     1     -10.199  14.111  65.943  1.00  0.00    -0.332 A  
BRANCH  12  13
HETATM   13  C   UNL     1     -11.403  13.917  64.986  1.00  0.00    -0.336 C  
HETATM   14  C   UNL     1     -12.676  13.509  65.761  1.00  0.00    -0.433 C  
HETATM   15  C   UNL     1     -11.074  12.869  63.902  1.00  0.00    -0.454 C  
HETATM   16  C   UNL     1     -11.803  15.213  64.221  1.00  0.00    -0.263 C  
ENDBRANCH  12  13
BRANCH  10  17
HETATM   17  C   UNL     1      -7.697  16.826  67.314  1.00  0.00    -0.200 C  
HETATM   18  C   UNL     1      -8.560  17.790  68.157  1.00  0.00    -0.262 C  
HETATM   19  C   UNL     1      -6.366  16.666  68.109  1.00  0.00    -0.140 C  
HETATM   20  C   UNL     1      -7.305  17.486  65.977  1.00  0.00    -0.288 C  
ENDBRANCH  10  17
ENDBRANCH   4   5
ENDBRANCH   2   4
BRANCH   2  21
HETATM   21  S   UNL     1      -9.017   9.306  66.650  1.00  0.00    -0.145 SA 
BRANCH  21  22
HETATM   22  C   UNL     1      -9.220   8.027  67.888  1.00  0.00    -0.131 A  
HETATM   23  C   UNL     1      -8.778   6.712  67.730  1.00  0.00    -0.116 A  
HETATM   24  C   UNL     1      -9.995   8.333  68.996  1.00  0.00    -0.193 A  
HETATM   25  H   UNL     1      -9.928   4.147  70.432  1.00  0.00     0.000 HD 
HETATM   26  O   UNL     1     -10.243   5.031  70.579  1.00  0.00    -0.246 OA 
HETATM   27  C   UNL     1     -10.357   7.371  69.958  1.00  0.00    -0.224 A  
HETATM   28  C   UNL     1      -9.078   5.687  68.636  1.00  0.00    -0.124 A  
HETATM   29  C   UNL     1      -9.885   6.044  69.737  1.00  0.00    -0.165 A  
BRANCH  27  30
HETATM   30  C   UNL     1     -11.284   7.796  71.125  1.00  0.00    -0.285 C  
HETATM   31  C   UNL     1     -11.837   9.244  70.976  1.00  0.00    -0.376 C  
HETATM   32  C   UNL     1     -12.519   6.875  71.190  1.00  0.00    -0.398 C  
HETATM   33  C   UNL     1     -10.535   7.794  72.476  1.00  0.00    -0.343 C  
ENDBRANCH  27  30
BRANCH  28  34
HETATM   34  C   UNL     1      -8.505   4.258  68.410  1.00  0.00    -0.103 C  
HETATM   35  C   UNL     1      -9.592   3.159  68.214  1.00  0.00    -0.133 C  
HETATM   36  C   UNL     1      -7.653   3.784  69.608  1.00  0.00    -0.052 C  
HETATM   37  C   UNL     1      -7.655   4.236  67.121  1.00  0.00    -0.077 C  
ENDBRANCH  28  34
ENDBRANCH  21  22
ENDBRANCH   2  21
TORSDOF 8
ENDMDL
MODEL      130
REMARK 921   NORMALIZED FREE ENERGY PREDICTED BY IDOCK:   -4.48 KCAL/MOL
REMARK 922        TOTAL FREE ENERGY PREDICTED BY IDOCK:   -7.18 KCAL/MOL
REMARK 923 INTER-LIGAND FREE ENERGY PREDICTED BY IDOCK:   -7.59 KCAL/MOL
REMARK 924 INTRA-LIGAND FREE ENERGY PREDICTED BY IDOCK:    0.41 KCAL/MOL
REMARK 927      BINDING AFFINITY PREDICTED BY RF-SCORE:    0.00 PKD
ROOT
HETATM    1  C   UNL     1      -9.598   9.591  70.795  1.00  0.00    -0.261 C  
HETATM    2  C   UNL     1      -9.131   9.392  69.342  1.00  0.00    -0.161 C  
HETATM    3  C   UNL     1      -8.593  10.734  68.821  1.00  0.00    -0.156 C  
ENDROOT
BRANCH   2   4
HETATM    4  S   UNL     1     -10.588   8.913  68.314  1.00  0.00    -0.099 SA 
BRANCH   4   5
HETATM    5  C   UNL     1     -10.273   9.641  66.710  1.00  0.00    -0.239 A  
HETATM    6  C   UNL     1      -9.606  10.976  64.344  1.00  0.00    -0.259 A  
HETATM    7  O   UNL     1      -9.181  11.614  63.213  1.00  0.00    -0.515 OA 
HETATM    8  H   UNL     1      -8.524  11.231  62.644  1.00  0.00     0.000 HD 
HETATM    9  C   UNL     1     -10.875  10.855  66.393  1.00  0.00    -0.210 A  
HETATM   10  C   UNL     1      -8.969   9.749  64.626  1.00  0.00    -0.270 A  
HETATM   11  C   UNL     1      -9.358   9.112  65.807  1.00  0.00    -0.309 A  
HETATM   12  C   UNL     1     -10.591  11.551  65.196  1.00  0.00    -0.350 A  
BRANCH  12  13
HETATM   13  C   UNL     1     -11.324  12.887  64.913  1.00  0.00    -0.340 C  
HETATM   14  C   UNL     1     -12.108  12.826  63.582  1.00  0.00    -0.624 C  
HETATM   15  C   UNL     1     -10.326  14.063  64.896  1.00  0.00    -0.434 C  
HETATM   16  C   UNL     1     -12.393  13.247  65.985  1.00  0.00    -0.449 C  
ENDBRANCH  12  13
BRANCH  10  17
HETATM   17  C   UNL     1      -7.903   9.082  63.717  1.00  0.00    -0.137 C  
HETATM   18  C   UNL     1      -8.517   8.625  62.377  1.00  0.00    -0.194 C  
HETATM   19  C   UNL     1      -6.719  10.017  63.326  1.00  0.00    -0.133 C  
HETATM   20  C   UNL     1      -7.263   7.886  64.450  1.00  0.00    -0.081 C  
ENDBRANCH  10  17
ENDBRANCH   4   5
ENDBRANCH   2   4
BRANCH   2  21
HETATM   21  S   UNL     1      -7.735   8.184  69.355  1.00  0.00    -0.105 SA 
BRANCH  21  22
HETATM   22  C   UNL     1      -8.438   6.676  70.021  1.00  0.00    -0.139 A  
HETATM   23  C   UNL     1      -9.027   6.584  71.284  1.00  0.00    -0.141 A  
HETATM   24  C   UNL     1      -8.242   5.510  69.298  1.00  0.00    -0.095 A  
HETATM   25  H   UNL     1      -9.908   2.999  72.539  1.00  0.00     0.000 HD 
HETATM   26  O   UNL     1      -9.516   3.020  71.674  1.00  0.00    -0.117 OA 
HETATM   27  C   UNL     1      -8.606   4.242  69.789  1.00  0.00    -0.100 A  
HETATM   28  C   UNL     1      -9.432   5.370  71.855  1.00  0.00    -0.176 A  
HETATM   29  C   UNL     1      -9.194   4.210  71.088  1.00  0.00    -0.131 A  
BRANCH  27  30
HETATM   30  C   UNL     1      -8.284   2.991  68.934  1.00  0.00    -0.077 C  
HETATM   31  C   UNL     1      -9.506   2.044  68.745  1.00  0.00    -0.192 C  
HETATM   32  C   UNL     1      -7.848   3.410  67.516  1.00  0.00    -0.077 C  
HETATM   33  C   UNL     1      -7.201   2.112  69.596  1.00  0.00    -0.039 C  
ENDBRANCH  27  30
BRANCH  28  34
HETATM   34  C   UNL     1     -10.125   5.360  73.248  1.00  0.00    -0.198 C  
HETATM   35  C   UNL     1     -11.429   4.509  73.305  1.00  0.00    -0.314 C  
HETATM   36  C   UNL     1     -10.543   6.780  73.692  1.00  0.00    -0.347 C  
HETATM   37  C   UNL     1      -9.177   4.740  74.297  1.00  0.00    -0.117 C  
ENDBRANCH  28  34
ENDBRANCH  21  22
ENDBRANCH   2  21
TORSDOF 8
ENDMDL
MODEL      131
REMARK 921   NORMALIZED FREE ENERGY PREDICTED BY IDOCK:   -4.48 KCAL/MOL
REMARK 922        TOTAL FREE ENERGY PREDICTED BY IDOCK:   -7.17 KCAL/MOL
REMARK 923 INTER-LIGAND FREE ENERGY PREDICTED BY IDOCK:   -7.93 KCAL/MOL
REMARK 924 INTRA-LIGAND FREE ENERGY PREDICTED BY IDOCK:    0.76 KCAL/MOL
REMARK 927      BINDING AFFINITY PREDICTED BY RF-SCORE:    0.00 PKD
ROOT
HETATM    1  C   UNL     1      -8.416  11.156  66.867  1.00  0.00    -0.147 C  
HETATM    2  C   UNL     1      -8.805   9.770  67.410  1.00  0.00    -0.132 C  
HETATM    3  C   UNL     1      -8.639   8.745  66.277  1.00  0.00    -0.144 C  
ENDROOT
BRANCH   2   4
HETATM    4  S   UNL     1     -10.584   9.807  67.903  1.00  0.00    -0.259 SA 
BRANCH   4   5
HETATM    5  C   UNL     1     -10.980  11.546  68.049  1.00  0.00    -0.231 A  
HETATM    6  C   UNL     1     -11.863  14.198  68.155  1.00  0.00    -0.352 A  
HETATM    7  O   UNL     1     -12.378  15.459  68.255  1.00  0.00    -0.458 OA 
HETATM    8  H   UNL     1     -12.697  15.800  69.082  1.00  0.00     0.000 HD 
HETATM    9  C   UNL     1     -10.974  12.335  66.904  1.00  0.00    -0.312 A  
HETATM   10  C   UNL     1     -11.889  13.433  69.340  1.00  0.00    -0.390 A  
HETATM   11  C   UNL     1     -11.413  12.124  69.237  1.00  0.00    -0.363 A  
HETATM   12  C   UNL     1     -11.383  13.688  66.914  1.00  0.00    -0.345 A  
BRANCH  12  13
HETATM   13  C   UNL     1     -11.323  14.501  65.596  1.00  0.00    -0.336 C  
HETATM   14  C   UNL     1     -12.740  14.813  65.063  1.00  0.00     0.041 C  
HETATM   15  C   UNL     1     -10.501  13.748  64.529  1.00  0.00    -0.378 C  
HETATM   16  C   UNL     1     -10.645  15.893  65.755  1.00  0.00    -0.368 C  
ENDBRANCH  12  13
BRANCH  10  17
HETATM   17  C   UNL     1     -12.390  13.956  70.713  1.00  0.00    -0.449 C  
HETATM   18  C   UNL     1     -11.359  14.906  71.359  1.00  0.00    -0.246 C  
HETATM   19  C   UNL     1     -13.714  14.775  70.642  1.00  0.00     0.063 C  
HETATM   20  C   UNL     1     -12.686  12.768  71.649  1.00  0.00    -0.293 C  
ENDBRANCH  10  17
ENDBRANCH   4   5
ENDBRANCH   2   4
BRANCH   2  21
HETATM   21  S   UNL     1      -7.617   9.332  68.753  1.00  0.00    -0.080 SA 
BRANCH  21  22
HETATM   22  C   UNL     1      -8.387   7.967  69.621  1.00  0.00    -0.131 A  
HETATM   23  C   UNL     1      -8.070   6.625  69.398  1.00  0.00    -0.119 A  
HETATM   24  C   UNL     1      -9.463   8.262  70.443  1.00  0.00    -0.172 A  
HETATM   25  H   UNL     1     -10.382   3.982  71.093  1.00  0.00     0.000 HD 
HETATM   26  O   UNL     1     -10.626   4.882  71.275  1.00  0.00    -0.144 OA 
HETATM   27  C   UNL     1     -10.247   7.266  71.054  1.00  0.00    -0.198 A  
HETATM   28  C   UNL     1      -8.784   5.563  69.967  1.00  0.00    -0.132 A  
HETATM   29  C   UNL     1      -9.882   5.915  70.781  1.00  0.00    -0.183 A  
BRANCH  27  30
HETATM   30  C   UNL     1     -11.471   7.696  71.902  1.00  0.00    -0.313 C  
HETATM   31  C   UNL     1     -12.789   6.976  71.491  1.00  0.00    -0.420 C  
HETATM   32  C   UNL     1     -11.242   7.347  73.387  1.00  0.00    -0.047 C  
HETATM   33  C   UNL     1     -11.775   9.201  71.741  1.00  0.00    -0.456 C  
ENDBRANCH  27  30
BRANCH  28  34
HETATM   34  C   UNL     1      -8.335   4.096  69.706  1.00  0.00    -0.079 C  
HETATM   35  C   UNL     1      -8.205   3.231  70.995  1.00  0.00    -0.077 C  
HETATM   36  C   UNL     1      -6.949   4.032  69.027  1.00  0.00    -0.047 C  
HETATM   37  C   UNL     1      -9.383   3.379  68.828  1.00  0.00    -0.234 C  
ENDBRANCH  28  34
ENDBRANCH  21  22
ENDBRANCH   2  21
TORSDOF 8
ENDMDL
MODEL      132
REMARK 921   NORMALIZED FREE ENERGY PREDICTED BY IDOCK:   -4.48 KCAL/MOL
REMARK 922        TOTAL FREE ENERGY PREDICTED BY IDOCK:   -7.17 KCAL/MOL
REMARK 923 INTER-LIGAND FREE ENERGY PREDICTED BY IDOCK:   -6.47 KCAL/MOL
REMARK 924 INTRA-LIGAND FREE ENERGY PREDICTED BY IDOCK:   -0.70 KCAL/MOL
REMARK 927      BINDING AFFINITY PREDICTED BY RF-SCORE:    0.00 PKD
ROOT
HETATM    1  C   UNL     1      -5.876  12.174  70.341  1.00  0.00    -0.154 C  
HETATM    2  C   UNL     1      -6.396  11.490  69.064  1.00  0.00    -0.069 C  
HETATM    3  C   UNL     1      -7.901  11.224  69.239  1.00  0.00     0.040 C  
ENDROOT
BRANCH   2   4
HETATM    4  S   UNL     1      -5.540   9.865  68.874  1.00  0.00    -0.034 SA 
BRANCH   4   5
HETATM    5  C   UNL     1      -6.409   9.045  67.542  1.00  0.00    -0.063 A  
HETATM    6  C   UNL     1      -7.996   7.944  65.519  1.00  0.00    -0.119 A  
HETATM    7  O   UNL     1      -8.785   7.502  64.495  1.00  0.00    -0.356 OA 
HETATM    8  H   UNL     1      -8.626   7.768  63.596  1.00  0.00     0.000 HD 
HETATM    9  C   UNL     1      -7.426   8.148  67.855  1.00  0.00    -0.098 A  
HETATM   10  C   UNL     1      -6.978   8.852  65.156  1.00  0.00    -0.080 A  
HETATM   11  C   UNL     1      -6.199   9.351  66.202  1.00  0.00    -0.067 A  
HETATM   12  C   UNL     1      -8.235   7.545  66.865  1.00  0.00    -0.124 A  
BRANCH  12  13
HETATM   13  C   UNL     1      -9.331   6.540  67.301  1.00  0.00    -0.129 C  
HETATM   14  C   UNL     1      -9.305   6.309  68.829  1.00  0.00    -0.124 C  
HETATM   15  C   UNL     1      -9.170   5.200  66.553  1.00  0.00    -0.136 C  
HETATM   16  C   UNL     1     -10.777   7.029  66.999  1.00  0.00    -0.423 C  
ENDBRANCH  12  13
BRANCH  10  17
HETATM   17  C   UNL     1      -6.677   9.300  63.701  1.00  0.00    -0.092 C  
HETATM   18  C   UNL     1      -6.236   8.106  62.828  1.00  0.00    -0.082 C  
HETATM   19  C   UNL     1      -7.897   9.922  62.958  1.00  0.00    -0.138 C  
HETATM   20  C   UNL     1      -5.591  10.394  63.705  1.00  0.00    -0.149 C  
ENDBRANCH  10  17
ENDBRANCH   4   5
ENDBRANCH   2   4
BRANCH   2  21
HETATM   21  S   UNL     1      -6.185  12.669  67.661  1.00  0.00    -0.158 SA 
BRANCH  21  22
HETATM   22  C   UNL     1      -7.848  13.179  67.234  1.00  0.00    -0.117 A  
HETATM   23  C   UNL     1      -8.688  12.462  66.379  1.00  0.00     0.013 A  
HETATM   24  C   UNL     1      -8.257  14.434  67.659  1.00  0.00    -0.185 A  
HETATM   25  H   UNL     1     -11.992  14.226  65.295  1.00  0.00     0.000 HD 
HETATM   26  O   UNL     1     -11.453  14.743  65.882  1.00  0.00    -0.351 OA 
HETATM   27  C   UNL     1      -9.476  15.012  67.259  1.00  0.00    -0.212 A  
HETATM   28  C   UNL     1      -9.924  12.948  65.932  1.00  0.00    -0.273 A  
HETATM   29  C   UNL     1     -10.286  14.236  66.377  1.00  0.00    -0.291 A  
BRANCH  27  30
HETATM   30  C   UNL     1      -9.813  16.448  67.734  1.00  0.00    -0.239 C  
HETATM   31  C   UNL     1      -8.690  17.087  68.604  1.00  0.00    -0.261 C  
HETATM   32  C   UNL     1      -9.996  17.383  66.522  1.00  0.00    -0.314 C  
HETATM   33  C   UNL     1     -11.070  16.471  68.630  1.00  0.00    -0.329 C  
ENDBRANCH  27  30
BRANCH  28  34
HETATM   34  C   UNL     1     -10.820  12.063  65.018  1.00  0.00    -0.351 C  
HETATM   35  C   UNL     1     -12.346  12.351  65.151  1.00  0.00    -0.403 C  
HETATM   36  C   UNL     1     -10.657  10.560  65.334  1.00  0.00    -0.143 C  
HETATM   37  C   UNL     1     -10.475  12.329  63.537  1.00  0.00    -0.459 C  
ENDBRANCH  28  34
ENDBRANCH  21  22
ENDBRANCH   2  21
TORSDOF 8
ENDMDL
MODEL      133
REMARK 921   NORMALIZED FREE ENERGY PREDICTED BY IDOCK:   -4.48 KCAL/MOL
REMARK 922        TOTAL FREE ENERGY PREDICTED BY IDOCK:   -7.17 KCAL/MOL
REMARK 923 INTER-LIGAND FREE ENERGY PREDICTED BY IDOCK:   -7.76 KCAL/MOL
REMARK 924 INTRA-LIGAND FREE ENERGY PREDICTED BY IDOCK:    0.59 KCAL/MOL
REMARK 927      BINDING AFFINITY PREDICTED BY RF-SCORE:    0.00 PKD
ROOT
HETATM    1  C   UNL     1      -6.158   9.595  68.335  1.00  0.00    -0.043 C  
HETATM    2  C   UNL     1      -7.205  10.511  67.678  1.00  0.00    -0.086 C  
HETATM    3  C   UNL     1      -6.526  11.269  66.525  1.00  0.00    -0.111 C  
ENDROOT
BRANCH   2   4
HETATM    4  S   UNL     1      -7.777  11.745  68.925  1.00  0.00     0.022 SA 
BRANCH   4   5
HETATM    5  C   UNL     1      -8.525  13.055  67.961  1.00  0.00    -0.181 A  
HETATM    6  C   UNL     1      -9.455  15.086  66.277  1.00  0.00    -0.311 A  
HETATM    7  O   UNL     1      -9.895  16.013  65.376  1.00  0.00    -0.440 OA 
HETATM    8  H   UNL     1     -10.557  15.800  64.729  1.00  0.00     0.000 HD 
HETATM    9  C   UNL     1      -8.005  14.341  68.057  1.00  0.00    -0.142 A  
HETATM   10  C   UNL     1     -10.009  13.795  66.143  1.00  0.00    -0.318 A  
HETATM   11  C   UNL     1      -9.528  12.825  67.026  1.00  0.00    -0.233 A  
HETATM   12  C   UNL     1      -8.463  15.406  67.248  1.00  0.00    -0.214 A  
BRANCH  12  13
HETATM   13  C   UNL     1      -7.842  16.814  67.437  1.00  0.00    -0.193 C  
HETATM   14  C   UNL     1      -6.646  16.773  68.414  1.00  0.00    -0.149 C  
HETATM   15  C   UNL     1      -8.906  17.816  67.931  1.00  0.00    -0.251 C  
HETATM   16  C   UNL     1      -7.261  17.417  66.125  1.00  0.00    -0.327 C  
ENDBRANCH  12  13
BRANCH  10  17
HETATM   17  C   UNL     1     -11.101  13.410  65.110  1.00  0.00    -0.315 C  
HETATM   18  C   UNL     1     -11.842  14.659  64.587  1.00  0.00    -0.459 C  
HETATM   19  C   UNL     1     -10.555  12.695  63.837  1.00  0.00    -0.460 C  
HETATM   20  C   UNL     1     -12.098  12.421  65.746  1.00  0.00    -0.381 C  
ENDBRANCH  10  17
ENDBRANCH   4   5
ENDBRANCH   2   4
BRANCH   2  21
HETATM   21  S   UNL     1      -8.524   9.440  66.957  1.00  0.00    -0.128 SA 
BRANCH  21  22
HETATM   22  C   UNL     1      -8.871   8.223  68.225  1.00  0.00    -0.140 A  
HETATM   23  C   UNL     1      -8.414   6.904  68.185  1.00  0.00    -0.124 A  
HETATM   24  C   UNL     1      -9.773   8.578  69.216  1.00  0.00    -0.173 A  
HETATM   25  H   UNL     1      -9.876   4.468  70.856  1.00  0.00     0.000 HD 
HETATM   26  O   UNL     1     -10.206   5.357  70.921  1.00  0.00    -0.208 OA 
HETATM   27  C   UNL     1     -10.246   7.663  70.175  1.00  0.00    -0.204 A  
HETATM   28  C   UNL     1      -8.819   5.923  69.099  1.00  0.00    -0.117 A  
HETATM   29  C   UNL     1      -9.751   6.329  70.077  1.00  0.00    -0.168 A  
BRANCH  27  30
HETATM   30  C   UNL     1     -11.305   8.139  71.202  1.00  0.00    -0.299 C  
HETATM   31  C   UNL     1     -12.604   7.281  71.190  1.00  0.00    -0.362 C  
HETATM   32  C   UNL     1     -10.742   8.039  72.634  1.00  0.00    -0.426 C  
HETATM   33  C   UNL     1     -11.778   9.579  70.906  1.00  0.00    -0.391 C  
ENDBRANCH  27  30
BRANCH  28  34
HETATM   34  C   UNL     1      -8.224   4.488  69.013  1.00  0.00    -0.082 C  
HETATM   35  C   UNL     1      -7.234   4.279  67.828  1.00  0.00    -0.064 C  
HETATM   36  C   UNL     1      -9.323   3.420  68.823  1.00  0.00    -0.234 C  
HETATM   37  C   UNL     1      -7.412   4.184  70.291  1.00  0.00    -0.045 C  
ENDBRANCH  28  34
ENDBRANCH  21  22
ENDBRANCH   2  21
TORSDOF 8
ENDMDL
MODEL      134
REMARK 921   NORMALIZED FREE ENERGY PREDICTED BY IDOCK:   -4.47 KCAL/MOL
REMARK 922        TOTAL FREE ENERGY PREDICTED BY IDOCK:   -7.16 KCAL/MOL
REMARK 923 INTER-LIGAND FREE ENERGY PREDICTED BY IDOCK:   -7.54 KCAL/MOL
REMARK 924 INTRA-LIGAND FREE ENERGY PREDICTED BY IDOCK:    0.38 KCAL/MOL
REMARK 927      BINDING AFFINITY PREDICTED BY RF-SCORE:    0.00 PKD
ROOT
HETATM    1  C   UNL     1     -10.102  11.362  69.097  1.00  0.00    -0.044 C  
HETATM    2  C   UNL     1     -10.141   9.900  69.576  1.00  0.00    -0.221 C  
HETATM    3  C   UNL     1     -11.215   9.781  70.670  1.00  0.00    -0.402 C  
ENDROOT
BRANCH   2   4
HETATM    4  S   UNL     1      -8.506   9.479  70.322  1.00  0.00    -0.195 SA 
BRANCH   4   5
HETATM    5  C   UNL     1      -8.542   7.700  70.524  1.00  0.00    -0.137 A  
HETATM    6  C   UNL     1      -8.896   4.942  70.825  1.00  0.00    -0.126 A  
HETATM    7  O   UNL     1      -9.125   3.597  70.887  1.00  0.00    -0.090 OA 
HETATM    8  H   UNL     1      -8.988   3.036  70.132  1.00  0.00     0.000 HD 
HETATM    9  C   UNL     1      -8.936   7.171  71.749  1.00  0.00    -0.134 A  
HETATM   10  C   UNL     1      -8.497   5.436  69.565  1.00  0.00    -0.100 A  
HETATM   11  C   UNL     1      -8.310   6.817  69.477  1.00  0.00    -0.132 A  
HETATM   12  C   UNL     1      -9.100   5.783  71.957  1.00  0.00    -0.143 A  
BRANCH  12  13
HETATM   13  C   UNL     1      -9.521   5.278  73.360  1.00  0.00    -0.141 C  
HETATM   14  C   UNL     1      -8.478   4.295  73.939  1.00  0.00    -0.095 C  
HETATM   15  C   UNL     1     -10.913   4.615  73.305  1.00  0.00    -0.381 C  
HETATM   16  C   UNL     1      -9.629   6.412  74.421  1.00  0.00    -0.279 C  
ENDBRANCH  12  13
BRANCH  10  17
HETATM   17  C   UNL     1      -8.249   4.552  68.313  1.00  0.00    -0.090 C  
HETATM   18  C   UNL     1      -9.510   3.743  67.941  1.00  0.00    -0.224 C  
HETATM   19  C   UNL     1      -7.880   5.351  67.027  1.00  0.00    -0.101 C  
HETATM   20  C   UNL     1      -7.060   3.605  68.569  1.00  0.00    -0.051 C  
ENDBRANCH  10  17
ENDBRANCH   4   5
ENDBRANCH   2   4
BRANCH   2  21
HETATM   21  S   UNL     1     -10.660   8.848  68.151  1.00  0.00    -0.105 SA 
BRANCH  21  22
HETATM   22  C   UNL     1     -10.220   9.797  66.696  1.00  0.00    -0.226 A  
HETATM   23  C   UNL     1     -10.900  10.944  66.279  1.00  0.00    -0.191 A  
HETATM   24  C   UNL     1      -9.249   9.267  65.861  1.00  0.00    -0.277 A  
HETATM   25  H   UNL     1      -9.956  12.352  62.768  1.00  0.00     0.000 HD 
HETATM   26  O   UNL     1      -9.468  11.576  63.017  1.00  0.00    -0.367 OA 
HETATM   27  C   UNL     1      -8.928   9.834  64.614  1.00  0.00    -0.270 A  
HETATM   28  C   UNL     1     -10.646  11.586  65.060  1.00  0.00    -0.354 A  
HETATM   29  C   UNL     1      -9.662  10.997  64.239  1.00  0.00    -0.284 A  
BRANCH  27  30
HETATM   30  C   UNL     1      -7.874   9.129  63.723  1.00  0.00    -0.133 C  
HETATM   31  C   UNL     1      -6.695  10.059  63.310  1.00  0.00    -0.133 C  
HETATM   32  C   UNL     1      -7.237   7.947  64.481  1.00  0.00    -0.080 C  
HETATM   33  C   UNL     1      -8.486   8.649  62.389  1.00  0.00    -0.194 C  
ENDBRANCH  27  30
BRANCH  28  34
HETATM   34  C   UNL     1     -11.415  12.888  64.694  1.00  0.00    -0.369 C  
HETATM   35  C   UNL     1     -12.497  13.304  65.736  1.00  0.00    -0.480 C  
HETATM   36  C   UNL     1     -12.169  12.752  63.352  1.00  0.00    -0.594 C  
HETATM   37  C   UNL     1     -10.429  14.073  64.623  1.00  0.00    -0.398 C  
ENDBRANCH  28  34
ENDBRANCH  21  22
ENDBRANCH   2  21
TORSDOF 8
ENDMDL
MODEL      135
REMARK 921   NORMALIZED FREE ENERGY PREDICTED BY IDOCK:   -4.47 KCAL/MOL
REMARK 922        TOTAL FREE ENERGY PREDICTED BY IDOCK:   -7.16 KCAL/MOL
REMARK 923 INTER-LIGAND FREE ENERGY PREDICTED BY IDOCK:   -7.44 KCAL/MOL
REMARK 924 INTRA-LIGAND FREE ENERGY PREDICTED BY IDOCK:    0.29 KCAL/MOL
REMARK 927      BINDING AFFINITY PREDICTED BY RF-SCORE:    0.00 PKD
ROOT
HETATM    1  C   UNL     1      -8.097  13.396  69.192  1.00  0.00     0.414 C  
HETATM    2  C   UNL     1      -6.575  13.606  69.276  1.00  0.00    -0.110 C  
HETATM    3  C   UNL     1      -6.284  14.558  70.448  1.00  0.00    -0.174 C  
ENDROOT
BRANCH   2   4
HETATM    4  S   UNL     1      -6.003  14.415  67.718  1.00  0.00    -0.039 SA 
BRANCH   4   5
HETATM    5  C   UNL     1      -7.370  15.456  67.217  1.00  0.00    -0.204 A  
HETATM    6  C   UNL     1      -9.657  16.968  66.662  1.00  0.00    -0.266 A  
HETATM    7  O   UNL     1     -10.772  17.737  66.488  1.00  0.00    -0.253 OA 
HETATM    8  H   UNL     1     -10.793  18.648  66.760  1.00  0.00     0.000 HD 
HETATM    9  C   UNL     1      -8.461  14.873  66.580  1.00  0.00    -0.138 A  
HETATM   10  C   UNL     1      -8.575  17.599  67.311  1.00  0.00    -0.238 A  
HETATM   11  C   UNL     1      -7.449  16.806  67.540  1.00  0.00    -0.181 A  
HETATM   12  C   UNL     1      -9.626  15.603  66.253  1.00  0.00    -0.337 A  
BRANCH  12  13
HETATM   13  C   UNL     1     -10.786  14.879  65.524  1.00  0.00    -0.365 C  
HETATM   14  C   UNL     1     -11.861  14.393  66.524  1.00  0.00    -0.406 C  
HETATM   15  C   UNL     1     -10.251  13.695  64.692  1.00  0.00    -0.338 C  
HETATM   16  C   UNL     1     -11.557  15.791  64.526  1.00  0.00    -0.247 C  
ENDBRANCH  12  13
BRANCH  10  17
HETATM   17  C   UNL     1      -8.564  19.085  67.757  1.00  0.00    -0.328 C  
HETATM   18  C   UNL     1      -7.194  19.483  68.346  1.00  0.00    -0.354 C  
HETATM   19  C   UNL     1      -8.825  20.102  66.605  1.00  0.00    -0.382 C  
HETATM   20  C   UNL     1      -9.684  19.330  68.789  1.00  0.00    -0.510 C  
ENDBRANCH  10  17
ENDBRANCH   4   5
ENDBRANCH   2   4
BRANCH   2  21
HETATM   21  S   UNL     1      -5.797  11.977  69.658  1.00  0.00    -0.119 SA 
BRANCH  21  22
HETATM   22  C   UNL     1      -6.967  10.758  69.064  1.00  0.00    -0.085 A  
HETATM   23  C   UNL     1      -7.244  10.538  67.712  1.00  0.00    -0.085 A  
HETATM   24  C   UNL     1      -7.748  10.112  70.010  1.00  0.00    -0.150 A  
HETATM   25  H   UNL     1     -10.255   8.195  66.907  1.00  0.00     0.000 HD 
HETATM   26  O   UNL     1     -10.095   8.314  67.836  1.00  0.00    -0.182 OA 
HETATM   27  C   UNL     1      -8.806   9.252  69.662  1.00  0.00    -0.159 A  
HETATM   28  C   UNL     1      -8.270   9.694  67.266  1.00  0.00    -0.114 A  
HETATM   29  C   UNL     1      -9.047   9.075  68.268  1.00  0.00    -0.133 A  
BRANCH  27  30
HETATM   30  C   UNL     1      -9.664   8.630  70.792  1.00  0.00    -0.237 C  
HETATM   31  C   UNL     1      -8.928   8.575  72.164  1.00  0.00    -0.300 C  
HETATM   32  C   UNL     1     -10.935   9.472  71.025  1.00  0.00    -0.424 C  
HETATM   33  C   UNL     1     -10.036   7.163  70.483  1.00  0.00    -0.202 C  
ENDBRANCH  27  30
BRANCH  28  34
HETATM   34  C   UNL     1      -8.480   9.467  65.742  1.00  0.00    -0.142 C  
HETATM   35  C   UNL     1      -9.854   9.969  65.206  1.00  0.00    -0.388 C  
HETATM   36  C   UNL     1      -8.417   7.969  65.370  1.00  0.00    -0.155 C  
HETATM   37  C   UNL     1      -7.412  10.250  64.947  1.00  0.00    -0.114 C  
ENDBRANCH  28  34
ENDBRANCH  21  22
ENDBRANCH   2  21
TORSDOF 8
ENDMDL
MODEL      136
REMARK 921   NORMALIZED FREE ENERGY PREDICTED BY IDOCK:   -4.47 KCAL/MOL
REMARK 922        TOTAL FREE ENERGY PREDICTED BY IDOCK:   -7.15 KCAL/MOL
REMARK 923 INTER-LIGAND FREE ENERGY PREDICTED BY IDOCK:   -7.62 KCAL/MOL
REMARK 924 INTRA-LIGAND FREE ENERGY PREDICTED BY IDOCK:    0.47 KCAL/MOL
REMARK 927      BINDING AFFINITY PREDICTED BY RF-SCORE:    0.00 PKD
ROOT
HETATM    1  C   UNL     1      -9.628   8.392  67.595  1.00  0.00    -0.188 C  
HETATM    2  C   UNL     1      -8.115   8.669  67.533  1.00  0.00    -0.106 C  
HETATM    3  C   UNL     1      -7.379   7.320  67.528  1.00  0.00    -0.092 C  
ENDROOT
BRANCH   2   4
HETATM    4  S   UNL     1      -7.621   9.593  69.053  1.00  0.00    -0.080 SA 
BRANCH   4   5
HETATM    5  C   UNL     1      -8.897   9.217  70.250  1.00  0.00    -0.213 A  
HETATM    6  C   UNL     1     -11.034   8.487  71.902  1.00  0.00    -0.324 A  
HETATM    7  O   UNL     1     -12.062   8.034  72.678  1.00  0.00    -0.545 OA 
HETATM    8  H   UNL     1     -11.952   7.295  73.265  1.00  0.00     0.000 HD 
HETATM    9  C   UNL     1     -10.102   9.909  70.189  1.00  0.00    -0.309 A  
HETATM   10  C   UNL     1      -9.830   7.756  71.996  1.00  0.00    -0.226 A  
HETATM   11  C   UNL     1      -8.788   8.179  71.169  1.00  0.00    -0.171 A  
HETATM   12  C   UNL     1     -11.199   9.595  71.022  1.00  0.00    -0.445 A  
BRANCH  12  13
HETATM   13  C   UNL     1     -12.498  10.433  70.901  1.00  0.00    -0.478 C  
HETATM   14  C   UNL     1     -13.739   9.525  70.750  1.00  0.00     0.132 C  
HETATM   15  C   UNL     1     -12.403  11.417  69.717  1.00  0.00    -0.250 C  
HETATM   16  C   UNL     1     -12.795  11.302  72.158  1.00  0.00    -0.081 C  
ENDBRANCH  12  13
BRANCH  10  17
HETATM   17  C   UNL     1      -9.605   6.554  72.952  1.00  0.00    -0.158 C  
HETATM   18  C   UNL     1     -10.283   6.791  74.318  1.00  0.00    -0.309 C  
HETATM   19  C   UNL     1     -10.190   5.206  72.433  1.00  0.00    -0.249 C  
HETATM   20  C   UNL     1      -8.095   6.308  73.136  1.00  0.00    -0.110 C  
ENDBRANCH  10  17
ENDBRANCH   4   5
ENDBRANCH   2   4
BRANCH   2  21
HETATM   21  S   UNL     1      -7.759   9.519  65.934  1.00  0.00    -0.102 SA 
BRANCH  21  22
HETATM   22  C   UNL     1      -8.319  11.204  66.175  1.00  0.00    -0.144 A  
HETATM   23  C   UNL     1      -7.730  12.101  67.070  1.00  0.00    -0.112 A  
HETATM   24  C   UNL     1      -9.497  11.578  65.547  1.00  0.00    -0.234 A  
HETATM   25  H   UNL     1      -9.620  15.458  67.673  1.00  0.00     0.000 HD 
HETATM   26  O   UNL     1     -10.048  14.879  67.053  1.00  0.00    -0.240 OA 
HETATM   27  C   UNL     1     -10.122  12.817  65.781  1.00  0.00    -0.296 A  
HETATM   28  C   UNL     1      -8.271  13.360  67.362  1.00  0.00    -0.188 A  
HETATM   29  C   UNL     1      -9.480  13.685  66.712  1.00  0.00    -0.270 A  
BRANCH  27  30
HETATM   30  C   UNL     1     -11.473  13.115  65.082  1.00  0.00    -0.327 C  
HETATM   31  C   UNL     1     -11.458  14.433  64.252  1.00  0.00    -0.226 C  
HETATM   32  C   UNL     1     -11.819  11.990  64.086  1.00  0.00    -0.462 C  
HETATM   33  C   UNL     1     -12.614  13.303  66.104  1.00  0.00    -0.208 C  
ENDBRANCH  27  30
BRANCH  28  34
HETATM   34  C   UNL     1      -7.525  14.318  68.335  1.00  0.00    -0.122 C  
HETATM   35  C   UNL     1      -6.468  13.613  69.237  1.00  0.00    -0.110 C  
HETATM   36  C   UNL     1      -8.498  15.016  69.311  1.00  0.00    -0.167 C  
HETATM   37  C   UNL     1      -6.743  15.376  67.527  1.00  0.00    -0.211 C  
ENDBRANCH  28  34
ENDBRANCH  21  22
ENDBRANCH   2  21
TORSDOF 8
ENDMDL
MODEL      137
REMARK 921   NORMALIZED FREE ENERGY PREDICTED BY IDOCK:   -4.46 KCAL/MOL
REMARK 922        TOTAL FREE ENERGY PREDICTED BY IDOCK:   -7.15 KCAL/MOL
REMARK 923 INTER-LIGAND FREE ENERGY PREDICTED BY IDOCK:   -7.30 KCAL/MOL
REMARK 924 INTRA-LIGAND FREE ENERGY PREDICTED BY IDOCK:    0.15 KCAL/MOL
REMARK 927      BINDING AFFINITY PREDICTED BY RF-SCORE:    0.00 PKD
ROOT
HETATM    1  C   UNL     1     -10.077   9.021  66.748  1.00  0.00    -0.344 C  
HETATM    2  C   UNL     1      -8.573   8.823  66.490  1.00  0.00    -0.118 C  
HETATM    3  C   UNL     1      -8.372   7.440  65.850  1.00  0.00    -0.140 C  
ENDROOT
BRANCH   2   4
HETATM    4  S   UNL     1      -7.688   8.845  68.110  1.00  0.00    -0.101 SA 
BRANCH   4   5
HETATM    5  C   UNL     1      -8.572   7.667  69.129  1.00  0.00    -0.139 A  
HETATM    6  C   UNL     1      -9.728   5.848  70.912  1.00  0.00    -0.172 A  
HETATM    7  O   UNL     1     -10.280   5.031  71.856  1.00  0.00    -0.193 OA 
HETATM    8  H   UNL     1     -10.975   5.334  72.429  1.00  0.00     0.000 HD 
HETATM    9  C   UNL     1      -8.116   6.355  69.189  1.00  0.00    -0.111 A  
HETATM   10  C   UNL     1     -10.220   7.171  70.886  1.00  0.00    -0.207 A  
HETATM   11  C   UNL     1      -9.626   8.030  69.960  1.00  0.00    -0.171 A  
HETATM   12  C   UNL     1      -8.687   5.393  70.053  1.00  0.00    -0.130 A  
BRANCH  12  13
HETATM   13  C   UNL     1      -8.131   3.947  70.039  1.00  0.00    -0.060 C  
HETATM   14  C   UNL     1      -7.667   3.510  71.448  1.00  0.00    -0.056 C  
HETATM   15  C   UNL     1      -6.972   3.818  69.028  1.00  0.00    -0.046 C  
HETATM   16  C   UNL     1      -9.184   2.880  69.621  1.00  0.00    -0.217 C  
ENDBRANCH  12  13
BRANCH  10  17
HETATM   17  C   UNL     1     -11.361   7.701  71.795  1.00  0.00    -0.293 C  
HETATM   18  C   UNL     1     -11.702   9.170  71.466  1.00  0.00    -0.433 C  
HETATM   19  C   UNL     1     -12.706   6.927  71.651  1.00  0.00    -0.396 C  
HETATM   20  C   UNL     1     -10.959   7.561  73.276  1.00  0.00    -0.362 C  
ENDBRANCH  10  17
ENDBRANCH   4   5
ENDBRANCH   2   4
BRANCH   2  21
HETATM   21  S   UNL     1      -8.032  10.099  65.272  1.00  0.00    -0.148 SA 
BRANCH  21  22
HETATM   22  C   UNL     1      -8.864  11.603  65.783  1.00  0.00    -0.004 A  
HETATM   23  C   UNL     1      -9.991  12.124  65.144  1.00  0.00    -0.251 A  
HETATM   24  C   UNL     1      -8.254  12.362  66.769  1.00  0.00    -0.028 A  
HETATM   25  H   UNL     1     -11.120  15.693  66.238  1.00  0.00     0.000 HD 
HETATM   26  O   UNL     1     -10.355  15.371  66.700  1.00  0.00    -0.267 OA 
HETATM   27  C   UNL     1      -8.722  13.635  67.145  1.00  0.00    -0.224 A  
HETATM   28  C   UNL     1     -10.537  13.377  65.454  1.00  0.00    -0.310 A  
HETATM   29  C   UNL     1      -9.870  14.119  66.451  1.00  0.00    -0.296 A  
BRANCH  27  30
HETATM   30  C   UNL     1      -7.932  14.435  68.212  1.00  0.00    -0.140 C  
HETATM   31  C   UNL     1      -6.813  13.601  68.902  1.00  0.00    -0.110 C  
HETATM   32  C   UNL     1      -7.225  15.640  67.561  1.00  0.00    -0.219 C  
HETATM   33  C   UNL     1      -8.847  14.903  69.365  1.00  0.00    -0.046 C  
ENDBRANCH  27  30
BRANCH  28  34
HETATM   34  C   UNL     1     -11.824  13.863  64.728  1.00  0.00    -0.414 C  
HETATM   35  C   UNL     1     -12.200  13.027  63.468  1.00  0.00    -0.580 C  
HETATM   36  C   UNL     1     -11.688  15.318  64.228  1.00  0.00    -0.223 C  
HETATM   37  C   UNL     1     -13.034  13.746  65.680  1.00  0.00    -0.346 C  
ENDBRANCH  28  34
ENDBRANCH  21  22
ENDBRANCH   2  21
TORSDOF 8
ENDMDL
MODEL      138
REMARK 921   NORMALIZED FREE ENERGY PREDICTED BY IDOCK:   -4.46 KCAL/MOL
REMARK 922        TOTAL FREE ENERGY PREDICTED BY IDOCK:   -7.14 KCAL/MOL
REMARK 923 INTER-LIGAND FREE ENERGY PREDICTED BY IDOCK:   -7.16 KCAL/MOL
REMARK 924 INTRA-LIGAND FREE ENERGY PREDICTED BY IDOCK:    0.02 KCAL/MOL
REMARK 927      BINDING AFFINITY PREDICTED BY RF-SCORE:    0.00 PKD
ROOT
HETATM    1  C   UNL     1      -7.905  10.699  69.703  1.00  0.00    -0.048 C  
HETATM    2  C   UNL     1      -6.383  10.520  69.562  1.00  0.00    -0.064 C  
HETATM    3  C   UNL     1      -5.691  11.565  70.452  1.00  0.00    -0.155 C  
ENDROOT
BRANCH   2   4
HETATM    4  S   UNL     1      -5.909  10.847  67.808  1.00  0.00    -0.043 SA 
BRANCH   4   5
HETATM    5  C   UNL     1      -7.073  12.084  67.244  1.00  0.00    -0.149 A  
HETATM    6  C   UNL     1      -9.065  13.936  66.592  1.00  0.00    -0.190 A  
HETATM    7  O   UNL     1     -10.031  14.876  66.370  1.00  0.00    -0.252 OA 
HETATM    8  H   UNL     1      -9.902  15.786  66.610  1.00  0.00     0.000 HD 
HETATM    9  C   UNL     1      -8.238  11.669  66.607  1.00  0.00    -0.140 A  
HETATM   10  C   UNL     1      -7.901  14.400  67.241  1.00  0.00    -0.188 A  
HETATM   11  C   UNL     1      -6.928  13.438  67.520  1.00  0.00    -0.153 A  
HETATM   12  C   UNL     1      -9.259  12.572  66.232  1.00  0.00    -0.133 A  
BRANCH  12  13
HETATM   13  C   UNL     1     -10.514  12.026  65.506  1.00  0.00    -0.307 C  
HETATM   14  C   UNL     1     -10.491  10.482  65.428  1.00  0.00    -0.222 C  
HETATM   15  C   UNL     1     -10.633  12.634  64.093  1.00  0.00    -0.434 C  
HETATM   16  C   UNL     1     -11.848  12.366  66.232  1.00  0.00    -0.431 C  
ENDBRANCH  12  13
BRANCH  10  17
HETATM   17  C   UNL     1      -7.645  15.879  67.636  1.00  0.00    -0.171 C  
HETATM   18  C   UNL     1      -7.668  16.801  66.398  1.00  0.00    -0.345 C  
HETATM   19  C   UNL     1      -8.707  16.475  68.609  1.00  0.00    -0.244 C  
HETATM   20  C   UNL     1      -6.295  15.999  68.370  1.00  0.00    -0.109 C  
ENDBRANCH  10  17
ENDBRANCH   4   5
ENDBRANCH   2   4
BRANCH   2  21
HETATM   21  S   UNL     1      -5.946   8.846  70.205  1.00  0.00    -0.031 SA 
BRANCH  21  22
HETATM   22  C   UNL     1      -7.454   7.889  70.057  1.00  0.00    -0.079 A  
HETATM   23  C   UNL     1      -7.946   7.393  68.847  1.00  0.00    -0.126 A  
HETATM   24  C   UNL     1      -8.247   7.773  71.188  1.00  0.00    -0.099 A  
HETATM   25  H   UNL     1     -11.531   5.861  68.919  1.00  0.00     0.000 HD 
HETATM   26  O   UNL     1     -11.230   6.180  69.762  1.00  0.00    -0.384 OA 
HETATM   27  C   UNL     1      -9.524   7.183  71.162  1.00  0.00    -0.157 A  
HETATM   28  C   UNL     1      -9.200   6.782  68.722  1.00  0.00    -0.130 A  
HETATM   29  C   UNL     1      -9.976   6.705  69.897  1.00  0.00    -0.171 A  
BRANCH  27  30
HETATM   30  C   UNL     1     -10.362   7.161  72.466  1.00  0.00    -0.237 C  
HETATM   31  C   UNL     1     -11.026   5.780  72.747  1.00  0.00    -0.314 C  
HETATM   32  C   UNL     1      -9.464   7.457  73.684  1.00  0.00    -0.321 C  
HETATM   33  C   UNL     1     -11.537   8.160  72.405  1.00  0.00    -0.463 C  
ENDBRANCH  27  30
BRANCH  28  34
HETATM   34  C   UNL     1      -9.652   6.213  67.346  1.00  0.00    -0.122 C  
HETATM   35  C   UNL     1      -8.832   6.749  66.134  1.00  0.00    -0.161 C  
HETATM   36  C   UNL     1     -11.123   6.566  67.034  1.00  0.00    -0.411 C  
HETATM   37  C   UNL     1      -9.466   4.681  67.330  1.00  0.00    -0.173 C  
ENDBRANCH  28  34
ENDBRANCH  21  22
ENDBRANCH   2  21
TORSDOF 8
ENDMDL
MODEL      139
REMARK 921   NORMALIZED FREE ENERGY PREDICTED BY IDOCK:   -4.46 KCAL/MOL
REMARK 922        TOTAL FREE ENERGY PREDICTED BY IDOCK:   -7.14 KCAL/MOL
REMARK 923 INTER-LIGAND FREE ENERGY PREDICTED BY IDOCK:   -7.11 KCAL/MOL
REMARK 924 INTRA-LIGAND FREE ENERGY PREDICTED BY IDOCK:   -0.03 KCAL/MOL
REMARK 927      BINDING AFFINITY PREDICTED BY RF-SCORE:    0.00 PKD
ROOT
HETATM    1  C   UNL     1     -11.571   8.128  72.624  1.00  0.00    -0.441 C  
HETATM    2  C   UNL     1     -11.358   8.660  71.196  1.00  0.00    -0.275 C  
HETATM    3  C   UNL     1     -11.781   7.563  70.205  1.00  0.00    -0.047 C  
ENDROOT
BRANCH   2   4
HETATM    4  S   UNL     1      -9.560   8.998  70.953  1.00  0.00    -0.280 SA 
BRANCH   4   5
HETATM    5  C   UNL     1      -8.852   7.410  70.525  1.00  0.00    -0.148 A  
HETATM    6  C   UNL     1      -8.025   4.832  69.824  1.00  0.00    -0.066 A  
HETATM    7  O   UNL     1      -7.679   3.581  69.398  1.00  0.00    -0.051 OA 
HETATM    8  H   UNL     1      -7.374   3.427  68.511  1.00  0.00     0.000 HD 
HETATM    9  C   UNL     1      -8.914   6.375  71.452  1.00  0.00    -0.138 A  
HETATM   10  C   UNL     1      -7.946   5.851  68.851  1.00  0.00    -0.102 A  
HETATM   11  C   UNL     1      -8.347   7.125  69.262  1.00  0.00    -0.133 A  
HETATM   12  C   UNL     1      -8.481   5.063  71.153  1.00  0.00    -0.123 A  
BRANCH  12  13
HETATM   13  C   UNL     1      -8.566   3.975  72.254  1.00  0.00    -0.113 C  
HETATM   14  C   UNL     1      -9.591   2.879  71.881  1.00  0.00    -0.215 C  
HETATM   15  C   UNL     1      -8.924   4.605  73.616  1.00  0.00    -0.103 C  
HETATM   16  C   UNL     1      -7.229   3.209  72.473  1.00  0.00    -0.044 C  
ENDBRANCH  12  13
BRANCH  10  17
HETATM   17  C   UNL     1      -7.441   5.643  67.399  1.00  0.00    -0.084 C  
HETATM   18  C   UNL     1      -6.098   4.883  67.377  1.00  0.00    -0.031 C  
HETATM   19  C   UNL     1      -8.400   4.805  66.501  1.00  0.00    -0.107 C  
HETATM   20  C   UNL     1      -7.298   7.007  66.694  1.00  0.00    -0.080 C  
ENDBRANCH  10  17
ENDBRANCH   4   5
ENDBRANCH   2   4
BRANCH   2  21
HETATM   21  S   UNL     1     -12.478  10.108  70.956  1.00  0.00    -0.404 SA 
BRANCH  21  22
HETATM   22  C   UNL     1     -11.758  11.025  69.596  1.00  0.00    -0.329 A  
HETATM   23  C   UNL     1     -11.181  10.429  68.473  1.00  0.00    -0.308 A  
HETATM   24  C   UNL     1     -11.634  12.397  69.750  1.00  0.00    -0.302 A  
HETATM   25  H   UNL     1      -9.244  12.788  66.046  1.00  0.00     0.000 HD 
HETATM   26  O   UNL     1      -9.627  13.232  66.793  1.00  0.00    -0.243 OA 
HETATM   27  C   UNL     1     -10.947  13.207  68.826  1.00  0.00    -0.298 A  
HETATM   28  C   UNL     1     -10.485  11.150  67.493  1.00  0.00    -0.239 A  
HETATM   29  C   UNL     1     -10.371  12.540  67.706  1.00  0.00    -0.222 A  
BRANCH  27  30
HETATM   30  C   UNL     1     -10.806  14.721  69.122  1.00  0.00    -0.267 C  
HETATM   31  C   UNL     1     -11.431  15.144  70.484  1.00  0.00    -0.342 C  
HETATM   32  C   UNL     1      -9.317  15.114  69.198  1.00  0.00    -0.215 C  
HETATM   33  C   UNL     1     -11.538  15.578  68.067  1.00  0.00    -0.276 C  
ENDBRANCH  27  30
BRANCH  28  34
HETATM   34  C   UNL     1      -9.913  10.414  66.248  1.00  0.00    -0.283 C  
HETATM   35  C   UNL     1      -8.367  10.532  66.091  1.00  0.00    -0.155 C  
HETATM   36  C   UNL     1     -10.503  10.968  64.932  1.00  0.00    -0.371 C  
HETATM   37  C   UNL     1     -10.205   8.901  66.357  1.00  0.00    -0.273 C  
ENDBRANCH  28  34
ENDBRANCH  21  22
ENDBRANCH   2  21
TORSDOF 8
ENDMDL
MODEL      140
REMARK 921   NORMALIZED FREE ENERGY PREDICTED BY IDOCK:   -4.45 KCAL/MOL
REMARK 922        TOTAL FREE ENERGY PREDICTED BY IDOCK:   -7.13 KCAL/MOL
REMARK 923 INTER-LIGAND FREE ENERGY PREDICTED BY IDOCK:   -7.42 KCAL/MOL
REMARK 924 INTRA-LIGAND FREE ENERGY PREDICTED BY IDOCK:    0.29 KCAL/MOL
REMARK 927      BINDING AFFINITY PREDICTED BY RF-SCORE:    0.00 PKD
ROOT
HETATM    1  C   UNL     1     -10.144   9.198  67.324  1.00  0.00    -0.295 C  
HETATM    2  C   UNL     1      -8.794   8.733  66.750  1.00  0.00    -0.129 C  
HETATM    3  C   UNL     1      -8.984   7.329  66.152  1.00  0.00    -0.179 C  
ENDROOT
BRANCH   2   4
HETATM    4  S   UNL     1      -7.574   8.615  68.130  1.00  0.00    -0.098 SA 
BRANCH   4   5
HETATM    5  C   UNL     1      -8.276   7.416  69.258  1.00  0.00    -0.131 A  
HETATM    6  C   UNL     1      -9.619   5.551  70.853  1.00  0.00    -0.170 A  
HETATM    7  O   UNL     1     -10.292   4.587  71.547  1.00  0.00    -0.163 OA 
HETATM    8  H   UNL     1     -10.088   3.665  71.439  1.00  0.00     0.000 HD 
HETATM    9  C   UNL     1      -9.240   7.834  70.168  1.00  0.00    -0.153 A  
HETATM   10  C   UNL     1      -8.649   5.082  69.941  1.00  0.00    -0.110 A  
HETATM   11  C   UNL     1      -7.991   6.057  69.188  1.00  0.00    -0.103 A  
HETATM   12  C   UNL     1      -9.925   6.933  71.015  1.00  0.00    -0.199 A  
BRANCH  12  13
HETATM   13  C   UNL     1     -10.969   7.488  72.016  1.00  0.00    -0.282 C  
HETATM   14  C   UNL     1     -12.361   6.858  71.782  1.00  0.00    -0.401 C  
HETATM   15  C   UNL     1     -11.052   9.026  71.919  1.00  0.00    -0.433 C  
HETATM   16  C   UNL     1     -10.635   7.170  73.502  1.00  0.00    -0.416 C  
ENDBRANCH  12  13
BRANCH  10  17
HETATM   17  C   UNL     1      -8.277   3.588  69.746  1.00  0.00    -0.071 C  
HETATM   18  C   UNL     1      -9.491   2.767  69.264  1.00  0.00    -0.145 C  
HETATM   19  C   UNL     1      -7.165   3.339  68.682  1.00  0.00    -0.050 C  
HETATM   20  C   UNL     1      -7.726   3.010  71.064  1.00  0.00    -0.043 C  
ENDBRANCH  10  17
ENDBRANCH   4   5
ENDBRANCH   2   4
BRANCH   2  21
HETATM   21  S   UNL     1      -8.336   9.880  65.378  1.00  0.00    -0.154 SA 
BRANCH  21  22
HETATM   22  C   UNL     1      -9.053  11.456  65.838  1.00  0.00    -0.198 A  
HETATM   23  C   UNL     1     -10.151  12.030  65.192  1.00  0.00    -0.295 A  
HETATM   24  C   UNL     1      -8.379  12.209  66.787  1.00  0.00    -0.111 A  
HETATM   25  H   UNL     1     -11.014  15.708  66.156  1.00  0.00     0.000 HD 
HETATM   26  O   UNL     1     -10.267  15.352  66.622  1.00  0.00    -0.263 OA 
HETATM   27  C   UNL     1      -8.753  13.525  67.117  1.00  0.00    -0.222 A  
HETATM   28  C   UNL     1     -10.605  13.329  65.458  1.00  0.00    -0.295 A  
HETATM   29  C   UNL     1      -9.874  14.060  66.418  1.00  0.00    -0.296 A  
BRANCH  27  30
HETATM   30  C   UNL     1      -7.895  14.309  68.142  1.00  0.00    -0.139 C  
HETATM   31  C   UNL     1      -6.903  13.405  68.933  1.00  0.00    -0.111 C  
HETATM   32  C   UNL     1      -7.028  15.361  67.421  1.00  0.00    -0.222 C  
HETATM   33  C   UNL     1      -8.770  14.978  69.224  1.00  0.00    -0.161 C  
ENDBRANCH  27  30
BRANCH  28  34
HETATM   34  C   UNL     1     -11.865  13.875  64.727  1.00  0.00    -0.414 C  
HETATM   35  C   UNL     1     -12.282  13.050  63.473  1.00  0.00    -0.580 C  
HETATM   36  C   UNL     1     -11.654  15.318  64.217  1.00  0.00    -0.204 C  
HETATM   37  C   UNL     1     -13.080  13.828  65.679  1.00  0.00    -0.181 C  
ENDBRANCH  28  34
ENDBRANCH  21  22
ENDBRANCH   2  21
TORSDOF 8
ENDMDL
MODEL      141
REMARK 921   NORMALIZED FREE ENERGY PREDICTED BY IDOCK:   -4.43 KCAL/MOL
REMARK 922        TOTAL FREE ENERGY PREDICTED BY IDOCK:   -7.09 KCAL/MOL
REMARK 923 INTER-LIGAND FREE ENERGY PREDICTED BY IDOCK:   -7.89 KCAL/MOL
REMARK 924 INTRA-LIGAND FREE ENERGY PREDICTED BY IDOCK:    0.80 KCAL/MOL
REMARK 927      BINDING AFFINITY PREDICTED BY RF-SCORE:    0.00 PKD
ROOT
HETATM    1  C   UNL     1      -8.339   8.356  68.501  1.00  0.00    -0.131 C  
HETATM    2  C   UNL     1      -9.370   8.868  67.479  1.00  0.00    -0.136 C  
HETATM    3  C   UNL     1     -10.196   9.980  68.143  1.00  0.00    -0.205 C  
ENDROOT
BRANCH   2   4
HETATM    4  S   UNL     1     -10.508   7.481  67.043  1.00  0.00    -0.321 SA 
BRANCH   4   5
HETATM    5  C   UNL     1     -10.457   6.387  68.459  1.00  0.00    -0.224 A  
HETATM    6  C   UNL     1     -10.096   4.769  70.712  1.00  0.00    -0.216 A  
HETATM    7  O   UNL     1      -9.889   4.062  71.862  1.00  0.00    -0.161 OA 
HETATM    8  H   UNL     1     -10.244   4.354  72.694  1.00  0.00     0.000 HD 
HETATM    9  C   UNL     1      -9.748   5.195  68.362  1.00  0.00    -0.200 A  
HETATM   10  C   UNL     1     -10.820   5.971  70.857  1.00  0.00    -0.349 A  
HETATM   11  C   UNL     1     -10.993   6.728  69.696  1.00  0.00    -0.336 A  
HETATM   12  C   UNL     1      -9.564   4.331  69.465  1.00  0.00    -0.274 A  
BRANCH  12  13
HETATM   13  C   UNL     1      -8.778   3.010  69.262  1.00  0.00    -0.134 C  
HETATM   14  C   UNL     1      -7.604   2.896  70.262  1.00  0.00    -0.043 C  
HETATM   15  C   UNL     1      -8.262   2.901  67.812  1.00  0.00    -0.087 C  
HETATM   16  C   UNL     1      -9.634   1.734  69.510  1.00  0.00    -0.057 C  
ENDBRANCH  12  13
BRANCH  10  17
HETATM   17  C   UNL     1     -11.428   6.475  72.193  1.00  0.00    -0.332 C  
HETATM   18  C   UNL     1     -12.007   5.308  73.020  1.00  0.00    -0.018 C  
HETATM   19  C   UNL     1     -10.406   7.178  73.136  1.00  0.00    -0.336 C  
HETATM   20  C   UNL     1     -12.520   7.525  71.907  1.00  0.00    -0.335 C  
ENDBRANCH  10  17
ENDBRANCH   4   5
ENDBRANCH   2   4
BRANCH   2  21
HETATM   21  S   UNL     1      -8.446   9.611  66.064  1.00  0.00    -0.126 SA 
BRANCH  21  22
HETATM   22  C   UNL     1      -8.801  11.365  66.155  1.00  0.00    -0.184 A  
HETATM   23  C   UNL     1      -8.138  12.251  67.008  1.00  0.00    -0.141 A  
HETATM   24  C   UNL     1      -9.899  11.828  65.447  1.00  0.00    -0.261 A  
HETATM   25  H   UNL     1      -9.616  15.849  67.275  1.00  0.00     0.000 HD 
HETATM   26  O   UNL     1     -10.090  15.280  66.680  1.00  0.00    -0.249 OA 
HETATM   27  C   UNL     1     -10.373  13.149  65.560  1.00  0.00    -0.299 A  
HETATM   28  C   UNL     1      -8.528  13.585  67.182  1.00  0.00    -0.177 A  
HETATM   29  C   UNL     1      -9.662  14.003  66.454  1.00  0.00    -0.296 A  
BRANCH  27  30
HETATM   30  C   UNL     1     -11.649  13.553  64.780  1.00  0.00    -0.372 C  
HETATM   31  C   UNL     1     -11.603  15.012  64.237  1.00  0.00    -0.190 C  
HETATM   32  C   UNL     1     -11.830  12.646  63.545  1.00  0.00    -0.619 C  
HETATM   33  C   UNL     1     -12.905  13.503  65.676  1.00  0.00    -0.380 C  
ENDBRANCH  27  30
BRANCH  28  34
HETATM   34  C   UNL     1      -7.706  14.519  68.116  1.00  0.00    -0.128 C  
HETATM   35  C   UNL     1      -8.552  15.223  69.219  1.00  0.00    -0.236 C  
HETATM   36  C   UNL     1      -7.023  15.661  67.330  1.00  0.00    -0.234 C  
HETATM   37  C   UNL     1      -6.642  13.693  68.871  1.00  0.00    -0.105 C  
ENDBRANCH  28  34
ENDBRANCH  21  22
ENDBRANCH   2  21
TORSDOF 8
ENDMDL
MODEL      142
REMARK 921   NORMALIZED FREE ENERGY PREDICTED BY IDOCK:   -4.42 KCAL/MOL
REMARK 922        TOTAL FREE ENERGY PREDICTED BY IDOCK:   -7.09 KCAL/MOL
REMARK 923 INTER-LIGAND FREE ENERGY PREDICTED BY IDOCK:   -6.96 KCAL/MOL
REMARK 924 INTRA-LIGAND FREE ENERGY PREDICTED BY IDOCK:   -0.13 KCAL/MOL
REMARK 927      BINDING AFFINITY PREDICTED BY RF-SCORE:    0.00 PKD
ROOT
HETATM    1  C   UNL     1      -9.447   9.112  70.677  1.00  0.00    -0.316 C  
HETATM    2  C   UNL     1      -8.894   9.306  69.254  1.00  0.00    -0.146 C  
HETATM    3  C   UNL     1      -8.616  10.804  69.045  1.00  0.00    -0.143 C  
ENDROOT
BRANCH   2   4
HETATM    4  S   UNL     1     -10.184   8.782  68.042  1.00  0.00    -0.219 SA 
BRANCH   4   5
HETATM    5  C   UNL     1      -9.859   9.761  66.579  1.00  0.00    -0.225 A  
HETATM    6  C   UNL     1      -9.504  11.084  64.140  1.00  0.00    -0.242 A  
HETATM    7  O   UNL     1      -9.431  11.726  62.937  1.00  0.00    -0.494 OA 
HETATM    8  H   UNL     1      -9.983  12.474  62.741  1.00  0.00     0.000 HD 
HETATM    9  C   UNL     1      -8.912   9.310  65.666  1.00  0.00    -0.243 A  
HETATM   10  C   UNL     1     -10.478  11.574  65.036  1.00  0.00    -0.344 A  
HETATM   11  C   UNL     1     -10.596  10.892  66.249  1.00  0.00    -0.276 A  
HETATM   12  C   UNL     1      -8.676   9.962  64.434  1.00  0.00    -0.223 A  
BRANCH  12  13
HETATM   13  C   UNL     1      -7.585   9.404  63.486  1.00  0.00    -0.115 C  
HETATM   14  C   UNL     1      -8.208   8.568  62.344  1.00  0.00    -0.184 C  
HETATM   15  C   UNL     1      -6.559   8.561  64.272  1.00  0.00    -0.071 C  
HETATM   16  C   UNL     1      -6.765  10.512  62.763  1.00  0.00    -0.088 C  
ENDBRANCH  12  13
BRANCH  10  17
HETATM   17  C   UNL     1     -11.387  12.801  64.759  1.00  0.00    -0.346 C  
HETATM   18  C   UNL     1     -12.304  13.101  65.964  1.00  0.00    -0.426 C  
HETATM   19  C   UNL     1     -10.611  14.126  64.494  1.00  0.00    -0.285 C  
HETATM   20  C   UNL     1     -12.230  12.553  63.492  1.00  0.00    -0.652 C  
ENDBRANCH  10  17
ENDBRANCH   4   5
ENDBRANCH   2   4
BRANCH   2  21
HETATM   21  S   UNL     1      -7.287   8.407  69.142  1.00  0.00    -0.081 SA 
BRANCH  21  22
HETATM   22  C   UNL     1      -7.734   6.708  68.788  1.00  0.00    -0.109 A  
HETATM   23  C   UNL     1      -8.099   6.246  67.522  1.00  0.00    -0.113 A  
HETATM   24  C   UNL     1      -7.871   5.849  69.868  1.00  0.00    -0.096 A  
HETATM   25  H   UNL     1      -9.531   2.624  67.332  1.00  0.00     0.000 HD 
HETATM   26  O   UNL     1      -9.288   2.898  68.208  1.00  0.00    -0.185 OA 
HETATM   27  C   UNL     1      -8.367   4.539  69.737  1.00  0.00    -0.072 A  
HETATM   28  C   UNL     1      -8.594   4.957  67.289  1.00  0.00    -0.104 A  
HETATM   29  C   UNL     1      -8.733   4.128  68.422  1.00  0.00    -0.099 A  
BRANCH  27  30
HETATM   30  C   UNL     1      -8.547   3.678  71.014  1.00  0.00    -0.109 C  
HETATM   31  C   UNL     1      -8.212   2.173  70.793  1.00  0.00    -0.067 C  
HETATM   32  C   UNL     1      -7.597   4.166  72.126  1.00  0.00    -0.075 C  
HETATM   33  C   UNL     1     -10.010   3.691  71.507  1.00  0.00    -0.181 C  
ENDBRANCH  27  30
BRANCH  28  34
HETATM   34  C   UNL     1      -8.933   4.506  65.839  1.00  0.00    -0.125 C  
HETATM   35  C   UNL     1      -8.345   5.431  64.730  1.00  0.00    -0.145 C  
HETATM   36  C   UNL     1     -10.456   4.479  65.586  1.00  0.00    -0.261 C  
HETATM   37  C   UNL     1      -8.332   3.108  65.575  1.00  0.00    -0.100 C  
ENDBRANCH  28  34
ENDBRANCH  21  22
ENDBRANCH   2  21
TORSDOF 8
ENDMDL
MODEL      143
REMARK 921   NORMALIZED FREE ENERGY PREDICTED BY IDOCK:   -4.42 KCAL/MOL
REMARK 922        TOTAL FREE ENERGY PREDICTED BY IDOCK:   -7.09 KCAL/MOL
REMARK 923 INTER-LIGAND FREE ENERGY PREDICTED BY IDOCK:   -7.41 KCAL/MOL
REMARK 924 INTRA-LIGAND FREE ENERGY PREDICTED BY IDOCK:    0.32 KCAL/MOL
REMARK 927      BINDING AFFINITY PREDICTED BY RF-SCORE:    0.00 PKD
ROOT
HETATM    1  C   UNL     1      -5.793   9.161  68.104  1.00  0.00    -0.038 C  
HETATM    2  C   UNL     1      -6.901  10.228  68.053  1.00  0.00    -0.070 C  
HETATM    3  C   UNL     1      -7.198  10.684  69.491  1.00  0.00    -0.140 C  
ENDROOT
BRANCH   2   4
HETATM    4  S   UNL     1      -8.430   9.459  67.362  1.00  0.00    -0.126 SA 
BRANCH   4   5
HETATM    5  C   UNL     1      -8.898   8.216  68.562  1.00  0.00    -0.134 A  
HETATM    6  C   UNL     1      -9.878   6.236  70.278  1.00  0.00    -0.168 A  
HETATM    7  O   UNL     1     -10.368   5.210  71.034  1.00  0.00    -0.225 OA 
HETATM    8  H   UNL     1     -10.025   4.327  70.953  1.00  0.00     0.000 HD 
HETATM    9  C   UNL     1      -9.885   8.519  69.493  1.00  0.00    -0.187 A  
HETATM   10  C   UNL     1      -8.877   5.884  69.347  1.00  0.00    -0.122 A  
HETATM   11  C   UNL     1      -8.405   6.916  68.533  1.00  0.00    -0.121 A  
HETATM   12  C   UNL     1     -10.391   7.559  70.400  1.00  0.00    -0.216 A  
BRANCH  12  13
HETATM   13  C   UNL     1     -11.476   7.989  71.420  1.00  0.00    -0.293 C  
HETATM   14  C   UNL     1     -12.761   7.144  71.261  1.00  0.00    -0.412 C  
HETATM   15  C   UNL     1     -11.799   9.491  71.272  1.00  0.00    -0.450 C  
HETATM   16  C   UNL     1     -11.050   7.786  72.902  1.00  0.00    -0.457 C  
ENDBRANCH  12  13
BRANCH  10  17
HETATM   17  C   UNL     1      -8.281   4.460  69.194  1.00  0.00    -0.076 C  
HETATM   18  C   UNL     1      -9.352   3.453  68.724  1.00  0.00    -0.234 C  
HETATM   19  C   UNL     1      -7.133   4.355  68.146  1.00  0.00    -0.060 C  
HETATM   20  C   UNL     1      -7.666   4.004  70.532  1.00  0.00    -0.048 C  
ENDBRANCH  10  17
ENDBRANCH   4   5
ENDBRANCH   2   4
BRANCH   2  21
HETATM   21  S   UNL     1      -6.248  11.679  67.118  1.00  0.00    -0.146 SA 
BRANCH  21  22
HETATM   22  C   UNL     1      -7.459  12.975  67.378  1.00  0.00    -0.131 A  
HETATM   23  C   UNL     1      -8.838  12.783  67.282  1.00  0.00    -0.198 A  
HETATM   24  C   UNL     1      -6.982  14.268  67.529  1.00  0.00    -0.177 A  
HETATM   25  H   UNL     1     -11.057  15.988  67.368  1.00  0.00     0.000 HD 
HETATM   26  O   UNL     1     -10.126  16.160  67.443  1.00  0.00    -0.247 OA 
HETATM   27  C   UNL     1      -7.832  15.389  67.583  1.00  0.00    -0.175 A  
HETATM   28  C   UNL     1      -9.765  13.832  67.334  1.00  0.00    -0.235 A  
HETATM   29  C   UNL     1      -9.230  15.130  67.470  1.00  0.00    -0.186 A  
BRANCH  27  30
HETATM   30  C   UNL     1      -7.200  16.800  67.685  1.00  0.00    -0.163 C  
HETATM   31  C   UNL     1      -7.995  17.764  68.614  1.00  0.00    -0.276 C  
HETATM   32  C   UNL     1      -5.781  16.708  68.283  1.00  0.00    -0.118 C  
HETATM   33  C   UNL     1      -7.165  17.509  66.314  1.00  0.00    -0.351 C  
ENDBRANCH  27  30
BRANCH  28  34
HETATM   34  C   UNL     1     -11.289  13.526  67.268  1.00  0.00    -0.339 C  
HETATM   35  C   UNL     1     -12.121  14.186  68.408  1.00  0.00    -0.308 C  
HETATM   36  C   UNL     1     -11.576  12.012  67.376  1.00  0.00    -0.388 C  
HETATM   37  C   UNL     1     -11.875  14.079  65.951  1.00  0.00    -0.395 C  
ENDBRANCH  28  34
ENDBRANCH  21  22
ENDBRANCH   2  21
TORSDOF 8
ENDMDL
MODEL      144
REMARK 921   NORMALIZED FREE ENERGY PREDICTED BY IDOCK:   -4.40 KCAL/MOL
REMARK 922        TOTAL FREE ENERGY PREDICTED BY IDOCK:   -7.06 KCAL/MOL
REMARK 923 INTER-LIGAND FREE ENERGY PREDICTED BY IDOCK:   -6.89 KCAL/MOL
REMARK 924 INTRA-LIGAND FREE ENERGY PREDICTED BY IDOCK:   -0.18 KCAL/MOL
REMARK 927      BINDING AFFINITY PREDICTED BY RF-SCORE:    0.00 PKD
ROOT
HETATM    1  C   UNL     1      -6.985  10.099  67.203  1.00  0.00    -0.087 C  
HETATM    2  C   UNL     1      -7.168   8.656  67.704  1.00  0.00    -0.084 C  
HETATM    3  C   UNL     1      -5.989   7.814  67.189  1.00  0.00    -0.048 C  
ENDROOT
BRANCH   2   4
HETATM    4  S   UNL     1      -8.725   7.973  66.983  1.00  0.00    -0.131 SA 
BRANCH   4   5
HETATM    5  C   UNL     1      -9.897   9.324  67.068  1.00  0.00    -0.198 A  
HETATM    6  C   UNL     1     -11.511  11.594  67.327  1.00  0.00    -0.277 A  
HETATM    7  O   UNL     1     -12.226  12.755  67.405  1.00  0.00    -0.370 OA 
HETATM    8  H   UNL     1     -12.367  13.302  66.641  1.00  0.00     0.000 HD 
HETATM    9  C   UNL     1     -10.455   9.653  68.298  1.00  0.00    -0.259 A  
HETATM   10  C   UNL     1     -10.963  11.299  66.060  1.00  0.00    -0.237 A  
HETATM   11  C   UNL     1     -10.187  10.141  65.981  1.00  0.00    -0.288 A  
HETATM   12  C   UNL     1     -11.299  10.774  68.472  1.00  0.00    -0.360 A  
BRANCH  12  13
HETATM   13  C   UNL     1     -11.896  11.054  69.874  1.00  0.00    -0.431 C  
HETATM   14  C   UNL     1     -11.168  10.239  70.967  1.00  0.00    -0.220 C  
HETATM   15  C   UNL     1     -13.408  10.750  69.894  1.00  0.00     0.793 C  
HETATM   16  C   UNL     1     -11.752  12.537  70.324  1.00  0.00    -0.200 C  
ENDBRANCH  12  13
BRANCH  10  17
HETATM   17  C   UNL     1     -11.182  12.158  64.786  1.00  0.00    -0.373 C  
HETATM   18  C   UNL     1     -10.458  13.516  64.896  1.00  0.00    -0.417 C  
HETATM   19  C   UNL     1     -10.642  11.510  63.476  1.00  0.00    -0.487 C  
HETATM   20  C   UNL     1     -12.691  12.371  64.552  1.00  0.00    -0.404 C  
ENDBRANCH  10  17
ENDBRANCH   4   5
ENDBRANCH   2   4
BRANCH   2  21
HETATM   21  S   UNL     1      -7.090   8.680  69.547  1.00  0.00    -0.056 SA 
BRANCH  21  22
HETATM   22  C   UNL     1      -7.906   7.170  70.062  1.00  0.00    -0.113 A  
HETATM   23  C   UNL     1      -7.641   5.914  69.510  1.00  0.00    -0.088 A  
HETATM   24  C   UNL     1      -8.966   7.291  70.948  1.00  0.00    -0.150 A  
HETATM   25  H   UNL     1     -10.042   3.018  70.534  1.00  0.00     0.000 HD 
HETATM   26  O   UNL     1     -10.251   3.853  70.936  1.00  0.00    -0.036 OA 
HETATM   27  C   UNL     1      -9.784   6.203  71.305  1.00  0.00    -0.196 A  
HETATM   28  C   UNL     1      -8.392   4.771  69.810  1.00  0.00    -0.078 A  
HETATM   29  C   UNL     1      -9.471   4.949  70.702  1.00  0.00    -0.173 A  
BRANCH  27  30
HETATM   30  C   UNL     1     -10.986   6.453  72.251  1.00  0.00    -0.289 C  
HETATM   31  C   UNL     1     -11.365   5.207  73.106  1.00  0.00    -0.385 C  
HETATM   32  C   UNL     1     -10.651   7.573  73.256  1.00  0.00    -0.438 C  
HETATM   33  C   UNL     1     -12.268   6.798  71.463  1.00  0.00    -0.413 C  
ENDBRANCH  27  30
BRANCH  28  34
HETATM   34  C   UNL     1      -8.000   3.399  69.189  1.00  0.00    -0.057 C  
HETATM   35  C   UNL     1      -7.652   2.301  70.237  1.00  0.00    -0.043 C  
HETATM   36  C   UNL     1      -6.753   3.514  68.285  1.00  0.00    -0.046 C  
HETATM   37  C   UNL     1      -9.187   2.838  68.377  1.00  0.00    -0.248 C  
ENDBRANCH  28  34
ENDBRANCH  21  22
ENDBRANCH   2  21
TORSDOF 8
ENDMDL
MODEL      145
REMARK 921   NORMALIZED FREE ENERGY PREDICTED BY IDOCK:   -4.40 KCAL/MOL
REMARK 922        TOTAL FREE ENERGY PREDICTED BY IDOCK:   -7.06 KCAL/MOL
REMARK 923 INTER-LIGAND FREE ENERGY PREDICTED BY IDOCK:   -7.07 KCAL/MOL
REMARK 924 INTRA-LIGAND FREE ENERGY PREDICTED BY IDOCK:    0.01 KCAL/MOL
REMARK 927      BINDING AFFINITY PREDICTED BY RF-SCORE:    0.00 PKD
ROOT
HETATM    1  C   UNL     1     -10.717   5.713  67.345  1.00  0.00    -0.283 C  
HETATM    2  C   UNL     1      -9.397   5.171  66.770  1.00  0.00    -0.134 C  
HETATM    3  C   UNL     1      -9.722   3.978  65.857  1.00  0.00    -0.193 C  
ENDROOT
BRANCH   2   4
HETATM    4  S   UNL     1      -8.349   4.565  68.164  1.00  0.00    -0.094 SA 
BRANCH   4   5
HETATM    5  C   UNL     1      -9.375   4.754  69.620  1.00  0.00    -0.133 A  
HETATM    6  C   UNL     1     -10.728   5.121  72.040  1.00  0.00    -0.169 A  
HETATM    7  O   UNL     1     -11.346   5.393  73.227  1.00  0.00    -0.426 OA 
HETATM    8  H   UNL     1     -11.823   6.203  73.363  1.00  0.00     0.000 HD 
HETATM    9  C   UNL     1      -9.323   3.778  70.609  1.00  0.00    -0.225 A  
HETATM   10  C   UNL     1     -10.806   6.138  71.065  1.00  0.00    -0.338 A  
HETATM   11  C   UNL     1     -10.134   5.892  69.865  1.00  0.00    -0.258 A  
HETATM   12  C   UNL     1     -10.013   3.906  71.836  1.00  0.00    -0.238 A  
BRANCH  12  13
HETATM   13  C   UNL     1      -9.917   2.760  72.875  1.00  0.00    -0.201 C  
HETATM   14  C   UNL     1     -11.289   2.081  73.090  1.00  0.00    -0.178 C  
HETATM   15  C   UNL     1      -9.360   3.285  74.215  1.00  0.00    -0.112 C  
HETATM   16  C   UNL     1      -8.968   1.606  72.440  1.00  0.00    -0.093 C  
ENDBRANCH  12  13
BRANCH  10  17
HETATM   17  C   UNL     1     -11.587   7.467  71.242  1.00  0.00    -0.305 C  
HETATM   18  C   UNL     1     -13.106   7.215  71.340  1.00  0.00    -0.408 C  
HETATM   19  C   UNL     1     -11.219   8.258  72.534  1.00  0.00    -0.446 C  
HETATM   20  C   UNL     1     -11.274   8.418  70.069  1.00  0.00    -0.085 C  
ENDBRANCH  10  17
ENDBRANCH   4   5
ENDBRANCH   2   4
BRANCH   2  21
HETATM   21  S   UNL     1      -8.644   6.497  65.729  1.00  0.00    -0.118 SA 
BRANCH  21  22
HETATM   22  C   UNL     1      -8.818   7.995  66.696  1.00  0.00    -0.145 A  
HETATM   23  C   UNL     1      -9.519   9.124  66.265  1.00  0.00    -0.299 A  
HETATM   24  C   UNL     1      -8.083   8.083  67.868  1.00  0.00    -0.129 A  
HETATM   25  H   UNL     1      -9.159  12.337  68.444  1.00  0.00     0.000 HD 
HETATM   26  O   UNL     1      -8.674  11.590  68.774  1.00  0.00    -0.137 OA 
HETATM   27  C   UNL     1      -8.011   9.263  68.632  1.00  0.00    -0.100 A  
HETATM   28  C   UNL     1      -9.517  10.340  66.960  1.00  0.00    -0.191 A  
HETATM   29  C   UNL     1      -8.739  10.384  68.136  1.00  0.00    -0.125 A  
BRANCH  27  30
HETATM   30  C   UNL     1      -7.108   9.282  69.892  1.00  0.00    -0.064 C  
HETATM   31  C   UNL     1      -7.875   8.939  71.203  1.00  0.00    -0.172 C  
HETATM   32  C   UNL     1      -5.990   8.228  69.764  1.00  0.00    -0.029 C  
HETATM   33  C   UNL     1      -6.506  10.682  70.139  1.00  0.00    -0.152 C  
ENDBRANCH  27  30
BRANCH  28  34
HETATM   34  C   UNL     1     -10.364  11.535  66.436  1.00  0.00    -0.277 C  
HETATM   35  C   UNL     1      -9.550  12.846  66.220  1.00  0.00    -0.245 C  
HETATM   36  C   UNL     1     -11.496  11.911  67.417  1.00  0.00    -0.393 C  
HETATM   37  C   UNL     1     -10.961  11.184  65.056  1.00  0.00    -0.174 C  
ENDBRANCH  28  34
ENDBRANCH  21  22
ENDBRANCH   2  21
TORSDOF 8
ENDMDL
MODEL      146
REMARK 921   NORMALIZED FREE ENERGY PREDICTED BY IDOCK:   -4.40 KCAL/MOL
REMARK 922        TOTAL FREE ENERGY PREDICTED BY IDOCK:   -7.05 KCAL/MOL
REMARK 923 INTER-LIGAND FREE ENERGY PREDICTED BY IDOCK:   -7.06 KCAL/MOL
REMARK 924 INTRA-LIGAND FREE ENERGY PREDICTED BY IDOCK:    0.00 KCAL/MOL
REMARK 927      BINDING AFFINITY PREDICTED BY RF-SCORE:    0.00 PKD
ROOT
HETATM    1  C   UNL     1      -5.620  11.248  70.473  1.00  0.00    -0.141 C  
HETATM    2  C   UNL     1      -6.392  10.224  69.621  1.00  0.00    -0.062 C  
HETATM    3  C   UNL     1      -7.896  10.490  69.794  1.00  0.00    -0.048 C  
ENDROOT
BRANCH   2   4
HETATM    4  S   UNL     1      -6.026   8.530  70.258  1.00  0.00    -0.027 SA 
BRANCH   4   5
HETATM    5  C   UNL     1      -7.575   7.645  70.115  1.00  0.00    -0.086 A  
HETATM    6  C   UNL     1     -10.129   6.527  69.886  1.00  0.00    -0.173 A  
HETATM    7  O   UNL     1     -11.390   6.041  69.692  1.00  0.00    -0.411 OA 
HETATM    8  H   UNL     1     -11.677   5.732  68.841  1.00  0.00     0.000 HD 
HETATM    9  C   UNL     1      -8.412   7.571  71.223  1.00  0.00    -0.116 A  
HETATM   10  C   UNL     1      -9.314   6.583  68.735  1.00  0.00    -0.130 A  
HETATM   11  C   UNL     1      -8.039   7.127  68.911  1.00  0.00    -0.121 A  
HETATM   12  C   UNL     1      -9.699   6.989  71.163  1.00  0.00    -0.173 A  
BRANCH  12  13
HETATM   13  C   UNL     1     -10.557   6.929  72.452  1.00  0.00    -0.240 C  
HETATM   14  C   UNL     1     -11.006   5.483  72.761  1.00  0.00    -0.324 C  
HETATM   15  C   UNL     1     -11.782   7.859  72.334  1.00  0.00    -0.423 C  
HETATM   16  C   UNL     1      -9.792   7.387  73.728  1.00  0.00    -0.331 C  
ENDBRANCH  12  13
BRANCH  10  17
HETATM   17  C   UNL     1      -9.739   6.077  67.331  1.00  0.00    -0.124 C  
HETATM   18  C   UNL     1      -8.694   6.453  66.260  1.00  0.00    -0.146 C  
HETATM   19  C   UNL     1      -9.892   4.529  67.228  1.00  0.00    -0.216 C  
HETATM   20  C   UNL     1     -11.119   6.656  66.962  1.00  0.00    -0.395 C  
ENDBRANCH  10  17
ENDBRANCH   4   5
ENDBRANCH   2   4
BRANCH   2  21
HETATM   21  S   UNL     1      -5.961  10.517  67.851  1.00  0.00    -0.043 SA 
BRANCH  21  22
HETATM   22  C   UNL     1      -7.047  11.843  67.327  1.00  0.00    -0.143 A  
HETATM   23  C   UNL     1      -6.836  13.189  67.632  1.00  0.00    -0.160 A  
HETATM   24  C   UNL     1      -8.240  11.484  66.720  1.00  0.00    -0.164 A  
HETATM   25  H   UNL     1      -9.739  15.648  66.774  1.00  0.00     0.000 HD 
HETATM   26  O   UNL     1      -9.918  14.743  66.546  1.00  0.00    -0.253 OA 
HETATM   27  C   UNL     1      -9.244  12.419  66.406  1.00  0.00    -0.192 A  
HETATM   28  C   UNL     1      -7.770  14.195  67.351  1.00  0.00    -0.189 A  
HETATM   29  C   UNL     1      -8.976  13.776  66.750  1.00  0.00    -0.185 A  
BRANCH  27  30
HETATM   30  C   UNL     1     -10.571  11.910  65.788  1.00  0.00    -0.309 C  
HETATM   31  C   UNL     1     -11.826  12.282  66.634  1.00  0.00    -0.362 C  
HETATM   32  C   UNL     1     -10.793  12.543  64.400  1.00  0.00    -0.375 C  
HETATM   33  C   UNL     1     -10.601  10.369  65.692  1.00  0.00    -0.096 C  
ENDBRANCH  27  30
BRANCH  28  34
HETATM   34  C   UNL     1      -7.435  15.679  67.680  1.00  0.00    -0.186 C  
HETATM   35  C   UNL     1      -7.730  16.671  66.515  1.00  0.00    -0.337 C  
HETATM   36  C   UNL     1      -5.939  15.870  68.012  1.00  0.00    -0.142 C  
HETATM   37  C   UNL     1      -8.302  16.157  68.864  1.00  0.00    -0.233 C  
ENDBRANCH  28  34
ENDBRANCH  21  22
ENDBRANCH   2  21
TORSDOF 8
ENDMDL
MODEL      147
REMARK 921   NORMALIZED FREE ENERGY PREDICTED BY IDOCK:   -4.39 KCAL/MOL
REMARK 922        TOTAL FREE ENERGY PREDICTED BY IDOCK:   -7.04 KCAL/MOL
REMARK 923 INTER-LIGAND FREE ENERGY PREDICTED BY IDOCK:   -7.35 KCAL/MOL
REMARK 924 INTRA-LIGAND FREE ENERGY PREDICTED BY IDOCK:    0.30 KCAL/MOL
REMARK 927      BINDING AFFINITY PREDICTED BY RF-SCORE:    0.00 PKD
ROOT
HETATM    1  C   UNL     1      -8.278  10.480  69.648  1.00  0.00    -0.031 C  
HETATM    2  C   UNL     1      -6.755  10.496  69.427  1.00  0.00    -0.076 C  
HETATM    3  C   UNL     1      -6.140  11.525  70.388  1.00  0.00    -0.091 C  
ENDROOT
BRANCH   2   4
HETATM    4  S   UNL     1      -6.415  11.043  67.697  1.00  0.00    -0.063 SA 
BRANCH   4   5
HETATM    5  C   UNL     1      -7.399  12.523  67.485  1.00  0.00    -0.151 A  
HETATM    6  C   UNL     1      -8.799  14.871  66.892  1.00  0.00    -0.258 A  
HETATM    7  O   UNL     1      -9.510  15.974  66.513  1.00  0.00    -0.235 OA 
HETATM    8  H   UNL     1     -10.402  15.903  66.194  1.00  0.00     0.000 HD 
HETATM    9  C   UNL     1      -6.786  13.763  67.632  1.00  0.00    -0.187 A  
HETATM   10  C   UNL     1      -9.458  13.634  66.726  1.00  0.00    -0.275 A  
HETATM   11  C   UNL     1      -8.722  12.495  67.062  1.00  0.00    -0.205 A  
HETATM   12  C   UNL     1      -7.462  14.977  67.372  1.00  0.00    -0.234 A  
BRANCH  12  13
HETATM   13  C   UNL     1      -6.710  16.316  67.583  1.00  0.00    -0.169 C  
HETATM   14  C   UNL     1      -5.200  16.080  67.820  1.00  0.00    -0.148 C  
HETATM   15  C   UNL     1      -7.322  17.106  68.758  1.00  0.00    -0.241 C  
HETATM   16  C   UNL     1      -6.773  17.264  66.350  1.00  0.00    -0.289 C  
ENDBRANCH  12  13
BRANCH  10  17
HETATM   17  C   UNL     1     -10.917  13.477  66.221  1.00  0.00    -0.293 C  
HETATM   18  C   UNL     1     -11.402  12.018  66.355  1.00  0.00    -0.411 C  
HETATM   19  C   UNL     1     -11.961  14.329  67.005  1.00  0.00    -0.463 C  
HETATM   20  C   UNL     1     -11.017  13.944  64.755  1.00  0.00    -0.407 C  
ENDBRANCH  10  17
ENDBRANCH   4   5
ENDBRANCH   2   4
BRANCH   2  21
HETATM   21  S   UNL     1      -6.098   8.831  69.878  1.00  0.00    -0.034 SA 
BRANCH  21  22
HETATM   22  C   UNL     1      -7.530   7.754  69.868  1.00  0.00    -0.081 A  
HETATM   23  C   UNL     1      -8.043   7.150  68.718  1.00  0.00    -0.121 A  
HETATM   24  C   UNL     1      -8.251   7.644  71.047  1.00  0.00    -0.107 A  
HETATM   25  H   UNL     1     -11.485   5.354  69.077  1.00  0.00     0.000 HD 
HETATM   26  O   UNL     1     -11.167   5.745  69.882  1.00  0.00    -0.346 OA 
HETATM   27  C   UNL     1      -9.477   6.958  71.126  1.00  0.00    -0.166 A  
HETATM   28  C   UNL     1      -9.249   6.438  68.697  1.00  0.00    -0.125 A  
HETATM   29  C   UNL     1      -9.955   6.372  69.918  1.00  0.00    -0.168 A  
BRANCH  27  30
HETATM   30  C   UNL     1     -10.241   6.949  72.475  1.00  0.00    -0.205 C  
HETATM   31  C   UNL     1     -10.565   5.515  72.989  1.00  0.00    -0.274 C  
HETATM   32  C   UNL     1      -9.390   7.613  73.576  1.00  0.00    -0.339 C  
HETATM   33  C   UNL     1     -11.613   7.647  72.356  1.00  0.00    -0.386 C  
ENDBRANCH  27  30
BRANCH  28  34
HETATM   34  C   UNL     1      -9.726   5.756  67.383  1.00  0.00    -0.133 C  
HETATM   35  C   UNL     1     -11.107   6.261  66.867  1.00  0.00    -0.329 C  
HETATM   36  C   UNL     1      -9.885   4.229  67.554  1.00  0.00    -0.162 C  
HETATM   37  C   UNL     1      -8.723   6.055  66.248  1.00  0.00    -0.138 C  
ENDBRANCH  28  34
ENDBRANCH  21  22
ENDBRANCH   2  21
TORSDOF 8
ENDMDL
MODEL      148
REMARK 921   NORMALIZED FREE ENERGY PREDICTED BY IDOCK:   -4.38 KCAL/MOL
REMARK 922        TOTAL FREE ENERGY PREDICTED BY IDOCK:   -7.03 KCAL/MOL
REMARK 923 INTER-LIGAND FREE ENERGY PREDICTED BY IDOCK:   -7.76 KCAL/MOL
REMARK 924 INTRA-LIGAND FREE ENERGY PREDICTED BY IDOCK:    0.73 KCAL/MOL
REMARK 927      BINDING AFFINITY PREDICTED BY RF-SCORE:    0.00 PKD
ROOT
HETATM    1  C   UNL     1      -7.729   5.419  66.913  1.00  0.00    -0.100 C  
HETATM    2  C   UNL     1      -8.541   6.689  67.224  1.00  0.00    -0.119 C  
HETATM    3  C   UNL     1      -7.866   7.418  68.396  1.00  0.00    -0.122 C  
ENDROOT
BRANCH   2   4
HETATM    4  S   UNL     1     -10.238   6.190  67.752  1.00  0.00    -0.198 SA 
BRANCH   4   5
HETATM    5  C   UNL     1     -10.040   5.611  69.434  1.00  0.00    -0.223 A  
HETATM    6  C   UNL     1      -9.437   4.736  72.022  1.00  0.00    -0.141 A  
HETATM    7  O   UNL     1      -9.088   4.395  73.297  1.00  0.00    -0.114 OA 
HETATM    8  H   UNL     1      -9.188   5.006  74.019  1.00  0.00     0.000 HD 
HETATM    9  C   UNL     1      -9.579   4.317  69.649  1.00  0.00    -0.275 A  
HETATM   10  C   UNL     1      -9.900   6.058  71.849  1.00  0.00    -0.183 A  
HETATM   11  C   UNL     1     -10.211   6.435  70.541  1.00  0.00    -0.230 A  
HETATM   12  C   UNL     1      -9.288   3.821  70.941  1.00  0.00    -0.215 A  
BRANCH  12  13
HETATM   13  C   UNL     1      -8.799   2.358  71.091  1.00  0.00    -0.129 C  
HETATM   14  C   UNL     1      -9.812   1.507  71.890  1.00  0.00    -0.202 C  
HETATM   15  C   UNL     1      -7.411   2.315  71.764  1.00  0.00    -0.039 C  
HETATM   16  C   UNL     1      -8.640   1.614  69.733  1.00  0.00    -0.091 C  
ENDBRANCH  12  13
BRANCH  10  17
HETATM   17  C   UNL     1     -10.091   7.080  73.002  1.00  0.00    -0.242 C  
HETATM   18  C   UNL     1     -11.388   7.896  72.818  1.00  0.00    -0.453 C  
HETATM   19  C   UNL     1     -10.210   6.436  74.416  1.00  0.00    -0.343 C  
HETATM   20  C   UNL     1      -8.870   8.019  73.075  1.00  0.00    -0.302 C  
ENDBRANCH  10  17
ENDBRANCH   4   5
ENDBRANCH   2   4
BRANCH   2  21
HETATM   21  S   UNL     1      -8.461   7.790  65.745  1.00  0.00    -0.140 SA 
BRANCH  21  22
HETATM   22  C   UNL     1      -9.388   9.252  66.209  1.00  0.00    -0.200 A  
HETATM   23  C   UNL     1      -9.898   9.476  67.490  1.00  0.00    -0.213 A  
HETATM   24  C   UNL     1      -9.745  10.126  65.195  1.00  0.00    -0.370 A  
HETATM   25  H   UNL     1     -12.320  12.504  67.897  1.00  0.00     0.000 HD 
HETATM   26  O   UNL     1     -11.990  12.390  67.014  1.00  0.00    -0.541 OA 
HETATM   27  C   UNL     1     -10.602  11.223  65.405  1.00  0.00    -0.312 A  
HETATM   28  C   UNL     1     -10.750  10.544  67.800  1.00  0.00    -0.319 A  
HETATM   29  C   UNL     1     -11.099  11.395  66.730  1.00  0.00    -0.281 A  
BRANCH  27  30
HETATM   30  C   UNL     1     -10.996  12.104  64.193  1.00  0.00    -0.416 C  
HETATM   31  C   UNL     1     -10.152  11.810  62.917  1.00  0.00    -0.101 C  
HETATM   32  C   UNL     1     -12.465  11.846  63.799  1.00  0.00    -0.537 C  
HETATM   33  C   UNL     1     -10.769  13.604  64.482  1.00  0.00    -0.420 C  
ENDBRANCH  27  30
BRANCH  28  34
HETATM   34  C   UNL     1     -11.235  10.750  69.264  1.00  0.00    -0.333 C  
HETATM   35  C   UNL     1     -10.319  10.088  70.338  1.00  0.00    -0.268 C  
HETATM   36  C   UNL     1     -12.638  10.148  69.495  1.00  0.00     0.533 C  
HETATM   37  C   UNL     1     -11.248  12.256  69.601  1.00  0.00    -0.120 C  
ENDBRANCH  28  34
ENDBRANCH  21  22
ENDBRANCH   2  21
TORSDOF 8
ENDMDL
MODEL      149
REMARK 921   NORMALIZED FREE ENERGY PREDICTED BY IDOCK:   -4.38 KCAL/MOL
REMARK 922        TOTAL FREE ENERGY PREDICTED BY IDOCK:   -7.02 KCAL/MOL
REMARK 923 INTER-LIGAND FREE ENERGY PREDICTED BY IDOCK:   -6.79 KCAL/MOL
REMARK 924 INTRA-LIGAND FREE ENERGY PREDICTED BY IDOCK:   -0.23 KCAL/MOL
REMARK 927      BINDING AFFINITY PREDICTED BY RF-SCORE:    0.00 PKD
ROOT
HETATM    1  C   UNL     1     -10.859  13.093  68.563  1.00  0.00    -0.285 C  
HETATM    2  C   UNL     1      -9.968  12.308  67.584  1.00  0.00    -0.198 C  
HETATM    3  C   UNL     1      -9.321  13.310  66.614  1.00  0.00    -0.247 C  
ENDROOT
BRANCH   2   4
HETATM    4  S   UNL     1     -11.034  11.161  66.606  1.00  0.00    -0.177 SA 
BRANCH   4   5
HETATM    5  C   UNL     1     -10.014   9.716  66.331  1.00  0.00    -0.255 A  
HETATM    6  C   UNL     1      -8.652   7.342  65.753  1.00  0.00    -0.131 A  
HETATM    7  O   UNL     1      -8.010   6.197  65.373  1.00  0.00    -0.103 OA 
HETATM    8  H   UNL     1      -7.384   6.195  64.659  1.00  0.00     0.000 HD 
HETATM    9  C   UNL     1     -10.274   8.561  67.060  1.00  0.00    -0.371 A  
HETATM   10  C   UNL     1      -8.358   8.489  64.986  1.00  0.00    -0.175 A  
HETATM   11  C   UNL     1      -9.048   9.653  65.333  1.00  0.00    -0.265 A  
HETATM   12  C   UNL     1      -9.591   7.346  66.824  1.00  0.00    -0.249 A  
BRANCH  12  13
HETATM   13  C   UNL     1      -9.928   6.112  67.700  1.00  0.00    -0.150 C  
HETATM   14  C   UNL     1      -8.658   5.526  68.358  1.00  0.00    -0.099 C  
HETATM   15  C   UNL     1     -10.649   5.033  66.866  1.00  0.00    -0.183 C  
HETATM   16  C   UNL     1     -10.876   6.437  68.891  1.00  0.00    -0.382 C  
ENDBRANCH  12  13
BRANCH  10  17
HETATM   17  C   UNL     1      -7.332   8.529  63.823  1.00  0.00    -0.102 C  
HETATM   18  C   UNL     1      -5.961   7.978  64.267  1.00  0.00    -0.057 C  
HETATM   19  C   UNL     1      -7.735   7.674  62.583  1.00  0.00    -0.122 C  
HETATM   20  C   UNL     1      -7.188   9.973  63.302  1.00  0.00    -0.134 C  
ENDBRANCH  10  17
ENDBRANCH   4   5
ENDBRANCH   2   4
BRANCH   2  21
HETATM   21  S   UNL     1      -8.622  11.507  68.559  1.00  0.00    -0.108 SA 
BRANCH  21  22
HETATM   22  C   UNL     1      -9.468  10.409  69.694  1.00  0.00    -0.086 A  
HETATM   23  C   UNL     1     -10.808  10.550  70.062  1.00  0.00    -0.320 A  
HETATM   24  C   UNL     1      -8.699   9.464  70.356  1.00  0.00    -0.278 A  
HETATM   25  H   UNL     1     -12.065   8.285  72.976  1.00  0.00     0.000 HD 
HETATM   26  O   UNL     1     -11.151   8.153  72.751  1.00  0.00    -0.382 OA 
HETATM   27  C   UNL     1      -9.213   8.651  71.383  1.00  0.00    -0.303 A  
HETATM   28  C   UNL     1     -11.413   9.782  71.065  1.00  0.00    -0.458 A  
HETATM   29  C   UNL     1     -10.584   8.848  71.721  1.00  0.00    -0.362 A  
BRANCH  27  30
HETATM   30  C   UNL     1      -8.256   7.671  72.109  1.00  0.00    -0.127 C  
HETATM   31  C   UNL     1      -8.696   6.182  71.993  1.00  0.00    -0.135 C  
HETATM   32  C   UNL     1      -6.845   7.747  71.492  1.00  0.00    -0.050 C  
HETATM   33  C   UNL     1      -8.199   7.950  73.627  1.00  0.00    -0.264 C  
ENDBRANCH  27  30
BRANCH  28  34
HETATM   34  C   UNL     1     -12.925   9.970  71.380  1.00  0.00    -0.517 C  
HETATM   35  C   UNL     1     -13.462   9.036  72.505  1.00  0.00    -0.485 C  
HETATM   36  C   UNL     1     -13.809   9.678  70.147  1.00  0.00     1.253 C  
HETATM   37  C   UNL     1     -13.178  11.409  71.878  1.00  0.00    -0.485 C  
ENDBRANCH  28  34
ENDBRANCH  21  22
ENDBRANCH   2  21
TORSDOF 8
ENDMDL
MODEL      150
REMARK 921   NORMALIZED FREE ENERGY PREDICTED BY IDOCK:   -4.37 KCAL/MOL
REMARK 922        TOTAL FREE ENERGY PREDICTED BY IDOCK:   -7.01 KCAL/MOL
REMARK 923 INTER-LIGAND FREE ENERGY PREDICTED BY IDOCK:   -6.94 KCAL/MOL
REMARK 924 INTRA-LIGAND FREE ENERGY PREDICTED BY IDOCK:   -0.07 KCAL/MOL
REMARK 927      BINDING AFFINITY PREDICTED BY RF-SCORE:    0.00 PKD
ROOT
HETATM    1  C   UNL     1      -6.307   9.190  67.248  1.00  0.00    -0.059 C  
HETATM    2  C   UNL     1      -7.430  10.154  67.670  1.00  0.00    -0.090 C  
HETATM    3  C   UNL     1      -7.390  10.298  69.201  1.00  0.00    -0.096 C  
ENDROOT
BRANCH   2   4
HETATM    4  S   UNL     1      -9.054   9.412  67.200  1.00  0.00    -0.131 SA 
BRANCH   4   5
HETATM    5  C   UNL     1      -9.407   8.230  68.497  1.00  0.00    -0.138 A  
HETATM    6  C   UNL     1     -10.205   6.312  70.371  1.00  0.00    -0.200 A  
HETATM    7  O   UNL     1     -10.602   5.309  71.208  1.00  0.00    -0.224 OA 
HETATM    8  H   UNL     1     -10.185   4.455  71.191  1.00  0.00     0.000 HD 
HETATM    9  C   UNL     1     -10.412   8.518  69.414  1.00  0.00    -0.223 A  
HETATM   10  C   UNL     1      -9.183   5.976  69.457  1.00  0.00    -0.145 A  
HETATM   11  C   UNL     1      -8.805   6.978  68.561  1.00  0.00    -0.124 A  
HETATM   12  C   UNL     1     -10.830   7.592  70.397  1.00  0.00    -0.252 A  
BRANCH  12  13
HETATM   13  C   UNL     1     -11.943   8.005  71.393  1.00  0.00    -0.328 C  
HETATM   14  C   UNL     1     -13.172   7.074  71.279  1.00  0.00    -0.304 C  
HETATM   15  C   UNL     1     -12.358   9.474  71.168  1.00  0.00    -0.410 C  
HETATM   16  C   UNL     1     -11.509   7.906  72.884  1.00  0.00    -0.357 C  
ENDBRANCH  12  13
BRANCH  10  17
HETATM   17  C   UNL     1      -8.468   4.599  69.407  1.00  0.00    -0.094 C  
HETATM   18  C   UNL     1      -7.885   4.220  70.785  1.00  0.00    -0.060 C  
HETATM   19  C   UNL     1      -9.396   3.410  69.013  1.00  0.00    -0.239 C  
HETATM   20  C   UNL     1      -7.354   4.627  68.341  1.00  0.00    -0.065 C  
ENDBRANCH  10  17
ENDBRANCH   4   5
ENDBRANCH   2   4
BRANCH   2  21
HETATM   21  S   UNL     1      -7.067  11.806  66.932  1.00  0.00    -0.049 SA 
BRANCH  21  22
HETATM   22  C   UNL     1      -8.654  12.636  66.860  1.00  0.00    -0.151 A  
HETATM   23  C   UNL     1      -9.254  13.266  67.953  1.00  0.00    -0.213 A  
HETATM   24  C   UNL     1      -9.387  12.504  65.691  1.00  0.00     0.079 A  
HETATM   25  H   UNL     1     -12.941  14.441  67.480  1.00  0.00     0.000 HD 
HETATM   26  O   UNL     1     -12.567  14.024  66.712  1.00  0.00    -0.311 OA 
HETATM   27  C   UNL     1     -10.708  12.974  65.566  1.00  0.00    -0.299 A  
HETATM   28  C   UNL     1     -10.559  13.774  67.924  1.00  0.00    -0.257 A  
HETATM   29  C   UNL     1     -11.270  13.599  66.718  1.00  0.00    -0.314 A  
BRANCH  27  30
HETATM   30  C   UNL     1     -11.468  12.719  64.240  1.00  0.00    -0.427 C  
HETATM   31  C   UNL     1     -12.744  11.844  64.420  1.00  0.00    -0.082 C  
HETATM   32  C   UNL     1     -11.949  14.053  63.635  1.00  0.00    -0.109 C  
HETATM   33  C   UNL     1     -10.598  11.947  63.224  1.00  0.00    -0.420 C  
ENDBRANCH  27  30
BRANCH  28  34
HETATM   34  C   UNL     1     -11.135  14.506  69.170  1.00  0.00    -0.284 C  
HETATM   35  C   UNL     1     -12.004  15.754  68.832  1.00  0.00    -0.268 C  
HETATM   36  C   UNL     1     -10.015  15.025  70.100  1.00  0.00     0.119 C  
HETATM   37  C   UNL     1     -12.064  13.551  69.951  1.00  0.00    -0.408 C  
ENDBRANCH  28  34
ENDBRANCH  21  22
ENDBRANCH   2  21
TORSDOF 8
ENDMDL
MODEL      151
REMARK 921   NORMALIZED FREE ENERGY PREDICTED BY IDOCK:   -4.36 KCAL/MOL
REMARK 922        TOTAL FREE ENERGY PREDICTED BY IDOCK:   -7.00 KCAL/MOL
REMARK 923 INTER-LIGAND FREE ENERGY PREDICTED BY IDOCK:   -7.22 KCAL/MOL
REMARK 924 INTRA-LIGAND FREE ENERGY PREDICTED BY IDOCK:    0.21 KCAL/MOL
REMARK 927      BINDING AFFINITY PREDICTED BY RF-SCORE:    0.00 PKD
ROOT
HETATM    1  C   UNL     1      -5.828  11.603  70.590  1.00  0.00    -0.077 C  
HETATM    2  C   UNL     1      -6.377  10.752  69.431  1.00  0.00    -0.068 C  
HETATM    3  C   UNL     1      -7.909  10.705  69.551  1.00  0.00    -0.092 C  
ENDROOT
BRANCH   2   4
HETATM    4  S   UNL     1      -5.730   9.031  69.604  1.00  0.00    -0.033 SA 
BRANCH   4   5
HETATM    5  C   UNL     1      -7.191   8.008  69.756  1.00  0.00    -0.065 A  
HETATM    6  C   UNL     1      -9.632   6.662  69.996  1.00  0.00    -0.156 A  
HETATM    7  O   UNL     1     -10.856   6.057  70.031  1.00  0.00    -0.294 OA 
HETATM    8  H   UNL     1     -11.236   5.663  69.254  1.00  0.00     0.000 HD 
HETATM    9  C   UNL     1      -7.842   7.945  70.984  1.00  0.00    -0.089 A  
HETATM   10  C   UNL     1      -9.007   6.704  68.731  1.00  0.00    -0.125 A  
HETATM   11  C   UNL     1      -7.779   7.365  68.673  1.00  0.00    -0.120 A  
HETATM   12  C   UNL     1      -9.062   7.253  71.160  1.00  0.00    -0.152 A  
BRANCH  12  13
HETATM   13  C   UNL     1      -9.707   7.215  72.569  1.00  0.00    -0.180 C  
HETATM   14  C   UNL     1      -8.899   8.060  73.579  1.00  0.00    -0.333 C  
HETATM   15  C   UNL     1      -9.840   5.761  73.068  1.00  0.00    -0.179 C  
HETATM   16  C   UNL     1     -11.143   7.815  72.610  1.00  0.00    -0.433 C  
ENDBRANCH  12  13
BRANCH  10  17
HETATM   17  C   UNL     1      -9.588   6.060  67.443  1.00  0.00    -0.118 C  
HETATM   18  C   UNL     1      -9.740   4.532  67.601  1.00  0.00    -0.206 C  
HETATM   19  C   UNL     1     -11.006   6.575  67.053  1.00  0.00    -0.466 C  
HETATM   20  C   UNL     1      -8.682   6.389  66.240  1.00  0.00    -0.146 C  
ENDBRANCH  10  17
ENDBRANCH   4   5
ENDBRANCH   2   4
BRANCH   2  21
HETATM   21  S   UNL     1      -5.955  11.605  67.850  1.00  0.00    -0.052 SA 
BRANCH  21  22
HETATM   22  C   UNL     1      -7.429  12.526  67.417  1.00  0.00    -0.153 A  
HETATM   23  C   UNL     1      -8.458  12.019  66.619  1.00  0.00    -0.117 A  
HETATM   24  C   UNL     1      -7.468  13.866  67.770  1.00  0.00    -0.174 A  
HETATM   25  H   UNL     1     -11.189  14.557  65.476  1.00  0.00     0.000 HD 
HETATM   26  O   UNL     1     -10.512  14.938  66.023  1.00  0.00    -0.290 OA 
HETATM   27  C   UNL     1      -8.496  14.732  67.352  1.00  0.00    -0.218 A  
HETATM   28  C   UNL     1      -9.528  12.799  66.161  1.00  0.00    -0.169 A  
HETATM   29  C   UNL     1      -9.512  14.160  66.532  1.00  0.00    -0.285 A  
BRANCH  27  30
HETATM   30  C   UNL     1      -8.415  16.229  67.743  1.00  0.00    -0.169 C  
HETATM   31  C   UNL     1      -9.746  16.785  68.329  1.00  0.00    -0.252 C  
HETATM   32  C   UNL     1      -7.349  16.439  68.838  1.00  0.00    -0.214 C  
HETATM   33  C   UNL     1      -8.116  17.122  66.519  1.00  0.00    -0.318 C  
ENDBRANCH  27  30
BRANCH  28  34
HETATM   34  C   UNL     1     -10.659  12.144  65.316  1.00  0.00    -0.319 C  
HETATM   35  C   UNL     1     -10.530  10.598  65.168  1.00  0.00    -0.271 C  
HETATM   36  C   UNL     1     -10.688  12.693  63.872  1.00  0.00    -0.465 C  
HETATM   37  C   UNL     1     -12.023  12.385  65.997  1.00  0.00    -0.419 C  
ENDBRANCH  28  34
ENDBRANCH  21  22
ENDBRANCH   2  21
TORSDOF 8
ENDMDL
MODEL      152
REMARK 921   NORMALIZED FREE ENERGY PREDICTED BY IDOCK:   -4.36 KCAL/MOL
REMARK 922        TOTAL FREE ENERGY PREDICTED BY IDOCK:   -6.99 KCAL/MOL
REMARK 923 INTER-LIGAND FREE ENERGY PREDICTED BY IDOCK:   -7.19 KCAL/MOL
REMARK 924 INTRA-LIGAND FREE ENERGY PREDICTED BY IDOCK:    0.20 KCAL/MOL
REMARK 927      BINDING AFFINITY PREDICTED BY RF-SCORE:    0.00 PKD
ROOT
HETATM    1  C   UNL     1     -10.754   9.778  70.753  1.00  0.00    -0.393 C  
HETATM    2  C   UNL     1      -9.939   9.806  69.448  1.00  0.00    -0.205 C  
HETATM    3  C   UNL     1      -9.839  11.265  68.974  1.00  0.00    -0.101 C  
ENDROOT
BRANCH   2   4
HETATM    4  S   UNL     1     -10.848   8.840  68.164  1.00  0.00     0.119 SA 
BRANCH   4   5
HETATM    5  C   UNL     1     -10.362   9.580  66.608  1.00  0.00    -0.210 A  
HETATM    6  C   UNL     1      -9.456  10.940  64.338  1.00  0.00    -0.247 A  
HETATM    7  O   UNL     1      -8.919  11.596  63.267  1.00  0.00    -0.505 OA 
HETATM    8  H   UNL     1      -8.176  11.243  62.791  1.00  0.00     0.000 HD 
HETATM    9  C   UNL     1     -10.974  10.762  66.206  1.00  0.00    -0.073 A  
HETATM   10  C   UNL     1      -8.804   9.746  64.711  1.00  0.00    -0.239 A  
HETATM   11  C   UNL     1      -9.313   9.094  65.836  1.00  0.00    -0.306 A  
HETATM   12  C   UNL     1     -10.570  11.469  65.050  1.00  0.00    -0.354 A  
BRANCH  12  13
HETATM   13  C   UNL     1     -11.323  12.768  64.663  1.00  0.00    -0.362 C  
HETATM   14  C   UNL     1     -11.949  12.655  63.254  1.00  0.00    -0.526 C  
HETATM   15  C   UNL     1     -10.380  13.986  64.736  1.00  0.00    -0.407 C  
HETATM   16  C   UNL     1     -12.520  13.095  65.603  1.00  0.00    -0.485 C  
ENDBRANCH  12  13
BRANCH  10  17
HETATM   17  C   UNL     1      -7.598   9.129  63.953  1.00  0.00    -0.113 C  
HETATM   18  C   UNL     1      -6.353  10.037  64.049  1.00  0.00    -0.132 C  
HETATM   19  C   UNL     1      -7.138   7.744  64.500  1.00  0.00    -0.065 C  
HETATM   20  C   UNL     1      -7.975   8.889  62.478  1.00  0.00    -0.143 C  
ENDBRANCH  10  17
ENDBRANCH   4   5
ENDBRANCH   2   4
BRANCH   2  21
HETATM   21  S   UNL     1      -8.234   9.212  69.830  1.00  0.00    -0.153 SA 
BRANCH  21  22
HETATM   22  C   UNL     1      -8.419   7.459  70.151  1.00  0.00    -0.137 A  
HETATM   23  C   UNL     1      -8.267   6.469  69.177  1.00  0.00    -0.116 A  
HETATM   24  C   UNL     1      -8.891   7.087  71.400  1.00  0.00    -0.129 A  
HETATM   25  H   UNL     1      -9.311   2.851  70.190  1.00  0.00     0.000 HD 
HETATM   26  O   UNL     1      -9.423   3.493  70.881  1.00  0.00    -0.141 OA 
HETATM   27  C   UNL     1      -9.226   5.759  71.721  1.00  0.00    -0.157 A  
HETATM   28  C   UNL     1      -8.565   5.119  69.403  1.00  0.00    -0.102 A  
HETATM   29  C   UNL     1      -9.059   4.795  70.684  1.00  0.00    -0.128 A  
BRANCH  27  30
HETATM   30  C   UNL     1      -9.809   5.455  73.125  1.00  0.00    -0.179 C  
HETATM   31  C   UNL     1     -11.224   4.806  73.076  1.00  0.00    -0.344 C  
HETATM   32  C   UNL     1      -8.907   4.452  73.872  1.00  0.00    -0.103 C  
HETATM   33  C   UNL     1      -9.992   6.743  73.956  1.00  0.00    -0.367 C  
ENDBRANCH  27  30
BRANCH  28  34
HETATM   34  C   UNL     1      -8.321   4.072  68.278  1.00  0.00    -0.100 C  
HETATM   35  C   UNL     1      -7.837   4.686  66.930  1.00  0.00    -0.099 C  
HETATM   36  C   UNL     1      -9.607   3.288  67.934  1.00  0.00    -0.142 C  
HETATM   37  C   UNL     1      -7.209   3.092  68.712  1.00  0.00    -0.049 C  
ENDBRANCH  28  34
ENDBRANCH  21  22
ENDBRANCH   2  21
TORSDOF 8
ENDMDL
MODEL      153
REMARK 921   NORMALIZED FREE ENERGY PREDICTED BY IDOCK:   -4.35 KCAL/MOL
REMARK 922        TOTAL FREE ENERGY PREDICTED BY IDOCK:   -6.99 KCAL/MOL
REMARK 923 INTER-LIGAND FREE ENERGY PREDICTED BY IDOCK:   -7.06 KCAL/MOL
REMARK 924 INTRA-LIGAND FREE ENERGY PREDICTED BY IDOCK:    0.07 KCAL/MOL
REMARK 927      BINDING AFFINITY PREDICTED BY RF-SCORE:    0.00 PKD
ROOT
HETATM    1  C   UNL     1      -8.924  10.342  69.490  1.00  0.00    -0.176 C  
HETATM    2  C   UNL     1     -10.256   9.623  69.765  1.00  0.00    -0.237 C  
HETATM    3  C   UNL     1     -11.365  10.683  69.860  1.00  0.00    -0.386 C  
ENDROOT
BRANCH   2   4
HETATM    4  S   UNL     1     -10.137   8.762  71.394  1.00  0.00    -0.312 SA 
BRANCH   4   5
HETATM    5  C   UNL     1      -9.170   7.293  71.064  1.00  0.00    -0.154 A  
HETATM    6  C   UNL     1      -7.894   4.894  70.399  1.00  0.00    -0.066 A  
HETATM    7  O   UNL     1      -7.295   3.741  69.977  1.00  0.00    -0.042 OA 
HETATM    8  H   UNL     1      -6.673   3.741  69.258  1.00  0.00     0.000 HD 
HETATM    9  C   UNL     1      -9.464   6.124  71.757  1.00  0.00    -0.162 A  
HETATM   10  C   UNL     1      -7.566   6.055  69.667  1.00  0.00    -0.089 A  
HETATM   11  C   UNL     1      -8.212   7.230  70.058  1.00  0.00    -0.132 A  
HETATM   12  C   UNL     1      -8.825   4.895  71.477  1.00  0.00    -0.152 A  
BRANCH  12  13
HETATM   13  C   UNL     1      -9.200   3.646  72.314  1.00  0.00    -0.164 C  
HETATM   14  C   UNL     1      -7.961   3.056  73.026  1.00  0.00    -0.060 C  
HETATM   15  C   UNL     1      -9.870   2.576  71.427  1.00  0.00    -0.165 C  
HETATM   16  C   UNL     1     -10.209   3.946  73.460  1.00  0.00    -0.211 C  
ENDBRANCH  12  13
BRANCH  10  17
HETATM   17  C   UNL     1      -6.547   6.098  68.498  1.00  0.00    -0.059 C  
HETATM   18  C   UNL     1      -5.152   5.619  68.954  1.00  0.00     0.000 C  
HETATM   19  C   UNL     1      -6.918   5.186  67.290  1.00  0.00    -0.065 C  
HETATM   20  C   UNL     1      -6.464   7.529  67.928  1.00  0.00    -0.054 C  
ENDBRANCH  10  17
ENDBRANCH   4   5
ENDBRANCH   2   4
BRANCH   2  21
HETATM   21  S   UNL     1     -10.626   8.538  68.318  1.00  0.00    -0.057 SA 
BRANCH  21  22
HETATM   22  C   UNL     1     -10.228   9.534  66.883  1.00  0.00    -0.249 A  
HETATM   23  C   UNL     1     -10.908  10.702  66.533  1.00  0.00    -0.168 A  
HETATM   24  C   UNL     1      -9.293   9.024  65.996  1.00  0.00    -0.305 A  
HETATM   25  H   UNL     1     -10.073  12.226  63.042  1.00  0.00     0.000 HD 
HETATM   26  O   UNL     1      -9.585  11.437  63.246  1.00  0.00    -0.316 OA 
HETATM   27  C   UNL     1      -9.009   9.633  64.759  1.00  0.00    -0.268 A  
HETATM   28  C   UNL     1     -10.690  11.385  65.329  1.00  0.00    -0.326 A  
HETATM   29  C   UNL     1      -9.742  10.816  64.452  1.00  0.00    -0.301 A  
BRANCH  27  30
HETATM   30  C   UNL     1      -7.996   8.949  63.806  1.00  0.00    -0.154 C  
HETATM   31  C   UNL     1      -8.506   8.846  62.338  1.00  0.00    -0.212 C  
HETATM   32  C   UNL     1      -6.687   9.762  63.745  1.00  0.00    -0.120 C  
HETATM   33  C   UNL     1      -7.710   7.492  64.230  1.00  0.00    -0.128 C  
ENDBRANCH  27  30
BRANCH  28  34
HETATM   34  C   UNL     1     -11.456  12.708  65.037  1.00  0.00    -0.366 C  
HETATM   35  C   UNL     1     -10.543  13.888  64.590  1.00  0.00    -0.432 C  
HETATM   36  C   UNL     1     -12.210  13.222  66.283  1.00  0.00    -0.440 C  
HETATM   37  C   UNL     1     -12.450  12.488  63.876  1.00  0.00    -0.540 C  
ENDBRANCH  28  34
ENDBRANCH  21  22
ENDBRANCH   2  21
TORSDOF 8
ENDMDL
MODEL      154
REMARK 921   NORMALIZED FREE ENERGY PREDICTED BY IDOCK:   -4.35 KCAL/MOL
REMARK 922        TOTAL FREE ENERGY PREDICTED BY IDOCK:   -6.98 KCAL/MOL
REMARK 923 INTER-LIGAND FREE ENERGY PREDICTED BY IDOCK:   -7.39 KCAL/MOL
REMARK 924 INTRA-LIGAND FREE ENERGY PREDICTED BY IDOCK:    0.40 KCAL/MOL
REMARK 927      BINDING AFFINITY PREDICTED BY RF-SCORE:    0.00 PKD
ROOT
HETATM    1  C   UNL     1     -11.420   8.061  72.776  1.00  0.00    -0.420 C  
HETATM    2  C   UNL     1     -11.353   8.670  71.364  1.00  0.00    -0.284 C  
HETATM    3  C   UNL     1     -11.924   7.645  70.370  1.00  0.00     0.059 C  
ENDROOT
BRANCH   2   4
HETATM    4  S   UNL     1      -9.583   8.971  70.934  1.00  0.00    -0.280 SA 
BRANCH   4   5
HETATM    5  C   UNL     1      -9.042   7.458  70.145  1.00  0.00    -0.148 A  
HETATM    6  C   UNL     1      -7.925   5.156  69.015  1.00  0.00    -0.085 A  
HETATM    7  O   UNL     1      -7.343   4.009  68.556  1.00  0.00    -0.055 OA 
HETATM    8  H   UNL     1      -7.470   3.177  68.998  1.00  0.00     0.000 HD 
HETATM    9  C   UNL     1      -8.296   7.540  68.974  1.00  0.00    -0.129 A  
HETATM   10  C   UNL     1      -8.673   5.026  70.204  1.00  0.00    -0.130 A  
HETATM   11  C   UNL     1      -9.230   6.202  70.711  1.00  0.00    -0.163 A  
HETATM   12  C   UNL     1      -7.736   6.402  68.351  1.00  0.00    -0.104 A  
BRANCH  12  13
HETATM   13  C   UNL     1      -6.937   6.582  67.036  1.00  0.00    -0.068 C  
HETATM   14  C   UNL     1      -5.686   5.674  67.009  1.00  0.00    -0.017 C  
HETATM   15  C   UNL     1      -6.532   8.059  66.842  1.00  0.00    -0.056 C  
HETATM   16  C   UNL     1      -7.740   6.188  65.762  1.00  0.00    -0.094 C  
ENDBRANCH  12  13
BRANCH  10  17
HETATM   17  C   UNL     1      -8.915   3.686  70.949  1.00  0.00    -0.158 C  
HETATM   18  C   UNL     1     -10.035   3.825  72.002  1.00  0.00    -0.238 C  
HETATM   19  C   UNL     1      -9.363   2.513  70.026  1.00  0.00    -0.186 C  
HETATM   20  C   UNL     1      -7.606   3.214  71.614  1.00  0.00    -0.048 C  
ENDBRANCH  10  17
ENDBRANCH   4   5
ENDBRANCH   2   4
BRANCH   2  21
HETATM   21  S   UNL     1     -12.442  10.160  71.336  1.00  0.00    -0.451 SA 
BRANCH  21  22
HETATM   22  C   UNL     1     -11.875  11.116  69.930  1.00  0.00    -0.363 A  
HETATM   23  C   UNL     1     -11.290  10.557  68.793  1.00  0.00    -0.310 A  
HETATM   24  C   UNL     1     -11.883  12.497  70.057  1.00  0.00    -0.363 A  
HETATM   25  H   UNL     1      -9.703  13.046  66.245  1.00  0.00     0.000 HD 
HETATM   26  O   UNL     1     -10.097  13.465  67.000  1.00  0.00    -0.241 OA 
HETATM   27  C   UNL     1     -11.320  13.351  69.090  1.00  0.00    -0.333 A  
HETATM   28  C   UNL     1     -10.712  11.323  67.772  1.00  0.00    -0.265 A  
HETATM   29  C   UNL     1     -10.728  12.721  67.956  1.00  0.00    -0.230 A  
BRANCH  27  30
HETATM   30  C   UNL     1     -11.318  14.878  69.354  1.00  0.00    -0.312 C  
HETATM   31  C   UNL     1     -11.650  15.722  68.088  1.00  0.00    -0.259 C  
HETATM   32  C   UNL     1     -12.391  15.241  70.400  1.00  0.00    -0.422 C  
HETATM   33  C   UNL     1      -9.929  15.375  69.809  1.00  0.00    -0.251 C  
ENDBRANCH  27  30
BRANCH  28  34
HETATM   34  C   UNL     1     -10.123  10.621  66.514  1.00  0.00    -0.275 C  
HETATM   35  C   UNL     1     -10.713  11.132  65.165  1.00  0.00    -0.279 C  
HETATM   36  C   UNL     1     -10.388   9.100  66.528  1.00  0.00    -0.269 C  
HETATM   37  C   UNL     1      -8.605  10.889  66.432  1.00  0.00    -0.160 C  
ENDBRANCH  28  34
ENDBRANCH  21  22
ENDBRANCH   2  21
TORSDOF 8
ENDMDL
MODEL      155
REMARK 921   NORMALIZED FREE ENERGY PREDICTED BY IDOCK:   -4.35 KCAL/MOL
REMARK 922        TOTAL FREE ENERGY PREDICTED BY IDOCK:   -6.98 KCAL/MOL
REMARK 923 INTER-LIGAND FREE ENERGY PREDICTED BY IDOCK:   -7.57 KCAL/MOL
REMARK 924 INTRA-LIGAND FREE ENERGY PREDICTED BY IDOCK:    0.59 KCAL/MOL
REMARK 927      BINDING AFFINITY PREDICTED BY RF-SCORE:    0.00 PKD
ROOT
HETATM    1  C   UNL     1      -5.879  12.307  68.504  1.00  0.00    -0.054 C  
HETATM    2  C   UNL     1      -6.844  11.142  68.223  1.00  0.00    -0.068 C  
HETATM    3  C   UNL     1      -6.838  10.864  66.711  1.00  0.00    -0.121 C  
ENDROOT
BRANCH   2   4
HETATM    4  S   UNL     1      -8.549  11.657  68.711  1.00  0.00     0.057 SA 
BRANCH   4   5
HETATM    5  C   UNL     1      -8.975  12.964  67.565  1.00  0.00    -0.193 A  
HETATM    6  C   UNL     1      -9.905  15.020  65.912  1.00  0.00    -0.338 A  
HETATM    7  O   UNL     1     -10.380  16.077  65.189  1.00  0.00    -0.523 OA 
HETATM    8  H   UNL     1     -10.091  16.966  65.362  1.00  0.00     0.000 HD 
HETATM    9  C   UNL     1      -9.863  12.688  66.530  1.00  0.00    -0.258 A  
HETATM   10  C   UNL     1      -9.007  15.346  66.950  1.00  0.00    -0.273 A  
HETATM   11  C   UNL     1      -8.554  14.279  67.729  1.00  0.00    -0.177 A  
HETATM   12  C   UNL     1     -10.338  13.688  65.652  1.00  0.00    -0.309 A  
BRANCH  12  13
HETATM   13  C   UNL     1     -11.309  13.288  64.512  1.00  0.00    -0.392 C  
HETATM   14  C   UNL     1     -12.533  12.520  65.062  1.00  0.00    -0.494 C  
HETATM   15  C   UNL     1     -10.579  12.445  63.446  1.00  0.00    -0.375 C  
HETATM   16  C   UNL     1     -11.913  14.506  63.755  1.00  0.00     0.083 C  
ENDBRANCH  12  13
BRANCH  10  17
HETATM   17  C   UNL     1      -8.499  16.781  67.256  1.00  0.00    -0.202 C  
HETATM   18  C   UNL     1      -7.494  17.258  66.186  1.00  0.00    -0.321 C  
HETATM   19  C   UNL     1      -9.619  17.865  67.278  1.00  0.00    -0.273 C  
HETATM   20  C   UNL     1      -7.855  16.821  68.656  1.00  0.00    -0.241 C  
ENDBRANCH  10  17
ENDBRANCH   4   5
ENDBRANCH   2   4
BRANCH   2  21
HETATM   21  S   UNL     1      -6.191   9.644  69.081  1.00  0.00    -0.041 SA 
BRANCH  21  22
HETATM   22  C   UNL     1      -7.632   8.622  69.383  1.00  0.00    -0.092 A  
HETATM   23  C   UNL     1      -8.207   8.439  70.643  1.00  0.00    -0.117 A  
HETATM   24  C   UNL     1      -8.099   7.854  68.328  1.00  0.00    -0.123 A  
HETATM   25  H   UNL     1     -10.969   5.701  70.919  1.00  0.00     0.000 HD 
HETATM   26  O   UNL     1     -10.608   5.799  70.045  1.00  0.00    -0.255 OA 
HETATM   27  C   UNL     1      -9.120   6.898  68.478  1.00  0.00    -0.127 A  
HETATM   28  C   UNL     1      -9.234   7.520  70.891  1.00  0.00    -0.153 A  
HETATM   29  C   UNL     1      -9.661   6.749  69.789  1.00  0.00    -0.156 A  
BRANCH  27  30
HETATM   30  C   UNL     1      -9.527   6.041  67.253  1.00  0.00    -0.119 C  
HETATM   31  C   UNL     1     -11.028   6.193  66.866  1.00  0.00    -0.384 C  
HETATM   32  C   UNL     1      -8.722   6.471  66.009  1.00  0.00    -0.155 C  
HETATM   33  C   UNL     1      -9.338   4.533  67.525  1.00  0.00    -0.172 C  
ENDBRANCH  27  30
BRANCH  28  34
HETATM   34  C   UNL     1      -9.853   7.413  72.315  1.00  0.00    -0.203 C  
HETATM   35  C   UNL     1      -8.984   8.058  73.437  1.00  0.00    -0.341 C  
HETATM   36  C   UNL     1     -10.054   5.943  72.745  1.00  0.00    -0.203 C  
HETATM   37  C   UNL     1     -11.203   8.160  72.353  1.00  0.00    -0.452 C  
ENDBRANCH  28  34
ENDBRANCH  21  22
ENDBRANCH   2  21
TORSDOF 8
ENDMDL
MODEL      156
REMARK 921   NORMALIZED FREE ENERGY PREDICTED BY IDOCK:   -4.32 KCAL/MOL
REMARK 922        TOTAL FREE ENERGY PREDICTED BY IDOCK:   -6.94 KCAL/MOL
REMARK 923 INTER-LIGAND FREE ENERGY PREDICTED BY IDOCK:   -6.69 KCAL/MOL
REMARK 924 INTRA-LIGAND FREE ENERGY PREDICTED BY IDOCK:   -0.25 KCAL/MOL
REMARK 927      BINDING AFFINITY PREDICTED BY RF-SCORE:    0.00 PKD
ROOT
HETATM    1  C   UNL     1      -8.474  10.899  69.039  1.00  0.00    -0.110 C  
HETATM    2  C   UNL     1      -8.749   9.406  69.291  1.00  0.00    -0.145 C  
HETATM    3  C   UNL     1      -9.215   9.241  70.747  1.00  0.00    -0.316 C  
ENDROOT
BRANCH   2   4
HETATM    4  S   UNL     1      -7.171   8.470  69.078  1.00  0.00    -0.074 SA 
BRANCH   4   5
HETATM    5  C   UNL     1      -7.675   6.763  68.891  1.00  0.00    -0.110 A  
HETATM    6  C   UNL     1      -8.733   4.181  68.692  1.00  0.00    -0.097 A  
HETATM    7  O   UNL     1      -9.323   2.959  68.537  1.00  0.00    -0.176 OA 
HETATM    8  H   UNL     1      -9.573   2.635  67.680  1.00  0.00     0.000 HD 
HETATM    9  C   UNL     1      -7.855   5.987  70.031  1.00  0.00    -0.105 A  
HETATM   10  C   UNL     1      -8.570   4.934  67.510  1.00  0.00    -0.104 A  
HETATM   11  C   UNL     1      -8.014   6.206  67.663  1.00  0.00    -0.106 A  
HETATM   12  C   UNL     1      -8.359   4.667  69.978  1.00  0.00    -0.075 A  
BRANCH  12  13
HETATM   13  C   UNL     1      -8.506   3.866  71.296  1.00  0.00    -0.094 C  
HETATM   14  C   UNL     1      -8.085   4.713  72.518  1.00  0.00    -0.103 C  
HETATM   15  C   UNL     1      -7.683   2.562  71.236  1.00  0.00    -0.040 C  
HETATM   16  C   UNL     1      -9.970   3.434  71.599  1.00  0.00    -0.177 C  
ENDBRANCH  12  13
BRANCH  10  17
HETATM   17  C   UNL     1      -8.950   4.435  66.091  1.00  0.00    -0.121 C  
HETATM   18  C   UNL     1      -8.564   2.953  65.897  1.00  0.00    -0.118 C  
HETATM   19  C   UNL     1     -10.474   4.505  65.774  1.00  0.00    -0.268 C  
HETATM   20  C   UNL     1      -8.263   5.313  65.026  1.00  0.00    -0.134 C  
ENDBRANCH  10  17
ENDBRANCH   4   5
ENDBRANCH   2   4
BRANCH   2  21
HETATM   21  S   UNL     1     -10.134   8.889  68.187  1.00  0.00    -0.197 SA 
BRANCH  21  22
HETATM   22  C   UNL     1      -9.908   9.844  66.688  1.00  0.00    -0.207 A  
HETATM   23  C   UNL     1     -10.723  10.916  66.317  1.00  0.00    -0.241 A  
HETATM   24  C   UNL     1      -8.967   9.387  65.779  1.00  0.00    -0.227 A  
HETATM   25  H   UNL     1     -10.213  12.333  62.721  1.00  0.00     0.000 HD 
HETATM   26  O   UNL     1      -9.636  11.610  62.937  1.00  0.00    -0.384 OA 
HETATM   27  C   UNL     1      -8.806   9.956  64.502  1.00  0.00    -0.238 A  
HETATM   28  C   UNL     1     -10.633  11.554  65.073  1.00  0.00    -0.354 A  
HETATM   29  C   UNL     1      -9.672  11.040  64.177  1.00  0.00    -0.285 A  
BRANCH  27  30
HETATM   30  C   UNL     1      -7.771   9.331  63.532  1.00  0.00    -0.119 C  
HETATM   31  C   UNL     1      -6.869   8.254  64.205  1.00  0.00    -0.067 C  
HETATM   32  C   UNL     1      -8.491   8.617  62.370  1.00  0.00    -0.194 C  
HETATM   33  C   UNL     1      -6.787  10.390  62.990  1.00  0.00    -0.088 C  
ENDBRANCH  27  30
BRANCH  28  34
HETATM   34  C   UNL     1     -11.547  12.774  64.759  1.00  0.00    -0.368 C  
HETATM   35  C   UNL     1     -12.559  13.121  65.891  1.00  0.00    -0.271 C  
HETATM   36  C   UNL     1     -12.407  12.537  63.498  1.00  0.00    -0.623 C  
HETATM   37  C   UNL     1     -10.681  14.039  64.573  1.00  0.00    -0.355 C  
ENDBRANCH  28  34
ENDBRANCH  21  22
ENDBRANCH   2  21
TORSDOF 8
ENDMDL
MODEL      157
REMARK 921   NORMALIZED FREE ENERGY PREDICTED BY IDOCK:   -4.31 KCAL/MOL
REMARK 922        TOTAL FREE ENERGY PREDICTED BY IDOCK:   -6.93 KCAL/MOL
REMARK 923 INTER-LIGAND FREE ENERGY PREDICTED BY IDOCK:   -8.66 KCAL/MOL
REMARK 924 INTRA-LIGAND FREE ENERGY PREDICTED BY IDOCK:    1.73 KCAL/MOL
REMARK 927      BINDING AFFINITY PREDICTED BY RF-SCORE:    0.00 PKD
ROOT
HETATM    1  C   UNL     1      -9.003  10.494  69.095  1.00  0.00    -0.171 C  
HETATM    2  C   UNL     1      -9.580   9.173  69.635  1.00  0.00    -0.176 C  
HETATM    3  C   UNL     1      -8.772   8.766  70.878  1.00  0.00    -0.235 C  
ENDROOT
BRANCH   2   4
HETATM    4  S   UNL     1      -9.364   7.865  68.349  1.00  0.00    -0.140 SA 
BRANCH   4   5
HETATM    5  C   UNL     1      -9.313   6.329  69.266  1.00  0.00    -0.136 A  
HETATM    6  C   UNL     1      -9.529   3.909  70.653  1.00  0.00    -0.174 A  
HETATM    7  O   UNL     1      -9.680   2.689  71.248  1.00  0.00    -0.153 OA 
HETATM    8  H   UNL     1      -9.423   1.887  70.807  1.00  0.00     0.000 HD 
HETATM    9  C   UNL     1      -9.813   6.304  70.564  1.00  0.00    -0.207 A  
HETATM   10  C   UNL     1      -9.018   3.887  69.338  1.00  0.00    -0.171 A  
HETATM   11  C   UNL     1      -8.908   5.125  68.701  1.00  0.00    -0.106 A  
HETATM   12  C   UNL     1      -9.914   5.110  71.315  1.00  0.00    -0.257 A  
BRANCH  12  13
HETATM   13  C   UNL     1     -10.463   5.178  72.762  1.00  0.00    -0.261 C  
HETATM   14  C   UNL     1     -11.529   4.087  73.010  1.00  0.00    -0.020 C  
HETATM   15  C   UNL     1     -11.044   6.576  73.060  1.00  0.00    -0.230 C  
HETATM   16  C   UNL     1      -9.378   4.925  73.849  1.00  0.00    -0.124 C  
ENDBRANCH  12  13
BRANCH  10  17
HETATM   17  C   UNL     1      -8.574   2.603  68.589  1.00  0.00    -0.110 C  
HETATM   18  C   UNL     1      -9.675   1.522  68.629  1.00  0.00    -0.112 C  
HETATM   19  C   UNL     1      -8.265   2.817  67.077  1.00  0.00    -0.085 C  
HETATM   20  C   UNL     1      -7.268   2.063  69.207  1.00  0.00    -0.043 C  
ENDBRANCH  10  17
ENDBRANCH   4   5
ENDBRANCH   2   4
BRANCH   2  21
HETATM   21  S   UNL     1     -11.320   9.487  70.163  1.00  0.00    -0.157 SA 
BRANCH  21  22
HETATM   22  C   UNL     1     -11.703  11.122  69.537  1.00  0.00    -0.335 A  
HETATM   23  C   UNL     1     -11.547  11.501  68.202  1.00  0.00    -0.378 A  
HETATM   24  C   UNL     1     -12.023  12.099  70.467  1.00  0.00    -0.308 A  
HETATM   25  H   UNL     1     -11.961  15.296  67.407  1.00  0.00     0.000 HD 
HETATM   26  O   UNL     1     -12.081  15.078  68.324  1.00  0.00    -0.240 OA 
HETATM   27  C   UNL     1     -12.189  13.453  70.119  1.00  0.00    -0.385 A  
HETATM   28  C   UNL     1     -11.700  12.820  67.756  1.00  0.00    -0.412 A  
HETATM   29  C   UNL     1     -12.007  13.780  68.743  1.00  0.00    -0.365 A  
BRANCH  27  30
HETATM   30  C   UNL     1     -12.480  14.481  71.241  1.00  0.00    -0.416 C  
HETATM   31  C   UNL     1     -12.974  13.825  72.565  1.00  0.00    -0.431 C  
HETATM   32  C   UNL     1     -11.196  15.254  71.604  1.00  0.00    -0.369 C  
HETATM   33  C   UNL     1     -13.605  15.459  70.840  1.00  0.00    -0.373 C  
ENDBRANCH  27  30
BRANCH  28  34
HETATM   34  C   UNL     1     -11.556  13.149  66.243  1.00  0.00    -0.399 C  
HETATM   35  C   UNL     1     -12.781  13.897  65.634  1.00  0.00    -0.534 C  
HETATM   36  C   UNL     1     -11.391  11.872  65.390  1.00  0.00    -0.334 C  
HETATM   37  C   UNL     1     -10.348  14.085  66.026  1.00  0.00    -0.312 C  
ENDBRANCH  28  34
ENDBRANCH  21  22
ENDBRANCH   2  21
TORSDOF 8
ENDMDL
MODEL      158
REMARK 921   NORMALIZED FREE ENERGY PREDICTED BY IDOCK:   -4.31 KCAL/MOL
REMARK 922        TOTAL FREE ENERGY PREDICTED BY IDOCK:   -6.92 KCAL/MOL
REMARK 923 INTER-LIGAND FREE ENERGY PREDICTED BY IDOCK:   -7.86 KCAL/MOL
REMARK 924 INTRA-LIGAND FREE ENERGY PREDICTED BY IDOCK:    0.94 KCAL/MOL
REMARK 927      BINDING AFFINITY PREDICTED BY RF-SCORE:    0.00 PKD
ROOT
HETATM    1  C   UNL     1      -6.813  10.527  67.380  1.00  0.00    -0.076 C  
HETATM    2  C   UNL     1      -7.274  11.163  68.703  1.00  0.00    -0.098 C  
HETATM    3  C   UNL     1      -6.662  10.360  69.862  1.00  0.00    -0.134 C  
ENDROOT
BRANCH   2   4
HETATM    4  S   UNL     1      -9.112  11.030  68.814  1.00  0.00    -0.122 SA 
BRANCH   4   5
HETATM    5  C   UNL     1      -9.431   9.281  69.026  1.00  0.00    -0.155 A  
HETATM    6  C   UNL     1     -10.213   6.609  69.294  1.00  0.00    -0.183 A  
HETATM    7  O   UNL     1     -10.637   5.311  69.332  1.00  0.00    -0.252 OA 
HETATM    8  H   UNL     1     -10.466   4.713  68.614  1.00  0.00     0.000 HD 
HETATM    9  C   UNL     1     -10.080   8.851  70.178  1.00  0.00    -0.212 A  
HETATM   10  C   UNL     1      -9.559   7.002  68.107  1.00  0.00    -0.131 A  
HETATM   11  C   UNL     1      -9.167   8.341  68.036  1.00  0.00    -0.142 A  
HETATM   12  C   UNL     1     -10.469   7.506  70.371  1.00  0.00    -0.227 A  
BRANCH  12  13
HETATM   13  C   UNL     1     -11.169   7.109  71.695  1.00  0.00    -0.275 C  
HETATM   14  C   UNL     1     -10.534   5.840  72.308  1.00  0.00    -0.253 C  
HETATM   15  C   UNL     1     -12.681   6.898  71.470  1.00  0.00    -0.396 C  
HETATM   16  C   UNL     1     -11.049   8.190  72.809  1.00  0.00    -0.407 C  
ENDBRANCH  12  13
BRANCH  10  17
HETATM   17  C   UNL     1      -9.248   6.053  66.919  1.00  0.00    -0.131 C  
HETATM   18  C   UNL     1      -8.280   4.928  67.340  1.00  0.00    -0.106 C  
HETATM   19  C   UNL     1     -10.497   5.323  66.339  1.00  0.00    -0.347 C  
HETATM   20  C   UNL     1      -8.657   6.860  65.746  1.00  0.00    -0.139 C  
ENDBRANCH  10  17
ENDBRANCH   4   5
ENDBRANCH   2   4
BRANCH   2  21
HETATM   21  S   UNL     1      -6.596  12.878  68.777  1.00  0.00    -0.094 SA 
BRANCH  21  22
HETATM   22  C   UNL     1      -7.773  13.877  67.869  1.00  0.00    -0.160 A  
HETATM   23  C   UNL     1      -7.959  15.246  68.078  1.00  0.00    -0.135 A  
HETATM   24  C   UNL     1      -8.650  13.215  67.023  1.00  0.00    -0.168 A  
HETATM   25  H   UNL     1     -11.006  16.888  66.283  1.00  0.00     0.000 HD 
HETATM   26  O   UNL     1     -10.910  15.959  66.110  1.00  0.00    -0.296 OA 
HETATM   27  C   UNL     1      -9.718  13.865  66.377  1.00  0.00    -0.309 A  
HETATM   28  C   UNL     1      -8.986  15.982  67.474  1.00  0.00    -0.201 A  
HETATM   29  C   UNL     1      -9.863  15.259  66.638  1.00  0.00    -0.250 A  
BRANCH  27  30
HETATM   30  C   UNL     1     -10.685  13.025  65.505  1.00  0.00    -0.299 C  
HETATM   31  C   UNL     1     -10.143  11.600  65.183  1.00  0.00    -0.304 C  
HETATM   32  C   UNL     1     -12.023  12.814  66.241  1.00  0.00    -0.460 C  
HETATM   33  C   UNL     1     -10.922  13.679  64.126  1.00  0.00    -0.211 C  
ENDBRANCH  27  30
BRANCH  28  34
HETATM   34  C   UNL     1      -9.093  17.514  67.724  1.00  0.00    -0.249 C  
HETATM   35  C   UNL     1      -7.877  18.122  68.486  1.00  0.00    -0.308 C  
HETATM   36  C   UNL     1     -10.331  17.873  68.574  1.00  0.00    -0.365 C  
HETATM   37  C   UNL     1      -9.151  18.259  66.373  1.00  0.00    -0.260 C  
ENDBRANCH  28  34
ENDBRANCH  21  22
ENDBRANCH   2  21
TORSDOF 8
ENDMDL
MODEL      159
REMARK 921   NORMALIZED FREE ENERGY PREDICTED BY IDOCK:   -4.28 KCAL/MOL
REMARK 922        TOTAL FREE ENERGY PREDICTED BY IDOCK:   -6.88 KCAL/MOL
REMARK 923 INTER-LIGAND FREE ENERGY PREDICTED BY IDOCK:   -7.11 KCAL/MOL
REMARK 924 INTRA-LIGAND FREE ENERGY PREDICTED BY IDOCK:    0.23 KCAL/MOL
REMARK 927      BINDING AFFINITY PREDICTED BY RF-SCORE:    0.00 PKD
ROOT
HETATM    1  C   UNL     1      -9.574   9.179  65.709  1.00  0.00    -0.323 C  
HETATM    2  C   UNL     1      -9.802   8.492  67.067  1.00  0.00    -0.224 C  
HETATM    3  C   UNL     1     -10.746   7.298  66.851  1.00  0.00    -0.346 C  
ENDROOT
BRANCH   2   4
HETATM    4  S   UNL     1     -10.631   9.688  68.203  1.00  0.00    -0.214 SA 
BRANCH   4   5
HETATM    5  C   UNL     1      -9.751  11.228  67.964  1.00  0.00    -0.179 A  
HETATM    6  C   UNL     1      -8.529  13.741  67.822  1.00  0.00    -0.181 A  
HETATM    7  O   UNL     1      -7.909  14.957  67.852  1.00  0.00    -0.118 OA 
HETATM    8  H   UNL     1      -7.034  15.059  68.210  1.00  0.00     0.000 HD 
HETATM    9  C   UNL     1     -10.426  12.308  67.404  1.00  0.00    -0.228 A  
HETATM   10  C   UNL     1      -7.809  12.674  68.400  1.00  0.00    -0.136 A  
HETATM   11  C   UNL     1      -8.455  11.436  68.422  1.00  0.00    -0.155 A  
HETATM   12  C   UNL     1      -9.840  13.589  67.285  1.00  0.00    -0.237 A  
BRANCH  12  13
HETATM   13  C   UNL     1     -10.656  14.730  66.628  1.00  0.00    -0.299 C  
HETATM   14  C   UNL     1      -9.959  15.257  65.353  1.00  0.00    -0.364 C  
HETATM   15  C   UNL     1     -10.887  15.881  67.629  1.00  0.00    -0.312 C  
HETATM   16  C   UNL     1     -12.070  14.287  66.151  1.00  0.00    -0.424 C  
ENDBRANCH  12  13
BRANCH  10  17
HETATM   17  C   UNL     1      -6.375  12.796  68.982  1.00  0.00    -0.096 C  
HETATM   18  C   UNL     1      -5.340  13.060  67.869  1.00  0.00    -0.113 C  
HETATM   19  C   UNL     1      -6.193  13.964  69.997  1.00  0.00    -0.131 C  
HETATM   20  C   UNL     1      -6.015  11.512  69.757  1.00  0.00    -0.116 C  
ENDBRANCH  10  17
ENDBRANCH   4   5
ENDBRANCH   2   4
BRANCH   2  21
HETATM   21  S   UNL     1      -8.179   7.836  67.651  1.00  0.00    -0.125 SA 
BRANCH  21  22
HETATM   22  C   UNL     1      -8.583   6.781  69.042  1.00  0.00    -0.131 A  
HETATM   23  C   UNL     1      -8.244   5.428  69.119  1.00  0.00    -0.093 A  
HETATM   24  C   UNL     1      -9.412   7.309  70.020  1.00  0.00    -0.161 A  
HETATM   25  H   UNL     1      -9.811   3.400  72.057  1.00  0.00     0.000 HD 
HETATM   26  O   UNL     1     -10.060   4.317  72.045  1.00  0.00    -0.177 OA 
HETATM   27  C   UNL     1      -9.926   6.536  71.078  1.00  0.00    -0.203 A  
HETATM   28  C   UNL     1      -8.698   4.579  70.136  1.00  0.00    -0.112 A  
HETATM   29  C   UNL     1      -9.554   5.160  71.097  1.00  0.00    -0.166 A  
BRANCH  27  30
HETATM   30  C   UNL     1     -10.899   7.201  72.084  1.00  0.00    -0.255 C  
HETATM   31  C   UNL     1     -11.011   8.744  71.903  1.00  0.00    -0.435 C  
HETATM   32  C   UNL     1     -12.326   6.648  71.894  1.00  0.00    -0.364 C  
HETATM   33  C   UNL     1     -10.432   7.006  73.542  1.00  0.00    -0.413 C  
ENDBRANCH  27  30
BRANCH  28  34
HETATM   34  C   UNL     1      -8.234   3.095  70.174  1.00  0.00    -0.067 C  
HETATM   35  C   UNL     1      -7.515   2.685  71.495  1.00  0.00    -0.040 C  
HETATM   36  C   UNL     1      -7.229   2.779  69.045  1.00  0.00    -0.044 C  
HETATM   37  C   UNL     1      -9.460   2.163  70.061  1.00  0.00    -0.127 C  
ENDBRANCH  28  34
ENDBRANCH  21  22
ENDBRANCH   2  21
TORSDOF 8
ENDMDL
MODEL      160
REMARK 921   NORMALIZED FREE ENERGY PREDICTED BY IDOCK:   -4.28 KCAL/MOL
REMARK 922        TOTAL FREE ENERGY PREDICTED BY IDOCK:   -6.87 KCAL/MOL
REMARK 923 INTER-LIGAND FREE ENERGY PREDICTED BY IDOCK:   -6.90 KCAL/MOL
REMARK 924 INTRA-LIGAND FREE ENERGY PREDICTED BY IDOCK:    0.02 KCAL/MOL
REMARK 927      BINDING AFFINITY PREDICTED BY RF-SCORE:    0.00 PKD
ROOT
HETATM    1  C   UNL     1      -5.916   9.314  67.734  1.00  0.00    -0.053 C  
HETATM    2  C   UNL     1      -7.226  10.111  67.868  1.00  0.00    -0.086 C  
HETATM    3  C   UNL     1      -7.472  10.385  69.361  1.00  0.00    -0.135 C  
ENDROOT
BRANCH   2   4
HETATM    4  S   UNL     1      -8.616   9.076  67.232  1.00  0.00    -0.114 SA 
BRANCH   4   5
HETATM    5  C   UNL     1      -9.052   8.008  68.600  1.00  0.00    -0.140 A  
HETATM    6  C   UNL     1      -9.986   6.280  70.592  1.00  0.00    -0.186 A  
HETATM    7  O   UNL     1     -10.456   5.366  71.492  1.00  0.00    -0.217 OA 
HETATM    8  H   UNL     1     -10.112   4.481  71.525  1.00  0.00     0.000 HD 
HETATM    9  C   UNL     1     -10.020   8.434  69.504  1.00  0.00    -0.190 A  
HETATM   10  C   UNL     1      -9.005   5.805  69.696  1.00  0.00    -0.135 A  
HETATM   11  C   UNL     1      -8.555   6.716  68.738  1.00  0.00    -0.122 A  
HETATM   12  C   UNL     1     -10.502   7.607  70.544  1.00  0.00    -0.221 A  
BRANCH  12  13
HETATM   13  C   UNL     1     -11.565   8.171  71.520  1.00  0.00    -0.315 C  
HETATM   14  C   UNL     1     -12.927   7.462  71.337  1.00  0.00    -0.403 C  
HETATM   15  C   UNL     1     -11.723   9.695  71.332  1.00  0.00    -0.478 C  
HETATM   16  C   UNL     1     -11.207   7.959  73.019  1.00  0.00    -0.346 C  
ENDBRANCH  12  13
BRANCH  10  17
HETATM   17  C   UNL     1      -8.408   4.373  69.725  1.00  0.00    -0.075 C  
HETATM   18  C   UNL     1      -9.503   3.306  69.514  1.00  0.00    -0.205 C  
HETATM   19  C   UNL     1      -7.349   4.098  68.615  1.00  0.00    -0.055 C  
HETATM   20  C   UNL     1      -7.678   4.138  71.063  1.00  0.00    -0.059 C  
ENDBRANCH  10  17
ENDBRANCH   4   5
ENDBRANCH   2   4
BRANCH   2  21
HETATM   21  S   UNL     1      -6.992  11.735  67.022  1.00  0.00    -0.107 SA 
BRANCH  21  22
HETATM   22  C   UNL     1      -8.650  12.371  66.782  1.00  0.00    -0.129 A  
HETATM   23  C   UNL     1      -9.410  12.148  65.632  1.00  0.00    -0.040 A  
HETATM   24  C   UNL     1      -9.133  13.259  67.730  1.00  0.00    -0.202 A  
HETATM   25  H   UNL     1     -12.721  14.182  65.309  1.00  0.00     0.000 HD 
HETATM   26  O   UNL     1     -12.237  14.357  66.108  1.00  0.00    -0.403 OA 
HETATM   27  C   UNL     1     -10.352  13.946  67.575  1.00  0.00    -0.245 A  
HETATM   28  C   UNL     1     -10.639  12.777  65.391  1.00  0.00    -0.309 A  
HETATM   29  C   UNL     1     -11.078  13.685  66.377  1.00  0.00    -0.303 A  
BRANCH  27  30
HETATM   30  C   UNL     1     -10.774  14.970  68.660  1.00  0.00    -0.244 C  
HETATM   31  C   UNL     1      -9.746  15.093  69.823  1.00  0.00    -0.093 C  
HETATM   32  C   UNL     1     -10.893  16.379  68.046  1.00  0.00    -0.342 C  
HETATM   33  C   UNL     1     -12.098  14.562  69.342  1.00  0.00    -0.328 C  
ENDBRANCH  27  30
BRANCH  28  34
HETATM   34  C   UNL     1     -11.446  12.436  64.105  1.00  0.00    -0.448 C  
HETATM   35  C   UNL     1     -11.845  13.679  63.255  1.00  0.00     0.052 C  
HETATM   36  C   UNL     1     -12.775  11.720  64.434  1.00  0.00     0.103 C  
HETATM   37  C   UNL     1     -10.591  11.551  63.173  1.00  0.00    -0.323 C  
ENDBRANCH  28  34
ENDBRANCH  21  22
ENDBRANCH   2  21
TORSDOF 8
ENDMDL
MODEL      161
REMARK 921   NORMALIZED FREE ENERGY PREDICTED BY IDOCK:   -4.27 KCAL/MOL
REMARK 922        TOTAL FREE ENERGY PREDICTED BY IDOCK:   -6.87 KCAL/MOL
REMARK 923 INTER-LIGAND FREE ENERGY PREDICTED BY IDOCK:   -6.71 KCAL/MOL
REMARK 924 INTRA-LIGAND FREE ENERGY PREDICTED BY IDOCK:   -0.15 KCAL/MOL
REMARK 927      BINDING AFFINITY PREDICTED BY RF-SCORE:    0.00 PKD
ROOT
HETATM    1  C   UNL     1      -6.309  11.453  70.100  1.00  0.00    -0.099 C  
HETATM    2  C   UNL     1      -6.750  10.696  68.835  1.00  0.00    -0.062 C  
HETATM    3  C   UNL     1      -6.270  11.488  67.608  1.00  0.00    -0.062 C  
ENDROOT
BRANCH   2   4
HETATM    4  S   UNL     1      -8.594  10.630  68.798  1.00  0.00    -0.154 SA 
BRANCH   4   5
HETATM    5  C   UNL     1      -9.019  10.745  67.063  1.00  0.00    -0.141 A  
HETATM    6  C   UNL     1      -9.544  11.187  64.351  1.00  0.00    -0.250 A  
HETATM    7  O   UNL     1      -9.701  11.419  63.014  1.00  0.00    -0.389 OA 
HETATM    8  H   UNL     1      -9.161  10.977  62.368  1.00  0.00     0.000 HD 
HETATM    9  C   UNL     1     -10.033  11.615  66.675  1.00  0.00    -0.230 A  
HETATM   10  C   UNL     1      -8.505  10.298  64.699  1.00  0.00    -0.179 A  
HETATM   11  C   UNL     1      -8.303  10.094  66.065  1.00  0.00    -0.130 A  
HETATM   12  C   UNL     1     -10.354  11.848  65.319  1.00  0.00    -0.316 A  
BRANCH  12  13
HETATM   13  C   UNL     1     -11.514  12.818  64.977  1.00  0.00    -0.356 C  
HETATM   14  C   UNL     1     -12.295  13.228  66.247  1.00  0.00    -0.382 C  
HETATM   15  C   UNL     1     -12.466  12.184  63.941  1.00  0.00    -0.581 C  
HETATM   16  C   UNL     1     -11.037  14.162  64.355  1.00  0.00    -0.265 C  
ENDBRANCH  12  13
BRANCH  10  17
HETATM   17  C   UNL     1      -7.612   9.547  63.675  1.00  0.00    -0.119 C  
HETATM   18  C   UNL     1      -8.449   8.595  62.794  1.00  0.00    -0.143 C  
HETATM   19  C   UNL     1      -6.863  10.478  62.675  1.00  0.00    -0.107 C  
HETATM   20  C   UNL     1      -6.511   8.764  64.418  1.00  0.00    -0.071 C  
ENDBRANCH  10  17
ENDBRANCH   4   5
ENDBRANCH   2   4
BRANCH   2  21
HETATM   21  S   UNL     1      -5.896   9.060  68.826  1.00  0.00    -0.041 SA 
BRANCH  21  22
HETATM   22  C   UNL     1      -7.202   7.858  69.076  1.00  0.00    -0.075 A  
HETATM   23  C   UNL     1      -7.830   7.164  68.041  1.00  0.00    -0.118 A  
HETATM   24  C   UNL     1      -7.713   7.734  70.359  1.00  0.00    -0.088 A  
HETATM   25  H   UNL     1     -10.984   5.081  69.000  1.00  0.00     0.000 HD 
HETATM   26  O   UNL     1     -10.582   5.533  69.732  1.00  0.00    -0.297 OA 
HETATM   27  C   UNL     1      -8.840   6.944  70.654  1.00  0.00    -0.150 A  
HETATM   28  C   UNL     1      -8.951   6.346  68.235  1.00  0.00    -0.116 A  
HETATM   29  C   UNL     1      -9.444   6.267  69.554  1.00  0.00    -0.141 A  
BRANCH  27  30
HETATM   30  C   UNL     1      -9.376   6.923  72.107  1.00  0.00    -0.147 C  
HETATM   31  C   UNL     1     -10.845   7.426  72.229  1.00  0.00    -0.287 C  
HETATM   32  C   UNL     1      -9.374   5.482  72.657  1.00  0.00    -0.150 C  
HETATM   33  C   UNL     1      -8.561   7.855  73.029  1.00  0.00    -0.245 C  
ENDBRANCH  27  30
BRANCH  28  34
HETATM   34  C   UNL     1      -9.562   5.568  67.033  1.00  0.00    -0.144 C  
HETATM   35  C   UNL     1      -8.770   5.729  65.701  1.00  0.00    -0.151 C  
HETATM   36  C   UNL     1     -10.998   6.039  66.716  1.00  0.00    -0.305 C  
HETATM   37  C   UNL     1      -9.561   4.055  67.338  1.00  0.00    -0.222 C  
ENDBRANCH  28  34
ENDBRANCH  21  22
ENDBRANCH   2  21
TORSDOF 8
ENDMDL
MODEL      162
REMARK 921   NORMALIZED FREE ENERGY PREDICTED BY IDOCK:   -4.27 KCAL/MOL
REMARK 922        TOTAL FREE ENERGY PREDICTED BY IDOCK:   -6.87 KCAL/MOL
REMARK 923 INTER-LIGAND FREE ENERGY PREDICTED BY IDOCK:   -6.79 KCAL/MOL
REMARK 924 INTRA-LIGAND FREE ENERGY PREDICTED BY IDOCK:   -0.08 KCAL/MOL
REMARK 927      BINDING AFFINITY PREDICTED BY RF-SCORE:    0.00 PKD
ROOT
HETATM    1  C   UNL     1      -7.637  13.646  69.670  1.00  0.00     0.621 C  
HETATM    2  C   UNL     1      -6.152  13.608  69.268  1.00  0.00    -0.095 C  
HETATM    3  C   UNL     1      -5.360  14.465  70.269  1.00  0.00    -0.104 C  
ENDROOT
BRANCH   2   4
HETATM    4  S   UNL     1      -5.974  14.361  67.592  1.00  0.00     0.078 SA 
BRANCH   4   5
HETATM    5  C   UNL     1      -7.488  15.282  67.343  1.00  0.00    -0.209 A  
HETATM    6  C   UNL     1      -9.717  16.857  66.727  1.00  0.00    -0.266 A  
HETATM    7  O   UNL     1     -10.798  17.591  66.330  1.00  0.00    -0.138 OA 
HETATM    8  H   UNL     1     -11.510  17.198  65.840  1.00  0.00     0.000 HD 
HETATM    9  C   UNL     1      -7.533  16.618  67.726  1.00  0.00    -0.169 A  
HETATM   10  C   UNL     1      -9.713  15.506  66.317  1.00  0.00    -0.328 A  
HETATM   11  C   UNL     1      -8.588  14.759  66.673  1.00  0.00    -0.170 A  
HETATM   12  C   UNL     1      -8.649  17.445  67.463  1.00  0.00    -0.221 A  
BRANCH  12  13
HETATM   13  C   UNL     1      -8.623  18.918  67.945  1.00  0.00    -0.323 C  
HETATM   14  C   UNL     1      -7.339  19.221  68.752  1.00  0.00    -0.381 C  
HETATM   15  C   UNL     1      -9.875  19.237  68.787  1.00  0.00    -0.514 C  
HETATM   16  C   UNL     1      -8.613  19.952  66.782  1.00  0.00    -0.394 C  
ENDBRANCH  12  13
BRANCH  10  17
HETATM   17  C   UNL     1     -10.862  14.825  65.528  1.00  0.00    -0.359 C  
HETATM   18  C   UNL     1     -11.443  15.770  64.455  1.00  0.00    -0.292 C  
HETATM   19  C   UNL     1     -10.435  13.541  64.754  1.00  0.00    -0.430 C  
HETATM   20  C   UNL     1     -11.969  14.372  66.502  1.00  0.00    -0.406 C  
ENDBRANCH  10  17
ENDBRANCH   4   5
ENDBRANCH   2   4
BRANCH   2  21
HETATM   21  S   UNL     1      -5.566  11.865  69.423  1.00  0.00    -0.074 SA 
BRANCH  21  22
HETATM   22  C   UNL     1      -6.994  10.862  69.014  1.00  0.00    -0.089 A  
HETATM   23  C   UNL     1      -7.771  10.190  69.961  1.00  0.00    -0.150 A  
HETATM   24  C   UNL     1      -7.239  10.623  67.671  1.00  0.00    -0.089 A  
HETATM   25  H   UNL     1     -10.423   7.687  68.581  1.00  0.00     0.000 HD 
HETATM   26  O   UNL     1      -9.921   8.129  67.906  1.00  0.00    -0.165 OA 
HETATM   27  C   UNL     1      -8.231   9.728  67.227  1.00  0.00    -0.117 A  
HETATM   28  C   UNL     1      -8.787   9.288  69.619  1.00  0.00    -0.159 A  
HETATM   29  C   UNL     1      -8.984   9.065  68.240  1.00  0.00    -0.133 A  
BRANCH  27  30
HETATM   30  C   UNL     1      -8.383   9.478  65.706  1.00  0.00    -0.132 C  
HETATM   31  C   UNL     1      -9.782   9.880  65.152  1.00  0.00    -0.376 C  
HETATM   32  C   UNL     1      -7.357  10.319  64.920  1.00  0.00    -0.110 C  
HETATM   33  C   UNL     1      -8.235   7.981  65.358  1.00  0.00    -0.152 C  
ENDBRANCH  27  30
BRANCH  28  34
HETATM   34  C   UNL     1      -9.638   8.618  70.736  1.00  0.00    -0.231 C  
HETATM   35  C   UNL     1      -9.890   7.095  70.518  1.00  0.00    -0.181 C  
HETATM   36  C   UNL     1     -11.041   9.254  70.849  1.00  0.00    -0.374 C  
HETATM   37  C   UNL     1      -8.901   8.728  72.088  1.00  0.00    -0.153 C  
ENDBRANCH  28  34
ENDBRANCH  21  22
ENDBRANCH   2  21
TORSDOF 8
ENDMDL
MODEL      163
REMARK 921   NORMALIZED FREE ENERGY PREDICTED BY IDOCK:   -4.26 KCAL/MOL
REMARK 922        TOTAL FREE ENERGY PREDICTED BY IDOCK:   -6.85 KCAL/MOL
REMARK 923 INTER-LIGAND FREE ENERGY PREDICTED BY IDOCK:   -7.86 KCAL/MOL
REMARK 924 INTRA-LIGAND FREE ENERGY PREDICTED BY IDOCK:    1.01 KCAL/MOL
REMARK 927      BINDING AFFINITY PREDICTED BY RF-SCORE:    0.00 PKD
ROOT
HETATM    1  C   UNL     1      -9.880  10.259  66.092  1.00  0.00    -0.284 C  
HETATM    2  C   UNL     1     -10.280  11.303  67.150  1.00  0.00    -0.201 C  
HETATM    3  C   UNL     1     -11.489  10.760  67.929  1.00  0.00    -0.306 C  
ENDROOT
BRANCH   2   4
HETATM    4  S   UNL     1     -10.794  12.851  66.287  1.00  0.00    -0.279 SA 
BRANCH   4   5
HETATM    5  C   UNL     1     -10.772  14.111  67.559  1.00  0.00    -0.269 A  
HETATM    6  C   UNL     1     -10.962  16.207  69.401  1.00  0.00    -0.333 A  
HETATM    7  O   UNL     1     -11.155  17.209  70.309  1.00  0.00    -0.282 OA 
HETATM    8  H   UNL     1     -11.599  17.050  71.135  1.00  0.00     0.000 HD 
HETATM    9  C   UNL     1     -10.249  15.363  67.255  1.00  0.00    -0.254 A  
HETATM   10  C   UNL     1     -11.508  14.954  69.750  1.00  0.00    -0.328 A  
HETATM   11  C   UNL     1     -11.363  13.936  68.805  1.00  0.00    -0.310 A  
HETATM   12  C   UNL     1     -10.296  16.445  68.164  1.00  0.00    -0.283 A  
BRANCH  12  13
HETATM   13  C   UNL     1      -9.670  17.801  67.752  1.00  0.00    -0.285 C  
HETATM   14  C   UNL     1      -8.669  18.304  68.817  1.00  0.00    -0.238 C  
HETATM   15  C   UNL     1     -10.768  18.856  67.505  1.00  0.00    -0.509 C  
HETATM   16  C   UNL     1      -8.842  17.727  66.435  1.00  0.00    -0.256 C  
ENDBRANCH  12  13
BRANCH  10  17
HETATM   17  C   UNL     1     -12.227  14.651  71.091  1.00  0.00    -0.405 C  
HETATM   18  C   UNL     1     -11.424  15.195  72.292  1.00  0.00    -0.414 C  
HETATM   19  C   UNL     1     -13.641  15.294  71.220  1.00  0.00    -0.584 C  
HETATM   20  C   UNL     1     -12.448  13.132  71.236  1.00  0.00    -0.327 C  
ENDBRANCH  10  17
ENDBRANCH   4   5
ENDBRANCH   2   4
BRANCH   2  21
HETATM   21  S   UNL     1      -8.873  11.481  68.332  1.00  0.00    -0.147 SA 
BRANCH  21  22
HETATM   22  C   UNL     1      -8.703   9.867  69.091  1.00  0.00    -0.159 A  
HETATM   23  C   UNL     1      -9.486   8.761  68.753  1.00  0.00    -0.142 A  
HETATM   24  C   UNL     1      -7.851   9.763  70.179  1.00  0.00    -0.196 A  
HETATM   25  H   UNL     1      -9.155   5.623  71.044  1.00  0.00     0.000 HD 
HETATM   26  O   UNL     1      -8.601   6.351  71.303  1.00  0.00    -0.126 OA 
HETATM   27  C   UNL     1      -7.750   8.594  70.955  1.00  0.00    -0.120 A  
HETATM   28  C   UNL     1      -9.450   7.551  69.458  1.00  0.00    -0.156 A  
HETATM   29  C   UNL     1      -8.581   7.502  70.568  1.00  0.00    -0.138 A  
BRANCH  27  30
HETATM   30  C   UNL     1      -6.818   8.598  72.193  1.00  0.00    -0.069 C  
HETATM   31  C   UNL     1      -7.575   8.367  73.535  1.00  0.00    -0.134 C  
HETATM   32  C   UNL     1      -5.783   7.460  72.088  1.00  0.00    -0.037 C  
HETATM   33  C   UNL     1      -6.109   9.959  72.368  1.00  0.00     0.630 C  
ENDBRANCH  27  30
BRANCH  28  34
HETATM   34  C   UNL     1     -10.320   6.351  68.985  1.00  0.00    -0.238 C  
HETATM   35  C   UNL     1     -11.360   5.863  70.039  1.00  0.00    -0.219 C  
HETATM   36  C   UNL     1      -9.459   5.112  68.655  1.00  0.00    -0.178 C  
HETATM   37  C   UNL     1     -11.145   6.762  67.747  1.00  0.00    -0.285 C  
ENDBRANCH  28  34
ENDBRANCH  21  22
ENDBRANCH   2  21
TORSDOF 8
ENDMDL
MODEL      164
REMARK 921   NORMALIZED FREE ENERGY PREDICTED BY IDOCK:   -4.26 KCAL/MOL
REMARK 922        TOTAL FREE ENERGY PREDICTED BY IDOCK:   -6.84 KCAL/MOL
REMARK 923 INTER-LIGAND FREE ENERGY PREDICTED BY IDOCK:   -7.15 KCAL/MOL
REMARK 924 INTRA-LIGAND FREE ENERGY PREDICTED BY IDOCK:    0.30 KCAL/MOL
REMARK 927      BINDING AFFINITY PREDICTED BY RF-SCORE:    0.00 PKD
ROOT
HETATM    1  C   UNL     1     -11.692   8.631  71.679  1.00  0.00    -0.380 C  
HETATM    2  C   UNL     1     -10.905   9.075  70.433  1.00  0.00    -0.246 C  
HETATM    3  C   UNL     1      -9.416   9.156  70.807  1.00  0.00    -0.334 C  
ENDROOT
BRANCH   2   4
HETATM    4  S   UNL     1     -11.473  10.762  69.945  1.00  0.00    -0.345 SA 
BRANCH   4   5
HETATM    5  C   UNL     1     -10.690  11.067  68.364  1.00  0.00    -0.203 A  
HETATM    6  C   UNL     1      -9.582  11.285  65.805  1.00  0.00    -0.227 A  
HETATM    7  O   UNL     1      -9.135  11.375  64.518  1.00  0.00    -0.394 OA 
HETATM    8  H   UNL     1      -9.563  11.939  63.883  1.00  0.00     0.000 HD 
HETATM    9  C   UNL     1      -9.553  10.342  68.027  1.00  0.00    -0.159 A  
HETATM   10  C   UNL     1     -10.738  12.037  66.104  1.00  0.00    -0.312 A  
HETATM   11  C   UNL     1     -11.234  11.911  67.403  1.00  0.00    -0.366 A  
HETATM   12  C   UNL     1      -8.941  10.440  66.756  1.00  0.00    -0.153 A  
BRANCH  12  13
HETATM   13  C   UNL     1      -7.662   9.612  66.472  1.00  0.00    -0.098 C  
HETATM   14  C   UNL     1      -7.174   8.880  67.743  1.00  0.00    -0.084 C  
HETATM   15  C   UNL     1      -6.544  10.512  65.907  1.00  0.00    -0.129 C  
HETATM   16  C   UNL     1      -7.875   8.483  65.422  1.00  0.00    -0.107 C  
ENDBRANCH  12  13
BRANCH  10  17
HETATM   17  C   UNL     1     -11.457  12.979  65.101  1.00  0.00    -0.338 C  
HETATM   18  C   UNL     1     -10.504  14.076  64.583  1.00  0.00    -0.398 C  
HETATM   19  C   UNL     1     -11.993  12.265  63.824  1.00  0.00    -0.609 C  
HETATM   20  C   UNL     1     -12.692  13.612  65.772  1.00  0.00    -0.470 C  
ENDBRANCH  10  17
ENDBRANCH   4   5
ENDBRANCH   2   4
BRANCH   2  21
HETATM   21  S   UNL     1     -11.098   7.768  69.144  1.00  0.00     0.279 SA 
BRANCH  21  22
HETATM   22  C   UNL     1     -10.126   6.386  69.742  1.00  0.00    -0.176 A  
HETATM   23  C   UNL     1     -10.365   5.731  70.952  1.00  0.00    -0.299 A  
HETATM   24  C   UNL     1      -8.982   6.058  69.030  1.00  0.00    -0.124 A  
HETATM   25  H   UNL     1      -7.669   3.162  72.108  1.00  0.00     0.000 HD 
HETATM   26  O   UNL     1      -7.473   3.581  71.277  1.00  0.00    -0.042 OA 
HETATM   27  C   UNL     1      -8.056   5.100  69.481  1.00  0.00    -0.083 A  
HETATM   28  C   UNL     1      -9.508   4.757  71.480  1.00  0.00    -0.209 A  
HETATM   29  C   UNL     1      -8.349   4.473  70.727  1.00  0.00    -0.087 A  
BRANCH  27  30
HETATM   30  C   UNL     1      -6.773   4.852  68.647  1.00  0.00    -0.050 C  
HETATM   31  C   UNL     1      -6.848   5.450  67.211  1.00  0.00    -0.060 C  
HETATM   32  C   UNL     1      -5.559   5.520  69.322  1.00  0.00    -0.008 C  
HETATM   33  C   UNL     1      -6.514   3.345  68.436  1.00  0.00    -0.037 C  
ENDBRANCH  27  30
BRANCH  28  34
HETATM   34  C   UNL     1      -9.874   4.041  72.811  1.00  0.00    -0.200 C  
HETATM   35  C   UNL     1      -8.860   4.290  73.968  1.00  0.00    -0.095 C  
HETATM   36  C   UNL     1      -9.933   2.506  72.641  1.00  0.00    -0.218 C  
HETATM   37  C   UNL     1     -11.231   4.564  73.328  1.00  0.00    -0.388 C  
ENDBRANCH  28  34
ENDBRANCH  21  22
ENDBRANCH   2  21
TORSDOF 8
ENDMDL
MODEL      165
REMARK 921   NORMALIZED FREE ENERGY PREDICTED BY IDOCK:   -4.25 KCAL/MOL
REMARK 922        TOTAL FREE ENERGY PREDICTED BY IDOCK:   -6.84 KCAL/MOL
REMARK 923 INTER-LIGAND FREE ENERGY PREDICTED BY IDOCK:   -6.71 KCAL/MOL
REMARK 924 INTRA-LIGAND FREE ENERGY PREDICTED BY IDOCK:   -0.13 KCAL/MOL
REMARK 927      BINDING AFFINITY PREDICTED BY RF-SCORE:    0.00 PKD
ROOT
HETATM    1  C   UNL     1     -11.760  10.164  71.099  1.00  0.00    -0.453 C  
HETATM    2  C   UNL     1     -11.081   8.784  71.158  1.00  0.00    -0.276 C  
HETATM    3  C   UNL     1     -11.330   8.184  72.552  1.00  0.00    -0.469 C  
ENDROOT
BRANCH   2   4
HETATM    4  S   UNL     1      -9.262   9.010  70.942  1.00  0.00    -0.266 SA 
BRANCH   4   5
HETATM    5  C   UNL     1      -9.090   9.837  69.363  1.00  0.00    -0.201 A  
HETATM    6  C   UNL     1      -9.014  10.928  66.789  1.00  0.00    -0.150 A  
HETATM    7  O   UNL     1      -9.079  11.467  65.535  1.00  0.00    -0.281 OA 
HETATM    8  H   UNL     1      -9.586  12.250  65.358  1.00  0.00     0.000 HD 
HETATM    9  C   UNL     1      -8.345   9.225  68.362  1.00  0.00    -0.119 A  
HETATM   10  C   UNL     1      -9.785  11.581  67.774  1.00  0.00    -0.180 A  
HETATM   11  C   UNL     1      -9.767  11.009  69.048  1.00  0.00    -0.151 A  
HETATM   12  C   UNL     1      -8.253   9.754  67.054  1.00  0.00    -0.117 A  
BRANCH  12  13
HETATM   13  C   UNL     1      -7.381   9.018  66.005  1.00  0.00    -0.094 C  
HETATM   14  C   UNL     1      -8.245   8.453  64.854  1.00  0.00    -0.155 C  
HETATM   15  C   UNL     1      -6.566   7.889  66.670  1.00  0.00    -0.058 C  
HETATM   16  C   UNL     1      -6.342   9.940  65.304  1.00  0.00    -0.099 C  
ENDBRANCH  12  13
BRANCH  10  17
HETATM   17  C   UNL     1     -10.615  12.870  67.529  1.00  0.00    -0.234 C  
HETATM   18  C   UNL     1     -11.215  13.408  68.845  1.00  0.00    -0.320 C  
HETATM   19  C   UNL     1      -9.796  14.056  66.936  1.00  0.00    -0.267 C  
HETATM   20  C   UNL     1     -11.733  12.585  66.506  1.00  0.00    -0.454 C  
ENDBRANCH  10  17
ENDBRANCH   4   5
ENDBRANCH   2   4
BRANCH   2  21
HETATM   21  S   UNL     1     -11.900   7.694  69.914  1.00  0.00     0.560 SA 
BRANCH  21  22
HETATM   22  C   UNL     1     -11.007   6.143  70.002  1.00  0.00    -0.372 A  
HETATM   23  C   UNL     1     -10.784   5.439  71.187  1.00  0.00    -0.239 A  
HETATM   24  C   UNL     1     -10.374   5.708  68.848  1.00  0.00    -0.295 A  
HETATM   25  H   UNL     1      -8.321   2.423  70.987  1.00  0.00     0.000 HD 
HETATM   26  O   UNL     1      -8.451   2.871  70.160  1.00  0.00    -0.050 OA 
HETATM   27  C   UNL     1      -9.515   4.593  68.827  1.00  0.00    -0.214 A  
HETATM   28  C   UNL     1      -9.955   4.312  71.266  1.00  0.00    -0.230 A  
HETATM   29  C   UNL     1      -9.319   3.921  70.069  1.00  0.00    -0.176 A  
BRANCH  27  30
HETATM   30  C   UNL     1      -8.801   4.226  67.501  1.00  0.00    -0.122 C  
HETATM   31  C   UNL     1      -7.248   4.287  67.601  1.00  0.00    -0.068 C  
HETATM   32  C   UNL     1      -9.144   2.779  67.093  1.00  0.00    -0.192 C  
HETATM   33  C   UNL     1      -9.164   5.209  66.368  1.00  0.00    -0.141 C  
ENDBRANCH  27  30
BRANCH  28  34
HETATM   34  C   UNL     1      -9.800   3.556  72.617  1.00  0.00    -0.211 C  
HETATM   35  C   UNL     1      -8.357   3.593  73.205  1.00  0.00    -0.083 C  
HETATM   36  C   UNL     1     -10.149   2.058  72.480  1.00  0.00    -0.215 C  
HETATM   37  C   UNL     1     -10.701   4.210  73.686  1.00  0.00    -0.318 C  
ENDBRANCH  28  34
ENDBRANCH  21  22
ENDBRANCH   2  21
TORSDOF 8
ENDMDL
MODEL      166
REMARK 921   NORMALIZED FREE ENERGY PREDICTED BY IDOCK:   -4.24 KCAL/MOL
REMARK 922        TOTAL FREE ENERGY PREDICTED BY IDOCK:   -6.83 KCAL/MOL
REMARK 923 INTER-LIGAND FREE ENERGY PREDICTED BY IDOCK:   -7.80 KCAL/MOL
REMARK 924 INTRA-LIGAND FREE ENERGY PREDICTED BY IDOCK:    0.97 KCAL/MOL
REMARK 927      BINDING AFFINITY PREDICTED BY RF-SCORE:    0.00 PKD
ROOT
HETATM    1  C   UNL     1      -6.913   9.632  67.805  1.00  0.00    -0.079 C  
HETATM    2  C   UNL     1      -7.389  10.743  68.759  1.00  0.00    -0.104 C  
HETATM    3  C   UNL     1      -6.887  10.409  70.173  1.00  0.00    -0.155 C  
ENDROOT
BRANCH   2   4
HETATM    4  S   UNL     1      -9.235  10.748  68.785  1.00  0.00    -0.180 SA 
BRANCH   4   5
HETATM    5  C   UNL     1      -9.693   9.034  69.025  1.00  0.00    -0.167 A  
HETATM    6  C   UNL     1     -10.117   6.300  69.434  1.00  0.00    -0.176 A  
HETATM    7  O   UNL     1     -10.271   4.974  69.721  1.00  0.00    -0.260 OA 
HETATM    8  H   UNL     1     -10.569   4.682  70.575  1.00  0.00     0.000 HD 
HETATM    9  C   UNL     1      -9.444   8.123  68.004  1.00  0.00    -0.155 A  
HETATM   10  C   UNL     1     -10.380   7.189  70.499  1.00  0.00    -0.215 A  
HETATM   11  C   UNL     1     -10.177   8.544  70.232  1.00  0.00    -0.206 A  
HETATM   12  C   UNL     1      -9.671   6.736  68.154  1.00  0.00    -0.129 A  
BRANCH  12  13
HETATM   13  C   UNL     1      -9.387   5.795  66.956  1.00  0.00    -0.122 C  
HETATM   14  C   UNL     1      -8.622   6.531  65.833  1.00  0.00    -0.153 C  
HETATM   15  C   UNL     1     -10.700   5.197  66.410  1.00  0.00    -0.275 C  
HETATM   16  C   UNL     1      -8.483   4.581  67.321  1.00  0.00    -0.104 C  
ENDBRANCH  12  13
BRANCH  10  17
HETATM   17  C   UNL     1     -10.882   6.755  71.902  1.00  0.00    -0.261 C  
HETATM   18  C   UNL     1     -12.399   6.470  71.890  1.00  0.00    -0.339 C  
HETATM   19  C   UNL     1     -10.225   5.449  72.442  1.00  0.00    -0.241 C  
HETATM   20  C   UNL     1     -10.548   7.847  72.938  1.00  0.00    -0.434 C  
ENDBRANCH  10  17
ENDBRANCH   4   5
ENDBRANCH   2   4
BRANCH   2  21
HETATM   21  S   UNL     1      -6.597  12.324  68.231  1.00  0.00    -0.065 SA 
BRANCH  21  22
HETATM   22  C   UNL     1      -7.895  13.231  67.393  1.00  0.00    -0.153 A  
HETATM   23  C   UNL     1      -8.257  14.542  67.708  1.00  0.00    -0.171 A  
HETATM   24  C   UNL     1      -8.679  12.530  66.489  1.00  0.00    -0.035 A  
HETATM   25  H   UNL     1     -11.493  15.912  66.018  1.00  0.00     0.000 HD 
HETATM   26  O   UNL     1     -11.277  15.020  65.773  1.00  0.00    -0.340 OA 
HETATM   27  C   UNL     1      -9.822  13.084  65.886  1.00  0.00    -0.243 A  
HETATM   28  C   UNL     1      -9.372  15.185  67.154  1.00  0.00    -0.223 A  
HETATM   29  C   UNL     1     -10.148  14.423  66.254  1.00  0.00    -0.297 A  
BRANCH  27  30
HETATM   30  C   UNL     1     -10.671  12.198  64.940  1.00  0.00    -0.336 C  
HETATM   31  C   UNL     1     -10.355  10.678  65.072  1.00  0.00    -0.341 C  
HETATM   32  C   UNL     1     -12.171  12.350  65.267  1.00  0.00    -0.418 C  
HETATM   33  C   UNL     1     -10.405  12.531  63.456  1.00  0.00    -0.311 C  
ENDBRANCH  27  30
BRANCH  28  34
HETATM   34  C   UNL     1      -9.678  16.665  67.523  1.00  0.00    -0.247 C  
HETATM   35  C   UNL     1     -10.952  16.853  68.400  1.00  0.00    -0.296 C  
HETATM   36  C   UNL     1      -9.913  17.533  66.267  1.00  0.00    -0.316 C  
HETATM   37  C   UNL     1      -8.513  17.246  68.353  1.00  0.00    -0.254 C  
ENDBRANCH  28  34
ENDBRANCH  21  22
ENDBRANCH   2  21
TORSDOF 8
ENDMDL
MODEL      167
REMARK 921   NORMALIZED FREE ENERGY PREDICTED BY IDOCK:   -4.24 KCAL/MOL
REMARK 922        TOTAL FREE ENERGY PREDICTED BY IDOCK:   -6.82 KCAL/MOL
REMARK 923 INTER-LIGAND FREE ENERGY PREDICTED BY IDOCK:   -7.75 KCAL/MOL
REMARK 924 INTRA-LIGAND FREE ENERGY PREDICTED BY IDOCK:    0.92 KCAL/MOL
REMARK 927      BINDING AFFINITY PREDICTED BY RF-SCORE:    0.00 PKD
ROOT
HETATM    1  C   UNL     1     -10.106  12.536  66.006  1.00  0.00    -0.268 C  
HETATM    2  C   UNL     1     -11.101  13.387  65.198  1.00  0.00    -0.301 C  
HETATM    3  C   UNL     1     -11.649  12.525  64.049  1.00  0.00    -0.485 C  
ENDROOT
BRANCH   2   4
HETATM    4  S   UNL     1     -10.196  14.820  64.467  1.00  0.00     0.722 SA 
BRANCH   4   5
HETATM    5  C   UNL     1      -9.488  15.677  65.870  1.00  0.00    -0.341 A  
HETATM    6  C   UNL     1      -8.138  17.052  67.897  1.00  0.00    -0.195 A  
HETATM    7  O   UNL     1      -7.462  17.799  68.819  1.00  0.00    -0.265 OA 
HETATM    8  H   UNL     1      -7.668  18.716  68.962  1.00  0.00     0.000 HD 
HETATM    9  C   UNL     1      -8.518  15.034  66.630  1.00  0.00    -0.192 A  
HETATM   10  C   UNL     1      -9.114  17.745  67.149  1.00  0.00    -0.247 A  
HETATM   11  C   UNL     1      -9.776  17.004  66.167  1.00  0.00    -0.283 A  
HETATM   12  C   UNL     1      -7.829  15.678  67.683  1.00  0.00    -0.173 A  
BRANCH  12  13
HETATM   13  C   UNL     1      -6.777  14.879  68.493  1.00  0.00    -0.092 C  
HETATM   14  C   UNL     1      -7.009  15.028  70.015  1.00  0.00    -0.096 C  
HETATM   15  C   UNL     1      -5.348  15.326  68.121  1.00  0.00    -0.130 C  
HETATM   16  C   UNL     1      -6.829  13.346  68.234  1.00  0.00    -0.106 C  
ENDBRANCH  12  13
BRANCH  10  17
HETATM   17  C   UNL     1      -9.490  19.235  67.362  1.00  0.00    -0.376 C  
HETATM   18  C   UNL     1     -10.153  19.455  68.738  1.00  0.00    -0.504 C  
HETATM   19  C   UNL     1      -8.276  20.213  67.331  1.00  0.00    -0.385 C  
HETATM   20  C   UNL     1     -10.429  19.705  66.232  1.00  0.00    -0.621 C  
ENDBRANCH  10  17
ENDBRANCH   4   5
ENDBRANCH   2   4
BRANCH   2  21
HETATM   21  S   UNL     1     -12.510  13.820  66.309  1.00  0.00    -0.325 SA 
BRANCH  21  22
HETATM   22  C   UNL     1     -12.113  13.051  67.877  1.00  0.00    -0.186 A  
HETATM   23  C   UNL     1     -11.602  11.757  68.002  1.00  0.00    -0.386 A  
HETATM   24  C   UNL     1     -12.483  13.728  69.029  1.00  0.00     0.114 A  
HETATM   25  H   UNL     1     -11.420  10.295  71.613  1.00  0.00     0.000 HD 
HETATM   26  O   UNL     1     -11.767  11.179  71.571  1.00  0.00     0.297 OA 
HETATM   27  C   UNL     1     -12.369  13.161  70.312  1.00  0.00    -0.319 A  
HETATM   28  C   UNL     1     -11.442  11.111  69.235  1.00  0.00    -0.363 A  
HETATM   29  C   UNL     1     -11.850  11.835  70.376  1.00  0.00    -0.271 A  
BRANCH  27  30
HETATM   30  C   UNL     1     -12.871  13.973  71.533  1.00  0.00    -0.440 C  
HETATM   31  C   UNL     1     -13.739  13.132  72.516  1.00  0.00    -0.563 C  
HETATM   32  C   UNL     1     -11.677  14.492  72.359  1.00  0.00     0.160 C  
HETATM   33  C   UNL     1     -13.782  15.143  71.103  1.00  0.00    -0.510 C  
ENDBRANCH  27  30
BRANCH  28  34
HETATM   34  C   UNL     1     -10.819   9.687  69.290  1.00  0.00    -0.227 C  
HETATM   35  C   UNL     1     -10.715   8.983  67.904  1.00  0.00    -0.200 C  
HETATM   36  C   UNL     1     -11.649   8.730  70.175  1.00  0.00     0.058 C  
HETATM   37  C   UNL     1      -9.372   9.771  69.823  1.00  0.00    -0.249 C  
ENDBRANCH  28  34
ENDBRANCH  21  22
ENDBRANCH   2  21
TORSDOF 8
ENDMDL
MODEL      168
REMARK 921   NORMALIZED FREE ENERGY PREDICTED BY IDOCK:   -4.24 KCAL/MOL
REMARK 922        TOTAL FREE ENERGY PREDICTED BY IDOCK:   -6.82 KCAL/MOL
REMARK 923 INTER-LIGAND FREE ENERGY PREDICTED BY IDOCK:   -7.15 KCAL/MOL
REMARK 924 INTRA-LIGAND FREE ENERGY PREDICTED BY IDOCK:    0.34 KCAL/MOL
REMARK 927      BINDING AFFINITY PREDICTED BY RF-SCORE:    0.00 PKD
ROOT
HETATM    1  C   UNL     1      -5.955   9.235  68.457  1.00  0.00    -0.044 C  
HETATM    2  C   UNL     1      -7.108  10.171  68.054  1.00  0.00    -0.084 C  
HETATM    3  C   UNL     1      -7.656  10.836  69.327  1.00  0.00    -0.129 C  
ENDROOT
BRANCH   2   4
HETATM    4  S   UNL     1      -8.457   9.159  67.303  1.00  0.00    -0.121 SA 
BRANCH   4   5
HETATM    5  C   UNL     1      -8.894   7.971  68.569  1.00  0.00    -0.134 A  
HETATM    6  C   UNL     1      -9.834   6.079  70.402  1.00  0.00    -0.179 A  
HETATM    7  O   UNL     1     -10.311   5.093  71.218  1.00  0.00    -0.217 OA 
HETATM    8  H   UNL     1      -9.993   4.200  71.154  1.00  0.00     0.000 HD 
HETATM    9  C   UNL     1      -9.827   8.331  69.535  1.00  0.00    -0.181 A  
HETATM   10  C   UNL     1      -8.889   5.669  69.438  1.00  0.00    -0.114 A  
HETATM   11  C   UNL     1      -8.434   6.659  68.564  1.00  0.00    -0.122 A  
HETATM   12  C   UNL     1     -10.310   7.418  70.500  1.00  0.00    -0.220 A  
BRANCH  12  13
HETATM   13  C   UNL     1     -11.333   7.911  71.555  1.00  0.00    -0.293 C  
HETATM   14  C   UNL     1     -10.804   7.699  72.992  1.00  0.00    -0.457 C  
HETATM   15  C   UNL     1     -12.690   7.201  71.370  1.00  0.00    -0.433 C  
HETATM   16  C   UNL     1     -11.632   9.436  71.464  1.00  0.00    -0.467 C  
ENDBRANCH  12  13
BRANCH  10  17
HETATM   17  C   UNL     1      -8.336   4.225  69.308  1.00  0.00    -0.085 C  
HETATM   18  C   UNL     1      -7.611   3.786  70.598  1.00  0.00    -0.041 C  
HETATM   19  C   UNL     1      -9.428   3.140  69.063  1.00  0.00    -0.177 C  
HETATM   20  C   UNL     1      -7.383   4.136  68.099  1.00  0.00    -0.064 C  
ENDBRANCH  10  17
ENDBRANCH   4   5
ENDBRANCH   2   4
BRANCH   2  21
HETATM   21  S   UNL     1      -6.413  11.496  66.973  1.00  0.00    -0.139 SA 
BRANCH  21  22
HETATM   22  C   UNL     1      -7.589  12.843  67.083  1.00  0.00    -0.028 A  
HETATM   23  C   UNL     1      -7.226  14.185  67.223  1.00  0.00     0.011 A  
HETATM   24  C   UNL     1      -8.930  12.509  67.190  1.00  0.00    -0.200 A  
HETATM   25  H   UNL     1     -10.105  16.701  67.986  1.00  0.00     0.000 HD 
HETATM   26  O   UNL     1     -10.393  15.801  67.892  1.00  0.00    -0.250 OA 
HETATM   27  C   UNL     1      -9.933  13.464  67.438  1.00  0.00    -0.230 A  
HETATM   28  C   UNL     1      -8.151  15.209  67.462  1.00  0.00    -0.196 A  
HETATM   29  C   UNL     1      -9.500  14.815  67.581  1.00  0.00    -0.204 A  
BRANCH  27  30
HETATM   30  C   UNL     1     -11.396  12.983  67.608  1.00  0.00    -0.342 C  
HETATM   31  C   UNL     1     -11.529  11.433  67.683  1.00  0.00    -0.348 C  
HETATM   32  C   UNL     1     -11.988  13.524  68.925  1.00  0.00    -0.378 C  
HETATM   33  C   UNL     1     -12.275  13.399  66.408  1.00  0.00    -0.435 C  
ENDBRANCH  27  30
BRANCH  28  34
HETATM   34  C   UNL     1      -7.667  16.685  67.557  1.00  0.00    -0.186 C  
HETATM   35  C   UNL     1      -8.049  17.396  68.890  1.00  0.00    -0.183 C  
HETATM   36  C   UNL     1      -8.272  17.561  66.438  1.00  0.00    -0.305 C  
HETATM   37  C   UNL     1      -6.126  16.733  67.486  1.00  0.00    -0.179 C  
ENDBRANCH  28  34
ENDBRANCH  21  22
ENDBRANCH   2  21
TORSDOF 8
ENDMDL
MODEL      169
REMARK 921   NORMALIZED FREE ENERGY PREDICTED BY IDOCK:   -4.22 KCAL/MOL
REMARK 922        TOTAL FREE ENERGY PREDICTED BY IDOCK:   -6.79 KCAL/MOL
REMARK 923 INTER-LIGAND FREE ENERGY PREDICTED BY IDOCK:   -6.88 KCAL/MOL
REMARK 924 INTRA-LIGAND FREE ENERGY PREDICTED BY IDOCK:    0.08 KCAL/MOL
REMARK 927      BINDING AFFINITY PREDICTED BY RF-SCORE:    0.00 PKD
ROOT
HETATM    1  C   UNL     1      -5.479  11.431  70.491  1.00  0.00    -0.134 C  
HETATM    2  C   UNL     1      -6.262  10.540  69.510  1.00  0.00    -0.054 C  
HETATM    3  C   UNL     1      -7.761  10.838  69.681  1.00  0.00    -0.020 C  
ENDROOT
BRANCH   2   4
HETATM    4  S   UNL     1      -5.969   8.772  69.953  1.00  0.00    -0.031 SA 
BRANCH   4   5
HETATM    5  C   UNL     1      -7.584   8.007  69.866  1.00  0.00    -0.087 A  
HETATM    6  C   UNL     1      -9.967   6.549  69.715  1.00  0.00    -0.166 A  
HETATM    7  O   UNL     1     -11.097   5.781  69.721  1.00  0.00    -0.369 OA 
HETATM    8  H   UNL     1     -11.587   5.626  70.521  1.00  0.00     0.000 HD 
HETATM    9  C   UNL     1      -8.022   7.499  68.647  1.00  0.00    -0.123 A  
HETATM   10  C   UNL     1      -9.559   7.043  70.973  1.00  0.00    -0.170 A  
HETATM   11  C   UNL     1      -8.377   7.786  70.987  1.00  0.00    -0.114 A  
HETATM   12  C   UNL     1      -9.233   6.781  68.517  1.00  0.00    -0.128 A  
BRANCH  12  13
HETATM   13  C   UNL     1      -9.656   6.269  67.116  1.00  0.00    -0.151 C  
HETATM   14  C   UNL     1      -8.780   6.891  66.004  1.00  0.00    -0.151 C  
HETATM   15  C   UNL     1     -11.147   6.565  66.855  1.00  0.00    -0.342 C  
HETATM   16  C   UNL     1      -9.487   4.732  66.941  1.00  0.00    -0.165 C  
ENDBRANCH  12  13
BRANCH  10  17
HETATM   17  C   UNL     1     -10.338   6.825  72.297  1.00  0.00    -0.219 C  
HETATM   18  C   UNL     1     -11.811   7.267  72.160  1.00  0.00    -0.324 C  
HETATM   19  C   UNL     1     -10.398   5.341  72.768  1.00  0.00    -0.239 C  
HETATM   20  C   UNL     1      -9.650   7.597  73.442  1.00  0.00    -0.346 C  
ENDBRANCH  10  17
ENDBRANCH   4   5
ENDBRANCH   2   4
BRANCH   2  21
HETATM   21  S   UNL     1      -5.777  11.021  67.795  1.00  0.00    -0.043 SA 
BRANCH  21  22
HETATM   22  C   UNL     1      -7.042  12.175  67.266  1.00  0.00    -0.144 A  
HETATM   23  C   UNL     1      -7.108  13.505  67.688  1.00  0.00    -0.176 A  
HETATM   24  C   UNL     1      -8.094  11.667  66.520  1.00  0.00    -0.075 A  
HETATM   25  H   UNL     1     -10.333  15.478  66.732  1.00  0.00     0.000 HD 
HETATM   26  O   UNL     1     -10.323  14.580  66.422  1.00  0.00    -0.280 OA 
HETATM   27  C   UNL     1      -9.223  12.434  66.178  1.00  0.00    -0.103 A  
HETATM   28  C   UNL     1      -8.185  14.351  67.391  1.00  0.00    -0.215 A  
HETATM   29  C   UNL     1      -9.239  13.781  66.645  1.00  0.00    -0.223 A  
BRANCH  27  30
HETATM   30  C   UNL     1     -10.378  11.756  65.398  1.00  0.00    -0.311 C  
HETATM   31  C   UNL     1     -10.544  12.300  63.949  1.00  0.00    -0.462 C  
HETATM   32  C   UNL     1     -10.111  10.244  65.256  1.00  0.00    -0.359 C  
HETATM   33  C   UNL     1     -11.744  12.004  66.074  1.00  0.00    -0.311 C  
ENDBRANCH  27  30
BRANCH  28  34
HETATM   34  C   UNL     1      -8.158  15.834  67.859  1.00  0.00    -0.149 C  
HETATM   35  C   UNL     1      -7.085  16.140  68.947  1.00  0.00    -0.166 C  
HETATM   36  C   UNL     1      -9.506  16.266  68.478  1.00  0.00    -0.219 C  
HETATM   37  C   UNL     1      -7.812  16.750  66.665  1.00  0.00    -0.307 C  
ENDBRANCH  28  34
ENDBRANCH  21  22
ENDBRANCH   2  21
TORSDOF 8
ENDMDL
MODEL      170
REMARK 921   NORMALIZED FREE ENERGY PREDICTED BY IDOCK:   -4.22 KCAL/MOL
REMARK 922        TOTAL FREE ENERGY PREDICTED BY IDOCK:   -6.79 KCAL/MOL
REMARK 923 INTER-LIGAND FREE ENERGY PREDICTED BY IDOCK:   -7.16 KCAL/MOL
REMARK 924 INTRA-LIGAND FREE ENERGY PREDICTED BY IDOCK:    0.37 KCAL/MOL
REMARK 927      BINDING AFFINITY PREDICTED BY RF-SCORE:    0.00 PKD
ROOT
HETATM    1  C   UNL     1     -10.473   9.770  70.456  1.00  0.00    -0.366 C  
HETATM    2  C   UNL     1     -10.475  10.628  69.178  1.00  0.00    -0.222 C  
HETATM    3  C   UNL     1     -11.276   9.881  68.099  1.00  0.00    -0.142 C  
ENDROOT
BRANCH   2   4
HETATM    4  S   UNL     1      -8.736  10.810  68.586  1.00  0.00    -0.156 SA 
BRANCH   4   5
HETATM    5  C   UNL     1      -8.503   9.460  67.434  1.00  0.00    -0.125 A  
HETATM    6  C   UNL     1      -8.431   7.366  65.581  1.00  0.00    -0.130 A  
HETATM    7  O   UNL     1      -8.443   6.406  64.610  1.00  0.00    -0.317 OA 
HETATM    8  H   UNL     1      -8.139   6.589  63.728  1.00  0.00     0.000 HD 
HETATM    9  C   UNL     1      -8.930   8.187  67.795  1.00  0.00    -0.134 A  
HETATM   10  C   UNL     1      -7.990   8.642  65.171  1.00  0.00    -0.127 A  
HETATM   11  C   UNL     1      -8.022   9.645  66.142  1.00  0.00    -0.108 A  
HETATM   12  C   UNL     1      -8.886   7.092  66.902  1.00  0.00    -0.127 A  
BRANCH  12  13
HETATM   13  C   UNL     1      -9.363   5.702  67.395  1.00  0.00    -0.113 C  
HETATM   14  C   UNL     1      -8.223   4.659  67.322  1.00  0.00    -0.105 C  
HETATM   15  C   UNL     1     -10.582   5.223  66.579  1.00  0.00    -0.348 C  
HETATM   16  C   UNL     1      -9.813   5.692  68.885  1.00  0.00    -0.197 C  
ENDBRANCH  12  13
BRANCH  10  17
HETATM   17  C   UNL     1      -7.473   8.978  63.746  1.00  0.00    -0.107 C  
HETATM   18  C   UNL     1      -8.600   8.855  62.699  1.00  0.00    -0.182 C  
HETATM   19  C   UNL     1      -6.924  10.428  63.589  1.00  0.00     0.001 C  
HETATM   20  C   UNL     1      -6.298   8.048  63.384  1.00  0.00    -0.072 C  
ENDBRANCH  10  17
ENDBRANCH   4   5
ENDBRANCH   2   4
BRANCH   2  21
HETATM   21  S   UNL     1     -11.356  12.205  69.553  1.00  0.00    -0.159 SA 
BRANCH  21  22
HETATM   22  C   UNL     1     -11.192  13.189  68.065  1.00  0.00    -0.277 A  
HETATM   23  C   UNL     1     -11.485  12.717  66.783  1.00  0.00    -0.399 A  
HETATM   24  C   UNL     1     -10.594  14.433  68.188  1.00  0.00    -0.236 A  
HETATM   25  H   UNL     1     -10.448  15.007  63.802  1.00  0.00     0.000 HD 
HETATM   26  O   UNL     1     -10.238  15.366  64.657  1.00  0.00    -0.234 OA 
HETATM   27  C   UNL     1     -10.267  15.232  67.077  1.00  0.00    -0.260 A  
HETATM   28  C   UNL     1     -11.206  13.441  65.617  1.00  0.00    -0.307 A  
HETATM   29  C   UNL     1     -10.581  14.693  65.795  1.00  0.00    -0.320 A  
BRANCH  27  30
HETATM   30  C   UNL     1      -9.538  16.579  67.315  1.00  0.00    -0.242 C  
HETATM   31  C   UNL     1     -10.411  17.821  66.963  1.00  0.00    -0.344 C  
HETATM   32  C   UNL     1      -9.165  16.730  68.803  1.00  0.00    -0.260 C  
HETATM   33  C   UNL     1      -8.283  16.712  66.426  1.00  0.00    -0.353 C  
ENDBRANCH  27  30
BRANCH  28  34
HETATM   34  C   UNL     1     -11.609  12.863  64.230  1.00  0.00    -0.434 C  
HETATM   35  C   UNL     1     -10.433  12.206  63.447  1.00  0.00    -0.450 C  
HETATM   36  C   UNL     1     -12.166  13.957  63.291  1.00  0.00     0.178 C  
HETATM   37  C   UNL     1     -12.660  11.747  64.416  1.00  0.00     0.010 C  
ENDBRANCH  28  34
ENDBRANCH  21  22
ENDBRANCH   2  21
TORSDOF 8
ENDMDL
MODEL      171
REMARK 921   NORMALIZED FREE ENERGY PREDICTED BY IDOCK:   -4.21 KCAL/MOL
REMARK 922        TOTAL FREE ENERGY PREDICTED BY IDOCK:   -6.77 KCAL/MOL
REMARK 923 INTER-LIGAND FREE ENERGY PREDICTED BY IDOCK:   -6.53 KCAL/MOL
REMARK 924 INTRA-LIGAND FREE ENERGY PREDICTED BY IDOCK:   -0.24 KCAL/MOL
REMARK 927      BINDING AFFINITY PREDICTED BY RF-SCORE:    0.00 PKD
ROOT
HETATM    1  C   UNL     1      -6.282  10.140  67.028  1.00  0.00    -0.063 C  
HETATM    2  C   UNL     1      -6.800   8.889  67.760  1.00  0.00    -0.070 C  
HETATM    3  C   UNL     1      -8.217   8.584  67.248  1.00  0.00    -0.108 C  
ENDROOT
BRANCH   2   4
HETATM    4  S   UNL     1      -6.903   9.261  69.565  1.00  0.00    -0.050 SA 
BRANCH   4   5
HETATM    5  C   UNL     1      -8.609   9.730  69.837  1.00  0.00    -0.218 A  
HETATM    6  C   UNL     1     -11.332  10.352  69.992  1.00  0.00    -0.313 A  
HETATM    7  O   UNL     1     -12.681  10.558  70.045  1.00  0.00    -0.520 OA 
HETATM    8  H   UNL     1     -13.250   9.988  70.549  1.00  0.00     0.000 HD 
HETATM    9  C   UNL     1      -9.117  10.837  69.165  1.00  0.00    -0.109 A  
HETATM   10  C   UNL     1     -10.860   9.219  70.688  1.00  0.00    -0.339 A  
HETATM   11  C   UNL     1      -9.489   8.969  70.598  1.00  0.00    -0.286 A  
HETATM   12  C   UNL     1     -10.479  11.207  69.236  1.00  0.00    -0.183 A  
BRANCH  12  13
HETATM   13  C   UNL     1     -10.956  12.468  68.472  1.00  0.00    -0.280 C  
HETATM   14  C   UNL     1     -11.774  12.088  67.216  1.00  0.00    -0.339 C  
HETATM   15  C   UNL     1      -9.755  13.356  68.083  1.00  0.00    -0.226 C  
HETATM   16  C   UNL     1     -11.907  13.376  69.304  1.00  0.00    -0.385 C  
ENDBRANCH  12  13
BRANCH  10  17
HETATM   17  C   UNL     1     -11.753   8.273  71.534  1.00  0.00    -0.337 C  
HETATM   18  C   UNL     1     -10.921   7.511  72.587  1.00  0.00    -0.385 C  
HETATM   19  C   UNL     1     -12.870   8.999  72.342  1.00  0.00    -0.454 C  
HETATM   20  C   UNL     1     -12.487   7.281  70.610  1.00  0.00    -0.097 C  
ENDBRANCH  10  17
ENDBRANCH   4   5
ENDBRANCH   2   4
BRANCH   2  21
HETATM   21  S   UNL     1      -5.711   7.471  67.301  1.00  0.00    -0.032 SA 
BRANCH  21  22
HETATM   22  C   UNL     1      -6.749   6.020  67.476  1.00  0.00    -0.058 A  
HETATM   23  C   UNL     1      -7.288   5.314  66.398  1.00  0.00    -0.082 A  
HETATM   24  C   UNL     1      -7.158   5.681  68.756  1.00  0.00    -0.072 A  
HETATM   25  H   UNL     1      -9.931   2.578  67.252  1.00  0.00     0.000 HD 
HETATM   26  O   UNL     1      -9.584   3.030  68.012  1.00  0.00    -0.191 OA 
HETATM   27  C   UNL     1      -8.096   4.663  69.009  1.00  0.00    -0.077 A  
HETATM   28  C   UNL     1      -8.220   4.279  66.548  1.00  0.00    -0.102 A  
HETATM   29  C   UNL     1      -8.618   3.985  67.869  1.00  0.00    -0.097 A  
BRANCH  27  30
HETATM   30  C   UNL     1      -8.540   4.404  70.471  1.00  0.00    -0.110 C  
HETATM   31  C   UNL     1      -7.965   5.441  71.482  1.00  0.00    -0.115 C  
HETATM   32  C   UNL     1     -10.074   4.502  70.589  1.00  0.00    -0.232 C  
HETATM   33  C   UNL     1      -8.044   3.035  70.983  1.00  0.00    -0.062 C  
ENDBRANCH  27  30
BRANCH  28  34
HETATM   34  C   UNL     1      -8.735   3.511  65.296  1.00  0.00    -0.119 C  
HETATM   35  C   UNL     1      -8.842   1.969  65.494  1.00  0.00    -0.121 C  
HETATM   36  C   UNL     1      -7.803   3.705  64.080  1.00  0.00    -0.084 C  
HETATM   37  C   UNL     1     -10.162   3.985  64.945  1.00  0.00    -0.211 C  
ENDBRANCH  28  34
ENDBRANCH  21  22
ENDBRANCH   2  21
TORSDOF 8
ENDMDL
MODEL      172
REMARK 921   NORMALIZED FREE ENERGY PREDICTED BY IDOCK:   -4.20 KCAL/MOL
REMARK 922        TOTAL FREE ENERGY PREDICTED BY IDOCK:   -6.77 KCAL/MOL
REMARK 923 INTER-LIGAND FREE ENERGY PREDICTED BY IDOCK:   -8.04 KCAL/MOL
REMARK 924 INTRA-LIGAND FREE ENERGY PREDICTED BY IDOCK:    1.27 KCAL/MOL
REMARK 927      BINDING AFFINITY PREDICTED BY RF-SCORE:    0.00 PKD
ROOT
HETATM    1  C   UNL     1      -9.888  12.777  67.470  1.00  0.00    -0.211 C  
HETATM    2  C   UNL     1     -10.750  13.478  66.404  1.00  0.00    -0.287 C  
HETATM    3  C   UNL     1     -11.426  12.398  65.544  1.00  0.00    -0.404 C  
ENDROOT
BRANCH   2   4
HETATM    4  S   UNL     1      -9.644  14.478  65.315  1.00  0.00     0.339 SA 
BRANCH   4   5
HETATM    5  C   UNL     1      -8.844  15.637  66.419  1.00  0.00    -0.330 A  
HETATM    6  C   UNL     1      -7.824  17.410  68.328  1.00  0.00    -0.247 A  
HETATM    7  O   UNL     1      -7.337  18.200  69.329  1.00  0.00    -0.172 OA 
HETATM    8  H   UNL     1      -6.648  17.897  69.909  1.00  0.00     0.000 HD 
HETATM    9  C   UNL     1      -9.358  16.925  66.529  1.00  0.00    -0.293 A  
HETATM   10  C   UNL     1      -7.274  16.112  68.253  1.00  0.00    -0.136 A  
HETATM   11  C   UNL     1      -7.802  15.277  67.265  1.00  0.00    -0.240 A  
HETATM   12  C   UNL     1      -8.857  17.864  67.458  1.00  0.00    -0.248 A  
BRANCH  12  13
HETATM   13  C   UNL     1      -9.475  19.285  67.498  1.00  0.00    -0.379 C  
HETATM   14  C   UNL     1      -8.455  20.354  67.042  1.00  0.00    -0.355 C  
HETATM   15  C   UNL     1     -10.000  19.611  68.911  1.00  0.00    -0.524 C  
HETATM   16  C   UNL     1     -10.688  19.461  66.539  1.00  0.00    -0.516 C  
ENDBRANCH  12  13
BRANCH  10  17
HETATM   17  C   UNL     1      -6.140  15.585  69.171  1.00  0.00    -0.110 C  
HETATM   18  C   UNL     1      -5.295  16.744  69.740  1.00  0.00    -0.171 C  
HETATM   19  C   UNL     1      -6.640  14.793  70.417  1.00  0.00    -0.044 C  
HETATM   20  C   UNL     1      -5.246  14.603  68.387  1.00  0.00    -0.105 C  
ENDBRANCH  10  17
ENDBRANCH   4   5
ENDBRANCH   2   4
BRANCH   2  21
HETATM   21  S   UNL     1     -12.073  14.424  67.275  1.00  0.00    -0.208 SA 
BRANCH  21  22
HETATM   22  C   UNL     1     -12.156  13.697  68.911  1.00  0.00    -0.300 A  
HETATM   23  C   UNL     1     -12.141  12.322  69.154  1.00  0.00    -0.214 A  
HETATM   24  C   UNL     1     -12.404  14.552  69.974  1.00  0.00    -0.376 A  
HETATM   25  H   UNL     1     -12.907  11.188  72.806  1.00  0.00     0.000 HD 
HETATM   26  O   UNL     1     -12.920  12.130  72.683  1.00  0.00     0.054 OA 
HETATM   27  C   UNL     1     -12.646  14.088  71.281  1.00  0.00    -0.444 A  
HETATM   28  C   UNL     1     -12.362  11.764  70.420  1.00  0.00    -0.362 A  
HETATM   29  C   UNL     1     -12.628  12.674  71.465  1.00  0.00    -0.151 A  
BRANCH  27  30
HETATM   30  C   UNL     1     -12.980  15.119  72.389  1.00  0.00    -0.452 C  
HETATM   31  C   UNL     1     -12.032  16.355  72.385  1.00  0.00    -0.553 C  
HETATM   32  C   UNL     1     -14.404  15.676  72.189  1.00  0.00    -0.497 C  
HETATM   33  C   UNL     1     -12.830  14.508  73.799  1.00  0.00     0.113 C  
ENDBRANCH  27  30
BRANCH  28  34
HETATM   34  C   UNL     1     -12.280  10.223  70.614  1.00  0.00    -0.422 C  
HETATM   35  C   UNL     1     -11.329   9.775  71.765  1.00  0.00    -0.061 C  
HETATM   36  C   UNL     1     -11.755   9.511  69.348  1.00  0.00     0.349 C  
HETATM   37  C   UNL     1     -13.673   9.670  70.987  1.00  0.00    -0.086 C  
ENDBRANCH  28  34
ENDBRANCH  21  22
ENDBRANCH   2  21
TORSDOF 8
ENDMDL
MODEL      173
REMARK 921   NORMALIZED FREE ENERGY PREDICTED BY IDOCK:   -4.20 KCAL/MOL
REMARK 922        TOTAL FREE ENERGY PREDICTED BY IDOCK:   -6.76 KCAL/MOL
REMARK 923 INTER-LIGAND FREE ENERGY PREDICTED BY IDOCK:   -7.10 KCAL/MOL
REMARK 924 INTRA-LIGAND FREE ENERGY PREDICTED BY IDOCK:    0.34 KCAL/MOL
REMARK 927      BINDING AFFINITY PREDICTED BY RF-SCORE:    0.00 PKD
ROOT
HETATM    1  C   UNL     1      -8.284  10.841  69.375  1.00  0.00    -0.035 C  
HETATM    2  C   UNL     1      -6.775  10.766  69.085  1.00  0.00    -0.074 C  
HETATM    3  C   UNL     1      -6.044  11.657  70.103  1.00  0.00    -0.155 C  
ENDROOT
BRANCH   2   4
HETATM    4  S   UNL     1      -6.462  11.439  67.395  1.00  0.00    -0.094 SA 
BRANCH   4   5
HETATM    5  C   UNL     1      -7.444  12.934  67.312  1.00  0.00    -0.085 A  
HETATM    6  C   UNL     1      -8.858  15.315  66.914  1.00  0.00    -0.254 A  
HETATM    7  O   UNL     1      -9.580  16.438  66.630  1.00  0.00    -0.232 OA 
HETATM    8  H   UNL     1     -10.490  16.388  66.361  1.00  0.00     0.000 HD 
HETATM    9  C   UNL     1      -6.814  14.162  67.480  1.00  0.00    -0.151 A  
HETATM   10  C   UNL     1      -9.536  14.091  66.730  1.00  0.00    -0.293 A  
HETATM   11  C   UNL     1      -8.791  12.934  66.967  1.00  0.00    -0.208 A  
HETATM   12  C   UNL     1      -7.494  15.391  67.318  1.00  0.00    -0.242 A  
BRANCH  12  13
HETATM   13  C   UNL     1      -6.719  16.714  67.545  1.00  0.00    -0.181 C  
HETATM   14  C   UNL     1      -6.793  17.629  66.302  1.00  0.00    -0.322 C  
HETATM   15  C   UNL     1      -5.249  16.427  67.915  1.00  0.00    -0.125 C  
HETATM   16  C   UNL     1      -7.292  17.576  68.707  1.00  0.00    -0.260 C  
ENDBRANCH  12  13
BRANCH  10  17
HETATM   17  C   UNL     1     -11.024  13.966  66.306  1.00  0.00    -0.298 C  
HETATM   18  C   UNL     1     -11.484  12.493  66.306  1.00  0.00    -0.421 C  
HETATM   19  C   UNL     1     -12.022  14.707  67.246  1.00  0.00    -0.312 C  
HETATM   20  C   UNL     1     -11.224  14.592  64.911  1.00  0.00    -0.395 C  
ENDBRANCH  10  17
ENDBRANCH   4   5
ENDBRANCH   2   4
BRANCH   2  21
HETATM   21  S   UNL     1      -6.230   9.024  69.360  1.00  0.00    -0.041 SA 
BRANCH  21  22
HETATM   22  C   UNL     1      -7.749   8.081  69.481  1.00  0.00    -0.103 A  
HETATM   23  C   UNL     1      -8.443   7.873  70.675  1.00  0.00    -0.125 A  
HETATM   24  C   UNL     1      -8.165   7.397  68.350  1.00  0.00    -0.125 A  
HETATM   25  H   UNL     1     -11.373   5.303  70.565  1.00  0.00     0.000 HD 
HETATM   26  O   UNL     1     -10.932   5.422  69.732  1.00  0.00    -0.246 OA 
HETATM   27  C   UNL     1      -9.250   6.501  68.360  1.00  0.00    -0.121 A  
HETATM   28  C   UNL     1      -9.540   7.009  70.785  1.00  0.00    -0.164 A  
HETATM   29  C   UNL     1      -9.912   6.322  69.610  1.00  0.00    -0.165 A  
BRANCH  27  30
HETATM   30  C   UNL     1      -9.595   5.732  67.059  1.00  0.00    -0.145 C  
HETATM   31  C   UNL     1      -9.567   4.185  67.232  1.00  0.00    -0.228 C  
HETATM   32  C   UNL     1     -11.024   6.082  66.596  1.00  0.00    -0.229 C  
HETATM   33  C   UNL     1      -8.576   6.025  65.937  1.00  0.00    -0.150 C  
ENDBRANCH  27  30
BRANCH  28  34
HETATM   34  C   UNL     1     -10.287   6.871  72.142  1.00  0.00    -0.221 C  
HETATM   35  C   UNL     1     -10.341   5.415  72.696  1.00  0.00    -0.246 C  
HETATM   36  C   UNL     1     -11.760   7.324  72.036  1.00  0.00    -0.329 C  
HETATM   37  C   UNL     1      -9.560   7.700  73.223  1.00  0.00    -0.326 C  
ENDBRANCH  28  34
ENDBRANCH  21  22
ENDBRANCH   2  21
TORSDOF 8
ENDMDL
MODEL      174
REMARK 921   NORMALIZED FREE ENERGY PREDICTED BY IDOCK:   -4.19 KCAL/MOL
REMARK 922        TOTAL FREE ENERGY PREDICTED BY IDOCK:   -6.75 KCAL/MOL
REMARK 923 INTER-LIGAND FREE ENERGY PREDICTED BY IDOCK:   -6.88 KCAL/MOL
REMARK 924 INTRA-LIGAND FREE ENERGY PREDICTED BY IDOCK:    0.12 KCAL/MOL
REMARK 927      BINDING AFFINITY PREDICTED BY RF-SCORE:    0.00 PKD
ROOT
HETATM    1  C   UNL     1     -12.134  12.504  66.001  1.00  0.00    -0.390 C  
HETATM    2  C   UNL     1     -11.681  12.919  64.590  1.00  0.00    -0.359 C  
HETATM    3  C   UNL     1     -12.500  12.116  63.566  1.00  0.00    -0.666 C  
ENDROOT
BRANCH   2   4
HETATM    4  S   UNL     1      -9.901  12.475  64.386  1.00  0.00     0.016 SA 
BRANCH   4   5
HETATM    5  C   UNL     1      -9.303  12.213  66.053  1.00  0.00    -0.170 A  
HETATM    6  C   UNL     1      -8.166  11.619  68.539  1.00  0.00    -0.144 A  
HETATM    7  O   UNL     1      -7.520  11.356  69.713  1.00  0.00    -0.352 OA 
HETATM    8  H   UNL     1      -6.922  11.984  70.101  1.00  0.00     0.000 HD 
HETATM    9  C   UNL     1      -9.591  11.009  66.688  1.00  0.00    -0.216 A  
HETATM   10  C   UNL     1      -7.845  12.850  67.929  1.00  0.00    -0.151 A  
HETATM   11  C   UNL     1      -8.460  13.107  66.701  1.00  0.00     0.106 A  
HETATM   12  C   UNL     1      -9.063  10.678  67.957  1.00  0.00    -0.147 A  
BRANCH  12  13
HETATM   13  C   UNL     1      -9.454   9.324  68.603  1.00  0.00    -0.148 C  
HETATM   14  C   UNL     1     -10.463   8.553  67.721  1.00  0.00    -0.287 C  
HETATM   15  C   UNL     1     -10.031   9.541  70.017  1.00  0.00    -0.274 C  
HETATM   16  C   UNL     1      -8.253   8.349  68.775  1.00  0.00    -0.119 C  
ENDBRANCH  12  13
BRANCH  10  17
HETATM   17  C   UNL     1      -6.885  13.908  68.536  1.00  0.00    -0.098 C  
HETATM   18  C   UNL     1      -5.447  13.359  68.650  1.00  0.00    -0.074 C  
HETATM   19  C   UNL     1      -6.760  15.216  67.698  1.00  0.00    -0.201 C  
HETATM   20  C   UNL     1      -7.403  14.350  69.920  1.00  0.00     0.182 C  
ENDBRANCH  10  17
ENDBRANCH   4   5
ENDBRANCH   2   4
BRANCH   2  21
HETATM   21  S   UNL     1     -12.085  14.706  64.367  1.00  0.00    -0.385 SA 
BRANCH  21  22
HETATM   22  C   UNL     1     -11.407  15.515  65.816  1.00  0.00    -0.039 A  
HETATM   23  C   UNL     1     -10.434  16.515  65.766  1.00  0.00    -0.343 A  
HETATM   24  C   UNL     1     -11.764  15.003  67.054  1.00  0.00    -0.199 A  
HETATM   25  H   UNL     1      -8.854  17.583  69.167  1.00  0.00     0.000 HD 
HETATM   26  O   UNL     1      -9.517  16.906  69.244  1.00  0.00    -0.186 OA 
HETATM   27  C   UNL     1     -11.181  15.447  68.255  1.00  0.00    -0.325 A  
HETATM   28  C   UNL     1      -9.802  17.028  66.906  1.00  0.00    -0.273 A  
HETATM   29  C   UNL     1     -10.186  16.462  68.140  1.00  0.00    -0.262 A  
BRANCH  27  30
HETATM   30  C   UNL     1     -11.598  14.766  69.583  1.00  0.00    -0.342 C  
HETATM   31  C   UNL     1     -11.200  13.262  69.656  1.00  0.00    -0.100 C  
HETATM   32  C   UNL     1     -10.899  15.448  70.777  1.00  0.00    -0.292 C  
HETATM   33  C   UNL     1     -13.130  14.780  69.773  1.00  0.00     0.426 C  
ENDBRANCH  27  30
BRANCH  28  34
HETATM   34  C   UNL     1      -8.761  18.176  66.766  1.00  0.00    -0.275 C  
HETATM   35  C   UNL     1      -7.617  17.879  65.751  1.00  0.00    -0.059 C  
HETATM   36  C   UNL     1      -8.054  18.477  68.106  1.00  0.00    -0.310 C  
HETATM   37  C   UNL     1      -9.460  19.451  66.244  1.00  0.00    -0.422 C  
ENDBRANCH  28  34
ENDBRANCH  21  22
ENDBRANCH   2  21
TORSDOF 8
ENDMDL
MODEL      175
REMARK 921   NORMALIZED FREE ENERGY PREDICTED BY IDOCK:   -4.18 KCAL/MOL
REMARK 922        TOTAL FREE ENERGY PREDICTED BY IDOCK:   -6.74 KCAL/MOL
REMARK 923 INTER-LIGAND FREE ENERGY PREDICTED BY IDOCK:   -7.14 KCAL/MOL
REMARK 924 INTRA-LIGAND FREE ENERGY PREDICTED BY IDOCK:    0.40 KCAL/MOL
REMARK 927      BINDING AFFINITY PREDICTED BY RF-SCORE:    0.00 PKD
ROOT
HETATM    1  C   UNL     1      -8.993  10.379  65.788  1.00  0.00    -0.189 C  
HETATM    2  C   UNL     1      -9.809  11.076  66.891  1.00  0.00    -0.191 C  
HETATM    3  C   UNL     1      -8.833  11.570  67.971  1.00  0.00    -0.158 C  
ENDROOT
BRANCH   2   4
HETATM    4  S   UNL     1     -10.943   9.838  67.659  1.00  0.00    -0.045 SA 
BRANCH   4   5
HETATM    5  C   UNL     1      -9.858   8.605  68.371  1.00  0.00    -0.172 A  
HETATM    6  C   UNL     1      -7.938   6.827  69.358  1.00  0.00    -0.115 A  
HETATM    7  O   UNL     1      -6.951   6.040  69.879  1.00  0.00    -0.065 OA 
HETATM    8  H   UNL     1      -6.676   6.123  70.785  1.00  0.00     0.000 HD 
HETATM    9  C   UNL     1      -9.302   7.639  67.540  1.00  0.00    -0.159 A  
HETATM   10  C   UNL     1      -8.474   7.793  70.236  1.00  0.00    -0.133 A  
HETATM   11  C   UNL     1      -9.448   8.638  69.699  1.00  0.00    -0.162 A  
HETATM   12  C   UNL     1      -8.349   6.701  68.000  1.00  0.00    -0.117 A  
BRANCH  12  13
HETATM   13  C   UNL     1      -7.797   5.645  67.010  1.00  0.00    -0.101 C  
HETATM   14  C   UNL     1      -6.381   6.024  66.517  1.00  0.00    -0.045 C  
HETATM   15  C   UNL     1      -8.754   5.467  65.813  1.00  0.00    -0.151 C  
HETATM   16  C   UNL     1      -7.632   4.231  67.640  1.00  0.00    -0.073 C  
ENDBRANCH  12  13
BRANCH  10  17
HETATM   17  C   UNL     1      -8.064   7.952  71.724  1.00  0.00    -0.127 C  
HETATM   18  C   UNL     1      -9.213   8.554  72.560  1.00  0.00    -0.303 C  
HETATM   19  C   UNL     1      -7.699   6.613  72.434  1.00  0.00    -0.095 C  
HETATM   20  C   UNL     1      -6.804   8.834  71.828  1.00  0.00    -0.073 C  
ENDBRANCH  10  17
ENDBRANCH   4   5
ENDBRANCH   2   4
BRANCH   2  21
HETATM   21  S   UNL     1     -10.629  12.551  66.146  1.00  0.00    -0.260 SA 
BRANCH  21  22
HETATM   22  C   UNL     1     -10.594  13.797  67.434  1.00  0.00    -0.260 A  
HETATM   23  C   UNL     1     -11.332  13.714  68.616  1.00  0.00    -0.321 A  
HETATM   24  C   UNL     1      -9.915  14.974  67.161  1.00  0.00    -0.237 A  
HETATM   25  H   UNL     1     -11.385  16.900  70.864  1.00  0.00     0.000 HD 
HETATM   26  O   UNL     1     -10.867  16.994  70.073  1.00  0.00    -0.130 OA 
HETATM   27  C   UNL     1      -9.945  16.085  68.024  1.00  0.00    -0.229 A  
HETATM   28  C   UNL     1     -11.417  14.762  69.542  1.00  0.00    -0.331 A  
HETATM   29  C   UNL     1     -10.723  15.945  69.210  1.00  0.00    -0.259 A  
BRANCH  27  30
HETATM   30  C   UNL     1      -9.207  17.380  67.599  1.00  0.00    -0.234 C  
HETATM   31  C   UNL     1      -8.470  17.248  66.233  1.00  0.00    -0.278 C  
HETATM   32  C   UNL     1     -10.212  18.537  67.429  1.00  0.00    -0.401 C  
HETATM   33  C   UNL     1      -8.105  17.765  68.609  1.00  0.00    -0.277 C  
ENDBRANCH  27  30
BRANCH  28  34
HETATM   34  C   UNL     1     -12.222  14.571  70.860  1.00  0.00    -0.409 C  
HETATM   35  C   UNL     1     -11.470  15.042  72.141  1.00  0.00    -0.330 C  
HETATM   36  C   UNL     1     -12.570  13.087  71.110  1.00  0.00    -0.388 C  
HETATM   37  C   UNL     1     -13.516  15.411  70.805  1.00  0.00    -0.324 C  
ENDBRANCH  28  34
ENDBRANCH  21  22
ENDBRANCH   2  21
TORSDOF 8
ENDMDL
MODEL      176
REMARK 921   NORMALIZED FREE ENERGY PREDICTED BY IDOCK:   -4.18 KCAL/MOL
REMARK 922        TOTAL FREE ENERGY PREDICTED BY IDOCK:   -6.73 KCAL/MOL
REMARK 923 INTER-LIGAND FREE ENERGY PREDICTED BY IDOCK:   -5.95 KCAL/MOL
REMARK 924 INTRA-LIGAND FREE ENERGY PREDICTED BY IDOCK:   -0.78 KCAL/MOL
REMARK 927      BINDING AFFINITY PREDICTED BY RF-SCORE:    0.00 PKD
ROOT
HETATM    1  C   UNL     1     -11.493   6.685  72.573  1.00  0.00    -0.269 C  
HETATM    2  C   UNL     1     -11.438   7.800  71.514  1.00  0.00    -0.264 C  
HETATM    3  C   UNL     1     -12.578   8.791  71.798  1.00  0.00    -0.409 C  
ENDROOT
BRANCH   2   4
HETATM    4  S   UNL     1     -11.723   7.050  69.851  1.00  0.00     0.009 SA 
BRANCH   4   5
HETATM    5  C   UNL     1     -10.422   5.834  69.670  1.00  0.00    -0.293 A  
HETATM    6  C   UNL     1      -8.231   4.146  69.249  1.00  0.00    -0.065 A  
HETATM    7  O   UNL     1      -7.104   3.394  69.087  1.00  0.00    -0.047 OA 
HETATM    8  H   UNL     1      -6.507   3.234  69.809  1.00  0.00     0.000 HD 
HETATM    9  C   UNL     1     -10.203   5.266  68.420  1.00  0.00    -0.206 A  
HETATM   10  C   UNL     1      -8.415   4.703  70.533  1.00  0.00    -0.104 A  
HETATM   11  C   UNL     1      -9.538   5.517  70.695  1.00  0.00    -0.221 A  
HETATM   12  C   UNL     1      -9.127   4.385  68.167  1.00  0.00    -0.161 A  
BRANCH  12  13
HETATM   13  C   UNL     1      -8.969   3.780  66.749  1.00  0.00    -0.150 C  
HETATM   14  C   UNL     1      -7.593   4.129  66.139  1.00  0.00    -0.089 C  
HETATM   15  C   UNL     1     -10.106   4.261  65.822  1.00  0.00    -0.229 C  
HETATM   16  C   UNL     1      -9.029   2.225  66.728  1.00  0.00    -0.136 C  
ENDBRANCH  12  13
BRANCH  10  17
HETATM   17  C   UNL     1      -7.472   4.456  71.740  1.00  0.00    -0.070 C  
HETATM   18  C   UNL     1      -7.431   2.960  72.121  1.00  0.00    -0.052 C  
HETATM   19  C   UNL     1      -5.987   4.854  71.486  1.00  0.00    -0.017 C  
HETATM   20  C   UNL     1      -7.929   5.304  72.944  1.00  0.00    -0.102 C  
ENDBRANCH  10  17
ENDBRANCH   4   5
ENDBRANCH   2   4
BRANCH   2  21
HETATM   21  S   UNL     1      -9.838   8.698  71.717  1.00  0.00    -0.317 SA 
BRANCH  21  22
HETATM   22  C   UNL     1      -9.538   9.466  70.127  1.00  0.00    -0.238 A  
HETATM   23  C   UNL     1     -10.206  10.605  69.673  1.00  0.00    -0.156 A  
HETATM   24  C   UNL     1      -8.705   8.795  69.244  1.00  0.00    -0.135 A  
HETATM   25  H   UNL     1      -9.639  11.591  65.943  1.00  0.00     0.000 HD 
HETATM   26  O   UNL     1      -9.162  10.816  66.215  1.00  0.00    -0.165 OA 
HETATM   27  C   UNL     1      -8.515   9.213  67.914  1.00  0.00    -0.117 A  
HETATM   28  C   UNL     1     -10.075  11.104  68.371  1.00  0.00    -0.193 A  
HETATM   29  C   UNL     1      -9.231  10.376  67.506  1.00  0.00    -0.145 A  
BRANCH  27  30
HETATM   30  C   UNL     1      -7.616   8.357  66.985  1.00  0.00    -0.092 C  
HETATM   31  C   UNL     1      -6.815   7.259  67.744  1.00  0.00    -0.070 C  
HETATM   32  C   UNL     1      -8.478   7.612  65.946  1.00  0.00    -0.150 C  
HETATM   33  C   UNL     1      -6.543   9.216  66.282  1.00  0.00    -0.066 C  
ENDBRANCH  27  30
BRANCH  28  34
HETATM   34  C   UNL     1     -10.819  12.408  67.960  1.00  0.00    -0.251 C  
HETATM   35  C   UNL     1      -9.875  13.576  67.545  1.00  0.00    -0.227 C  
HETATM   36  C   UNL     1     -11.678  12.967  69.116  1.00  0.00    -0.376 C  
HETATM   37  C   UNL     1     -11.708  12.134  66.729  1.00  0.00    -0.377 C  
ENDBRANCH  28  34
ENDBRANCH  21  22
ENDBRANCH   2  21
TORSDOF 8
ENDMDL
MODEL      177
REMARK 921   NORMALIZED FREE ENERGY PREDICTED BY IDOCK:   -4.18 KCAL/MOL
REMARK 922        TOTAL FREE ENERGY PREDICTED BY IDOCK:   -6.73 KCAL/MOL
REMARK 923 INTER-LIGAND FREE ENERGY PREDICTED BY IDOCK:   -6.81 KCAL/MOL
REMARK 924 INTRA-LIGAND FREE ENERGY PREDICTED BY IDOCK:    0.08 KCAL/MOL
REMARK 927      BINDING AFFINITY PREDICTED BY RF-SCORE:    0.00 PKD
ROOT
HETATM    1  C   UNL     1      -5.857  10.607  65.829  1.00  0.00    -0.138 C  
HETATM    2  C   UNL     1      -6.533   9.593  66.769  1.00  0.00    -0.067 C  
HETATM    3  C   UNL     1      -7.982   9.390  66.296  1.00  0.00    -0.111 C  
ENDROOT
BRANCH   2   4
HETATM    4  S   UNL     1      -6.573  10.303  68.472  1.00  0.00    -0.053 SA 
BRANCH   4   5
HETATM    5  C   UNL     1      -8.303  10.640  68.785  1.00  0.00    -0.144 A  
HETATM    6  C   UNL     1     -11.065  11.008  69.030  1.00  0.00    -0.244 A  
HETATM    7  O   UNL     1     -12.423  11.086  69.145  1.00  0.00    -0.602 OA 
HETATM    8  H   UNL     1     -12.899  10.556  69.775  1.00  0.00     0.000 HD 
HETATM    9  C   UNL     1      -8.964  11.561  67.979  1.00  0.00    -0.170 A  
HETATM   10  C   UNL     1     -10.435  10.062  69.867  1.00  0.00    -0.317 A  
HETATM   11  C   UNL     1      -9.052   9.937  69.721  1.00  0.00    -0.249 A  
HETATM   12  C   UNL     1     -10.353  11.802  68.086  1.00  0.00    -0.213 A  
BRANCH  12  13
HETATM   13  C   UNL     1     -11.004  12.861  67.161  1.00  0.00    -0.290 C  
HETATM   14  C   UNL     1      -9.935  13.659  66.381  1.00  0.00    -0.299 C  
HETATM   15  C   UNL     1     -11.900  13.817  67.976  1.00  0.00    -0.408 C  
HETATM   16  C   UNL     1     -11.920  12.247  66.063  1.00  0.00    -0.342 C  
ENDBRANCH  12  13
BRANCH  10  17
HETATM   17  C   UNL     1     -11.173   9.190  70.918  1.00  0.00    -0.359 C  
HETATM   18  C   UNL     1     -12.406   9.923  71.486  1.00  0.00    -0.504 C  
HETATM   19  C   UNL     1     -11.718   7.840  70.361  1.00  0.00    -0.045 C  
HETATM   20  C   UNL     1     -10.203   8.808  72.054  1.00  0.00    -0.401 C  
ENDBRANCH  10  17
ENDBRANCH   4   5
ENDBRANCH   2   4
BRANCH   2  21
HETATM   21  S   UNL     1      -5.648   7.983  66.599  1.00  0.00    -0.033 SA 
BRANCH  21  22
HETATM   22  C   UNL     1      -6.883   6.738  66.966  1.00  0.00    -0.069 A  
HETATM   23  C   UNL     1      -7.252   6.365  68.260  1.00  0.00    -0.085 A  
HETATM   24  C   UNL     1      -7.381   6.003  65.901  1.00  0.00    -0.076 A  
HETATM   25  H   UNL     1      -9.557   3.236  68.582  1.00  0.00     0.000 HD 
HETATM   26  O   UNL     1      -9.334   3.461  67.687  1.00  0.00    -0.179 OA 
HETATM   27  C   UNL     1      -8.234   4.898  66.074  1.00  0.00    -0.112 A  
HETATM   28  C   UNL     1      -8.103   5.286  68.534  1.00  0.00    -0.087 A  
HETATM   29  C   UNL     1      -8.568   4.559  67.418  1.00  0.00    -0.104 A  
BRANCH  27  30
HETATM   30  C   UNL     1      -8.684   4.099  64.824  1.00  0.00    -0.127 C  
HETATM   31  C   UNL     1     -10.231   3.978  64.695  1.00  0.00    -0.226 C  
HETATM   32  C   UNL     1      -8.204   4.803  63.539  1.00  0.00    -0.107 C  
HETATM   33  C   UNL     1      -8.174   2.642  64.865  1.00  0.00    -0.087 C  
ENDBRANCH  27  30
BRANCH  28  34
HETATM   34  C   UNL     1      -8.503   4.967  70.003  1.00  0.00    -0.096 C  
HETATM   35  C   UNL     1     -10.010   4.620  70.192  1.00  0.00    -0.304 C  
HETATM   36  C   UNL     1      -8.237   6.163  70.944  1.00  0.00    -0.126 C  
HETATM   37  C   UNL     1      -7.726   3.728  70.497  1.00  0.00    -0.044 C  
ENDBRANCH  28  34
ENDBRANCH  21  22
ENDBRANCH   2  21
TORSDOF 8
ENDMDL
MODEL      178
REMARK 921   NORMALIZED FREE ENERGY PREDICTED BY IDOCK:   -4.18 KCAL/MOL
REMARK 922        TOTAL FREE ENERGY PREDICTED BY IDOCK:   -6.73 KCAL/MOL
REMARK 923 INTER-LIGAND FREE ENERGY PREDICTED BY IDOCK:   -6.21 KCAL/MOL
REMARK 924 INTRA-LIGAND FREE ENERGY PREDICTED BY IDOCK:   -0.52 KCAL/MOL
REMARK 927      BINDING AFFINITY PREDICTED BY RF-SCORE:    0.00 PKD
ROOT
HETATM    1  C   UNL     1     -11.991  10.883  68.892  1.00  0.00    -0.277 C  
HETATM    2  C   UNL     1     -11.118  11.840  68.061  1.00  0.00    -0.242 C  
HETATM    3  C   UNL     1     -11.687  13.261  68.209  1.00  0.00    -0.388 C  
ENDROOT
BRANCH   2   4
HETATM    4  S   UNL     1     -11.233  11.353  66.284  1.00  0.00    -0.061 SA 
BRANCH   4   5
HETATM    5  C   UNL     1     -10.111   9.968  66.118  1.00  0.00    -0.247 A  
HETATM    6  C   UNL     1      -8.551   7.691  65.662  1.00  0.00    -0.123 A  
HETATM    7  O   UNL     1      -7.793   6.602  65.339  1.00  0.00    -0.097 OA 
HETATM    8  H   UNL     1      -7.039   6.675  64.766  1.00  0.00     0.000 HD 
HETATM    9  C   UNL     1     -10.454   8.752  66.700  1.00  0.00    -0.240 A  
HETATM   10  C   UNL     1      -8.168   8.904  65.049  1.00  0.00    -0.154 A  
HETATM   11  C   UNL     1      -8.966  10.014  65.331  1.00  0.00    -0.213 A  
HETATM   12  C   UNL     1      -9.681   7.582  66.522  1.00  0.00    -0.238 A  
BRANCH  12  13
HETATM   13  C   UNL     1     -10.124   6.274  67.226  1.00  0.00    -0.203 C  
HETATM   14  C   UNL     1      -8.938   5.596  67.949  1.00  0.00    -0.108 C  
HETATM   15  C   UNL     1     -10.765   5.301  66.214  1.00  0.00    -0.260 C  
HETATM   16  C   UNL     1     -11.189   6.499  68.338  1.00  0.00    -0.274 C  
ENDBRANCH  12  13
BRANCH  10  17
HETATM   17  C   UNL     1      -6.936   9.067  64.119  1.00  0.00    -0.094 C  
HETATM   18  C   UNL     1      -6.940  10.444  63.422  1.00  0.00    -0.030 C  
HETATM   19  C   UNL     1      -5.564   8.983  64.852  1.00  0.00    -0.054 C  
HETATM   20  C   UNL     1      -6.917   7.935  63.072  1.00  0.00    -0.085 C  
ENDBRANCH  10  17
ENDBRANCH   4   5
ENDBRANCH   2   4
BRANCH   2  21
HETATM   21  S   UNL     1      -9.419  11.828  68.780  1.00  0.00     0.057 SA 
BRANCH  21  22
HETATM   22  C   UNL     1      -9.243  10.203  69.515  1.00  0.00    -0.204 A  
HETATM   23  C   UNL     1     -10.168   9.644  70.399  1.00  0.00    -0.348 A  
HETATM   24  C   UNL     1      -8.043   9.540  69.310  1.00  0.00    -0.103 A  
HETATM   25  H   UNL     1      -9.104   6.342  72.179  1.00  0.00     0.000 HD 
HETATM   26  O   UNL     1      -8.451   6.687  71.582  1.00  0.00    -0.119 OA 
HETATM   27  C   UNL     1      -7.722   8.333  69.958  1.00  0.00    -0.095 A  
HETATM   28  C   UNL     1      -9.945   8.443  71.085  1.00  0.00    -0.245 A  
HETATM   29  C   UNL     1      -8.702   7.816  70.856  1.00  0.00    -0.137 A  
BRANCH  27  30
HETATM   30  C   UNL     1      -6.328   7.702  69.714  1.00  0.00    -0.031 C  
HETATM   31  C   UNL     1      -6.333   6.147  69.797  1.00  0.00    -0.034 C  
HETATM   32  C   UNL     1      -5.824   8.050  68.298  1.00  0.00    -0.037 C  
HETATM   33  C   UNL     1      -5.304   8.153  70.778  1.00  0.00    -0.025 C  
ENDBRANCH  27  30
BRANCH  28  34
HETATM   34  C   UNL     1     -11.049   7.863  72.015  1.00  0.00    -0.332 C  
HETATM   35  C   UNL     1     -11.565   6.455  71.591  1.00  0.00    -0.363 C  
HETATM   36  C   UNL     1     -12.303   8.766  72.050  1.00  0.00    -0.444 C  
HETATM   37  C   UNL     1     -10.489   7.688  73.443  1.00  0.00    -0.361 C  
ENDBRANCH  28  34
ENDBRANCH  21  22
ENDBRANCH   2  21
TORSDOF 8
ENDMDL
MODEL      179
REMARK 921   NORMALIZED FREE ENERGY PREDICTED BY IDOCK:   -4.16 KCAL/MOL
REMARK 922        TOTAL FREE ENERGY PREDICTED BY IDOCK:   -6.71 KCAL/MOL
REMARK 923 INTER-LIGAND FREE ENERGY PREDICTED BY IDOCK:   -6.99 KCAL/MOL
REMARK 924 INTRA-LIGAND FREE ENERGY PREDICTED BY IDOCK:    0.29 KCAL/MOL
REMARK 927      BINDING AFFINITY PREDICTED BY RF-SCORE:    0.00 PKD
ROOT
HETATM    1  C   UNL     1     -11.147  10.223  70.642  1.00  0.00    -0.358 C  
HETATM    2  C   UNL     1     -10.935  11.084  69.384  1.00  0.00    -0.248 C  
HETATM    3  C   UNL     1     -11.767  10.479  68.241  1.00  0.00    -0.051 C  
ENDROOT
BRANCH   2   4
HETATM    4  S   UNL     1      -9.153  11.006  68.908  1.00  0.00    -0.070 SA 
BRANCH   4   5
HETATM    5  C   UNL     1      -9.049   9.642  67.753  1.00  0.00    -0.124 A  
HETATM    6  C   UNL     1      -8.595   7.501  66.012  1.00  0.00    -0.151 A  
HETATM    7  O   UNL     1      -8.330   6.406  65.240  1.00  0.00    -0.145 OA 
HETATM    8  H   UNL     1      -8.559   5.530  65.527  1.00  0.00     0.000 HD 
HETATM    9  C   UNL     1      -8.474   9.860  66.506  1.00  0.00    -0.127 A  
HETATM   10  C   UNL     1      -9.179   7.234  67.269  1.00  0.00    -0.148 A  
HETATM   11  C   UNL     1      -9.407   8.341  68.088  1.00  0.00    -0.140 A  
HETATM   12  C   UNL     1      -8.251   8.814  65.581  1.00  0.00    -0.121 A  
BRANCH  12  13
HETATM   13  C   UNL     1      -7.625   9.150  64.204  1.00  0.00    -0.113 C  
HETATM   14  C   UNL     1      -7.103  10.605  64.165  1.00  0.00     0.249 C  
HETATM   15  C   UNL     1      -8.643   8.913  63.070  1.00  0.00    -0.136 C  
HETATM   16  C   UNL     1      -6.385   8.276  63.857  1.00  0.00    -0.071 C  
ENDBRANCH  12  13
BRANCH  10  17
HETATM   17  C   UNL     1      -9.582   5.820  67.768  1.00  0.00    -0.121 C  
HETATM   18  C   UNL     1      -8.352   5.031  68.265  1.00  0.00    -0.095 C  
HETATM   19  C   UNL     1     -10.578   5.824  68.966  1.00  0.00    -0.351 C  
HETATM   20  C   UNL     1     -10.294   5.050  66.638  1.00  0.00    -0.312 C  
ENDBRANCH  10  17
ENDBRANCH   4   5
ENDBRANCH   2   4
BRANCH   2  21
HETATM   21  S   UNL     1     -11.591  12.773  69.735  1.00  0.00    -0.160 SA 
BRANCH  21  22
HETATM   22  C   UNL     1     -11.339  13.689  68.215  1.00  0.00    -0.289 A  
HETATM   23  C   UNL     1     -11.605  13.176  66.944  1.00  0.00    -0.417 A  
HETATM   24  C   UNL     1     -10.701  14.915  68.311  1.00  0.00    -0.249 A  
HETATM   25  H   UNL     1     -10.381  15.304  63.914  1.00  0.00     0.000 HD 
HETATM   26  O   UNL     1     -10.188  15.690  64.761  1.00  0.00    -0.380 OA 
HETATM   27  C   UNL     1     -10.306  15.656  67.182  1.00  0.00    -0.285 A  
HETATM   28  C   UNL     1     -11.259  13.841  65.760  1.00  0.00    -0.300 A  
HETATM   29  C   UNL     1     -10.595  15.077  65.911  1.00  0.00    -0.329 A  
BRANCH  27  30
HETATM   30  C   UNL     1      -9.537  16.985  67.392  1.00  0.00    -0.246 C  
HETATM   31  C   UNL     1      -9.366  17.366  68.893  1.00  0.00    -0.183 C  
HETATM   32  C   UNL     1      -8.111  16.875  66.817  1.00  0.00    -0.276 C  
HETATM   33  C   UNL     1     -10.284  18.181  66.763  1.00  0.00    -0.379 C  
ENDBRANCH  27  30
BRANCH  28  34
HETATM   34  C   UNL     1     -11.635  13.222  64.384  1.00  0.00    -0.423 C  
HETATM   35  C   UNL     1     -12.720  12.106  64.461  1.00  0.00    -0.245 C  
HETATM   36  C   UNL     1     -10.417  12.563  63.699  1.00  0.00    -0.418 C  
HETATM   37  C   UNL     1     -12.226  14.313  63.465  1.00  0.00     0.219 C  
ENDBRANCH  28  34
ENDBRANCH  21  22
ENDBRANCH   2  21
TORSDOF 8
ENDMDL
MODEL      180
REMARK 921   NORMALIZED FREE ENERGY PREDICTED BY IDOCK:   -4.16 KCAL/MOL
REMARK 922        TOTAL FREE ENERGY PREDICTED BY IDOCK:   -6.71 KCAL/MOL
REMARK 923 INTER-LIGAND FREE ENERGY PREDICTED BY IDOCK:   -6.08 KCAL/MOL
REMARK 924 INTRA-LIGAND FREE ENERGY PREDICTED BY IDOCK:   -0.62 KCAL/MOL
REMARK 927      BINDING AFFINITY PREDICTED BY RF-SCORE:    0.00 PKD
ROOT
HETATM    1  C   UNL     1     -11.576  10.817  68.470  1.00  0.00    -0.325 C  
HETATM    2  C   UNL     1     -10.703  11.813  67.687  1.00  0.00    -0.214 C  
HETATM    3  C   UNL     1     -11.313  13.215  67.845  1.00  0.00    -0.321 C  
ENDROOT
BRANCH   2   4
HETATM    4  S   UNL     1     -10.748  11.360  65.898  1.00  0.00    -0.227 SA 
BRANCH   4   5
HETATM    5  C   UNL     1      -9.826   9.829  65.793  1.00  0.00    -0.290 A  
HETATM    6  C   UNL     1      -8.215   7.542  65.848  1.00  0.00    -0.134 A  
HETATM    7  O   UNL     1      -7.448   6.420  65.975  1.00  0.00    -0.078 OA 
HETATM    8  H   UNL     1      -7.772   5.645  66.420  1.00  0.00     0.000 HD 
HETATM    9  C   UNL     1      -8.567   9.841  65.203  1.00  0.00    -0.173 A  
HETATM   10  C   UNL     1      -9.485   7.485  66.461  1.00  0.00    -0.237 A  
HETATM   11  C   UNL     1     -10.258   8.646  66.382  1.00  0.00    -0.224 A  
HETATM   12  C   UNL     1      -7.729   8.703  65.180  1.00  0.00    -0.101 A  
BRANCH  12  13
HETATM   13  C   UNL     1      -6.349   8.800  64.481  1.00  0.00    -0.067 C  
HETATM   14  C   UNL     1      -6.259   7.829  63.281  1.00  0.00    -0.063 C  
HETATM   15  C   UNL     1      -5.210   8.522  65.484  1.00  0.00    -0.034 C  
HETATM   16  C   UNL     1      -6.057  10.204  63.878  1.00  0.00    -0.137 C  
ENDBRANCH  12  13
BRANCH  10  17
HETATM   17  C   UNL     1     -10.057   6.237  67.184  1.00  0.00    -0.213 C  
HETATM   18  C   UNL     1      -8.986   5.564  68.070  1.00  0.00    -0.108 C  
HETATM   19  C   UNL     1     -11.249   6.540  68.140  1.00  0.00    -0.250 C  
HETATM   20  C   UNL     1     -10.602   5.235  66.146  1.00  0.00    -0.251 C  
ENDBRANCH  10  17
ENDBRANCH   4   5
ENDBRANCH   2   4
BRANCH   2  21
HETATM   21  S   UNL     1      -9.027  11.830  68.461  1.00  0.00    -0.082 SA 
BRANCH  21  22
HETATM   22  C   UNL     1      -8.879  10.238  69.270  1.00  0.00    -0.177 A  
HETATM   23  C   UNL     1      -9.856   9.696  70.108  1.00  0.00    -0.310 A  
HETATM   24  C   UNL     1      -7.658   9.589  69.175  1.00  0.00    -0.075 A  
HETATM   25  H   UNL     1      -8.869   6.484  72.087  1.00  0.00     0.000 HD 
HETATM   26  O   UNL     1      -8.181   6.818  71.524  1.00  0.00    -0.110 OA 
HETATM   27  C   UNL     1      -7.365   8.414  69.892  1.00  0.00    -0.060 A  
HETATM   28  C   UNL     1      -9.663   8.527  70.855  1.00  0.00    -0.231 A  
HETATM   29  C   UNL     1      -8.397   7.914  70.738  1.00  0.00    -0.115 A  
BRANCH  27  30
HETATM   30  C   UNL     1      -5.947   7.799  69.770  1.00  0.00    -0.023 C  
HETATM   31  C   UNL     1      -5.960   6.306  69.329  1.00  0.00    -0.021 C  
HETATM   32  C   UNL     1      -5.128   8.551  68.701  1.00  0.00    -0.029 C  
HETATM   33  C   UNL     1      -5.206   7.806  71.124  1.00  0.00    -0.026 C  
ENDBRANCH  27  30
BRANCH  28  34
HETATM   34  C   UNL     1     -10.821   7.963  71.727  1.00  0.00    -0.286 C  
HETATM   35  C   UNL     1     -11.254   6.514  71.354  1.00  0.00    -0.331 C  
HETATM   36  C   UNL     1     -12.102   8.818  71.604  1.00  0.00    -0.401 C  
HETATM   37  C   UNL     1     -10.375   7.897  73.204  1.00  0.00    -0.357 C  
ENDBRANCH  28  34
ENDBRANCH  21  22
ENDBRANCH   2  21
TORSDOF 8
ENDMDL
MODEL      181
REMARK 921   NORMALIZED FREE ENERGY PREDICTED BY IDOCK:   -4.16 KCAL/MOL
REMARK 922        TOTAL FREE ENERGY PREDICTED BY IDOCK:   -6.70 KCAL/MOL
REMARK 923 INTER-LIGAND FREE ENERGY PREDICTED BY IDOCK:   -6.86 KCAL/MOL
REMARK 924 INTRA-LIGAND FREE ENERGY PREDICTED BY IDOCK:    0.15 KCAL/MOL
REMARK 927      BINDING AFFINITY PREDICTED BY RF-SCORE:    0.00 PKD
ROOT
HETATM    1  C   UNL     1     -10.297   9.067  67.465  1.00  0.00    -0.328 C  
HETATM    2  C   UNL     1      -8.995   8.487  66.884  1.00  0.00    -0.143 C  
HETATM    3  C   UNL     1      -9.238   7.010  66.536  1.00  0.00    -0.198 C  
ENDROOT
BRANCH   2   4
HETATM    4  S   UNL     1      -7.682   8.568  68.180  1.00  0.00    -0.103 SA 
BRANCH   4   5
HETATM    5  C   UNL     1      -8.191   7.381  69.419  1.00  0.00    -0.131 A  
HETATM    6  C   UNL     1      -9.226   5.475  71.186  1.00  0.00    -0.149 A  
HETATM    7  O   UNL     1      -9.737   4.480  71.969  1.00  0.00    -0.155 OA 
HETATM    8  H   UNL     1      -9.371   3.603  71.958  1.00  0.00     0.000 HD 
HETATM    9  C   UNL     1      -9.238   7.710  70.274  1.00  0.00    -0.157 A  
HETATM   10  C   UNL     1      -8.165   5.098  70.335  1.00  0.00    -0.098 A  
HETATM   11  C   UNL     1      -7.669   6.095  69.492  1.00  0.00    -0.099 A  
HETATM   12  C   UNL     1      -9.775   6.789  71.203  1.00  0.00    -0.181 A  
BRANCH  12  13
HETATM   13  C   UNL     1     -10.927   7.247  72.133  1.00  0.00    -0.274 C  
HETATM   14  C   UNL     1     -10.578   7.007  73.620  1.00  0.00    -0.383 C  
HETATM   15  C   UNL     1     -12.241   6.525  71.767  1.00  0.00    -0.374 C  
HETATM   16  C   UNL     1     -11.234   8.770  72.039  1.00  0.00    -0.443 C  
ENDBRANCH  12  13
BRANCH  10  17
HETATM   17  C   UNL     1      -7.530   3.682  70.297  1.00  0.00    -0.041 C  
HETATM   18  C   UNL     1      -7.145   3.204  71.713  1.00  0.00    -0.038 C  
HETATM   19  C   UNL     1      -8.469   2.574  69.731  1.00  0.00    -0.088 C  
HETATM   20  C   UNL     1      -6.293   3.688  69.376  1.00  0.00    -0.029 C  
ENDBRANCH  10  17
ENDBRANCH   4   5
ENDBRANCH   2   4
BRANCH   2  21
HETATM   21  S   UNL     1      -8.621   9.388  65.317  1.00  0.00    -0.173 SA 
BRANCH  21  22
HETATM   22  C   UNL     1      -9.006  11.102  65.669  1.00  0.00    -0.184 A  
HETATM   23  C   UNL     1      -8.314  11.881  66.598  1.00  0.00    -0.117 A  
HETATM   24  C   UNL     1     -10.154  11.626  65.095  1.00  0.00    -0.304 A  
HETATM   25  H   UNL     1      -9.848  15.365  67.443  1.00  0.00     0.000 HD 
HETATM   26  O   UNL     1     -10.344  14.869  66.802  1.00  0.00    -0.262 OA 
HETATM   27  C   UNL     1     -10.648  12.904  65.415  1.00  0.00    -0.308 A  
HETATM   28  C   UNL     1      -8.720  13.167  66.977  1.00  0.00    -0.193 A  
HETATM   29  C   UNL     1      -9.904  13.648  66.378  1.00  0.00    -0.296 A  
BRANCH  27  30
HETATM   30  C   UNL     1     -11.976  13.375  64.770  1.00  0.00    -0.429 C  
HETATM   31  C   UNL     1     -11.851  14.739  64.030  1.00  0.00    -0.095 C  
HETATM   32  C   UNL     1     -12.445  12.358  63.710  1.00  0.00    -0.593 C  
HETATM   33  C   UNL     1     -13.076  13.598  65.830  1.00  0.00    -0.053 C  
ENDBRANCH  27  30
BRANCH  28  34
HETATM   34  C   UNL     1      -7.864  13.987  67.984  1.00  0.00    -0.152 C  
HETATM   35  C   UNL     1      -8.681  14.613  69.154  1.00  0.00    -0.029 C  
HETATM   36  C   UNL     1      -7.152  15.175  67.299  1.00  0.00    -0.161 C  
HETATM   37  C   UNL     1      -6.821  13.065  68.652  1.00  0.00    -0.099 C  
ENDBRANCH  28  34
ENDBRANCH  21  22
ENDBRANCH   2  21
TORSDOF 8
ENDMDL
MODEL      182
REMARK 921   NORMALIZED FREE ENERGY PREDICTED BY IDOCK:   -4.15 KCAL/MOL
REMARK 922        TOTAL FREE ENERGY PREDICTED BY IDOCK:   -6.69 KCAL/MOL
REMARK 923 INTER-LIGAND FREE ENERGY PREDICTED BY IDOCK:   -6.99 KCAL/MOL
REMARK 924 INTRA-LIGAND FREE ENERGY PREDICTED BY IDOCK:    0.30 KCAL/MOL
REMARK 927      BINDING AFFINITY PREDICTED BY RF-SCORE:    0.00 PKD
ROOT
HETATM    1  C   UNL     1      -9.516   8.993  65.887  1.00  0.00    -0.317 C  
HETATM    2  C   UNL     1      -9.779   8.247  67.207  1.00  0.00    -0.177 C  
HETATM    3  C   UNL     1     -10.624   7.001  66.896  1.00  0.00    -0.372 C  
ENDROOT
BRANCH   2   4
HETATM    4  S   UNL     1     -10.757   9.347  68.322  1.00  0.00    -0.124 SA 
BRANCH   4   5
HETATM    5  C   UNL     1     -10.035  10.970  68.109  1.00  0.00    -0.177 A  
HETATM    6  C   UNL     1      -8.747  13.391  67.554  1.00  0.00    -0.205 A  
HETATM    7  O   UNL     1      -8.148  14.562  67.185  1.00  0.00    -0.225 OA 
HETATM    8  H   UNL     1      -8.616  15.222  66.688  1.00  0.00     0.000 HD 
HETATM    9  C   UNL     1      -8.727  11.185  68.532  1.00  0.00    -0.161 A  
HETATM   10  C   UNL     1     -10.073  13.215  67.104  1.00  0.00    -0.242 A  
HETATM   11  C   UNL     1     -10.677  11.999  67.431  1.00  0.00    -0.266 A  
HETATM   12  C   UNL     1      -8.045  12.401  68.300  1.00  0.00    -0.166 A  
BRANCH  12  13
HETATM   13  C   UNL     1      -6.596  12.562  68.826  1.00  0.00    -0.089 C  
HETATM   14  C   UNL     1      -5.593  12.736  67.662  1.00  0.00    -0.129 C  
HETATM   15  C   UNL     1      -6.198  11.357  69.703  1.00  0.00    -0.118 C  
HETATM   16  C   UNL     1      -6.395  13.824  69.714  1.00  0.00    -0.112 C  
ENDBRANCH  12  13
BRANCH  10  17
HETATM   17  C   UNL     1     -10.876  14.274  66.302  1.00  0.00    -0.310 C  
HETATM   18  C   UNL     1     -11.020  15.588  67.099  1.00  0.00    -0.295 C  
HETATM   19  C   UNL     1     -10.220  14.686  64.949  1.00  0.00    -0.322 C  
HETATM   20  C   UNL     1     -12.264  13.711  65.936  1.00  0.00    -0.502 C  
ENDBRANCH  10  17
ENDBRANCH   4   5
ENDBRANCH   2   4
BRANCH   2  21
HETATM   21  S   UNL     1      -8.154   7.682  67.874  1.00  0.00    -0.123 SA 
BRANCH  21  22
HETATM   22  C   UNL     1      -8.569   6.493  69.149  1.00  0.00    -0.129 A  
HETATM   23  C   UNL     1      -8.330   5.122  69.043  1.00  0.00    -0.087 A  
HETATM   24  C   UNL     1      -9.307   6.952  70.230  1.00  0.00    -0.162 A  
HETATM   25  H   UNL     1      -9.900   2.858  71.803  1.00  0.00     0.000 HD 
HETATM   26  O   UNL     1     -10.079   3.784  71.914  1.00  0.00    -0.179 OA 
HETATM   27  C   UNL     1      -9.826   6.091  71.214  1.00  0.00    -0.211 A  
HETATM   28  C   UNL     1      -8.797   4.187  69.976  1.00  0.00    -0.130 A  
HETATM   29  C   UNL     1      -9.558   4.701  71.047  1.00  0.00    -0.176 A  
BRANCH  27  30
HETATM   30  C   UNL     1     -10.696   6.693  72.347  1.00  0.00    -0.252 C  
HETATM   31  C   UNL     1     -10.350   6.125  73.756  1.00  0.00    -0.288 C  
HETATM   32  C   UNL     1     -10.477   8.216  72.438  1.00  0.00    -0.389 C  
HETATM   33  C   UNL     1     -12.193   6.372  72.147  1.00  0.00    -0.278 C  
ENDBRANCH  27  30
BRANCH  28  34
HETATM   34  C   UNL     1      -8.444   2.681  69.808  1.00  0.00    -0.095 C  
HETATM   35  C   UNL     1      -7.978   2.291  68.373  1.00  0.00    -0.064 C  
HETATM   36  C   UNL     1      -9.656   1.770  70.107  1.00  0.00    -0.086 C  
HETATM   37  C   UNL     1      -7.270   2.314  70.741  1.00  0.00    -0.033 C  
ENDBRANCH  28  34
ENDBRANCH  21  22
ENDBRANCH   2  21
TORSDOF 8
ENDMDL
MODEL      183
REMARK 921   NORMALIZED FREE ENERGY PREDICTED BY IDOCK:   -4.15 KCAL/MOL
REMARK 922        TOTAL FREE ENERGY PREDICTED BY IDOCK:   -6.68 KCAL/MOL
REMARK 923 INTER-LIGAND FREE ENERGY PREDICTED BY IDOCK:   -6.94 KCAL/MOL
REMARK 924 INTRA-LIGAND FREE ENERGY PREDICTED BY IDOCK:    0.26 KCAL/MOL
REMARK 927      BINDING AFFINITY PREDICTED BY RF-SCORE:    0.00 PKD
ROOT
HETATM    1  C   UNL     1     -10.460   7.467  70.669  1.00  0.00    -0.224 C  
HETATM    2  C   UNL     1     -10.138   7.920  69.234  1.00  0.00    -0.197 C  
HETATM    3  C   UNL     1      -8.644   7.670  68.974  1.00  0.00    -0.136 C  
ENDROOT
BRANCH   2   4
HETATM    4  S   UNL     1     -10.455   9.734  69.102  1.00  0.00    -0.225 SA 
BRANCH   4   5
HETATM    5  C   UNL     1     -10.222  10.112  67.367  1.00  0.00    -0.218 A  
HETATM    6  C   UNL     1      -9.690  10.931  64.746  1.00  0.00    -0.271 A  
HETATM    7  O   UNL     1      -9.331  11.328  63.490  1.00  0.00    -0.315 OA 
HETATM    8  H   UNL     1      -8.673  10.857  62.991  1.00  0.00     0.000 HD 
HETATM    9  C   UNL     1     -10.891  11.203  66.822  1.00  0.00    -0.322 A  
HETATM   10  C   UNL     1      -8.987   9.821  65.260  1.00  0.00    -0.233 A  
HETATM   11  C   UNL     1      -9.310   9.438  66.564  1.00  0.00    -0.222 A  
HETATM   12  C   UNL     1     -10.677  11.636  65.494  1.00  0.00    -0.333 A  
BRANCH  12  13
HETATM   13  C   UNL     1     -11.482  12.848  64.960  1.00  0.00    -0.350 C  
HETATM   14  C   UNL     1     -12.209  12.502  63.641  1.00  0.00    -0.642 C  
HETATM   15  C   UNL     1     -10.560  14.069  64.761  1.00  0.00    -0.441 C  
HETATM   16  C   UNL     1     -12.611  13.316  65.924  1.00  0.00    -0.349 C  
ENDBRANCH  12  13
BRANCH  10  17
HETATM   17  C   UNL     1      -7.917   9.018  64.473  1.00  0.00    -0.131 C  
HETATM   18  C   UNL     1      -7.493   7.748  65.241  1.00  0.00    -0.082 C  
HETATM   19  C   UNL     1      -8.393   8.513  63.078  1.00  0.00    -0.127 C  
HETATM   20  C   UNL     1      -6.692   9.912  64.195  1.00  0.00    -0.126 C  
ENDBRANCH  10  17
ENDBRANCH   4   5
ENDBRANCH   2   4
BRANCH   2  21
HETATM   21  S   UNL     1     -11.103   6.858  68.073  1.00  0.00    -0.023 SA 
BRANCH  21  22
HETATM   22  C   UNL     1     -10.044   5.449  67.750  1.00  0.00    -0.171 A  
HETATM   23  C   UNL     1      -9.740   4.981  66.470  1.00  0.00    -0.193 A  
HETATM   24  C   UNL     1      -9.635   4.698  68.841  1.00  0.00    -0.233 A  
HETATM   25  H   UNL     1      -7.867   1.567  66.262  1.00  0.00     0.000 HD 
HETATM   26  O   UNL     1      -8.048   1.855  67.149  1.00  0.00    -0.065 OA 
HETATM   27  C   UNL     1      -8.935   3.485  68.708  1.00  0.00    -0.184 A  
HETATM   28  C   UNL     1      -9.040   3.790  66.235  1.00  0.00    -0.152 A  
HETATM   29  C   UNL     1      -8.663   3.053  67.377  1.00  0.00    -0.120 A  
BRANCH  27  30
HETATM   30  C   UNL     1      -8.580   2.685  69.987  1.00  0.00    -0.108 C  
HETATM   31  C   UNL     1      -8.735   3.515  71.295  1.00  0.00    -0.121 C  
HETATM   32  C   UNL     1      -9.523   1.474  70.138  1.00  0.00    -0.152 C  
HETATM   33  C   UNL     1      -7.106   2.226  69.980  1.00  0.00    -0.033 C  
ENDBRANCH  27  30
BRANCH  28  34
HETATM   34  C   UNL     1      -8.701   3.364  64.777  1.00  0.00    -0.111 C  
HETATM   35  C   UNL     1      -9.244   4.336  63.687  1.00  0.00    -0.138 C  
HETATM   36  C   UNL     1      -9.296   1.982  64.429  1.00  0.00    -0.132 C  
HETATM   37  C   UNL     1      -7.169   3.339  64.586  1.00  0.00    -0.062 C  
ENDBRANCH  28  34
ENDBRANCH  21  22
ENDBRANCH   2  21
TORSDOF 8
ENDMDL
MODEL      184
REMARK 921   NORMALIZED FREE ENERGY PREDICTED BY IDOCK:   -4.15 KCAL/MOL
REMARK 922        TOTAL FREE ENERGY PREDICTED BY IDOCK:   -6.68 KCAL/MOL
REMARK 923 INTER-LIGAND FREE ENERGY PREDICTED BY IDOCK:   -6.70 KCAL/MOL
REMARK 924 INTRA-LIGAND FREE ENERGY PREDICTED BY IDOCK:    0.02 KCAL/MOL
REMARK 927      BINDING AFFINITY PREDICTED BY RF-SCORE:    0.00 PKD
ROOT
HETATM    1  C   UNL     1      -8.696  10.837  69.085  1.00  0.00    -0.101 C  
HETATM    2  C   UNL     1      -8.926   9.344  69.378  1.00  0.00    -0.157 C  
HETATM    3  C   UNL     1      -9.255   9.191  70.872  1.00  0.00    -0.326 C  
ENDROOT
BRANCH   2   4
HETATM    4  S   UNL     1      -7.363   8.425  69.032  1.00  0.00    -0.090 SA 
BRANCH   4   5
HETATM    5  C   UNL     1      -7.842   6.701  69.008  1.00  0.00    -0.111 A  
HETATM    6  C   UNL     1      -8.871   4.100  69.015  1.00  0.00    -0.098 A  
HETATM    7  O   UNL     1      -9.440   2.860  68.946  1.00  0.00    -0.172 OA 
HETATM    8  H   UNL     1      -9.575   2.422  68.114  1.00  0.00     0.000 HD 
HETATM    9  C   UNL     1      -8.173   6.079  70.207  1.00  0.00    -0.119 A  
HETATM   10  C   UNL     1      -8.552   4.694  67.775  1.00  0.00    -0.105 A  
HETATM   11  C   UNL     1      -8.018   5.983  67.830  1.00  0.00    -0.106 A  
HETATM   12  C   UNL     1      -8.669   4.756  70.263  1.00  0.00    -0.121 A  
BRANCH  12  13
HETATM   13  C   UNL     1      -8.991   4.133  71.644  1.00  0.00    -0.160 C  
HETATM   14  C   UNL     1     -10.517   4.030  71.871  1.00  0.00     0.007 C  
HETATM   15  C   UNL     1      -8.332   4.948  72.777  1.00  0.00    -0.112 C  
HETATM   16  C   UNL     1      -8.468   2.676  71.805  1.00  0.00    -0.084 C  
ENDBRANCH  12  13
BRANCH  10  17
HETATM   17  C   UNL     1      -8.743   4.007  66.397  1.00  0.00    -0.116 C  
HETATM   18  C   UNL     1     -10.114   4.359  65.781  1.00  0.00    -0.262 C  
HETATM   19  C   UNL     1      -7.694   4.423  65.322  1.00  0.00    -0.086 C  
HETATM   20  C   UNL     1      -8.599   2.479  66.549  1.00  0.00    -0.114 C  
ENDBRANCH  10  17
ENDBRANCH   4   5
ENDBRANCH   2   4
BRANCH   2  21
HETATM   21  S   UNL     1     -10.400   8.796  68.411  1.00  0.00    -0.184 SA 
BRANCH  21  22
HETATM   22  C   UNL     1     -10.140   9.455  66.765  1.00  0.00    -0.256 A  
HETATM   23  C   UNL     1      -9.185   8.965  65.871  1.00  0.00    -0.290 A  
HETATM   24  C   UNL     1     -10.824  10.613  66.429  1.00  0.00    -0.132 A  
HETATM   25  H   UNL     1      -8.590  11.055  62.634  1.00  0.00     0.000 HD 
HETATM   26  O   UNL     1      -9.251  11.417  63.212  1.00  0.00    -0.245 OA 
HETATM   27  C   UNL     1     -10.589  11.313  65.230  1.00  0.00    -0.323 A  
HETATM   28  C   UNL     1      -8.887   9.585  64.651  1.00  0.00    -0.250 A  
HETATM   29  C   UNL     1      -9.596  10.770  64.364  1.00  0.00    -0.279 A  
BRANCH  27  30
HETATM   30  C   UNL     1     -11.357  12.635  64.976  1.00  0.00    -0.345 C  
HETATM   31  C   UNL     1     -12.259  13.063  66.171  1.00  0.00    -0.428 C  
HETATM   32  C   UNL     1     -10.365  13.795  64.756  1.00  0.00    -0.422 C  
HETATM   33  C   UNL     1     -12.320  12.512  63.776  1.00  0.00    -0.595 C  
ENDBRANCH  27  30
BRANCH  28  34
HETATM   34  C   UNL     1      -7.842   8.945  63.691  1.00  0.00    -0.141 C  
HETATM   35  C   UNL     1      -7.185   7.643  64.240  1.00  0.00    -0.079 C  
HETATM   36  C   UNL     1      -6.668   9.905  63.398  1.00  0.00    -0.126 C  
HETATM   37  C   UNL     1      -8.530   8.539  62.370  1.00  0.00    -0.174 C  
ENDBRANCH  28  34
ENDBRANCH  21  22
ENDBRANCH   2  21
TORSDOF 8
ENDMDL
MODEL      185
REMARK 921   NORMALIZED FREE ENERGY PREDICTED BY IDOCK:   -4.13 KCAL/MOL
REMARK 922        TOTAL FREE ENERGY PREDICTED BY IDOCK:   -6.66 KCAL/MOL
REMARK 923 INTER-LIGAND FREE ENERGY PREDICTED BY IDOCK:   -7.35 KCAL/MOL
REMARK 924 INTRA-LIGAND FREE ENERGY PREDICTED BY IDOCK:    0.69 KCAL/MOL
REMARK 927      BINDING AFFINITY PREDICTED BY RF-SCORE:    0.00 PKD
ROOT
HETATM    1  C   UNL     1     -11.519   8.641  71.919  1.00  0.00    -0.419 C  
HETATM    2  C   UNL     1     -10.995   8.970  70.510  1.00  0.00    -0.252 C  
HETATM    3  C   UNL     1      -9.502   9.321  70.621  1.00  0.00    -0.333 C  
ENDROOT
BRANCH   2   4
HETATM    4  S   UNL     1     -11.893  10.453  69.877  1.00  0.00    -0.210 SA 
BRANCH   4   5
HETATM    5  C   UNL     1     -11.209  10.740  68.248  1.00  0.00    -0.297 A  
HETATM    6  C   UNL     1      -9.944  11.371  65.834  1.00  0.00    -0.234 A  
HETATM    7  O   UNL     1      -9.238  11.653  64.700  1.00  0.00    -0.416 OA 
HETATM    8  H   UNL     1      -8.616  11.033  64.336  1.00  0.00     0.000 HD 
HETATM    9  C   UNL     1     -11.469  11.949  67.613  1.00  0.00    -0.387 A  
HETATM   10  C   UNL     1      -9.648  10.134  66.445  1.00  0.00    -0.242 A  
HETATM   11  C   UNL     1     -10.327   9.858  67.634  1.00  0.00    -0.275 A  
HETATM   12  C   UNL     1     -10.877  12.300  66.379  1.00  0.00    -0.299 A  
BRANCH  12  13
HETATM   13  C   UNL     1     -11.240  13.660  65.730  1.00  0.00    -0.302 C  
HETATM   14  C   UNL     1     -12.342  14.388  66.534  1.00  0.00    -0.272 C  
HETATM   15  C   UNL     1     -11.684  13.464  64.266  1.00  0.00    -0.455 C  
HETATM   16  C   UNL     1     -10.052  14.665  65.688  1.00  0.00    -0.389 C  
ENDBRANCH  12  13
BRANCH  10  17
HETATM   17  C   UNL     1      -8.651   9.089  65.876  1.00  0.00    -0.172 C  
HETATM   18  C   UNL     1      -8.646   9.103  64.333  1.00  0.00    -0.204 C  
HETATM   19  C   UNL     1      -7.169   9.326  66.293  1.00  0.00    -0.088 C  
HETATM   20  C   UNL     1      -9.011   7.684  66.400  1.00  0.00    -0.198 C  
ENDBRANCH  10  17
ENDBRANCH   4   5
ENDBRANCH   2   4
BRANCH   2  21
HETATM   21  S   UNL     1     -11.147   7.448  69.477  1.00  0.00     0.004 SA 
BRANCH  21  22
HETATM   22  C   UNL     1     -10.033   6.266  70.234  1.00  0.00    -0.173 A  
HETATM   23  C   UNL     1     -10.384   5.437  71.302  1.00  0.00    -0.296 A  
HETATM   24  C   UNL     1      -8.707   6.294  69.830  1.00  0.00    -0.137 A  
HETATM   25  H   UNL     1      -7.490   3.438  72.985  1.00  0.00     0.000 HD 
HETATM   26  O   UNL     1      -7.212   3.984  72.258  1.00  0.00    -0.053 OA 
HETATM   27  C   UNL     1      -7.706   5.528  70.456  1.00  0.00    -0.093 A  
HETATM   28  C   UNL     1      -9.463   4.631  71.983  1.00  0.00    -0.191 A  
HETATM   29  C   UNL     1      -8.124   4.709  71.547  1.00  0.00    -0.102 A  
BRANCH  27  30
HETATM   30  C   UNL     1      -6.241   5.679  69.975  1.00  0.00    -0.026 C  
HETATM   31  C   UNL     1      -5.261   6.099  71.111  1.00  0.00    -0.018 C  
HETATM   32  C   UNL     1      -5.714   4.334  69.435  1.00  0.00    -0.017 C  
HETATM   33  C   UNL     1      -6.104   6.784  68.905  1.00  0.00    -0.026 C  
ENDBRANCH  27  30
BRANCH  28  34
HETATM   34  C   UNL     1      -9.947   3.700  73.132  1.00  0.00    -0.195 C  
HETATM   35  C   UNL     1      -9.069   3.766  74.418  1.00  0.00    -0.101 C  
HETATM   36  C   UNL     1      -9.943   2.215  72.708  1.00  0.00    -0.190 C  
HETATM   37  C   UNL     1     -11.366   4.115  73.576  1.00  0.00    -0.297 C  
ENDBRANCH  28  34
ENDBRANCH  21  22
ENDBRANCH   2  21
TORSDOF 8
ENDMDL
MODEL      186
REMARK 921   NORMALIZED FREE ENERGY PREDICTED BY IDOCK:   -4.11 KCAL/MOL
REMARK 922        TOTAL FREE ENERGY PREDICTED BY IDOCK:   -6.63 KCAL/MOL
REMARK 923 INTER-LIGAND FREE ENERGY PREDICTED BY IDOCK:   -6.38 KCAL/MOL
REMARK 924 INTRA-LIGAND FREE ENERGY PREDICTED BY IDOCK:   -0.25 KCAL/MOL
REMARK 927      BINDING AFFINITY PREDICTED BY RF-SCORE:    0.00 PKD
ROOT
HETATM    1  C   UNL     1      -8.761  10.981  68.820  1.00  0.00    -0.146 C  
HETATM    2  C   UNL     1      -9.004   9.491  69.120  1.00  0.00    -0.148 C  
HETATM    3  C   UNL     1      -9.352   9.352  70.611  1.00  0.00    -0.314 C  
ENDROOT
BRANCH   2   4
HETATM    4  S   UNL     1      -7.443   8.561  68.800  1.00  0.00    -0.094 SA 
BRANCH   4   5
HETATM    5  C   UNL     1      -7.932   6.839  68.789  1.00  0.00    -0.119 A  
HETATM    6  C   UNL     1      -8.413   4.084  68.712  1.00  0.00    -0.082 A  
HETATM    7  O   UNL     1      -8.572   2.728  68.743  1.00  0.00    -0.065 OA 
HETATM    8  H   UNL     1      -8.649   2.257  69.564  1.00  0.00     0.000 HD 
HETATM    9  C   UNL     1      -8.029   6.176  67.570  1.00  0.00    -0.106 A  
HETATM   10  C   UNL     1      -8.320   4.716  69.970  1.00  0.00    -0.075 A  
HETATM   11  C   UNL     1      -8.106   6.096  69.951  1.00  0.00    -0.119 A  
HETATM   12  C   UNL     1      -8.299   4.791  67.480  1.00  0.00    -0.104 A  
BRANCH  12  13
HETATM   13  C   UNL     1      -8.411   4.137  66.080  1.00  0.00    -0.109 C  
HETATM   14  C   UNL     1      -9.368   2.923  66.102  1.00  0.00    -0.053 C  
HETATM   15  C   UNL     1      -7.020   3.714  65.563  1.00  0.00    -0.061 C  
HETATM   16  C   UNL     1      -9.000   5.086  64.997  1.00  0.00    -0.131 C  
ENDBRANCH  12  13
BRANCH  10  17
HETATM   17  C   UNL     1      -8.454   3.985  71.333  1.00  0.00    -0.102 C  
HETATM   18  C   UNL     1      -8.669   4.987  72.487  1.00  0.00    -0.120 C  
HETATM   19  C   UNL     1      -9.660   3.001  71.415  1.00  0.00    -0.227 C  
HETATM   20  C   UNL     1      -7.200   3.127  71.592  1.00  0.00    -0.039 C  
ENDBRANCH  10  17
ENDBRANCH   4   5
ENDBRANCH   2   4
BRANCH   2  21
HETATM   21  S   UNL     1     -10.470   8.947  68.140  1.00  0.00    -0.169 SA 
BRANCH  21  22
HETATM   22  C   UNL     1     -10.180   9.580  66.489  1.00  0.00    -0.237 A  
HETATM   23  C   UNL     1      -9.229   9.056  65.610  1.00  0.00    -0.288 A  
HETATM   24  C   UNL     1     -10.833  10.750  66.133  1.00  0.00    -0.124 A  
HETATM   25  H   UNL     1      -8.555  11.094  62.355  1.00  0.00     0.000 HD 
HETATM   26  O   UNL     1      -9.213  11.479  62.922  1.00  0.00    -0.327 OA 
HETATM   27  C   UNL     1     -10.571  11.430  64.930  1.00  0.00    -0.368 A  
HETATM   28  C   UNL     1      -8.905   9.655  64.386  1.00  0.00    -0.263 A  
HETATM   29  C   UNL     1      -9.583  10.853  64.078  1.00  0.00    -0.278 A  
BRANCH  27  30
HETATM   30  C   UNL     1     -11.304  12.766  64.653  1.00  0.00    -0.362 C  
HETATM   31  C   UNL     1     -12.433  13.073  65.681  1.00  0.00    -0.452 C  
HETATM   32  C   UNL     1     -10.316  13.947  64.742  1.00  0.00    -0.419 C  
HETATM   33  C   UNL     1     -12.010  12.755  63.280  1.00  0.00    -0.522 C  
ENDBRANCH  27  30
BRANCH  28  34
HETATM   34  C   UNL     1      -7.867   8.980  63.443  1.00  0.00    -0.139 C  
HETATM   35  C   UNL     1      -6.962   9.985  62.669  1.00  0.00    -0.124 C  
HETATM   36  C   UNL     1      -8.551   8.122  62.356  1.00  0.00    -0.030 C  
HETATM   37  C   UNL     1      -6.903   8.105  64.272  1.00  0.00    -0.066 C  
ENDBRANCH  28  34
ENDBRANCH  21  22
ENDBRANCH   2  21
TORSDOF 8
ENDMDL
MODEL      187
REMARK 921   NORMALIZED FREE ENERGY PREDICTED BY IDOCK:   -4.10 KCAL/MOL
REMARK 922        TOTAL FREE ENERGY PREDICTED BY IDOCK:   -6.62 KCAL/MOL
REMARK 923 INTER-LIGAND FREE ENERGY PREDICTED BY IDOCK:   -5.96 KCAL/MOL
REMARK 924 INTRA-LIGAND FREE ENERGY PREDICTED BY IDOCK:   -0.66 KCAL/MOL
REMARK 927      BINDING AFFINITY PREDICTED BY RF-SCORE:    0.00 PKD
ROOT
HETATM    1  C   UNL     1     -11.162   6.385  72.575  1.00  0.00    -0.307 C  
HETATM    2  C   UNL     1     -11.299   7.602  71.643  1.00  0.00    -0.251 C  
HETATM    3  C   UNL     1     -12.420   8.502  72.187  1.00  0.00    -0.437 C  
ENDROOT
BRANCH   2   4
HETATM    4  S   UNL     1     -11.794   7.009  69.966  1.00  0.00     0.017 SA 
BRANCH   4   5
HETATM    5  C   UNL     1     -10.473   5.912  69.462  1.00  0.00    -0.278 A  
HETATM    6  C   UNL     1      -8.286   4.432  68.537  1.00  0.00    -0.084 A  
HETATM    7  O   UNL     1      -7.158   3.780  68.128  1.00  0.00    -0.050 OA 
HETATM    8  H   UNL     1      -6.448   3.593  68.730  1.00  0.00     0.000 HD 
HETATM    9  C   UNL     1     -10.421   5.486  68.139  1.00  0.00    -0.231 A  
HETATM   10  C   UNL     1      -8.296   4.845  69.886  1.00  0.00    -0.080 A  
HETATM   11  C   UNL     1      -9.423   5.558  70.302  1.00  0.00    -0.211 A  
HETATM   12  C   UNL     1      -9.351   4.712  67.633  1.00  0.00    -0.170 A  
BRANCH  12  13
HETATM   13  C   UNL     1      -9.385   4.262  66.150  1.00  0.00    -0.164 C  
HETATM   14  C   UNL     1      -9.157   2.739  66.021  1.00  0.00    -0.122 C  
HETATM   15  C   UNL     1      -8.337   5.035  65.323  1.00  0.00    -0.135 C  
HETATM   16  C   UNL     1     -10.753   4.518  65.455  1.00  0.00    -0.170 C  
ENDBRANCH  12  13
BRANCH  10  17
HETATM   17  C   UNL     1      -7.165   4.547  70.905  1.00  0.00    -0.041 C  
HETATM   18  C   UNL     1      -7.025   3.031  71.158  1.00  0.00    -0.032 C  
HETATM   19  C   UNL     1      -5.751   5.018  70.448  1.00  0.00    -0.016 C  
HETATM   20  C   UNL     1      -7.442   5.290  72.227  1.00  0.00    -0.095 C  
ENDBRANCH  10  17
ENDBRANCH   4   5
ENDBRANCH   2   4
BRANCH   2  21
HETATM   21  S   UNL     1      -9.719   8.553  71.715  1.00  0.00    -0.293 SA 
BRANCH  21  22
HETATM   22  C   UNL     1      -9.541   9.274  70.084  1.00  0.00    -0.220 A  
HETATM   23  C   UNL     1      -8.607   8.843  69.139  1.00  0.00    -0.134 A  
HETATM   24  C   UNL     1     -10.272  10.420  69.813  1.00  0.00    -0.228 A  
HETATM   25  H   UNL     1      -8.197  11.058  65.956  1.00  0.00     0.000 HD 
HETATM   26  O   UNL     1      -8.847  11.380  66.570  1.00  0.00    -0.176 OA 
HETATM   27  C   UNL     1     -10.104  11.166  68.632  1.00  0.00    -0.208 A  
HETATM   28  C   UNL     1      -8.373   9.513  67.931  1.00  0.00    -0.115 A  
HETATM   29  C   UNL     1      -9.128  10.684  67.711  1.00  0.00    -0.143 A  
BRANCH  27  30
HETATM   30  C   UNL     1     -10.919  12.472  68.451  1.00  0.00    -0.277 C  
HETATM   31  C   UNL     1     -11.896  12.755  69.631  1.00  0.00    -0.384 C  
HETATM   32  C   UNL     1      -9.974  13.688  68.381  1.00  0.00    -0.235 C  
HETATM   33  C   UNL     1     -11.819  12.412  67.197  1.00  0.00    -0.361 C  
ENDBRANCH  27  30
BRANCH  28  34
HETATM   34  C   UNL     1      -7.347   8.939  66.912  1.00  0.00    -0.083 C  
HETATM   35  C   UNL     1      -7.948   8.629  65.508  1.00  0.00    -0.108 C  
HETATM   36  C   UNL     1      -6.736   7.606  67.400  1.00  0.00    -0.068 C  
HETATM   37  C   UNL     1      -6.226   9.971  66.665  1.00  0.00    -0.069 C  
ENDBRANCH  28  34
ENDBRANCH  21  22
ENDBRANCH   2  21
TORSDOF 8
ENDMDL
MODEL      188
REMARK 921   NORMALIZED FREE ENERGY PREDICTED BY IDOCK:   -4.10 KCAL/MOL
REMARK 922        TOTAL FREE ENERGY PREDICTED BY IDOCK:   -6.61 KCAL/MOL
REMARK 923 INTER-LIGAND FREE ENERGY PREDICTED BY IDOCK:   -6.90 KCAL/MOL
REMARK 924 INTRA-LIGAND FREE ENERGY PREDICTED BY IDOCK:    0.29 KCAL/MOL
REMARK 927      BINDING AFFINITY PREDICTED BY RF-SCORE:    0.00 PKD
ROOT
HETATM    1  C   UNL     1     -11.110  10.455  70.546  1.00  0.00    -0.343 C  
HETATM    2  C   UNL     1     -10.915  11.304  69.277  1.00  0.00    -0.243 C  
HETATM    3  C   UNL     1      -9.406  11.449  69.022  1.00  0.00     0.036 C  
ENDROOT
BRANCH   2   4
HETATM    4  S   UNL     1     -11.616  12.985  69.578  1.00  0.00    -0.248 SA 
BRANCH   4   5
HETATM    5  C   UNL     1     -11.404  13.852  68.026  1.00  0.00    -0.288 A  
HETATM    6  C   UNL     1     -10.784  15.140  65.622  1.00  0.00    -0.363 A  
HETATM    7  O   UNL     1     -10.435  15.682  64.418  1.00  0.00    -0.599 OA 
HETATM    8  H   UNL     1     -10.618  15.233  63.600  1.00  0.00     0.000 HD 
HETATM    9  C   UNL     1     -10.815  15.112  68.035  1.00  0.00    -0.284 A  
HETATM   10  C   UNL     1     -11.378  13.861  65.566  1.00  0.00    -0.310 A  
HETATM   11  C   UNL     1     -11.691  13.275  66.794  1.00  0.00    -0.434 A  
HETATM   12  C   UNL     1     -10.510  15.814  66.847  1.00  0.00    -0.315 A  
BRANCH  12  13
HETATM   13  C   UNL     1      -9.874  17.223  66.949  1.00  0.00    -0.287 C  
HETATM   14  C   UNL     1      -9.846  17.721  68.412  1.00  0.00    -0.347 C  
HETATM   15  C   UNL     1     -10.628  18.228  66.053  1.00  0.00    -0.318 C  
HETATM   16  C   UNL     1      -8.388  17.269  66.488  1.00  0.00    -0.312 C  
ENDBRANCH  12  13
BRANCH  10  17
HETATM   17  C   UNL     1     -11.706  13.102  64.253  1.00  0.00    -0.447 C  
HETATM   18  C   UNL     1     -12.704  11.952  64.506  1.00  0.00     0.051 C  
HETATM   19  C   UNL     1     -12.368  13.983  63.151  1.00  0.00     0.595 C  
HETATM   20  C   UNL     1     -10.407  12.557  63.625  1.00  0.00    -0.382 C  
ENDBRANCH  10  17
ENDBRANCH   4   5
ENDBRANCH   2   4
BRANCH   2  21
HETATM   21  S   UNL     1     -11.648  10.380  67.857  1.00  0.00     0.442 SA 
BRANCH  21  22
HETATM   22  C   UNL     1     -10.394   9.188  67.389  1.00  0.00    -0.264 A  
HETATM   23  C   UNL     1      -9.601   9.301  66.245  1.00  0.00    -0.313 A  
HETATM   24  C   UNL     1     -10.324   8.017  68.127  1.00  0.00    -0.250 A  
HETATM   25  H   UNL     1      -7.412   6.207  65.328  1.00  0.00     0.000 HD 
HETATM   26  O   UNL     1      -7.931   6.094  66.116  1.00  0.00    -0.102 OA 
HETATM   27  C   UNL     1      -9.493   6.941  67.765  1.00  0.00    -0.128 A  
HETATM   28  C   UNL     1      -8.736   8.289  65.808  1.00  0.00    -0.196 A  
HETATM   29  C   UNL     1      -8.715   7.110  66.583  1.00  0.00    -0.128 A  
BRANCH  27  30
HETATM   30  C   UNL     1      -9.534   5.647  68.617  1.00  0.00    -0.152 C  
HETATM   31  C   UNL     1      -8.228   5.403  69.430  1.00  0.00    -0.096 C  
HETATM   32  C   UNL     1     -10.672   5.726  69.655  1.00  0.00    -0.416 C  
HETATM   33  C   UNL     1      -9.694   4.389  67.735  1.00  0.00    -0.191 C  
ENDBRANCH  27  30
BRANCH  28  34
HETATM   34  C   UNL     1      -7.851   8.515  64.549  1.00  0.00    -0.138 C  
HETATM   35  C   UNL     1      -8.402   7.845  63.254  1.00  0.00     0.059 C  
HETATM   36  C   UNL     1      -6.430   7.940  64.735  1.00  0.00    -0.048 C  
HETATM   37  C   UNL     1      -7.769  10.024  64.234  1.00  0.00    -0.141 C  
ENDBRANCH  28  34
ENDBRANCH  21  22
ENDBRANCH   2  21
TORSDOF 8
ENDMDL
MODEL      189
REMARK 921   NORMALIZED FREE ENERGY PREDICTED BY IDOCK:   -4.09 KCAL/MOL
REMARK 922        TOTAL FREE ENERGY PREDICTED BY IDOCK:   -6.60 KCAL/MOL
REMARK 923 INTER-LIGAND FREE ENERGY PREDICTED BY IDOCK:   -8.49 KCAL/MOL
REMARK 924 INTRA-LIGAND FREE ENERGY PREDICTED BY IDOCK:    1.89 KCAL/MOL
REMARK 927      BINDING AFFINITY PREDICTED BY RF-SCORE:    0.00 PKD
ROOT
HETATM    1  C   UNL     1     -12.543   9.844  71.234  1.00  0.00    -0.480 C  
HETATM    2  C   UNL     1     -11.377   8.983  70.717  1.00  0.00    -0.277 C  
HETATM    3  C   UNL     1     -10.119   9.339  71.526  1.00  0.00    -0.306 C  
ENDROOT
BRANCH   2   4
HETATM    4  S   UNL     1     -11.067   9.410  68.947  1.00  0.00     0.125 SA 
BRANCH   4   5
HETATM    5  C   UNL     1     -11.327  11.178  68.853  1.00  0.00    -0.278 A  
HETATM    6  C   UNL     1     -11.993  13.881  68.571  1.00  0.00    -0.359 A  
HETATM    7  O   UNL     1     -12.407  15.179  68.480  1.00  0.00    -0.572 OA 
HETATM    8  H   UNL     1     -12.751  15.644  69.234  1.00  0.00     0.000 HD 
HETATM    9  C   UNL     1     -11.181  11.814  67.625  1.00  0.00    -0.345 A  
HETATM   10  C   UNL     1     -12.159  13.275  69.835  1.00  0.00    -0.377 A  
HETATM   11  C   UNL     1     -11.788  11.932  69.927  1.00  0.00    -0.418 A  
HETATM   12  C   UNL     1     -11.477  13.184  67.441  1.00  0.00    -0.375 A  
BRANCH  12  13
HETATM   13  C   UNL     1     -11.264  13.818  66.043  1.00  0.00    -0.307 C  
HETATM   14  C   UNL     1     -12.591  13.892  65.252  1.00  0.00    -0.508 C  
HETATM   15  C   UNL     1     -10.205  13.030  65.243  1.00  0.00    -0.294 C  
HETATM   16  C   UNL     1     -10.754  15.287  66.098  1.00  0.00    -0.322 C  
ENDBRANCH  12  13
BRANCH  10  17
HETATM   17  C   UNL     1     -12.703  14.003  71.093  1.00  0.00    -0.436 C  
HETATM   18  C   UNL     1     -13.728  15.092  70.711  1.00  0.00    -0.197 C  
HETATM   19  C   UNL     1     -13.448  13.074  72.099  1.00  0.00    -0.638 C  
HETATM   20  C   UNL     1     -11.534  14.619  71.887  1.00  0.00     0.099 C  
ENDBRANCH  10  17
ENDBRANCH   4   5
ENDBRANCH   2   4
BRANCH   2  21
HETATM   21  S   UNL     1     -11.786   7.214  71.047  1.00  0.00    -0.341 SA 
BRANCH  21  22
HETATM   22  C   UNL     1     -10.358   6.297  70.474  1.00  0.00    -0.204 A  
HETATM   23  C   UNL     1     -10.316   5.595  69.267  1.00  0.00    -0.340 A  
HETATM   24  C   UNL     1      -9.297   6.156  71.356  1.00  0.00    -0.163 A  
HETATM   25  H   UNL     1      -7.221   3.292  68.695  1.00  0.00     0.000 HD 
HETATM   26  O   UNL     1      -7.209   3.758  69.524  1.00  0.00    -0.045 OA 
HETATM   27  C   UNL     1      -8.189   5.332  71.085  1.00  0.00    -0.118 A  
HETATM   28  C   UNL     1      -9.253   4.757  68.903  1.00  0.00    -0.172 A  
HETATM   29  C   UNL     1      -8.208   4.633  69.842  1.00  0.00    -0.067 A  
BRANCH  27  30
HETATM   30  C   UNL     1      -7.085   5.187  72.163  1.00  0.00    -0.083 C  
HETATM   31  C   UNL     1      -5.658   5.510  71.630  1.00  0.00    -0.017 C  
HETATM   32  C   UNL     1      -7.338   6.172  73.322  1.00  0.00    -0.088 C  
HETATM   33  C   UNL     1      -6.993   3.740  72.693  1.00  0.00    -0.044 C  
ENDBRANCH  27  30
BRANCH  28  34
HETATM   34  C   UNL     1      -9.263   4.049  67.518  1.00  0.00    -0.194 C  
HETATM   35  C   UNL     1      -8.011   4.349  66.640  1.00  0.00    -0.099 C  
HETATM   36  C   UNL     1     -10.476   4.476  66.663  1.00  0.00    -0.009 C  
HETATM   37  C   UNL     1      -9.274   2.518  67.717  1.00  0.00    -0.240 C  
ENDBRANCH  28  34
ENDBRANCH  21  22
ENDBRANCH   2  21
TORSDOF 8
ENDMDL
MODEL      190
REMARK 921   NORMALIZED FREE ENERGY PREDICTED BY IDOCK:   -4.08 KCAL/MOL
REMARK 922        TOTAL FREE ENERGY PREDICTED BY IDOCK:   -6.58 KCAL/MOL
REMARK 923 INTER-LIGAND FREE ENERGY PREDICTED BY IDOCK:   -6.74 KCAL/MOL
REMARK 924 INTRA-LIGAND FREE ENERGY PREDICTED BY IDOCK:    0.16 KCAL/MOL
REMARK 927      BINDING AFFINITY PREDICTED BY RF-SCORE:    0.00 PKD
ROOT
HETATM    1  C   UNL     1     -10.356  12.929  68.787  1.00  0.00    -0.143 C  
HETATM    2  C   UNL     1      -9.685  12.145  67.645  1.00  0.00    -0.188 C  
HETATM    3  C   UNL     1      -9.031  13.153  66.687  1.00  0.00    -0.135 C  
ENDROOT
BRANCH   2   4
HETATM    4  S   UNL     1     -10.987  11.224  66.716  1.00  0.00    -0.252 SA 
BRANCH   4   5
HETATM    5  C   UNL     1     -10.202   9.691  66.228  1.00  0.00    -0.216 A  
HETATM    6  C   UNL     1      -8.727   7.400  65.594  1.00  0.00    -0.075 A  
HETATM    7  O   UNL     1      -7.982   6.275  65.384  1.00  0.00    -0.104 OA 
HETATM    8  H   UNL     1      -8.095   5.499  65.919  1.00  0.00     0.000 HD 
HETATM    9  C   UNL     1      -9.304   9.704  65.166  1.00  0.00    -0.322 A  
HETATM   10  C   UNL     1      -9.625   7.343  66.681  1.00  0.00    -0.251 A  
HETATM   11  C   UNL     1     -10.355   8.505  66.938  1.00  0.00    -0.367 A  
HETATM   12  C   UNL     1      -8.558   8.564  64.790  1.00  0.00    -0.106 A  
BRANCH  12  13
HETATM   13  C   UNL     1      -7.595   8.662  63.580  1.00  0.00    -0.124 C  
HETATM   14  C   UNL     1      -6.135   8.378  64.000  1.00  0.00    -0.067 C  
HETATM   15  C   UNL     1      -7.703  10.048  62.909  1.00  0.00    -0.137 C  
HETATM   16  C   UNL     1      -7.895   7.621  62.463  1.00  0.00    -0.130 C  
ENDBRANCH  12  13
BRANCH  10  17
HETATM   17  C   UNL     1      -9.849   6.091  67.570  1.00  0.00    -0.138 C  
HETATM   18  C   UNL     1     -10.921   6.354  68.649  1.00  0.00    -0.404 C  
HETATM   19  C   UNL     1     -10.348   4.835  66.794  1.00  0.00    -0.229 C  
HETATM   20  C   UNL     1      -8.518   5.671  68.227  1.00  0.00    -0.105 C  
ENDBRANCH  10  17
ENDBRANCH   4   5
ENDBRANCH   2   4
BRANCH   2  21
HETATM   21  S   UNL     1      -8.347  11.106  68.379  1.00  0.00    -0.155 SA 
BRANCH  21  22
HETATM   22  C   UNL     1      -9.108  10.309  69.792  1.00  0.00    -0.057 A  
HETATM   23  C   UNL     1      -8.472   9.345  70.578  1.00  0.00    -0.251 A  
HETATM   24  C   UNL     1     -10.454  10.557  70.014  1.00  0.00    -0.163 A  
HETATM   25  H   UNL     1     -10.691   7.482  73.188  1.00  0.00     0.000 HD 
HETATM   26  O   UNL     1     -11.158   8.134  72.679  1.00  0.00    -0.365 OA 
HETATM   27  C   UNL     1     -11.201   9.874  70.991  1.00  0.00    -0.435 A  
HETATM   28  C   UNL     1      -9.128   8.619  71.582  1.00  0.00    -0.318 A  
HETATM   29  C   UNL     1     -10.500   8.895  71.755  1.00  0.00    -0.360 A  
BRANCH  27  30
HETATM   30  C   UNL     1     -12.716  10.174  71.117  1.00  0.00    -0.494 C  
HETATM   31  C   UNL     1     -13.040  11.278  72.167  1.00  0.00    -0.272 C  
HETATM   32  C   UNL     1     -13.272  10.689  69.774  1.00  0.00     0.703 C  
HETATM   33  C   UNL     1     -13.505   8.934  71.589  1.00  0.00    -0.427 C  
ENDBRANCH  27  30
BRANCH  28  34
HETATM   34  C   UNL     1      -8.333   7.597  72.445  1.00  0.00    -0.147 C  
HETATM   35  C   UNL     1      -8.468   7.820  73.981  1.00  0.00    -0.304 C  
HETATM   36  C   UNL     1      -6.817   7.655  72.154  1.00  0.00    -0.061 C  
HETATM   37  C   UNL     1      -8.864   6.171  72.183  1.00  0.00    -0.138 C  
ENDBRANCH  28  34
ENDBRANCH  21  22
ENDBRANCH   2  21
TORSDOF 8
ENDMDL
MODEL      191
REMARK 921   NORMALIZED FREE ENERGY PREDICTED BY IDOCK:   -4.07 KCAL/MOL
REMARK 922        TOTAL FREE ENERGY PREDICTED BY IDOCK:   -6.57 KCAL/MOL
REMARK 923 INTER-LIGAND FREE ENERGY PREDICTED BY IDOCK:   -6.22 KCAL/MOL
REMARK 924 INTRA-LIGAND FREE ENERGY PREDICTED BY IDOCK:   -0.35 KCAL/MOL
REMARK 927      BINDING AFFINITY PREDICTED BY RF-SCORE:    0.00 PKD
ROOT
HETATM    1  C   UNL     1      -6.840  10.111  67.059  1.00  0.00    -0.083 C  
HETATM    2  C   UNL     1      -6.978   8.805  67.862  1.00  0.00    -0.078 C  
HETATM    3  C   UNL     1      -5.740   7.937  67.585  1.00  0.00    -0.038 C  
ENDROOT
BRANCH   2   4
HETATM    4  S   UNL     1      -8.469   7.897  67.262  1.00  0.00    -0.122 SA 
BRANCH   4   5
HETATM    5  C   UNL     1      -8.259   6.226  67.867  1.00  0.00    -0.114 A  
HETATM    6  C   UNL     1      -8.228   3.603  68.839  1.00  0.00    -0.064 A  
HETATM    7  O   UNL     1      -8.279   2.298  69.240  1.00  0.00    -0.047 OA 
HETATM    8  H   UNL     1      -8.169   1.585  68.621  1.00  0.00     0.000 HD 
HETATM    9  C   UNL     1      -8.429   5.977  69.225  1.00  0.00    -0.115 A  
HETATM   10  C   UNL     1      -8.054   3.809  67.454  1.00  0.00    -0.090 A  
HETATM   11  C   UNL     1      -8.052   5.139  67.026  1.00  0.00    -0.104 A  
HETATM   12  C   UNL     1      -8.392   4.672  69.767  1.00  0.00    -0.081 A  
BRANCH  12  13
HETATM   13  C   UNL     1      -8.569   4.487  71.295  1.00  0.00    -0.128 C  
HETATM   14  C   UNL     1     -10.020   4.087  71.648  1.00  0.00    -0.232 C  
HETATM   15  C   UNL     1      -8.167   5.772  72.049  1.00  0.00    -0.112 C  
HETATM   16  C   UNL     1      -7.690   3.349  71.889  1.00  0.00    -0.057 C  
ENDBRANCH  12  13
BRANCH  10  17
HETATM   17  C   UNL     1      -7.857   2.674  66.414  1.00  0.00    -0.077 C  
HETATM   18  C   UNL     1      -7.636   3.245  64.997  1.00  0.00    -0.077 C  
HETATM   19  C   UNL     1      -6.621   1.764  66.687  1.00  0.00    -0.031 C  
HETATM   20  C   UNL     1      -9.077   1.732  66.431  1.00  0.00    -0.045 C  
ENDBRANCH  10  17
ENDBRANCH   4   5
ENDBRANCH   2   4
BRANCH   2  21
HETATM   21  S   UNL     1      -6.980   9.239  69.656  1.00  0.00    -0.060 SA 
BRANCH  21  22
HETATM   22  C   UNL     1      -8.679   9.679  70.020  1.00  0.00    -0.231 A  
HETATM   23  C   UNL     1      -9.551   8.874  70.756  1.00  0.00    -0.283 A  
HETATM   24  C   UNL     1      -9.188  10.810  69.402  1.00  0.00    -0.003 A  
HETATM   25  H   UNL     1     -13.294   9.964  70.820  1.00  0.00     0.000 HD 
HETATM   26  O   UNL     1     -12.733  10.541  70.316  1.00  0.00    -0.310 OA 
HETATM   27  C   UNL     1     -10.546  11.173  69.482  1.00  0.00    -0.137 A  
HETATM   28  C   UNL     1     -10.916   9.156  70.902  1.00  0.00    -0.349 A  
HETATM   29  C   UNL     1     -11.389  10.307  70.239  1.00  0.00    -0.323 A  
BRANCH  27  30
HETATM   30  C   UNL     1     -11.033  12.419  68.700  1.00  0.00    -0.283 C  
HETATM   31  C   UNL     1      -9.868  13.290  68.144  1.00  0.00    -0.231 C  
HETATM   32  C   UNL     1     -11.865  11.990  67.475  1.00  0.00    -0.275 C  
HETATM   33  C   UNL     1     -11.847  13.374  69.601  1.00  0.00    -0.394 C  
ENDBRANCH  27  30
BRANCH  28  34
HETATM   34  C   UNL     1     -11.809   8.232  71.780  1.00  0.00    -0.357 C  
HETATM   35  C   UNL     1     -11.059   7.566  72.972  1.00  0.00    -0.413 C  
HETATM   36  C   UNL     1     -12.402   7.063  70.964  1.00  0.00    -0.402 C  
HETATM   37  C   UNL     1     -12.947   9.060  72.415  1.00  0.00    -0.471 C  
ENDBRANCH  28  34
ENDBRANCH  21  22
ENDBRANCH   2  21
TORSDOF 8
ENDMDL
MODEL      192
REMARK 921   NORMALIZED FREE ENERGY PREDICTED BY IDOCK:   -4.07 KCAL/MOL
REMARK 922        TOTAL FREE ENERGY PREDICTED BY IDOCK:   -6.57 KCAL/MOL
REMARK 923 INTER-LIGAND FREE ENERGY PREDICTED BY IDOCK:   -6.76 KCAL/MOL
REMARK 924 INTRA-LIGAND FREE ENERGY PREDICTED BY IDOCK:    0.19 KCAL/MOL
REMARK 927      BINDING AFFINITY PREDICTED BY RF-SCORE:    0.00 PKD
ROOT
HETATM    1  C   UNL     1     -11.848   8.444  71.544  1.00  0.00    -0.345 C  
HETATM    2  C   UNL     1     -10.872   8.985  70.484  1.00  0.00    -0.251 C  
HETATM    3  C   UNL     1      -9.469   9.051  71.109  1.00  0.00    -0.348 C  
ENDROOT
BRANCH   2   4
HETATM    4  S   UNL     1     -11.385  10.699  70.029  1.00  0.00    -0.334 SA 
BRANCH   4   5
HETATM    5  C   UNL     1     -10.498  11.054  68.516  1.00  0.00    -0.189 A  
HETATM    6  C   UNL     1      -9.172  11.330  66.068  1.00  0.00    -0.208 A  
HETATM    7  O   UNL     1      -8.610  11.431  64.827  1.00  0.00    -0.360 OA 
HETATM    8  H   UNL     1      -9.054  11.882  64.118  1.00  0.00     0.000 HD 
HETATM    9  C   UNL     1      -9.227  10.516  68.339  1.00  0.00    -0.154 A  
HETATM   10  C   UNL     1     -10.460  11.889  66.202  1.00  0.00    -0.272 A  
HETATM   11  C   UNL     1     -11.066  11.746  67.452  1.00  0.00    -0.338 A  
HETATM   12  C   UNL     1      -8.507  10.654  67.131  1.00  0.00    -0.128 A  
BRANCH  12  13
HETATM   13  C   UNL     1      -7.087  10.041  67.029  1.00  0.00    -0.089 C  
HETATM   14  C   UNL     1      -6.744   9.207  68.284  1.00  0.00    -0.060 C  
HETATM   15  C   UNL     1      -6.031  11.145  66.812  1.00  0.00    -0.116 C  
HETATM   16  C   UNL     1      -6.923   9.051  65.839  1.00  0.00    -0.088 C  
ENDBRANCH  12  13
BRANCH  10  17
HETATM   17  C   UNL     1     -11.211  12.645  65.073  1.00  0.00    -0.331 C  
HETATM   18  C   UNL     1     -11.536  11.707  63.891  1.00  0.00    -0.433 C  
HETATM   19  C   UNL     1     -12.582  13.246  65.507  1.00  0.00    -0.505 C  
HETATM   20  C   UNL     1     -10.367  13.843  64.594  1.00  0.00    -0.366 C  
ENDBRANCH  10  17
ENDBRANCH   4   5
ENDBRANCH   2   4
BRANCH   2  21
HETATM   21  S   UNL     1     -10.819   7.776  69.090  1.00  0.00     0.031 SA 
BRANCH  21  22
HETATM   22  C   UNL     1      -9.692   6.494  69.637  1.00  0.00    -0.156 A  
HETATM   23  C   UNL     1      -8.583   6.067  68.903  1.00  0.00    -0.116 A  
HETATM   24  C   UNL     1     -10.038   5.789  70.779  1.00  0.00    -0.260 A  
HETATM   25  H   UNL     1      -6.748   2.884  70.208  1.00  0.00     0.000 HD 
HETATM   26  O   UNL     1      -7.492   3.146  70.738  1.00  0.00    -0.037 OA 
HETATM   27  C   UNL     1      -9.321   4.661  71.221  1.00  0.00    -0.205 A  
HETATM   28  C   UNL     1      -7.801   4.963  69.267  1.00  0.00    -0.075 A  
HETATM   29  C   UNL     1      -8.205   4.267  70.426  1.00  0.00    -0.065 A  
BRANCH  27  30
HETATM   30  C   UNL     1      -9.827   3.899  72.473  1.00  0.00    -0.216 C  
HETATM   31  C   UNL     1     -10.159   2.404  72.191  1.00  0.00    -0.220 C  
HETATM   32  C   UNL     1      -8.743   3.894  73.569  1.00  0.00    -0.090 C  
HETATM   33  C   UNL     1     -11.141   4.502  73.014  1.00  0.00    -0.298 C  
ENDBRANCH  27  30
BRANCH  28  34
HETATM   34  C   UNL     1      -6.553   4.583  68.420  1.00  0.00    -0.046 C  
HETATM   35  C   UNL     1      -6.611   3.153  67.804  1.00  0.00    -0.037 C  
HETATM   36  C   UNL     1      -5.257   4.615  69.260  1.00  0.00    -0.004 C  
HETATM   37  C   UNL     1      -6.425   5.547  67.220  1.00  0.00    -0.048 C  
ENDBRANCH  28  34
ENDBRANCH  21  22
ENDBRANCH   2  21
TORSDOF 8
ENDMDL
MODEL      193
REMARK 921   NORMALIZED FREE ENERGY PREDICTED BY IDOCK:   -4.06 KCAL/MOL
REMARK 922        TOTAL FREE ENERGY PREDICTED BY IDOCK:   -6.56 KCAL/MOL
REMARK 923 INTER-LIGAND FREE ENERGY PREDICTED BY IDOCK:   -5.93 KCAL/MOL
REMARK 924 INTRA-LIGAND FREE ENERGY PREDICTED BY IDOCK:   -0.63 KCAL/MOL
REMARK 927      BINDING AFFINITY PREDICTED BY RF-SCORE:    0.00 PKD
ROOT
HETATM    1  C   UNL     1     -11.017   6.126  66.950  1.00  0.00    -0.384 C  
HETATM    2  C   UNL     1      -9.957   5.092  66.532  1.00  0.00    -0.224 C  
HETATM    3  C   UNL     1     -10.412   4.441  65.216  1.00  0.00    -0.204 C  
ENDROOT
BRANCH   2   4
HETATM    4  S   UNL     1      -9.870   3.779  67.827  1.00  0.00     0.178 SA 
BRANCH   4   5
HETATM    5  C   UNL     1      -9.646   4.669  69.364  1.00  0.00    -0.187 A  
HETATM    6  C   UNL     1      -9.524   5.903  71.872  1.00  0.00    -0.151 A  
HETATM    7  O   UNL     1      -9.460   6.411  73.138  1.00  0.00    -0.138 OA 
HETATM    8  H   UNL     1      -8.796   6.123  73.754  1.00  0.00     0.000 HD 
HETATM    9  C   UNL     1     -10.557   5.663  69.704  1.00  0.00    -0.401 A  
HETATM   10  C   UNL     1      -8.580   4.897  71.570  1.00  0.00    -0.129 A  
HETATM   11  C   UNL     1      -8.670   4.334  70.295  1.00  0.00    -0.118 A  
HETATM   12  C   UNL     1     -10.518   6.335  70.947  1.00  0.00    -0.274 A  
BRANCH  12  13
HETATM   13  C   UNL     1     -11.560   7.445  71.235  1.00  0.00    -0.306 C  
HETATM   14  C   UNL     1     -13.003   6.900  71.136  1.00  0.00    -0.248 C  
HETATM   15  C   UNL     1     -11.367   8.635  70.272  1.00  0.00    -0.146 C  
HETATM   16  C   UNL     1     -11.457   8.036  72.671  1.00  0.00    -0.465 C  
ENDBRANCH  12  13
BRANCH  10  17
HETATM   17  C   UNL     1      -7.474   4.410  72.543  1.00  0.00    -0.078 C  
HETATM   18  C   UNL     1      -8.056   3.490  73.637  1.00  0.00    -0.079 C  
HETATM   19  C   UNL     1      -6.345   3.577  71.864  1.00  0.00    -0.015 C  
HETATM   20  C   UNL     1      -6.767   5.623  73.181  1.00  0.00    -0.074 C  
ENDBRANCH  10  17
ENDBRANCH   4   5
ENDBRANCH   2   4
BRANCH   2  21
HETATM   21  S   UNL     1      -8.380   5.994  66.207  1.00  0.00    -0.127 SA 
BRANCH  21  22
HETATM   22  C   UNL     1      -8.554   7.551  67.076  1.00  0.00    -0.122 A  
HETATM   23  C   UNL     1      -9.226   8.661  66.560  1.00  0.00    -0.236 A  
HETATM   24  C   UNL     1      -7.846   7.701  68.259  1.00  0.00    -0.121 A  
HETATM   25  H   UNL     1      -8.870  11.997  68.547  1.00  0.00     0.000 HD 
HETATM   26  O   UNL     1      -8.404  11.265  68.934  1.00  0.00    -0.143 OA 
HETATM   27  C   UNL     1      -7.775   8.924  68.951  1.00  0.00    -0.095 A  
HETATM   28  C   UNL     1      -9.223   9.917  67.180  1.00  0.00    -0.158 A  
HETATM   29  C   UNL     1      -8.473  10.023  68.370  1.00  0.00    -0.112 A  
BRANCH  27  30
HETATM   30  C   UNL     1      -6.902   9.008  70.229  1.00  0.00    -0.049 C  
HETATM   31  C   UNL     1      -5.986   7.765  70.432  1.00  0.00    -0.030 C  
HETATM   32  C   UNL     1      -5.957  10.224  70.153  1.00  0.00    -0.076 C  
HETATM   33  C   UNL     1      -7.768   9.075  71.506  1.00  0.00    -0.034 C  
ENDBRANCH  27  30
BRANCH  28  34
HETATM   34  C   UNL     1     -10.038  11.090  66.562  1.00  0.00    -0.270 C  
HETATM   35  C   UNL     1      -9.274  12.447  66.524  1.00  0.00    -0.215 C  
HETATM   36  C   UNL     1     -11.333  11.370  67.357  1.00  0.00    -0.359 C  
HETATM   37  C   UNL     1     -10.384  10.766  65.093  1.00  0.00    -0.341 C  
ENDBRANCH  28  34
ENDBRANCH  21  22
ENDBRANCH   2  21
TORSDOF 8
ENDMDL
MODEL      194
REMARK 921   NORMALIZED FREE ENERGY PREDICTED BY IDOCK:   -4.05 KCAL/MOL
REMARK 922        TOTAL FREE ENERGY PREDICTED BY IDOCK:   -6.54 KCAL/MOL
REMARK 923 INTER-LIGAND FREE ENERGY PREDICTED BY IDOCK:   -8.63 KCAL/MOL
REMARK 924 INTRA-LIGAND FREE ENERGY PREDICTED BY IDOCK:    2.09 KCAL/MOL
REMARK 927      BINDING AFFINITY PREDICTED BY RF-SCORE:    0.00 PKD
ROOT
HETATM    1  C   UNL     1      -8.721  10.623  68.164  1.00  0.00    -0.130 C  
HETATM    2  C   UNL     1      -9.295   9.428  68.947  1.00  0.00    -0.154 C  
HETATM    3  C   UNL     1      -8.720   9.466  70.372  1.00  0.00    -0.278 C  
ENDROOT
BRANCH   2   4
HETATM    4  S   UNL     1      -8.735   7.867  68.136  1.00  0.00    -0.125 SA 
BRANCH   4   5
HETATM    5  C   UNL     1      -9.339   6.560  69.200  1.00  0.00    -0.133 A  
HETATM    6  C   UNL     1     -10.008   4.505  70.976  1.00  0.00    -0.187 A  
HETATM    7  O   UNL     1     -10.298   3.561  71.919  1.00  0.00    -0.085 OA 
HETATM    8  H   UNL     1     -10.769   3.782  72.714  1.00  0.00     0.000 HD 
HETATM    9  C   UNL     1      -8.963   5.248  68.931  1.00  0.00    -0.120 A  
HETATM   10  C   UNL     1     -10.408   5.822  71.289  1.00  0.00    -0.281 A  
HETATM   11  C   UNL     1     -10.071   6.805  70.356  1.00  0.00    -0.200 A  
HETATM   12  C   UNL     1      -9.302   4.173  69.784  1.00  0.00    -0.237 A  
BRANCH  12  13
HETATM   13  C   UNL     1      -8.861   2.739  69.397  1.00  0.00    -0.152 C  
HETATM   14  C   UNL     1      -9.181   2.433  67.916  1.00  0.00    -0.248 C  
HETATM   15  C   UNL     1      -9.528   1.696  70.318  1.00  0.00    -0.147 C  
HETATM   16  C   UNL     1      -7.327   2.506  69.527  1.00  0.00    -0.044 C  
ENDBRANCH  12  13
BRANCH  10  17
HETATM   17  C   UNL     1     -11.190   6.222  72.568  1.00  0.00    -0.316 C  
HETATM   18  C   UNL     1     -12.462   5.365  72.737  1.00  0.00     0.355 C  
HETATM   19  C   UNL     1     -10.391   6.035  73.893  1.00  0.00    -0.293 C  
HETATM   20  C   UNL     1     -11.555   7.719  72.512  1.00  0.00    -0.422 C  
ENDBRANCH  10  17
ENDBRANCH   4   5
ENDBRANCH   2   4
BRANCH   2  21
HETATM   21  S   UNL     1     -11.123   9.652  69.064  1.00  0.00     0.003 SA 
BRANCH  21  22
HETATM   22  C   UNL     1     -11.369  11.426  69.086  1.00  0.00    -0.288 A  
HETATM   23  C   UNL     1     -11.905  12.125  70.170  1.00  0.00    -0.368 A  
HETATM   24  C   UNL     1     -11.157  12.112  67.900  1.00  0.00    -0.295 A  
HETATM   25  H   UNL     1     -12.779  15.877  69.566  1.00  0.00     0.000 HD 
HETATM   26  O   UNL     1     -12.411  15.439  68.808  1.00  0.00    -0.117 OA 
HETATM   27  C   UNL     1     -11.464  13.476  67.746  1.00  0.00    -0.349 A  
HETATM   28  C   UNL     1     -12.235  13.486  70.118  1.00  0.00    -0.400 A  
HETATM   29  C   UNL     1     -12.018  14.134  68.884  1.00  0.00    -0.341 A  
BRANCH  27  30
HETATM   30  C   UNL     1     -11.253  14.137  66.360  1.00  0.00    -0.328 C  
HETATM   31  C   UNL     1     -10.172  13.424  65.496  1.00  0.00    -0.300 C  
HETATM   32  C   UNL     1     -12.557  14.083  65.538  1.00  0.00    -0.543 C  
HETATM   33  C   UNL     1     -10.757  15.593  66.493  1.00  0.00    -0.293 C  
ENDBRANCH  27  30
BRANCH  28  34
HETATM   34  C   UNL     1     -12.783  14.200  71.387  1.00  0.00    -0.439 C  
HETATM   35  C   UNL     1     -13.293  13.230  72.494  1.00  0.00    -0.569 C  
HETATM   36  C   UNL     1     -13.983  15.115  71.058  1.00  0.00    -0.383 C  
HETATM   37  C   UNL     1     -11.658  15.027  72.045  1.00  0.00    -0.419 C  
ENDBRANCH  28  34
ENDBRANCH  21  22
ENDBRANCH   2  21
TORSDOF 8
ENDMDL
MODEL      195
REMARK 921   NORMALIZED FREE ENERGY PREDICTED BY IDOCK:   -4.04 KCAL/MOL
REMARK 922        TOTAL FREE ENERGY PREDICTED BY IDOCK:   -6.52 KCAL/MOL
REMARK 923 INTER-LIGAND FREE ENERGY PREDICTED BY IDOCK:   -6.16 KCAL/MOL
REMARK 924 INTRA-LIGAND FREE ENERGY PREDICTED BY IDOCK:   -0.36 KCAL/MOL
REMARK 927      BINDING AFFINITY PREDICTED BY RF-SCORE:    0.00 PKD
ROOT
HETATM    1  C   UNL     1     -10.794   5.639  70.524  1.00  0.00    -0.315 C  
HETATM    2  C   UNL     1     -10.290   6.791  69.637  1.00  0.00    -0.198 C  
HETATM    3  C   UNL     1     -11.022   6.715  68.287  1.00  0.00    -0.321 C  
ENDROOT
BRANCH   2   4
HETATM    4  S   UNL     1      -8.485   6.553  69.331  1.00  0.00    -0.128 SA 
BRANCH   4   5
HETATM    5  C   UNL     1      -8.326   6.518  67.548  1.00  0.00    -0.121 A  
HETATM    6  C   UNL     1      -8.375   6.462  64.752  1.00  0.00    -0.033 A  
HETATM    7  O   UNL     1      -8.460   6.518  63.390  1.00  0.00    -0.335 OA 
HETATM    8  H   UNL     1      -8.304   7.327  62.916  1.00  0.00     0.000 HD 
HETATM    9  C   UNL     1      -8.599   5.333  66.873  1.00  0.00    -0.105 A  
HETATM   10  C   UNL     1      -8.096   7.687  65.396  1.00  0.00    -0.128 A  
HETATM   11  C   UNL     1      -8.058   7.652  66.792  1.00  0.00    -0.115 A  
HETATM   12  C   UNL     1      -8.607   5.249  65.462  1.00  0.00    -0.146 A  
BRANCH  12  13
HETATM   13  C   UNL     1      -8.900   3.883  64.792  1.00  0.00    -0.123 C  
HETATM   14  C   UNL     1      -9.023   2.757  65.844  1.00  0.00    -0.142 C  
HETATM   15  C   UNL     1      -7.806   3.537  63.760  1.00  0.00    -0.080 C  
HETATM   16  C   UNL     1     -10.248   3.849  64.016  1.00  0.00    -0.216 C  
ENDBRANCH  12  13
BRANCH  10  17
HETATM   17  C   UNL     1      -7.823   9.025  64.659  1.00  0.00    -0.121 C  
HETATM   18  C   UNL     1      -6.778   8.843  63.537  1.00  0.00    -0.089 C  
HETATM   19  C   UNL     1      -9.073   9.637  63.959  1.00  0.00    -0.246 C  
HETATM   20  C   UNL     1      -7.348  10.090  65.667  1.00  0.00    -0.127 C  
ENDBRANCH  10  17
ENDBRANCH   4   5
ENDBRANCH   2   4
BRANCH   2  21
HETATM   21  S   UNL     1     -10.756   8.380  70.451  1.00  0.00    -0.233 SA 
BRANCH  21  22
HETATM   22  C   UNL     1      -9.760   9.625  69.633  1.00  0.00    -0.213 A  
HETATM   23  C   UNL     1      -8.421   9.877  69.941  1.00  0.00    -0.210 A  
HETATM   24  C   UNL     1     -10.407  10.481  68.756  1.00  0.00    -0.208 A  
HETATM   25  H   UNL     1      -6.822  13.038  68.311  1.00  0.00     0.000 HD 
HETATM   26  O   UNL     1      -7.730  12.897  68.071  1.00  0.00    -0.118 OA 
HETATM   27  C   UNL     1      -9.772  11.593  68.173  1.00  0.00    -0.189 A  
HETATM   28  C   UNL     1      -7.700  10.952  69.405  1.00  0.00    -0.072 A  
HETATM   29  C   UNL     1      -8.408  11.805  68.533  1.00  0.00    -0.131 A  
BRANCH  27  30
HETATM   30  C   UNL     1     -10.599  12.531  67.257  1.00  0.00    -0.246 C  
HETATM   31  C   UNL     1      -9.741  13.630  66.565  1.00  0.00    -0.298 C  
HETATM   32  C   UNL     1     -11.255  11.723  66.119  1.00  0.00    -0.363 C  
HETATM   33  C   UNL     1     -11.669  13.307  68.056  1.00  0.00    -0.394 C  
ENDBRANCH  27  30
BRANCH  28  34
HETATM   34  C   UNL     1      -6.197  11.134  69.764  1.00  0.00    -0.119 C  
HETATM   35  C   UNL     1      -5.860  12.508  70.418  1.00  0.00    -0.150 C  
HETATM   36  C   UNL     1      -5.293  11.041  68.515  1.00  0.00    -0.043 C  
HETATM   37  C   UNL     1      -5.776  10.067  70.797  1.00  0.00    -0.084 C  
ENDBRANCH  28  34
ENDBRANCH  21  22
ENDBRANCH   2  21
TORSDOF 8
ENDMDL
MODEL      196
REMARK 921   NORMALIZED FREE ENERGY PREDICTED BY IDOCK:   -4.04 KCAL/MOL
REMARK 922        TOTAL FREE ENERGY PREDICTED BY IDOCK:   -6.52 KCAL/MOL
REMARK 923 INTER-LIGAND FREE ENERGY PREDICTED BY IDOCK:   -6.51 KCAL/MOL
REMARK 924 INTRA-LIGAND FREE ENERGY PREDICTED BY IDOCK:   -0.01 KCAL/MOL
REMARK 927      BINDING AFFINITY PREDICTED BY RF-SCORE:    0.00 PKD
ROOT
HETATM    1  C   UNL     1      -5.852  11.175  70.437  1.00  0.00    -0.145 C  
HETATM    2  C   UNL     1      -6.452  10.608  69.138  1.00  0.00    -0.056 C  
HETATM    3  C   UNL     1      -5.864  11.393  67.954  1.00  0.00    -0.044 C  
ENDROOT
BRANCH   2   4
HETATM    4  S   UNL     1      -8.278  10.880  69.163  1.00  0.00    -0.027 SA 
BRANCH   4   5
HETATM    5  C   UNL     1      -8.752  10.948  67.439  1.00  0.00    -0.130 A  
HETATM    6  C   UNL     1      -9.328  11.301  64.724  1.00  0.00    -0.145 A  
HETATM    7  O   UNL     1      -9.508  11.478  63.382  1.00  0.00    -0.415 OA 
HETATM    8  H   UNL     1      -9.041  10.950  62.745  1.00  0.00     0.000 HD 
HETATM    9  C   UNL     1      -9.684  11.898  67.035  1.00  0.00    -0.204 A  
HETATM   10  C   UNL     1      -8.374  10.327  65.088  1.00  0.00    -0.162 A  
HETATM   11  C   UNL     1      -8.144  10.174  66.457  1.00  0.00    -0.121 A  
HETATM   12  C   UNL     1     -10.029  12.093  65.678  1.00  0.00    -0.271 A  
BRANCH  12  13
HETATM   13  C   UNL     1     -11.095  13.160  65.320  1.00  0.00    -0.304 C  
HETATM   14  C   UNL     1     -12.173  12.581  64.376  1.00  0.00    -0.528 C  
HETATM   15  C   UNL     1     -10.432  14.399  64.683  1.00  0.00    -0.286 C  
HETATM   16  C   UNL     1     -11.887  13.684  66.552  1.00  0.00    -0.441 C  
ENDBRANCH  12  13
BRANCH  10  17
HETATM   17  C   UNL     1      -7.601   9.435  64.081  1.00  0.00    -0.115 C  
HETATM   18  C   UNL     1      -8.559   8.785  63.060  1.00  0.00    -0.095 C  
HETATM   19  C   UNL     1      -6.548  10.200  63.224  1.00  0.00    -0.134 C  
HETATM   20  C   UNL     1      -6.810   8.352  64.841  1.00  0.00    -0.071 C  
ENDBRANCH  10  17
ENDBRANCH   4   5
ENDBRANCH   2   4
BRANCH   2  21
HETATM   21  S   UNL     1      -5.912   8.851  68.981  1.00  0.00    -0.043 SA 
BRANCH  21  22
HETATM   22  C   UNL     1      -7.374   7.885  69.358  1.00  0.00    -0.081 A  
HETATM   23  C   UNL     1      -7.917   7.763  70.639  1.00  0.00    -0.098 A  
HETATM   24  C   UNL     1      -7.894   7.097  68.343  1.00  0.00    -0.122 A  
HETATM   25  H   UNL     1     -10.752   5.123  71.085  1.00  0.00     0.000 HD 
HETATM   26  O   UNL     1     -10.414   5.180  70.199  1.00  0.00    -0.286 OA 
HETATM   27  C   UNL     1      -8.939   6.179  68.555  1.00  0.00    -0.115 A  
HETATM   28  C   UNL     1      -8.965   6.885  70.947  1.00  0.00    -0.149 A  
HETATM   29  C   UNL     1      -9.446   6.092  69.884  1.00  0.00    -0.151 A  
BRANCH  27  30
HETATM   30  C   UNL     1      -9.406   5.295  67.371  1.00  0.00    -0.122 C  
HETATM   31  C   UNL     1      -8.432   5.327  66.156  1.00  0.00    -0.117 C  
HETATM   32  C   UNL     1      -9.492   3.818  67.808  1.00  0.00    -0.231 C  
HETATM   33  C   UNL     1     -10.761   5.771  66.805  1.00  0.00    -0.369 C  
ENDBRANCH  27  30
BRANCH  28  34
HETATM   34  C   UNL     1      -9.545   6.845  72.390  1.00  0.00    -0.167 C  
HETATM   35  C   UNL     1      -9.029   7.987  73.316  1.00  0.00    -0.338 C  
HETATM   36  C   UNL     1      -9.184   5.532  73.119  1.00  0.00    -0.132 C  
HETATM   37  C   UNL     1     -11.079   7.012  72.339  1.00  0.00    -0.294 C  
ENDBRANCH  28  34
ENDBRANCH  21  22
ENDBRANCH   2  21
TORSDOF 8
ENDMDL
MODEL      197
REMARK 921   NORMALIZED FREE ENERGY PREDICTED BY IDOCK:   -4.02 KCAL/MOL
REMARK 922        TOTAL FREE ENERGY PREDICTED BY IDOCK:   -6.50 KCAL/MOL
REMARK 923 INTER-LIGAND FREE ENERGY PREDICTED BY IDOCK:   -6.26 KCAL/MOL
REMARK 924 INTRA-LIGAND FREE ENERGY PREDICTED BY IDOCK:   -0.24 KCAL/MOL
REMARK 927      BINDING AFFINITY PREDICTED BY RF-SCORE:    0.00 PKD
ROOT
HETATM    1  C   UNL     1      -6.408  11.490  68.002  1.00  0.00    -0.050 C  
HETATM    2  C   UNL     1      -6.973  10.321  68.827  1.00  0.00    -0.067 C  
HETATM    3  C   UNL     1      -6.684  10.596  70.312  1.00  0.00    -0.099 C  
ENDROOT
BRANCH   2   4
HETATM    4  S   UNL     1      -6.090   8.774  68.342  1.00  0.00    -0.050 SA 
BRANCH   4   5
HETATM    5  C   UNL     1      -7.310   7.477  68.521  1.00  0.00    -0.099 A  
HETATM    6  C   UNL     1      -8.996   5.257  68.753  1.00  0.00    -0.110 A  
HETATM    7  O   UNL     1      -9.755   4.137  68.937  1.00  0.00    -0.166 OA 
HETATM    8  H   UNL     1     -10.008   3.846  69.806  1.00  0.00     0.000 HD 
HETATM    9  C   UNL     1      -7.744   6.801  67.385  1.00  0.00    -0.110 A  
HETATM   10  C   UNL     1      -8.579   5.912  69.932  1.00  0.00    -0.129 A  
HETATM   11  C   UNL     1      -7.760   7.029  69.757  1.00  0.00    -0.109 A  
HETATM   12  C   UNL     1      -8.618   5.693  67.451  1.00  0.00    -0.109 A  
BRANCH  12  13
HETATM   13  C   UNL     1      -9.068   5.012  66.133  1.00  0.00    -0.138 C  
HETATM   14  C   UNL     1      -8.676   3.517  66.112  1.00  0.00    -0.123 C  
HETATM   15  C   UNL     1      -8.471   5.741  64.912  1.00  0.00    -0.103 C  
HETATM   16  C   UNL     1     -10.611   5.020  65.926  1.00  0.00    -0.234 C  
ENDBRANCH  12  13
BRANCH  10  17
HETATM   17  C   UNL     1      -8.981   5.478  71.367  1.00  0.00    -0.150 C  
HETATM   18  C   UNL     1     -10.485   5.716  71.622  1.00  0.00    -0.286 C  
HETATM   19  C   UNL     1      -8.748   3.967  71.668  1.00  0.00    -0.135 C  
HETATM   20  C   UNL     1      -8.133   6.244  72.402  1.00  0.00    -0.104 C  
ENDBRANCH  10  17
ENDBRANCH   4   5
ENDBRANCH   2   4
BRANCH   2  21
HETATM   21  S   UNL     1      -8.804  10.296  68.598  1.00  0.00    -0.145 SA 
BRANCH  21  22
HETATM   22  C   UNL     1      -9.062  10.825  66.906  1.00  0.00    -0.149 A  
HETATM   23  C   UNL     1     -10.053  11.729  66.515  1.00  0.00    -0.232 A  
HETATM   24  C   UNL     1      -8.334  10.178  65.920  1.00  0.00    -0.137 A  
HETATM   25  H   UNL     1     -10.611  12.153  62.679  1.00  0.00     0.000 HD 
HETATM   26  O   UNL     1      -9.925  11.536  62.904  1.00  0.00    -0.330 OA 
HETATM   27  C   UNL     1      -8.559  10.391  64.547  1.00  0.00    -0.187 A  
HETATM   28  C   UNL     1     -10.345  12.015  65.175  1.00  0.00    -0.313 A  
HETATM   29  C   UNL     1      -9.589  11.317  64.209  1.00  0.00    -0.225 A  
BRANCH  27  30
HETATM   30  C   UNL     1      -7.738   9.570  63.520  1.00  0.00    -0.123 C  
HETATM   31  C   UNL     1      -6.869  10.454  62.578  1.00  0.00    -0.143 C  
HETATM   32  C   UNL     1      -6.755   8.632  64.249  1.00  0.00    -0.074 C  
HETATM   33  C   UNL     1      -8.654   8.764  62.574  1.00  0.00    -0.171 C  
ENDBRANCH  27  30
BRANCH  28  34
HETATM   34  C   UNL     1     -11.433  13.071  64.826  1.00  0.00    -0.363 C  
HETATM   35  C   UNL     1     -12.328  12.686  63.610  1.00  0.00    -0.584 C  
HETATM   36  C   UNL     1     -10.811  14.437  64.461  1.00  0.00    -0.271 C  
HETATM   37  C   UNL     1     -12.400  13.236  66.019  1.00  0.00    -0.449 C  
ENDBRANCH  28  34
ENDBRANCH  21  22
ENDBRANCH   2  21
TORSDOF 8
ENDMDL
MODEL      198
REMARK 921   NORMALIZED FREE ENERGY PREDICTED BY IDOCK:   -4.02 KCAL/MOL
REMARK 922        TOTAL FREE ENERGY PREDICTED BY IDOCK:   -6.49 KCAL/MOL
REMARK 923 INTER-LIGAND FREE ENERGY PREDICTED BY IDOCK:   -6.17 KCAL/MOL
REMARK 924 INTRA-LIGAND FREE ENERGY PREDICTED BY IDOCK:   -0.32 KCAL/MOL
REMARK 927      BINDING AFFINITY PREDICTED BY RF-SCORE:    0.00 PKD
ROOT
HETATM    1  C   UNL     1      -5.701  13.822  69.022  1.00  0.00    -0.075 C  
HETATM    2  C   UNL     1      -5.905  12.303  68.880  1.00  0.00    -0.062 C  
HETATM    3  C   UNL     1      -5.157  11.608  70.029  1.00  0.00    -0.074 C  
ENDROOT
BRANCH   2   4
HETATM    4  S   UNL     1      -5.159  11.752  67.284  1.00  0.00    -0.097 SA 
BRANCH   4   5
HETATM    5  C   UNL     1      -6.320  10.560  66.625  1.00  0.00    -0.084 A  
HETATM    6  C   UNL     1      -7.899   8.535  65.516  1.00  0.00    -0.104 A  
HETATM    7  O   UNL     1      -8.618   7.479  65.034  1.00  0.00    -0.337 OA 
HETATM    8  H   UNL     1      -9.027   6.850  65.617  1.00  0.00     0.000 HD 
HETATM    9  C   UNL     1      -6.477  10.466  65.246  1.00  0.00    -0.105 A  
HETATM   10  C   UNL     1      -7.765   8.591  66.920  1.00  0.00    -0.091 A  
HETATM   11  C   UNL     1      -6.988   9.637  67.422  1.00  0.00    -0.084 A  
HETATM   12  C   UNL     1      -7.287   9.478  64.642  1.00  0.00    -0.113 A  
BRANCH  12  13
HETATM   13  C   UNL     1      -7.423   9.460  63.098  1.00  0.00    -0.107 C  
HETATM   14  C   UNL     1      -8.901   9.587  62.663  1.00  0.00    -0.249 C  
HETATM   15  C   UNL     1      -6.798   8.177  62.511  1.00  0.00    -0.087 C  
HETATM   16  C   UNL     1      -6.701  10.647  62.397  1.00  0.00    -0.130 C  
ENDBRANCH  12  13
BRANCH  10  17
HETATM   17  C   UNL     1      -8.427   7.593  67.906  1.00  0.00    -0.123 C  
HETATM   18  C   UNL     1      -9.963   7.584  67.748  1.00  0.00    -0.214 C  
HETATM   19  C   UNL     1      -7.987   6.111  67.709  1.00  0.00    -0.106 C  
HETATM   20  C   UNL     1      -8.038   7.952  69.354  1.00  0.00    -0.125 C  
ENDBRANCH  10  17
ENDBRANCH   4   5
ENDBRANCH   2   4
BRANCH   2  21
HETATM   21  S   UNL     1      -7.706  11.952  69.078  1.00  0.00     0.152 SA 
BRANCH  21  22
HETATM   22  C   UNL     1      -8.517  13.023  67.892  1.00  0.00    -0.185 A  
HETATM   23  C   UNL     1      -8.522  14.417  67.978  1.00  0.00    -0.164 A  
HETATM   24  C   UNL     1      -9.309  12.419  66.928  1.00  0.00    -0.213 A  
HETATM   25  H   UNL     1     -10.873  16.308  65.508  1.00  0.00     0.000 HD 
HETATM   26  O   UNL     1     -10.893  15.363  65.413  1.00  0.00    -0.346 OA 
HETATM   27  C   UNL     1     -10.118  13.153  66.042  1.00  0.00    -0.286 A  
HETATM   28  C   UNL     1      -9.286  15.235  67.135  1.00  0.00    -0.223 A  
HETATM   29  C   UNL     1     -10.089  14.572  66.183  1.00  0.00    -0.305 A  
BRANCH  27  30
HETATM   30  C   UNL     1     -11.020  12.384  65.043  1.00  0.00    -0.336 C  
HETATM   31  C   UNL     1     -12.526  12.764  65.155  1.00  0.00    -0.565 C  
HETATM   32  C   UNL     1     -10.608  12.705  63.593  1.00  0.00    -0.378 C  
HETATM   33  C   UNL     1     -10.976  10.861  65.293  1.00  0.00    -0.033 C  
ENDBRANCH  27  30
BRANCH  28  34
HETATM   34  C   UNL     1      -9.196  16.782  67.266  1.00  0.00    -0.234 C  
HETATM   35  C   UNL     1     -10.561  17.478  67.549  1.00  0.00    -0.333 C  
HETATM   36  C   UNL     1      -8.663  17.438  65.973  1.00  0.00    -0.097 C  
HETATM   37  C   UNL     1      -8.286  17.153  68.456  1.00  0.00    -0.261 C  
ENDBRANCH  28  34
ENDBRANCH  21  22
ENDBRANCH   2  21
TORSDOF 8
ENDMDL
MODEL      199
REMARK 921   NORMALIZED FREE ENERGY PREDICTED BY IDOCK:   -4.02 KCAL/MOL
REMARK 922        TOTAL FREE ENERGY PREDICTED BY IDOCK:   -6.49 KCAL/MOL
REMARK 923 INTER-LIGAND FREE ENERGY PREDICTED BY IDOCK:   -7.11 KCAL/MOL
REMARK 924 INTRA-LIGAND FREE ENERGY PREDICTED BY IDOCK:    0.61 KCAL/MOL
REMARK 927      BINDING AFFINITY PREDICTED BY RF-SCORE:    0.00 PKD
ROOT
HETATM    1  C   UNL     1      -8.446   8.994  66.840  1.00  0.00    -0.120 C  
HETATM    2  C   UNL     1      -8.025   9.907  68.005  1.00  0.00    -0.100 C  
HETATM    3  C   UNL     1      -9.272  10.215  68.850  1.00  0.00    -0.172 C  
ENDROOT
BRANCH   2   4
HETATM    4  S   UNL     1      -7.389  11.496  67.311  1.00  0.00    -0.140 SA 
BRANCH   4   5
HETATM    5  C   UNL     1      -8.848  12.507  67.078  1.00  0.00    -0.212 A  
HETATM    6  C   UNL     1     -11.286  13.839  66.753  1.00  0.00    -0.316 A  
HETATM    7  O   UNL     1     -12.505  14.450  66.684  1.00  0.00    -0.535 OA 
HETATM    8  H   UNL     1     -12.850  14.952  67.413  1.00  0.00     0.000 HD 
HETATM    9  C   UNL     1      -9.549  12.409  65.881  1.00  0.00    -0.193 A  
HETATM   10  C   UNL     1     -10.610  13.964  67.985  1.00  0.00    -0.252 A  
HETATM   11  C   UNL     1      -9.385  13.301  68.085  1.00  0.00    -0.220 A  
HETATM   12  C   UNL     1     -10.769  13.087  65.660  1.00  0.00    -0.293 A  
BRANCH  12  13
HETATM   13  C   UNL     1     -11.473  12.939  64.287  1.00  0.00    -0.427 C  
HETATM   14  C   UNL     1     -10.590  12.159  63.285  1.00  0.00    -0.367 C  
HETATM   15  C   UNL     1     -11.844  14.322  63.713  1.00  0.00     0.004 C  
HETATM   16  C   UNL     1     -12.802  12.132  64.354  1.00  0.00    -0.216 C  
ENDBRANCH  12  13
BRANCH  10  17
HETATM   17  C   UNL     1     -11.131  14.787  69.194  1.00  0.00    -0.278 C  
HETATM   18  C   UNL     1     -12.294  14.062  69.905  1.00  0.00    -0.367 C  
HETATM   19  C   UNL     1     -10.067  15.039  70.304  1.00  0.00     0.134 C  
HETATM   20  C   UNL     1     -11.578  16.185  68.722  1.00  0.00    -0.297 C  
ENDBRANCH  10  17
ENDBRANCH   4   5
ENDBRANCH   2   4
BRANCH   2  21
HETATM   21  S   UNL     1      -6.838   8.970  69.062  1.00  0.00    -0.056 SA 
BRANCH  21  22
HETATM   22  C   UNL     1      -7.773   7.569  69.674  1.00  0.00    -0.100 A  
HETATM   23  C   UNL     1      -7.585   6.256  69.237  1.00  0.00    -0.099 A  
HETATM   24  C   UNL     1      -8.844   7.838  70.512  1.00  0.00    -0.145 A  
HETATM   25  H   UNL     1     -10.214   3.631  70.421  1.00  0.00     0.000 HD 
HETATM   26  O   UNL     1     -10.373   4.510  70.745  1.00  0.00    -0.147 OA 
HETATM   27  C   UNL     1      -9.747   6.844  70.932  1.00  0.00    -0.183 A  
HETATM   28  C   UNL     1      -8.424   5.197  69.607  1.00  0.00    -0.093 A  
HETATM   29  C   UNL     1      -9.510   5.525  70.446  1.00  0.00    -0.163 A  
BRANCH  27  30
HETATM   30  C   UNL     1     -10.952   7.256  71.815  1.00  0.00    -0.256 C  
HETATM   31  C   UNL     1     -12.304   6.652  71.332  1.00  0.00    -0.348 C  
HETATM   32  C   UNL     1     -10.754   6.753  73.259  1.00  0.00    -0.330 C  
HETATM   33  C   UNL     1     -11.173   8.784  71.800  1.00  0.00    -0.410 C  
ENDBRANCH  27  30
BRANCH  28  34
HETATM   34  C   UNL     1      -8.115   3.754  69.114  1.00  0.00    -0.066 C  
HETATM   35  C   UNL     1      -9.263   3.105  68.283  1.00  0.00    -0.247 C  
HETATM   36  C   UNL     1      -7.863   2.786  70.291  1.00  0.00    -0.048 C  
HETATM   37  C   UNL     1      -6.886   3.775  68.180  1.00  0.00    -0.047 C  
ENDBRANCH  28  34
ENDBRANCH  21  22
ENDBRANCH   2  21
TORSDOF 8
ENDMDL
MODEL      200
REMARK 921   NORMALIZED FREE ENERGY PREDICTED BY IDOCK:   -4.01 KCAL/MOL
REMARK 922        TOTAL FREE ENERGY PREDICTED BY IDOCK:   -6.49 KCAL/MOL
REMARK 923 INTER-LIGAND FREE ENERGY PREDICTED BY IDOCK:   -6.46 KCAL/MOL
REMARK 924 INTRA-LIGAND FREE ENERGY PREDICTED BY IDOCK:   -0.03 KCAL/MOL
REMARK 927      BINDING AFFINITY PREDICTED BY RF-SCORE:    0.00 PKD
ROOT
HETATM    1  C   UNL     1      -6.851   6.232  71.609  1.00  0.00    -0.064 C  
HETATM    2  C   UNL     1      -7.054   6.778  70.184  1.00  0.00    -0.071 C  
HETATM    3  C   UNL     1      -8.488   6.443  69.741  1.00  0.00    -0.127 C  
ENDROOT
BRANCH   2   4
HETATM    4  S   UNL     1      -5.881   5.917  69.049  1.00  0.00    -0.017 SA 
BRANCH   4   5
HETATM    5  C   UNL     1      -6.574   6.149  67.415  1.00  0.00    -0.052 A  
HETATM    6  C   UNL     1      -7.926   6.477  64.988  1.00  0.00    -0.121 A  
HETATM    7  O   UNL     1      -8.642   6.710  63.849  1.00  0.00    -0.325 OA 
HETATM    8  H   UNL     1      -8.763   7.590  63.511  1.00  0.00     0.000 HD 
HETATM    9  C   UNL     1      -7.078   5.045  66.736  1.00  0.00    -0.069 A  
HETATM   10  C   UNL     1      -7.433   7.625  65.644  1.00  0.00    -0.079 A  
HETATM   11  C   UNL     1      -6.744   7.402  66.838  1.00  0.00    -0.065 A  
HETATM   12  C   UNL     1      -7.743   5.158  65.494  1.00  0.00    -0.087 A  
BRANCH  12  13
HETATM   13  C   UNL     1      -8.254   3.872  64.795  1.00  0.00    -0.093 C  
HETATM   14  C   UNL     1      -7.948   2.615  65.641  1.00  0.00    -0.082 C  
HETATM   15  C   UNL     1      -7.640   3.736  63.387  1.00  0.00    -0.059 C  
HETATM   16  C   UNL     1      -9.797   3.847  64.594  1.00  0.00    -0.193 C  
ENDBRANCH  12  13
BRANCH  10  17
HETATM   17  C   UNL     1      -7.598   9.076  65.119  1.00  0.00    -0.098 C  
HETATM   18  C   UNL     1      -9.084   9.487  65.068  1.00  0.00    -0.281 C  
HETATM   19  C   UNL     1      -6.903  10.158  65.999  1.00  0.00    -0.112 C  
HETATM   20  C   UNL     1      -6.957   9.203  63.722  1.00  0.00    -0.089 C  
ENDBRANCH  10  17
ENDBRANCH   4   5
ENDBRANCH   2   4
BRANCH   2  21
HETATM   21  S   UNL     1      -6.892   8.615  70.251  1.00  0.00    -0.043 SA 
BRANCH  21  22
HETATM   22  C   UNL     1      -8.575   9.222  70.348  1.00  0.00    -0.219 A  
HETATM   23  C   UNL     1      -9.578   8.619  71.109  1.00  0.00    -0.281 A  
HETATM   24  C   UNL     1      -8.927  10.256  69.494  1.00  0.00    -0.176 A  
HETATM   25  H   UNL     1     -13.207   9.943  70.577  1.00  0.00     0.000 HD 
HETATM   26  O   UNL     1     -12.553  10.383  70.046  1.00  0.00    -0.219 OA 
HETATM   27  C   UNL     1     -10.251  10.714  69.363  1.00  0.00    -0.218 A  
HETATM   28  C   UNL     1     -10.922   9.009  71.055  1.00  0.00    -0.352 A  
HETATM   29  C   UNL     1     -11.232  10.053  70.158  1.00  0.00    -0.304 A  
BRANCH  27  30
HETATM   30  C   UNL     1     -10.555  11.831  68.332  1.00  0.00    -0.239 C  
HETATM   31  C   UNL     1     -11.400  12.999  68.921  1.00  0.00    -0.333 C  
HETATM   32  C   UNL     1      -9.243  12.467  67.830  1.00  0.00    -0.200 C  
HETATM   33  C   UNL     1     -11.387  11.299  67.145  1.00  0.00    -0.295 C  
ENDBRANCH  27  30
BRANCH  28  34
HETATM   34  C   UNL     1     -11.970   8.316  71.973  1.00  0.00    -0.405 C  
HETATM   35  C   UNL     1     -12.825   7.229  71.256  1.00  0.00    -0.391 C  
HETATM   36  C   UNL     1     -12.988   9.326  72.548  1.00  0.00    -0.384 C  
HETATM   37  C   UNL     1     -11.248   7.585  73.126  1.00  0.00    -0.318 C  
ENDBRANCH  28  34
ENDBRANCH  21  22
ENDBRANCH   2  21
TORSDOF 8
ENDMDL
MODEL      201
REMARK 921   NORMALIZED FREE ENERGY PREDICTED BY IDOCK:   -4.01 KCAL/MOL
REMARK 922        TOTAL FREE ENERGY PREDICTED BY IDOCK:   -6.48 KCAL/MOL
REMARK 923 INTER-LIGAND FREE ENERGY PREDICTED BY IDOCK:   -7.02 KCAL/MOL
REMARK 924 INTRA-LIGAND FREE ENERGY PREDICTED BY IDOCK:    0.54 KCAL/MOL
REMARK 927      BINDING AFFINITY PREDICTED BY RF-SCORE:    0.00 PKD
ROOT
HETATM    1  C   UNL     1      -6.350   8.818  68.244  1.00  0.00    -0.055 C  
HETATM    2  C   UNL     1      -7.361   9.947  67.979  1.00  0.00    -0.084 C  
HETATM    3  C   UNL     1      -7.776  10.550  69.331  1.00  0.00    -0.157 C  
ENDROOT
BRANCH   2   4
HETATM    4  S   UNL     1      -8.862   9.223  67.184  1.00  0.00    -0.127 SA 
BRANCH   4   5
HETATM    5  C   UNL     1      -9.456   8.007  68.355  1.00  0.00    -0.145 A  
HETATM    6  C   UNL     1     -10.137   6.159  70.341  1.00  0.00    -0.189 A  
HETATM    7  O   UNL     1     -10.455   5.331  71.380  1.00  0.00    -0.220 OA 
HETATM    8  H   UNL     1     -11.087   5.586  72.042  1.00  0.00     0.000 HD 
HETATM    9  C   UNL     1      -8.858   6.752  68.382  1.00  0.00    -0.122 A  
HETATM   10  C   UNL     1     -10.767   7.421  70.353  1.00  0.00    -0.250 A  
HETATM   11  C   UNL     1     -10.410   8.296  69.324  1.00  0.00    -0.223 A  
HETATM   12  C   UNL     1      -9.190   5.775  69.349  1.00  0.00    -0.144 A  
BRANCH  12  13
HETATM   13  C   UNL     1      -8.490   4.394  69.292  1.00  0.00    -0.094 C  
HETATM   14  C   UNL     1      -9.520   3.241  69.306  1.00  0.00    -0.199 C  
HETATM   15  C   UNL     1      -7.494   4.239  70.460  1.00  0.00    -0.049 C  
HETATM   16  C   UNL     1      -7.664   4.170  67.992  1.00  0.00    -0.071 C  
ENDBRANCH  12  13
BRANCH  10  17
HETATM   17  C   UNL     1     -11.814   7.871  71.407  1.00  0.00    -0.328 C  
HETATM   18  C   UNL     1     -13.091   7.008  71.331  1.00  0.00    -0.375 C  
HETATM   19  C   UNL     1     -11.328   7.754  72.883  1.00  0.00    -0.406 C  
HETATM   20  C   UNL     1     -12.158   9.360  71.200  1.00  0.00    -0.406 C  
ENDBRANCH  10  17
ENDBRANCH   4   5
ENDBRANCH   2   4
BRANCH   2  21
HETATM   21  S   UNL     1      -6.503  11.261  67.008  1.00  0.00    -0.126 SA 
BRANCH  21  22
HETATM   22  C   UNL     1      -7.469  12.744  67.288  1.00  0.00    -0.097 A  
HETATM   23  C   UNL     1      -6.918  14.022  67.406  1.00  0.00    -0.067 A  
HETATM   24  C   UNL     1      -8.820  12.582  67.554  1.00  0.00    -0.184 A  
HETATM   25  H   UNL     1      -9.327  16.860  68.567  1.00  0.00     0.000 HD 
HETATM   26  O   UNL     1      -9.741  16.009  68.492  1.00  0.00    -0.204 OA 
HETATM   27  C   UNL     1      -9.651  13.649  67.943  1.00  0.00    -0.223 A  
HETATM   28  C   UNL     1      -7.664  15.148  67.777  1.00  0.00    -0.164 A  
HETATM   29  C   UNL     1      -9.030  14.928  68.056  1.00  0.00    -0.172 A  
BRANCH  27  30
HETATM   30  C   UNL     1     -11.134  13.355  68.284  1.00  0.00    -0.289 C  
HETATM   31  C   UNL     1     -11.449  11.833  68.395  1.00  0.00    -0.354 C  
HETATM   32  C   UNL     1     -11.499  13.965  69.652  1.00  0.00    -0.310 C  
HETATM   33  C   UNL     1     -12.085  13.877  67.186  1.00  0.00    -0.422 C  
ENDBRANCH  27  30
BRANCH  28  34
HETATM   34  C   UNL     1      -6.982  16.546  67.838  1.00  0.00    -0.155 C  
HETATM   35  C   UNL     1      -6.898  17.152  69.271  1.00  0.00    -0.209 C  
HETATM   36  C   UNL     1      -7.742  17.593  66.994  1.00  0.00    -0.234 C  
HETATM   37  C   UNL     1      -5.523  16.434  67.347  1.00  0.00    -0.165 C  
ENDBRANCH  28  34
ENDBRANCH  21  22
ENDBRANCH   2  21
TORSDOF 8
ENDMDL
MODEL      202
REMARK 921   NORMALIZED FREE ENERGY PREDICTED BY IDOCK:   -4.01 KCAL/MOL
REMARK 922        TOTAL FREE ENERGY PREDICTED BY IDOCK:   -6.48 KCAL/MOL
REMARK 923 INTER-LIGAND FREE ENERGY PREDICTED BY IDOCK:   -6.52 KCAL/MOL
REMARK 924 INTRA-LIGAND FREE ENERGY PREDICTED BY IDOCK:    0.04 KCAL/MOL
REMARK 927      BINDING AFFINITY PREDICTED BY RF-SCORE:    0.00 PKD
ROOT
HETATM    1  C   UNL     1      -7.024   6.110  71.664  1.00  0.00    -0.076 C  
HETATM    2  C   UNL     1      -7.177   6.784  70.289  1.00  0.00    -0.076 C  
HETATM    3  C   UNL     1      -8.564   6.428  69.729  1.00  0.00    -0.138 C  
ENDROOT
BRANCH   2   4
HETATM    4  S   UNL     1      -5.898   6.097  69.148  1.00  0.00    -0.021 SA 
BRANCH   4   5
HETATM    5  C   UNL     1      -6.584   6.315  67.510  1.00  0.00    -0.052 A  
HETATM    6  C   UNL     1      -7.924   6.618  65.073  1.00  0.00    -0.124 A  
HETATM    7  O   UNL     1      -8.636   6.839  63.928  1.00  0.00    -0.325 OA 
HETATM    8  H   UNL     1      -8.766   7.716  63.587  1.00  0.00     0.000 HD 
HETATM    9  C   UNL     1      -7.071   5.203  66.831  1.00  0.00    -0.073 A  
HETATM   10  C   UNL     1      -7.449   7.775  65.728  1.00  0.00    -0.078 A  
HETATM   11  C   UNL     1      -6.765   7.564  66.927  1.00  0.00    -0.066 A  
HETATM   12  C   UNL     1      -7.729   5.303  65.584  1.00  0.00    -0.087 A  
BRANCH  12  13
HETATM   13  C   UNL     1      -8.221   4.009  64.888  1.00  0.00    -0.097 C  
HETATM   14  C   UNL     1      -9.765   3.947  64.844  1.00  0.00    -0.188 C  
HETATM   15  C   UNL     1      -7.652   2.761  65.594  1.00  0.00    -0.076 C  
HETATM   16  C   UNL     1      -7.778   3.899  63.400  1.00  0.00    -0.070 C  
ENDBRANCH  12  13
BRANCH  10  17
HETATM   17  C   UNL     1      -7.628   9.222  65.196  1.00  0.00    -0.106 C  
HETATM   18  C   UNL     1      -7.037   9.374  63.779  1.00  0.00    -0.098 C  
HETATM   19  C   UNL     1      -9.113   9.679  65.072  1.00  0.00    -0.284 C  
HETATM   20  C   UNL     1      -6.965  10.221  66.166  1.00  0.00    -0.116 C  
ENDBRANCH  10  17
ENDBRANCH   4   5
ENDBRANCH   2   4
BRANCH   2  21
HETATM   21  S   UNL     1      -7.116   8.612  70.542  1.00  0.00    -0.051 SA 
BRANCH  21  22
HETATM   22  C   UNL     1      -8.788   9.175  70.228  1.00  0.00    -0.213 A  
HETATM   23  C   UNL     1      -9.103  10.264  69.413  1.00  0.00    -0.203 A  
HETATM   24  C   UNL     1      -9.805   8.586  70.963  1.00  0.00    -0.245 A  
HETATM   25  H   UNL     1     -12.810  11.471  69.469  1.00  0.00     0.000 HD 
HETATM   26  O   UNL     1     -12.638  10.725  70.031  1.00  0.00    -0.308 OA 
HETATM   27  C   UNL     1     -11.135   9.046  70.923  1.00  0.00    -0.343 A  
HETATM   28  C   UNL     1     -10.397  10.789  69.299  1.00  0.00    -0.228 A  
HETATM   29  C   UNL     1     -11.393  10.167  70.081  1.00  0.00    -0.303 A  
BRANCH  27  30
HETATM   30  C   UNL     1     -12.188   8.363  71.832  1.00  0.00    -0.395 C  
HETATM   31  C   UNL     1     -13.227   9.360  72.426  1.00  0.00    -0.483 C  
HETATM   32  C   UNL     1     -13.002   7.331  71.026  1.00  0.00    -0.233 C  
HETATM   33  C   UNL     1     -11.532   7.696  73.061  1.00  0.00    -0.265 C  
ENDBRANCH  27  30
BRANCH  28  34
HETATM   34  C   UNL     1     -10.671  11.975  68.330  1.00  0.00    -0.255 C  
HETATM   35  C   UNL     1     -11.562  11.605  67.107  1.00  0.00    -0.291 C  
HETATM   36  C   UNL     1      -9.364  12.541  67.730  1.00  0.00    -0.198 C  
HETATM   37  C   UNL     1     -11.432  13.092  69.077  1.00  0.00    -0.353 C  
ENDBRANCH  28  34
ENDBRANCH  21  22
ENDBRANCH   2  21
TORSDOF 8
ENDMDL
MODEL      203
REMARK 921   NORMALIZED FREE ENERGY PREDICTED BY IDOCK:   -3.99 KCAL/MOL
REMARK 922        TOTAL FREE ENERGY PREDICTED BY IDOCK:   -6.45 KCAL/MOL
REMARK 923 INTER-LIGAND FREE ENERGY PREDICTED BY IDOCK:   -5.88 KCAL/MOL
REMARK 924 INTRA-LIGAND FREE ENERGY PREDICTED BY IDOCK:   -0.57 KCAL/MOL
REMARK 927      BINDING AFFINITY PREDICTED BY RF-SCORE:    0.00 PKD
ROOT
HETATM    1  C   UNL     1     -10.983   5.995  69.479  1.00  0.00    -0.467 C  
HETATM    2  C   UNL     1     -10.191   7.210  68.962  1.00  0.00    -0.190 C  
HETATM    3  C   UNL     1     -10.771   7.618  67.598  1.00  0.00    -0.246 C  
ENDROOT
BRANCH   2   4
HETATM    4  S   UNL     1      -8.432   6.707  68.717  1.00  0.00    -0.122 SA 
BRANCH   4   5
HETATM    5  C   UNL     1      -8.238   6.579  66.942  1.00  0.00    -0.113 A  
HETATM    6  C   UNL     1      -8.231   6.386  64.151  1.00  0.00     0.011 A  
HETATM    7  O   UNL     1      -8.288   6.374  62.787  1.00  0.00    -0.280 OA 
HETATM    8  H   UNL     1      -8.105   7.155  62.277  1.00  0.00     0.000 HD 
HETATM    9  C   UNL     1      -8.523   5.368  66.320  1.00  0.00    -0.117 A  
HETATM   10  C   UNL     1      -7.938   7.634  64.740  1.00  0.00    -0.137 A  
HETATM   11  C   UNL     1      -7.929   7.669  66.136  1.00  0.00    -0.110 A  
HETATM   12  C   UNL     1      -8.504   5.215  64.915  1.00  0.00    -0.149 A  
BRANCH  12  13
HETATM   13  C   UNL     1      -8.814   3.823  64.307  1.00  0.00    -0.120 C  
HETATM   14  C   UNL     1      -8.910   2.739  65.406  1.00  0.00    -0.131 C  
HETATM   15  C   UNL     1      -7.748   3.436  63.262  1.00  0.00    -0.067 C  
HETATM   16  C   UNL     1     -10.182   3.759  63.568  1.00  0.00    -0.207 C  
ENDBRANCH  12  13
BRANCH  10  17
HETATM   17  C   UNL     1      -7.621   8.928  63.943  1.00  0.00    -0.121 C  
HETATM   18  C   UNL     1      -6.540   8.674  62.871  1.00  0.00    -0.091 C  
HETATM   19  C   UNL     1      -8.838   9.517  63.167  1.00  0.00    -0.239 C  
HETATM   20  C   UNL     1      -7.169  10.040  64.910  1.00  0.00    -0.140 C  
ENDBRANCH  10  17
ENDBRANCH   4   5
ENDBRANCH   2   4
BRANCH   2  21
HETATM   21  S   UNL     1     -10.462   8.606  70.138  1.00  0.00    -0.221 SA 
BRANCH  21  22
HETATM   22  C   UNL     1      -9.643  10.009  69.381  1.00  0.00    -0.222 A  
HETATM   23  C   UNL     1     -10.254  10.863  68.460  1.00  0.00    -0.197 A  
HETATM   24  C   UNL     1      -8.284  10.153  69.613  1.00  0.00    -0.176 A  
HETATM   25  H   UNL     1      -7.935  13.429  66.658  1.00  0.00     0.000 HD 
HETATM   26  O   UNL     1      -7.484  12.871  67.281  1.00  0.00    -0.147 OA 
HETATM   27  C   UNL     1      -7.499  11.117  68.954  1.00  0.00    -0.125 A  
HETATM   28  C   UNL     1      -9.560  11.860  67.761  1.00  0.00    -0.190 A  
HETATM   29  C   UNL     1      -8.176  11.953  68.018  1.00  0.00    -0.157 A  
BRANCH  27  30
HETATM   30  C   UNL     1      -5.975  11.155  69.231  1.00  0.00    -0.048 C  
HETATM   31  C   UNL     1      -5.568  10.405  70.535  1.00  0.00    -0.083 C  
HETATM   32  C   UNL     1      -5.206  10.465  68.087  1.00  0.00    -0.034 C  
HETATM   33  C   UNL     1      -5.468  12.599  69.430  1.00  0.00    -0.079 C  
ENDBRANCH  27  30
BRANCH  28  34
HETATM   34  C   UNL     1     -10.326  12.801  66.787  1.00  0.00    -0.248 C  
HETATM   35  C   UNL     1     -10.017  14.315  66.990  1.00  0.00    -0.258 C  
HETATM   36  C   UNL     1     -11.857  12.670  66.946  1.00  0.00    -0.425 C  
HETATM   37  C   UNL     1      -9.920  12.485  65.331  1.00  0.00    -0.236 C  
ENDBRANCH  28  34
ENDBRANCH  21  22
ENDBRANCH   2  21
TORSDOF 8
ENDMDL
MODEL      204
REMARK 921   NORMALIZED FREE ENERGY PREDICTED BY IDOCK:   -3.99 KCAL/MOL
REMARK 922        TOTAL FREE ENERGY PREDICTED BY IDOCK:   -6.45 KCAL/MOL
REMARK 923 INTER-LIGAND FREE ENERGY PREDICTED BY IDOCK:   -8.14 KCAL/MOL
REMARK 924 INTRA-LIGAND FREE ENERGY PREDICTED BY IDOCK:    1.69 KCAL/MOL
REMARK 927      BINDING AFFINITY PREDICTED BY RF-SCORE:    0.00 PKD
ROOT
HETATM    1  C   UNL     1     -11.768  12.625  66.859  1.00  0.00    -0.453 C  
HETATM    2  C   UNL     1     -11.596  12.752  65.335  1.00  0.00    -0.358 C  
HETATM    3  C   UNL     1     -12.992  12.850  64.698  1.00  0.00    -0.204 C  
ENDROOT
BRANCH   2   4
HETATM    4  S   UNL     1     -10.777  11.223  64.703  1.00  0.00    -0.269 SA 
BRANCH   4   5
HETATM    5  C   UNL     1      -9.692  10.706  66.029  1.00  0.00    -0.208 A  
HETATM    6  C   UNL     1      -7.821   9.778  67.891  1.00  0.00    -0.090 A  
HETATM    7  O   UNL     1      -6.836   9.373  68.746  1.00  0.00    -0.052 OA 
HETATM    8  H   UNL     1      -6.208   9.989  69.105  1.00  0.00     0.000 HD 
HETATM    9  C   UNL     1      -9.670   9.365  66.396  1.00  0.00    -0.315 A  
HETATM   10  C   UNL     1      -7.806  11.147  67.546  1.00  0.00    -0.117 A  
HETATM   11  C   UNL     1      -8.777  11.561  66.632  1.00  0.00    -0.182 A  
HETATM   12  C   UNL     1      -8.763   8.855  67.353  1.00  0.00    -0.128 A  
BRANCH  12  13
HETATM   13  C   UNL     1      -8.824   7.350  67.718  1.00  0.00    -0.128 C  
HETATM   14  C   UNL     1      -8.636   7.133  69.237  1.00  0.00    -0.137 C  
HETATM   15  C   UNL     1      -7.765   6.554  66.927  1.00  0.00    -0.100 C  
HETATM   16  C   UNL     1     -10.193   6.686  67.390  1.00  0.00    -0.243 C  
ENDBRANCH  12  13
BRANCH  10  17
HETATM   17  C   UNL     1      -6.807  12.186  68.121  1.00  0.00    -0.075 C  
HETATM   18  C   UNL     1      -6.677  12.050  69.653  1.00  0.00     0.016 C  
HETATM   19  C   UNL     1      -5.354  12.049  67.573  1.00  0.00    -0.096 C  
HETATM   20  C   UNL     1      -7.260  13.611  67.744  1.00  0.00    -0.169 C  
ENDBRANCH  10  17
ENDBRANCH   4   5
ENDBRANCH   2   4
BRANCH   2  21
HETATM   21  S   UNL     1     -10.702  14.331  64.994  1.00  0.00    -0.441 SA 
BRANCH  21  22
HETATM   22  C   UNL     1     -10.602  15.155  66.582  1.00  0.00    -0.304 A  
HETATM   23  C   UNL     1     -11.214  14.681  67.745  1.00  0.00    -0.320 A  
HETATM   24  C   UNL     1     -10.014  16.409  66.611  1.00  0.00    -0.281 A  
HETATM   25  H   UNL     1     -11.205  17.077  70.821  1.00  0.00     0.000 HD 
HETATM   26  O   UNL     1     -10.773  17.433  70.053  1.00  0.00     0.142 OA 
HETATM   27  C   UNL     1     -10.015  17.222  67.760  1.00  0.00    -0.301 A  
HETATM   28  C   UNL     1     -11.259  15.410  68.940  1.00  0.00    -0.296 A  
HETATM   29  C   UNL     1     -10.663  16.689  68.913  1.00  0.00    -0.337 A  
BRANCH  27  30
HETATM   30  C   UNL     1      -9.389  18.637  67.674  1.00  0.00    -0.309 C  
HETATM   31  C   UNL     1      -8.605  18.884  66.351  1.00  0.00    -0.301 C  
HETATM   32  C   UNL     1     -10.493  19.713  67.720  1.00  0.00    -0.573 C  
HETATM   33  C   UNL     1      -8.356  18.873  68.797  1.00  0.00    -0.345 C  
ENDBRANCH  27  30
BRANCH  28  34
HETATM   34  C   UNL     1     -11.919  14.789  70.204  1.00  0.00    -0.367 C  
HETATM   35  C   UNL     1     -11.188  15.130  71.538  1.00  0.00    -0.323 C  
HETATM   36  C   UNL     1     -11.949  13.246  70.137  1.00  0.00    -0.388 C  
HETATM   37  C   UNL     1     -13.354  15.335  70.365  1.00  0.00    -0.087 C  
ENDBRANCH  28  34
ENDBRANCH  21  22
ENDBRANCH   2  21
TORSDOF 8
ENDMDL
MODEL      205
REMARK 921   NORMALIZED FREE ENERGY PREDICTED BY IDOCK:   -3.98 KCAL/MOL
REMARK 922        TOTAL FREE ENERGY PREDICTED BY IDOCK:   -6.44 KCAL/MOL
REMARK 923 INTER-LIGAND FREE ENERGY PREDICTED BY IDOCK:   -5.96 KCAL/MOL
REMARK 924 INTRA-LIGAND FREE ENERGY PREDICTED BY IDOCK:   -0.48 KCAL/MOL
REMARK 927      BINDING AFFINITY PREDICTED BY RF-SCORE:    0.00 PKD
ROOT
HETATM    1  C   UNL     1      -7.868   9.100  70.793  1.00  0.00    -0.173 C  
HETATM    2  C   UNL     1      -7.805   9.319  69.271  1.00  0.00    -0.085 C  
HETATM    3  C   UNL     1      -7.373  10.771  69.010  1.00  0.00    -0.109 C  
ENDROOT
BRANCH   2   4
HETATM    4  S   UNL     1      -9.496   9.083  68.569  1.00  0.00    -0.144 SA 
BRANCH   4   5
HETATM    5  C   UNL     1      -9.452   9.917  66.986  1.00  0.00    -0.160 A  
HETATM    6  C   UNL     1      -9.544  10.993  64.405  1.00  0.00    -0.259 A  
HETATM    7  O   UNL     1      -9.691  11.508  63.149  1.00  0.00    -0.366 OA 
HETATM    8  H   UNL     1     -10.312  12.204  62.968  1.00  0.00     0.000 HD 
HETATM    9  C   UNL     1      -8.622   9.421  65.987  1.00  0.00    -0.154 A  
HETATM   10  C   UNL     1     -10.406  11.526  65.387  1.00  0.00    -0.322 A  
HETATM   11  C   UNL     1     -10.301  10.970  66.664  1.00  0.00    -0.288 A  
HETATM   12  C   UNL     1      -8.612   9.951  64.676  1.00  0.00    -0.195 A  
BRANCH  12  13
HETATM   13  C   UNL     1      -7.638   9.351  63.631  1.00  0.00    -0.116 C  
HETATM   14  C   UNL     1      -8.399   8.547  62.552  1.00  0.00    -0.182 C  
HETATM   15  C   UNL     1      -6.581   8.462  64.318  1.00  0.00    -0.067 C  
HETATM   16  C   UNL     1      -6.842  10.426  62.835  1.00  0.00    -0.104 C  
ENDBRANCH  12  13
BRANCH  10  17
HETATM   17  C   UNL     1     -11.424  12.671  65.136  1.00  0.00    -0.363 C  
HETATM   18  C   UNL     1     -12.161  13.060  66.435  1.00  0.00    -0.428 C  
HETATM   19  C   UNL     1     -10.784  13.993  64.616  1.00  0.00    -0.416 C  
HETATM   20  C   UNL     1     -12.434  12.244  64.051  1.00  0.00    -0.556 C  
ENDBRANCH  10  17
ENDBRANCH   4   5
ENDBRANCH   2   4
BRANCH   2  21
HETATM   21  S   UNL     1      -6.499   8.206  68.591  1.00  0.00    -0.054 SA 
BRANCH  21  22
HETATM   22  C   UNL     1      -7.277   6.595  68.487  1.00  0.00    -0.085 A  
HETATM   23  C   UNL     1      -7.481   5.756  69.585  1.00  0.00    -0.075 A  
HETATM   24  C   UNL     1      -7.546   6.100  67.221  1.00  0.00    -0.093 A  
HETATM   25  H   UNL     1      -8.690   2.131  68.811  1.00  0.00     0.000 HD 
HETATM   26  O   UNL     1      -8.569   2.671  68.039  1.00  0.00    -0.079 OA 
HETATM   27  C   UNL     1      -8.009   4.789  67.001  1.00  0.00    -0.103 A  
HETATM   28  C   UNL     1      -7.948   4.440  69.470  1.00  0.00    -0.060 A  
HETATM   29  C   UNL     1      -8.189   3.977  68.159  1.00  0.00    -0.091 A  
BRANCH  27  30
HETATM   30  C   UNL     1      -8.217   4.306  65.543  1.00  0.00    -0.109 C  
HETATM   31  C   UNL     1      -8.340   5.474  64.519  1.00  0.00    -0.127 C  
HETATM   32  C   UNL     1      -7.011   3.463  65.082  1.00  0.00    -0.053 C  
HETATM   33  C   UNL     1      -9.528   3.505  65.389  1.00  0.00    -0.152 C  
ENDBRANCH  27  30
BRANCH  28  34
HETATM   34  C   UNL     1      -8.194   3.589  70.748  1.00  0.00    -0.081 C  
HETATM   35  C   UNL     1      -7.120   2.488  70.997  1.00  0.00    -0.033 C  
HETATM   36  C   UNL     1      -9.544   2.840  70.689  1.00  0.00    -0.174 C  
HETATM   37  C   UNL     1      -8.154   4.499  71.995  1.00  0.00    -0.100 C  
ENDBRANCH  28  34
ENDBRANCH  21  22
ENDBRANCH   2  21
TORSDOF 8
ENDMDL
MODEL      206
REMARK 921   NORMALIZED FREE ENERGY PREDICTED BY IDOCK:   -3.97 KCAL/MOL
REMARK 922        TOTAL FREE ENERGY PREDICTED BY IDOCK:   -6.43 KCAL/MOL
REMARK 923 INTER-LIGAND FREE ENERGY PREDICTED BY IDOCK:   -7.03 KCAL/MOL
REMARK 924 INTRA-LIGAND FREE ENERGY PREDICTED BY IDOCK:    0.60 KCAL/MOL
REMARK 927      BINDING AFFINITY PREDICTED BY RF-SCORE:    0.00 PKD
ROOT
HETATM    1  C   UNL     1      -5.913  11.535  70.451  1.00  0.00    -0.138 C  
HETATM    2  C   UNL     1      -6.505  11.175  69.077  1.00  0.00    -0.066 C  
HETATM    3  C   UNL     1      -8.038  11.196  69.192  1.00  0.00    -0.030 C  
ENDROOT
BRANCH   2   4
HETATM    4  S   UNL     1      -5.981   9.461  68.638  1.00  0.00    -0.044 SA 
BRANCH   4   5
HETATM    5  C   UNL     1      -7.345   8.421  69.149  1.00  0.00    -0.079 A  
HETATM    6  C   UNL     1      -9.290   6.567  69.926  1.00  0.00    -0.152 A  
HETATM    7  O   UNL     1     -10.174   5.629  70.376  1.00  0.00    -0.201 OA 
HETATM    8  H   UNL     1     -10.379   5.544  71.300  1.00  0.00     0.000 HD 
HETATM    9  C   UNL     1      -7.976   7.625  68.200  1.00  0.00    -0.123 A  
HETATM   10  C   UNL     1      -8.674   7.353  70.923  1.00  0.00    -0.144 A  
HETATM   11  C   UNL     1      -7.730   8.281  70.478  1.00  0.00    -0.081 A  
HETATM   12  C   UNL     1      -8.984   6.695  68.540  1.00  0.00    -0.120 A  
BRANCH  12  13
HETATM   13  C   UNL     1      -9.650   5.863  67.415  1.00  0.00    -0.117 C  
HETATM   14  C   UNL     1     -11.092   6.346  67.137  1.00  0.00    -0.422 C  
HETATM   15  C   UNL     1      -9.645   4.362  67.771  1.00  0.00    -0.211 C  
HETATM   16  C   UNL     1      -8.923   5.980  66.044  1.00  0.00    -0.157 C  
ENDBRANCH  12  13
BRANCH  10  17
HETATM   17  C   UNL     1      -8.991   7.255  72.439  1.00  0.00    -0.149 C  
HETATM   18  C   UNL     1      -8.843   5.806  72.949  1.00  0.00    -0.124 C  
HETATM   19  C   UNL     1      -8.051   8.106  73.346  1.00  0.00    -0.253 C  
HETATM   20  C   UNL     1     -10.415   7.778  72.711  1.00  0.00    -0.390 C  
ENDBRANCH  10  17
ENDBRANCH   4   5
ENDBRANCH   2   4
BRANCH   2  21
HETATM   21  S   UNL     1      -6.006  12.490  67.882  1.00  0.00    -0.116 SA 
BRANCH  21  22
HETATM   22  C   UNL     1      -7.528  13.344  67.475  1.00  0.00    -0.162 A  
HETATM   23  C   UNL     1      -8.561  12.779  66.723  1.00  0.00    -0.084 A  
HETATM   24  C   UNL     1      -7.608  14.689  67.797  1.00  0.00    -0.173 A  
HETATM   25  H   UNL     1     -11.424  15.181  65.610  1.00  0.00     0.000 HD 
HETATM   26  O   UNL     1     -10.745  15.601  66.124  1.00  0.00    -0.311 OA 
HETATM   27  C   UNL     1      -8.681  15.505  67.393  1.00  0.00    -0.194 A  
HETATM   28  C   UNL     1      -9.674  13.505  66.281  1.00  0.00    -0.287 A  
HETATM   29  C   UNL     1      -9.700  14.874  66.619  1.00  0.00    -0.261 A  
BRANCH  27  30
HETATM   30  C   UNL     1      -8.646  17.013  67.745  1.00  0.00    -0.213 C  
HETATM   31  C   UNL     1      -9.930  17.504  68.479  1.00  0.00    -0.344 C  
HETATM   32  C   UNL     1      -7.472  17.313  68.699  1.00  0.00    -0.251 C  
HETATM   33  C   UNL     1      -8.553  17.892  66.479  1.00  0.00    -0.279 C  
ENDBRANCH  27  30
BRANCH  28  34
HETATM   34  C   UNL     1     -10.805  12.787  65.489  1.00  0.00    -0.301 C  
HETATM   35  C   UNL     1     -10.615  11.245  65.364  1.00  0.00    -0.312 C  
HETATM   36  C   UNL     1     -10.908  13.306  64.038  1.00  0.00    -0.287 C  
HETATM   37  C   UNL     1     -12.154  12.983  66.214  1.00  0.00    -0.453 C  
ENDBRANCH  28  34
ENDBRANCH  21  22
ENDBRANCH   2  21
TORSDOF 8
ENDMDL
MODEL      207
REMARK 921   NORMALIZED FREE ENERGY PREDICTED BY IDOCK:   -3.97 KCAL/MOL
REMARK 922        TOTAL FREE ENERGY PREDICTED BY IDOCK:   -6.42 KCAL/MOL
REMARK 923 INTER-LIGAND FREE ENERGY PREDICTED BY IDOCK:   -6.72 KCAL/MOL
REMARK 924 INTRA-LIGAND FREE ENERGY PREDICTED BY IDOCK:    0.30 KCAL/MOL
REMARK 927      BINDING AFFINITY PREDICTED BY RF-SCORE:    0.00 PKD
ROOT
HETATM    1  C   UNL     1     -11.534  10.491  69.525  1.00  0.00    -0.339 C  
HETATM    2  C   UNL     1     -10.323   9.541  69.538  1.00  0.00    -0.217 C  
HETATM    3  C   UNL     1     -10.618   8.371  68.586  1.00  0.00    -0.149 C  
ENDROOT
BRANCH   2   4
HETATM    4  S   UNL     1     -10.123   8.863  71.244  1.00  0.00    -0.322 SA 
BRANCH   4   5
HETATM    5  C   UNL     1      -9.263   7.310  71.019  1.00  0.00    -0.154 A  
HETATM    6  C   UNL     1      -8.159   4.789  70.519  1.00  0.00    -0.083 A  
HETATM    7  O   UNL     1      -7.640   3.573  70.175  1.00  0.00    -0.044 OA 
HETATM    8  H   UNL     1      -7.003   3.486  69.475  1.00  0.00     0.000 HD 
HETATM    9  C   UNL     1      -9.662   6.207  71.766  1.00  0.00    -0.171 A  
HETATM   10  C   UNL     1      -7.726   5.880  69.736  1.00  0.00    -0.089 A  
HETATM   11  C   UNL     1      -8.290   7.120  70.044  1.00  0.00    -0.138 A  
HETATM   12  C   UNL     1      -9.112   4.919  71.569  1.00  0.00    -0.172 A  
BRANCH  12  13
HETATM   13  C   UNL     1      -9.600   3.750  72.461  1.00  0.00    -0.190 C  
HETATM   14  C   UNL     1      -8.573   3.424  73.570  1.00  0.00    -0.074 C  
HETATM   15  C   UNL     1      -9.886   2.496  71.608  1.00  0.00    -0.216 C  
HETATM   16  C   UNL     1     -10.921   4.060  73.224  1.00  0.00    -0.313 C  
ENDBRANCH  12  13
BRANCH  10  17
HETATM   17  C   UNL     1      -6.679   5.782  68.594  1.00  0.00    -0.060 C  
HETATM   18  C   UNL     1      -5.354   5.174  69.101  1.00  0.00    -0.004 C  
HETATM   19  C   UNL     1      -7.115   4.878  67.401  1.00  0.00    -0.066 C  
HETATM   20  C   UNL     1      -6.433   7.178  67.988  1.00  0.00    -0.048 C  
ENDBRANCH  10  17
ENDBRANCH   4   5
ENDBRANCH   2   4
BRANCH   2  21
HETATM   21  S   UNL     1      -8.869  10.464  68.874  1.00  0.00    -0.169 SA 
BRANCH  21  22
HETATM   22  C   UNL     1      -9.186  10.618  67.117  1.00  0.00    -0.147 A  
HETATM   23  C   UNL     1      -8.458   9.947  66.132  1.00  0.00    -0.130 A  
HETATM   24  C   UNL     1     -10.105  11.577  66.719  1.00  0.00    -0.245 A  
HETATM   25  H   UNL     1      -9.123  11.013  62.441  1.00  0.00     0.000 HD 
HETATM   26  O   UNL     1      -9.643  11.487  63.080  1.00  0.00    -0.374 OA 
HETATM   27  C   UNL     1     -10.326  11.902  65.368  1.00  0.00    -0.306 A  
HETATM   28  C   UNL     1      -8.613  10.194  64.762  1.00  0.00    -0.191 A  
HETATM   29  C   UNL     1      -9.546  11.191  64.409  1.00  0.00    -0.250 A  
BRANCH  27  30
HETATM   30  C   UNL     1     -11.326  13.036  65.028  1.00  0.00    -0.325 C  
HETATM   31  C   UNL     1     -12.293  12.674  63.861  1.00  0.00    -0.546 C  
HETATM   32  C   UNL     1     -12.224  13.341  66.244  1.00  0.00    -0.440 C  
HETATM   33  C   UNL     1     -10.599  14.315  64.558  1.00  0.00    -0.232 C  
ENDBRANCH  27  30
BRANCH  28  34
HETATM   34  C   UNL     1      -7.796   9.367  63.728  1.00  0.00    -0.132 C  
HETATM   35  C   UNL     1      -6.609  10.146  63.084  1.00  0.00    -0.136 C  
HETATM   36  C   UNL     1      -8.672   8.902  62.543  1.00  0.00    -0.162 C  
HETATM   37  C   UNL     1      -7.162   8.143  64.423  1.00  0.00    -0.084 C  
ENDBRANCH  28  34
ENDBRANCH  21  22
ENDBRANCH   2  21
TORSDOF 8
ENDMDL
MODEL      208
REMARK 921   NORMALIZED FREE ENERGY PREDICTED BY IDOCK:   -3.97 KCAL/MOL
REMARK 922        TOTAL FREE ENERGY PREDICTED BY IDOCK:   -6.42 KCAL/MOL
REMARK 923 INTER-LIGAND FREE ENERGY PREDICTED BY IDOCK:   -5.80 KCAL/MOL
REMARK 924 INTRA-LIGAND FREE ENERGY PREDICTED BY IDOCK:   -0.62 KCAL/MOL
REMARK 927      BINDING AFFINITY PREDICTED BY RF-SCORE:    0.00 PKD
ROOT
HETATM    1  C   UNL     1     -14.196   7.145  71.690  1.00  0.00    -0.502 C  
HETATM    2  C   UNL     1     -12.663   7.228  71.591  1.00  0.00    -0.375 C  
HETATM    3  C   UNL     1     -12.274   7.203  70.104  1.00  0.00     0.115 C  
ENDROOT
BRANCH   2   4
HETATM    4  S   UNL     1     -11.937   5.738  72.404  1.00  0.00     0.046 SA 
BRANCH   4   5
HETATM    5  C   UNL     1     -10.494   5.340  71.423  1.00  0.00    -0.203 A  
HETATM    6  C   UNL     1      -8.358   4.449  69.851  1.00  0.00    -0.062 A  
HETATM    7  O   UNL     1      -7.384   3.987  69.013  1.00  0.00    -0.053 OA 
HETATM    8  H   UNL     1      -7.350   4.250  68.100  1.00  0.00     0.000 HD 
HETATM    9  C   UNL     1      -9.520   4.508  71.966  1.00  0.00    -0.196 A  
HETATM   10  C   UNL     1      -9.324   5.290  69.259  1.00  0.00    -0.167 A  
HETATM   11  C   UNL     1     -10.354   5.727  70.095  1.00  0.00    -0.324 A  
HETATM   12  C   UNL     1      -8.408   4.056  71.219  1.00  0.00    -0.091 A  
BRANCH  12  13
HETATM   13  C   UNL     1      -7.359   3.148  71.910  1.00  0.00    -0.047 C  
HETATM   14  C   UNL     1      -7.138   1.841  71.115  1.00  0.00    -0.032 C  
HETATM   15  C   UNL     1      -7.784   2.831  73.359  1.00  0.00    -0.051 C  
HETATM   16  C   UNL     1      -5.948   3.795  72.009  1.00  0.00    -0.013 C  
ENDBRANCH  12  13
BRANCH  10  17
HETATM   17  C   UNL     1      -9.297   5.753  67.778  1.00  0.00    -0.105 C  
HETATM   18  C   UNL     1      -9.645   4.593  66.822  1.00  0.00    -0.195 C  
HETATM   19  C   UNL     1     -10.317   6.882  67.441  1.00  0.00    -0.297 C  
HETATM   20  C   UNL     1      -7.909   6.333  67.437  1.00  0.00    -0.101 C  
ENDBRANCH  10  17
ENDBRANCH   4   5
ENDBRANCH   2   4
BRANCH   2  21
HETATM   21  S   UNL     1     -12.135   8.852  72.291  1.00  0.00    -0.274 SA 
BRANCH  21  22
HETATM   22  C   UNL     1     -10.663   9.294  71.370  1.00  0.00    -0.362 A  
HETATM   23  C   UNL     1     -10.679  10.029  70.183  1.00  0.00    -0.361 A  
HETATM   24  C   UNL     1      -9.463   8.738  71.785  1.00  0.00    -0.363 A  
HETATM   25  H   UNL     1      -7.310  10.270  68.234  1.00  0.00     0.000 HD 
HETATM   26  O   UNL     1      -7.256   9.767  69.039  1.00  0.00    -0.071 OA 
HETATM   27  C   UNL     1      -8.268   8.881  71.055  1.00  0.00    -0.217 A  
HETATM   28  C   UNL     1      -9.541  10.235  69.392  1.00  0.00    -0.237 A  
HETATM   29  C   UNL     1      -8.349   9.633  69.847  1.00  0.00    -0.183 A  
BRANCH  27  30
HETATM   30  C   UNL     1      -6.992   8.165  71.567  1.00  0.00    -0.062 C  
HETATM   31  C   UNL     1      -6.341   7.232  70.502  1.00  0.00    -0.038 C  
HETATM   32  C   UNL     1      -5.912   9.200  71.942  1.00  0.00    -0.054 C  
HETATM   33  C   UNL     1      -7.298   7.243  72.767  1.00  0.00    -0.079 C  
ENDBRANCH  27  30
BRANCH  28  34
HETATM   34  C   UNL     1      -9.636  11.108  68.108  1.00  0.00    -0.181 C  
HETATM   35  C   UNL     1      -8.930  10.490  66.864  1.00  0.00    -0.151 C  
HETATM   36  C   UNL     1      -8.980  12.493  68.305  1.00  0.00    -0.178 C  
HETATM   37  C   UNL     1     -11.116  11.281  67.704  1.00  0.00    -0.336 C  
ENDBRANCH  28  34
ENDBRANCH  21  22
ENDBRANCH   2  21
TORSDOF 8
ENDMDL
MODEL      209
REMARK 921   NORMALIZED FREE ENERGY PREDICTED BY IDOCK:   -3.96 KCAL/MOL
REMARK 922        TOTAL FREE ENERGY PREDICTED BY IDOCK:   -6.41 KCAL/MOL
REMARK 923 INTER-LIGAND FREE ENERGY PREDICTED BY IDOCK:   -6.02 KCAL/MOL
REMARK 924 INTRA-LIGAND FREE ENERGY PREDICTED BY IDOCK:   -0.39 KCAL/MOL
REMARK 927      BINDING AFFINITY PREDICTED BY RF-SCORE:    0.00 PKD
ROOT
HETATM    1  C   UNL     1     -12.313   7.680  71.333  1.00  0.00    -0.358 C  
HETATM    2  C   UNL     1     -11.239   8.663  70.835  1.00  0.00    -0.267 C  
HETATM    3  C   UNL     1     -11.823  10.084  70.890  1.00  0.00    -0.459 C  
ENDROOT
BRANCH   2   4
HETATM    4  S   UNL     1     -10.845   8.266  69.076  1.00  0.00     0.106 SA 
BRANCH   4   5
HETATM    5  C   UNL     1      -9.965   9.702  68.470  1.00  0.00    -0.165 A  
HETATM    6  C   UNL     1      -8.442  11.760  67.343  1.00  0.00    -0.158 A  
HETATM    7  O   UNL     1      -7.730  12.732  66.701  1.00  0.00    -0.375 OA 
HETATM    8  H   UNL     1      -8.130  13.283  66.038  1.00  0.00     0.000 HD 
HETATM    9  C   UNL     1      -8.642   9.891  68.857  1.00  0.00    -0.135 A  
HETATM   10  C   UNL     1      -9.779  11.602  66.919  1.00  0.00    -0.211 A  
HETATM   11  C   UNL     1     -10.501  10.577  67.533  1.00  0.00    -0.284 A  
HETATM   12  C   UNL     1      -7.843  10.935  68.337  1.00  0.00    -0.123 A  
BRANCH  12  13
HETATM   13  C   UNL     1      -6.385  11.086  68.841  1.00  0.00    -0.051 C  
HETATM   14  C   UNL     1      -6.154  12.473  69.483  1.00  0.00    -0.120 C  
HETATM   15  C   UNL     1      -5.384  10.853  67.690  1.00  0.00    -0.040 C  
HETATM   16  C   UNL     1      -6.004  10.067  69.953  1.00  0.00    -0.048 C  
ENDBRANCH  12  13
BRANCH  10  17
HETATM   17  C   UNL     1     -10.473  12.490  65.851  1.00  0.00    -0.289 C  
HETATM   18  C   UNL     1     -12.007  12.473  66.021  1.00  0.00    -0.456 C  
HETATM   19  C   UNL     1     -10.070  13.994  65.909  1.00  0.00    -0.336 C  
HETATM   20  C   UNL     1     -10.083  12.010  64.439  1.00  0.00    -0.298 C  
ENDBRANCH  10  17
ENDBRANCH   4   5
ENDBRANCH   2   4
BRANCH   2  21
HETATM   21  S   UNL     1      -9.813   8.587  72.005  1.00  0.00    -0.328 SA 
BRANCH  21  22
HETATM   22  C   UNL     1      -9.039   7.003  71.683  1.00  0.00    -0.138 A  
HETATM   23  C   UNL     1      -8.224   6.745  70.578  1.00  0.00    -0.117 A  
HETATM   24  C   UNL     1      -9.400   5.942  72.498  1.00  0.00    -0.146 A  
HETATM   25  H   UNL     1      -7.220   3.024  69.984  1.00  0.00     0.000 HD 
HETATM   26  O   UNL     1      -7.768   3.159  70.748  1.00  0.00    -0.040 OA 
HETATM   27  C   UNL     1      -8.984   4.620  72.253  1.00  0.00    -0.140 A  
HETATM   28  C   UNL     1      -7.752   5.466  70.256  1.00  0.00    -0.077 A  
HETATM   29  C   UNL     1      -8.163   4.417  71.105  1.00  0.00    -0.082 A  
BRANCH  27  30
HETATM   30  C   UNL     1      -9.496   3.492  73.183  1.00  0.00    -0.135 C  
HETATM   31  C   UNL     1     -10.499   3.993  74.264  1.00  0.00    -0.283 C  
HETATM   32  C   UNL     1     -10.252   2.425  72.365  1.00  0.00    -0.219 C  
HETATM   33  C   UNL     1      -8.343   2.845  73.982  1.00  0.00    -0.073 C  
ENDBRANCH  27  30
BRANCH  28  34
HETATM   34  C   UNL     1      -6.809   5.272  69.033  1.00  0.00    -0.054 C  
HETATM   35  C   UNL     1      -6.504   6.584  68.250  1.00  0.00    -0.049 C  
HETATM   36  C   UNL     1      -7.409   4.302  67.992  1.00  0.00    -0.064 C  
HETATM   37  C   UNL     1      -5.439   4.746  69.512  1.00  0.00    -0.008 C  
ENDBRANCH  28  34
ENDBRANCH  21  22
ENDBRANCH   2  21
TORSDOF 8
ENDMDL
MODEL      210
REMARK 921   NORMALIZED FREE ENERGY PREDICTED BY IDOCK:   -3.96 KCAL/MOL
REMARK 922        TOTAL FREE ENERGY PREDICTED BY IDOCK:   -6.41 KCAL/MOL
REMARK 923 INTER-LIGAND FREE ENERGY PREDICTED BY IDOCK:   -7.50 KCAL/MOL
REMARK 924 INTRA-LIGAND FREE ENERGY PREDICTED BY IDOCK:    1.09 KCAL/MOL
REMARK 927      BINDING AFFINITY PREDICTED BY RF-SCORE:    0.00 PKD
ROOT
HETATM    1  C   UNL     1      -7.216  10.079  65.839  1.00  0.00    -0.115 C  
HETATM    2  C   UNL     1      -7.985   9.067  66.706  1.00  0.00    -0.107 C  
HETATM    3  C   UNL     1      -8.004   7.718  65.970  1.00  0.00    -0.108 C  
ENDROOT
BRANCH   2   4
HETATM    4  S   UNL     1      -9.727   9.651  66.890  1.00  0.00    -0.199 SA 
BRANCH   4   5
HETATM    5  C   UNL     1      -9.635  11.428  66.694  1.00  0.00    -0.191 A  
HETATM    6  C   UNL     1      -9.728  14.221  66.568  1.00  0.00    -0.291 A  
HETATM    7  O   UNL     1      -9.771  15.585  66.609  1.00  0.00    -0.228 OA 
HETATM    8  H   UNL     1      -9.160  16.085  67.138  1.00  0.00     0.000 HD 
HETATM    9  C   UNL     1     -10.577  12.065  65.892  1.00  0.00    -0.302 A  
HETATM   10  C   UNL     1      -8.758  13.616  67.396  1.00  0.00    -0.214 A  
HETATM   11  C   UNL     1      -8.738  12.220  67.401  1.00  0.00    -0.180 A  
HETATM   12  C   UNL     1     -10.644  13.472  65.775  1.00  0.00    -0.283 A  
BRANCH  12  13
HETATM   13  C   UNL     1     -11.712  14.098  64.842  1.00  0.00    -0.395 C  
HETATM   14  C   UNL     1     -11.287  15.507  64.368  1.00  0.00    -0.260 C  
HETATM   15  C   UNL     1     -13.083  14.159  65.547  1.00  0.00    -0.166 C  
HETATM   16  C   UNL     1     -11.939  13.292  63.531  1.00  0.00    -0.537 C  
ENDBRANCH  12  13
BRANCH  10  17
HETATM   17  C   UNL     1      -7.733  14.396  68.262  1.00  0.00    -0.129 C  
HETATM   18  C   UNL     1      -6.730  13.439  68.940  1.00  0.00    -0.110 C  
HETATM   19  C   UNL     1      -6.858  15.408  67.464  1.00  0.00    -0.223 C  
HETATM   20  C   UNL     1      -8.475  15.235  69.322  1.00  0.00    -0.238 C  
ENDBRANCH  10  17
ENDBRANCH   4   5
ENDBRANCH   2   4
BRANCH   2  21
HETATM   21  S   UNL     1      -7.052   8.844  68.282  1.00  0.00    -0.078 SA 
BRANCH  21  22
HETATM   22  C   UNL     1      -8.033   7.688  69.238  1.00  0.00    -0.126 A  
HETATM   23  C   UNL     1      -7.963   6.301  69.093  1.00  0.00    -0.110 A  
HETATM   24  C   UNL     1      -9.022   8.217  70.052  1.00  0.00    -0.143 A  
HETATM   25  H   UNL     1     -10.670   4.213  70.967  1.00  0.00     0.000 HD 
HETATM   26  O   UNL     1     -10.748   5.150  71.096  1.00  0.00    -0.181 OA 
HETATM   27  C   UNL     1      -9.958   7.413  70.729  1.00  0.00    -0.182 A  
HETATM   28  C   UNL     1      -8.842   5.417  69.732  1.00  0.00    -0.124 A  
HETATM   29  C   UNL     1      -9.843   6.005  70.534  1.00  0.00    -0.180 A  
BRANCH  27  30
HETATM   30  C   UNL     1     -11.068   8.101  71.563  1.00  0.00    -0.302 C  
HETATM   31  C   UNL     1     -12.498   7.579  71.234  1.00  0.00    -0.354 C  
HETATM   32  C   UNL     1     -10.853   7.831  73.066  1.00  0.00    -0.451 C  
HETATM   33  C   UNL     1     -11.128   9.619  71.289  1.00  0.00    -0.426 C  
ENDBRANCH  27  30
BRANCH  28  34
HETATM   34  C   UNL     1      -8.665   3.882  69.554  1.00  0.00    -0.127 C  
HETATM   35  C   UNL     1      -7.199   3.439  69.265  1.00  0.00    -0.049 C  
HETATM   36  C   UNL     1      -9.497   3.340  68.371  1.00  0.00    -0.209 C  
HETATM   37  C   UNL     1      -9.069   3.157  70.856  1.00  0.00    -0.183 C  
ENDBRANCH  28  34
ENDBRANCH  21  22
ENDBRANCH   2  21
TORSDOF 8
ENDMDL
MODEL      211
REMARK 921   NORMALIZED FREE ENERGY PREDICTED BY IDOCK:   -3.96 KCAL/MOL
REMARK 922        TOTAL FREE ENERGY PREDICTED BY IDOCK:   -6.40 KCAL/MOL
REMARK 923 INTER-LIGAND FREE ENERGY PREDICTED BY IDOCK:   -6.64 KCAL/MOL
REMARK 924 INTRA-LIGAND FREE ENERGY PREDICTED BY IDOCK:    0.24 KCAL/MOL
REMARK 927      BINDING AFFINITY PREDICTED BY RF-SCORE:    0.00 PKD
ROOT
HETATM    1  C   UNL     1      -9.306   9.581  70.469  1.00  0.00    -0.296 C  
HETATM    2  C   UNL     1     -10.600   8.861  70.888  1.00  0.00    -0.233 C  
HETATM    3  C   UNL     1     -11.684   9.923  71.133  1.00  0.00    -0.478 C  
ENDROOT
BRANCH   2   4
HETATM    4  S   UNL     1     -10.293   7.969  72.475  1.00  0.00    -0.329 SA 
BRANCH   4   5
HETATM    5  C   UNL     1      -9.494   6.442  71.992  1.00  0.00    -0.151 A  
HETATM    6  C   UNL     1      -8.487   3.998  71.074  1.00  0.00    -0.076 A  
HETATM    7  O   UNL     1      -8.014   2.838  70.531  1.00  0.00    -0.042 OA 
HETATM    8  H   UNL     1      -7.374   2.845  69.829  1.00  0.00     0.000 HD 
HETATM    9  C   UNL     1      -9.946   5.245  72.539  1.00  0.00    -0.208 A  
HETATM   10  C   UNL     1      -8.002   5.188  70.490  1.00  0.00    -0.090 A  
HETATM   11  C   UNL     1      -8.519   6.380  71.003  1.00  0.00    -0.127 A  
HETATM   12  C   UNL     1      -9.446   3.988  72.128  1.00  0.00    -0.192 A  
BRANCH  12  13
HETATM   13  C   UNL     1      -9.991   2.705  72.806  1.00  0.00    -0.208 C  
HETATM   14  C   UNL     1     -11.362   2.961  73.471  1.00  0.00    -0.264 C  
HETATM   15  C   UNL     1      -8.982   2.167  73.842  1.00  0.00    -0.066 C  
HETATM   16  C   UNL     1     -10.246   1.537  71.809  1.00  0.00    -0.177 C  
ENDBRANCH  12  13
BRANCH  10  17
HETATM   17  C   UNL     1      -6.948   5.242  69.353  1.00  0.00    -0.055 C  
HETATM   18  C   UNL     1      -5.630   4.560  69.779  1.00  0.00    -0.012 C  
HETATM   19  C   UNL     1      -7.380   4.515  68.044  1.00  0.00    -0.065 C  
HETATM   20  C   UNL     1      -6.689   6.707  68.948  1.00  0.00    -0.056 C  
ENDBRANCH  10  17
ENDBRANCH   4   5
ENDBRANCH   2   4
BRANCH   2  21
HETATM   21  S   UNL     1     -11.145   7.805  69.475  1.00  0.00     0.102 SA 
BRANCH  21  22
HETATM   22  C   UNL     1     -10.588   8.674  68.011  1.00  0.00    -0.145 A  
HETATM   23  C   UNL     1      -9.622   8.178  67.132  1.00  0.00    -0.227 A  
HETATM   24  C   UNL     1     -11.033   9.974  67.835  1.00  0.00    -0.311 A  
HETATM   25  H   UNL     1      -8.316  10.642  64.406  1.00  0.00     0.000 HD 
HETATM   26  O   UNL     1      -8.977  11.014  64.979  1.00  0.00    -0.189 OA 
HETATM   27  C   UNL     1     -10.548  10.812  66.814  1.00  0.00    -0.307 A  
HETATM   28  C   UNL     1      -9.084   8.931  66.080  1.00  0.00    -0.265 A  
HETATM   29  C   UNL     1      -9.556  10.254  65.954  1.00  0.00    -0.209 A  
BRANCH  27  30
HETATM   30  C   UNL     1     -11.059  12.273  66.741  1.00  0.00    -0.345 C  
HETATM   31  C   UNL     1     -12.067  12.515  65.578  1.00  0.00    -0.481 C  
HETATM   32  C   UNL     1     -11.809  12.642  68.036  1.00  0.00    -0.376 C  
HETATM   33  C   UNL     1      -9.907  13.267  66.480  1.00  0.00    -0.281 C  
ENDBRANCH  27  30
BRANCH  28  34
HETATM   34  C   UNL     1      -8.046   8.286  65.116  1.00  0.00    -0.142 C  
HETATM   35  C   UNL     1      -8.072   6.728  65.101  1.00  0.00    -0.132 C  
HETATM   36  C   UNL     1      -6.597   8.668  65.493  1.00  0.00    -0.063 C  
HETATM   37  C   UNL     1      -8.342   8.722  63.665  1.00  0.00    -0.146 C  
ENDBRANCH  28  34
ENDBRANCH  21  22
ENDBRANCH   2  21
TORSDOF 8
ENDMDL
MODEL      212
REMARK 921   NORMALIZED FREE ENERGY PREDICTED BY IDOCK:   -3.96 KCAL/MOL
REMARK 922        TOTAL FREE ENERGY PREDICTED BY IDOCK:   -6.40 KCAL/MOL
REMARK 923 INTER-LIGAND FREE ENERGY PREDICTED BY IDOCK:   -7.36 KCAL/MOL
REMARK 924 INTRA-LIGAND FREE ENERGY PREDICTED BY IDOCK:    0.95 KCAL/MOL
REMARK 927      BINDING AFFINITY PREDICTED BY RF-SCORE:    0.00 PKD
ROOT
HETATM    1  C   UNL     1     -11.561   8.651  72.402  1.00  0.00    -0.385 C  
HETATM    2  C   UNL     1     -11.570   8.980  70.899  1.00  0.00    -0.290 C  
HETATM    3  C   UNL     1     -10.112   9.067  70.417  1.00  0.00    -0.248 C  
ENDROOT
BRANCH   2   4
HETATM    4  S   UNL     1     -12.358  10.632  70.660  1.00  0.00    -0.400 SA 
BRANCH   4   5
HETATM    5  C   UNL     1     -11.340  11.451  69.437  1.00  0.00    -0.297 A  
HETATM    6  C   UNL     1      -9.988  12.731  67.350  1.00  0.00    -0.212 A  
HETATM    7  O   UNL     1      -9.403  13.426  66.330  1.00  0.00    -0.408 OA 
HETATM    8  H   UNL     1      -9.270  14.365  66.382  1.00  0.00     0.000 HD 
HETATM    9  C   UNL     1     -10.898  10.725  68.336  1.00  0.00    -0.276 A  
HETATM   10  C   UNL     1     -10.420  13.506  68.447  1.00  0.00    -0.252 A  
HETATM   11  C   UNL     1     -11.066  12.813  69.472  1.00  0.00    -0.046 A  
HETATM   12  C   UNL     1     -10.186  11.323  67.271  1.00  0.00    -0.226 A  
BRANCH  12  13
HETATM   13  C   UNL     1      -9.713  10.435  66.092  1.00  0.00    -0.262 C  
HETATM   14  C   UNL     1     -10.151  11.026  64.732  1.00  0.00    -0.367 C  
HETATM   15  C   UNL     1     -10.244   8.994  66.248  1.00  0.00    -0.237 C  
HETATM   16  C   UNL     1      -8.165  10.312  65.990  1.00  0.00    -0.141 C  
ENDBRANCH  12  13
BRANCH  10  17
HETATM   17  C   UNL     1     -10.209  15.038  68.577  1.00  0.00    -0.227 C  
HETATM   18  C   UNL     1     -10.809  15.576  69.894  1.00  0.00    -0.311 C  
HETATM   19  C   UNL     1      -8.715  15.480  68.598  1.00  0.00    -0.188 C  
HETATM   20  C   UNL     1     -10.837  15.758  67.367  1.00  0.00    -0.306 C  
ENDBRANCH  10  17
ENDBRANCH   4   5
ENDBRANCH   2   4
BRANCH   2  21
HETATM   21  S   UNL     1     -12.380   7.577  70.015  1.00  0.00     0.949 SA 
BRANCH  21  22
HETATM   22  C   UNL     1     -11.353   6.153  70.373  1.00  0.00    -0.328 A  
HETATM   23  C   UNL     1     -11.042   5.722  71.665  1.00  0.00    -0.290 A  
HETATM   24  C   UNL     1     -10.711   5.547  69.304  1.00  0.00    -0.288 A  
HETATM   25  H   UNL     1      -8.331   2.937  71.970  1.00  0.00     0.000 HD 
HETATM   26  O   UNL     1      -8.518   3.197  71.076  1.00  0.00    -0.064 OA 
HETATM   27  C   UNL     1      -9.760   4.524  69.471  1.00  0.00    -0.282 A  
HETATM   28  C   UNL     1     -10.116   4.705  71.933  1.00  0.00    -0.266 A  
HETATM   29  C   UNL     1      -9.477   4.133  70.813  1.00  0.00    -0.172 A  
BRANCH  27  30
HETATM   30  C   UNL     1      -9.047   3.956  68.217  1.00  0.00    -0.186 C  
HETATM   31  C   UNL     1      -9.737   4.362  66.881  1.00  0.00    -0.233 C  
HETATM   32  C   UNL     1      -7.605   4.494  68.132  1.00  0.00    -0.076 C  
HETATM   33  C   UNL     1      -9.050   2.412  68.211  1.00  0.00    -0.225 C  
ENDBRANCH  27  30
BRANCH  28  34
HETATM   34  C   UNL     1      -9.864   4.252  73.400  1.00  0.00    -0.160 C  
HETATM   35  C   UNL     1      -8.361   4.038  73.751  1.00  0.00    -0.092 C  
HETATM   36  C   UNL     1     -10.554   2.906  73.712  1.00  0.00    -0.262 C  
HETATM   37  C   UNL     1     -10.368   5.338  74.374  1.00  0.00    -0.302 C  
ENDBRANCH  28  34
ENDBRANCH  21  22
ENDBRANCH   2  21
TORSDOF 8
ENDMDL
MODEL      213
REMARK 921   NORMALIZED FREE ENERGY PREDICTED BY IDOCK:   -3.94 KCAL/MOL
REMARK 922        TOTAL FREE ENERGY PREDICTED BY IDOCK:   -6.38 KCAL/MOL
REMARK 923 INTER-LIGAND FREE ENERGY PREDICTED BY IDOCK:   -6.09 KCAL/MOL
REMARK 924 INTRA-LIGAND FREE ENERGY PREDICTED BY IDOCK:   -0.29 KCAL/MOL
REMARK 927      BINDING AFFINITY PREDICTED BY RF-SCORE:    0.00 PKD
ROOT
HETATM    1  C   UNL     1     -13.288  13.572  72.298  1.00  0.00    -0.628 C  
HETATM    2  C   UNL     1     -12.612  13.786  70.932  1.00  0.00    -0.356 C  
HETATM    3  C   UNL     1     -11.096  13.913  71.160  1.00  0.00     1.558 C  
ENDROOT
BRANCH   2   4
HETATM    4  S   UNL     1     -13.223  15.373  70.212  1.00  0.00     0.235 SA 
BRANCH   4   5
HETATM    5  C   UNL     1     -12.126  15.701  68.836  1.00  0.00    -0.161 A  
HETATM    6  C   UNL     1     -10.653  16.303  66.535  1.00  0.00    -0.256 A  
HETATM    7  O   UNL     1      -9.977  16.690  65.414  1.00  0.00    -0.565 OA 
HETATM    8  H   UNL     1      -9.494  17.507  65.384  1.00  0.00     0.000 HD 
HETATM    9  C   UNL     1     -12.128  14.830  67.752  1.00  0.00    -0.141 A  
HETATM   10  C   UNL     1     -10.625  17.217  67.610  1.00  0.00    -0.343 A  
HETATM   11  C   UNL     1     -11.356  16.855  68.744  1.00  0.00     0.073 A  
HETATM   12  C   UNL     1     -11.377  15.077  66.580  1.00  0.00    -0.289 A  
BRANCH  12  13
HETATM   13  C   UNL     1     -11.420  14.040  65.429  1.00  0.00    -0.315 C  
HETATM   14  C   UNL     1     -10.034  13.887  64.760  1.00  0.00    -0.105 C  
HETATM   15  C   UNL     1     -12.482  14.434  64.381  1.00  0.00    -0.339 C  
HETATM   16  C   UNL     1     -11.793  12.605  65.900  1.00  0.00    -0.499 C  
ENDBRANCH  12  13
BRANCH  10  17
HETATM   17  C   UNL     1      -9.838  18.554  67.606  1.00  0.00    -0.335 C  
HETATM   18  C   UNL     1      -8.325  18.313  67.413  1.00  0.00    -0.245 C  
HETATM   19  C   UNL     1     -10.245  19.534  66.464  1.00  0.00    -0.568 C  
HETATM   20  C   UNL     1     -10.096  19.318  68.920  1.00  0.00    -0.434 C  
ENDBRANCH  10  17
ENDBRANCH   4   5
ENDBRANCH   2   4
BRANCH   2  21
HETATM   21  S   UNL     1     -12.911  12.281  69.907  1.00  0.00     0.863 SA 
BRANCH  21  22
HETATM   22  C   UNL     1     -11.369  11.370  69.967  1.00  0.00    -0.176 A  
HETATM   23  C   UNL     1     -10.311  11.571  69.078  1.00  0.00    -0.143 A  
HETATM   24  C   UNL     1     -11.294  10.305  70.851  1.00  0.00    -0.376 A  
HETATM   25  H   UNL     1      -7.392   8.989  69.229  1.00  0.00     0.000 HD 
HETATM   26  O   UNL     1      -8.088   8.823  69.854  1.00  0.00    -0.100 OA 
HETATM   27  C   UNL     1     -10.201   9.419  70.882  1.00  0.00    -0.373 A  
HETATM   28  C   UNL     1      -9.176  10.750  69.038  1.00  0.00    -0.157 A  
HETATM   29  C   UNL     1      -9.156   9.669  69.944  1.00  0.00    -0.225 A  
BRANCH  27  30
HETATM   30  C   UNL     1     -10.241   8.218  71.861  1.00  0.00    -0.314 C  
HETATM   31  C   UNL     1      -9.249   8.363  73.053  1.00  0.00    -0.256 C  
HETATM   32  C   UNL     1     -11.643   8.086  72.488  1.00  0.00    -0.464 C  
HETATM   33  C   UNL     1      -9.834   6.902  71.164  1.00  0.00    -0.184 C  
ENDBRANCH  27  30
BRANCH  28  34
HETATM   34  C   UNL     1      -8.020  11.072  68.048  1.00  0.00    -0.115 C  
HETATM   35  C   UNL     1      -8.185  12.426  67.294  1.00  0.00    -0.184 C  
HETATM   36  C   UNL     1      -7.893  10.000  66.943  1.00  0.00    -0.106 C  
HETATM   37  C   UNL     1      -6.689  11.187  68.822  1.00  0.00    -0.067 C  
ENDBRANCH  28  34
ENDBRANCH  21  22
ENDBRANCH   2  21
TORSDOF 8
ENDMDL
MODEL      214
REMARK 921   NORMALIZED FREE ENERGY PREDICTED BY IDOCK:   -3.93 KCAL/MOL
REMARK 922        TOTAL FREE ENERGY PREDICTED BY IDOCK:   -6.37 KCAL/MOL
REMARK 923 INTER-LIGAND FREE ENERGY PREDICTED BY IDOCK:   -6.36 KCAL/MOL
REMARK 924 INTRA-LIGAND FREE ENERGY PREDICTED BY IDOCK:   -0.01 KCAL/MOL
REMARK 927      BINDING AFFINITY PREDICTED BY RF-SCORE:    0.00 PKD
ROOT
HETATM    1  C   UNL     1     -11.238  12.661  67.855  1.00  0.00    -0.310 C  
HETATM    2  C   UNL     1     -10.518  11.312  67.685  1.00  0.00    -0.193 C  
HETATM    3  C   UNL     1     -11.388  10.218  68.325  1.00  0.00    -0.245 C  
ENDROOT
BRANCH   2   4
HETATM    4  S   UNL     1      -8.912  11.380  68.593  1.00  0.00    -0.085 SA 
BRANCH   4   5
HETATM    5  C   UNL     1      -8.855   9.857  69.532  1.00  0.00    -0.197 A  
HETATM    6  C   UNL     1      -8.952   7.365  70.798  1.00  0.00    -0.151 A  
HETATM    7  O   UNL     1      -8.975   6.105  71.326  1.00  0.00    -0.139 OA 
HETATM    8  H   UNL     1      -8.254   5.500  71.194  1.00  0.00     0.000 HD 
HETATM    9  C   UNL     1      -9.950   9.508  70.314  1.00  0.00    -0.310 A  
HETATM   10  C   UNL     1      -7.822   7.676  70.012  1.00  0.00    -0.101 A  
HETATM   11  C   UNL     1      -7.813   8.943  69.424  1.00  0.00    -0.098 A  
HETATM   12  C   UNL     1     -10.032   8.272  70.996  1.00  0.00    -0.226 A  
BRANCH  12  13
HETATM   13  C   UNL     1     -11.281   7.974  71.863  1.00  0.00    -0.335 C  
HETATM   14  C   UNL     1     -10.886   7.654  73.323  1.00  0.00    -0.379 C  
HETATM   15  C   UNL     1     -12.099   6.814  71.260  1.00  0.00    -0.421 C  
HETATM   16  C   UNL     1     -12.261   9.178  71.974  1.00  0.00    -0.443 C  
ENDBRANCH  12  13
BRANCH  10  17
HETATM   17  C   UNL     1      -6.620   6.722  69.784  1.00  0.00    -0.048 C  
HETATM   18  C   UNL     1      -7.019   5.251  70.027  1.00  0.00    -0.060 C  
HETATM   19  C   UNL     1      -6.040   6.755  68.338  1.00  0.00    -0.026 C  
HETATM   20  C   UNL     1      -5.452   7.121  70.709  1.00  0.00    -0.024 C  
ENDBRANCH  10  17
ENDBRANCH   4   5
ENDBRANCH   2   4
BRANCH   2  21
HETATM   21  S   UNL     1     -10.395  10.957  65.878  1.00  0.00    -0.228 SA 
BRANCH  21  22
HETATM   22  C   UNL     1      -9.440   9.445  65.770  1.00  0.00    -0.259 A  
HETATM   23  C   UNL     1      -8.301   9.298  64.976  1.00  0.00    -0.160 A  
HETATM   24  C   UNL     1      -9.959   8.320  66.393  1.00  0.00    -0.264 A  
HETATM   25  H   UNL     1      -6.880   5.685  64.615  1.00  0.00     0.000 HD 
HETATM   26  O   UNL     1      -7.650   5.744  65.169  1.00  0.00    -0.079 OA 
HETATM   27  C   UNL     1      -9.387   7.042  66.251  1.00  0.00    -0.146 A  
HETATM   28  C   UNL     1      -7.655   8.070  64.780  1.00  0.00    -0.105 A  
HETATM   29  C   UNL     1      -8.232   6.953  65.420  1.00  0.00    -0.134 A  
BRANCH  27  30
HETATM   30  C   UNL     1     -10.079   5.835  66.933  1.00  0.00    -0.231 C  
HETATM   31  C   UNL     1      -9.090   4.914  67.706  1.00  0.00    -0.128 C  
HETATM   32  C   UNL     1     -11.105   6.326  67.975  1.00  0.00    -0.365 C  
HETATM   33  C   UNL     1     -10.758   4.910  65.900  1.00  0.00    -0.233 C  
ENDBRANCH  27  30
BRANCH  28  34
HETATM   34  C   UNL     1      -6.362   8.003  63.918  1.00  0.00    -0.066 C  
HETATM   35  C   UNL     1      -6.469   7.061  62.681  1.00  0.00    -0.052 C  
HETATM   36  C   UNL     1      -5.156   7.478  64.729  1.00  0.00    -0.029 C  
HETATM   37  C   UNL     1      -6.042   9.402  63.348  1.00  0.00    -0.092 C  
ENDBRANCH  28  34
ENDBRANCH  21  22
ENDBRANCH   2  21
TORSDOF 8
ENDMDL
MODEL      215
REMARK 921   NORMALIZED FREE ENERGY PREDICTED BY IDOCK:   -3.93 KCAL/MOL
REMARK 922        TOTAL FREE ENERGY PREDICTED BY IDOCK:   -6.36 KCAL/MOL
REMARK 923 INTER-LIGAND FREE ENERGY PREDICTED BY IDOCK:   -6.45 KCAL/MOL
REMARK 924 INTRA-LIGAND FREE ENERGY PREDICTED BY IDOCK:    0.09 KCAL/MOL
REMARK 927      BINDING AFFINITY PREDICTED BY RF-SCORE:    0.00 PKD
ROOT
HETATM    1  C   UNL     1      -8.704  10.878  66.204  1.00  0.00    -0.189 C  
HETATM    2  C   UNL     1      -8.588   9.811  67.307  1.00  0.00    -0.128 C  
HETATM    3  C   UNL     1      -9.925   9.057  67.391  1.00  0.00    -0.266 C  
ENDROOT
BRANCH   2   4
HETATM    4  S   UNL     1      -8.300  10.659  68.921  1.00  0.00    -0.148 SA 
BRANCH   4   5
HETATM    5  C   UNL     1      -9.128   9.632  70.131  1.00  0.00    -0.240 A  
HETATM    6  C   UNL     1     -10.355   8.235  72.221  1.00  0.00    -0.316 A  
HETATM    7  O   UNL     1     -11.008   7.639  73.261  1.00  0.00    -0.425 OA 
HETATM    8  H   UNL     1     -11.955   7.675  73.339  1.00  0.00     0.000 HD 
HETATM    9  C   UNL     1      -8.361   8.923  71.049  1.00  0.00    -0.233 A  
HETATM   10  C   UNL     1     -11.172   8.943  71.313  1.00  0.00    -0.368 A  
HETATM   11  C   UNL     1     -10.510   9.600  70.274  1.00  0.00    -0.338 A  
HETATM   12  C   UNL     1      -8.937   8.180  72.104  1.00  0.00    -0.246 A  
BRANCH  12  13
HETATM   13  C   UNL     1      -8.007   7.402  73.070  1.00  0.00    -0.125 C  
HETATM   14  C   UNL     1      -8.544   5.977  73.340  1.00  0.00    -0.120 C  
HETATM   15  C   UNL     1      -7.833   8.171  74.396  1.00  0.00    -0.298 C  
HETATM   16  C   UNL     1      -6.572   7.184  72.509  1.00  0.00    -0.052 C  
ENDBRANCH  12  13
BRANCH  10  17
HETATM   17  C   UNL     1     -12.720   9.015  71.397  1.00  0.00    -0.361 C  
HETATM   18  C   UNL     1     -13.367   7.679  70.970  1.00  0.00    -0.074 C  
HETATM   19  C   UNL     1     -13.272   9.298  72.827  1.00  0.00    -0.172 C  
HETATM   20  C   UNL     1     -13.239  10.169  70.516  1.00  0.00    -0.089 C  
ENDBRANCH  10  17
ENDBRANCH   4   5
ENDBRANCH   2   4
BRANCH   2  21
HETATM   21  S   UNL     1      -7.285   8.607  66.798  1.00  0.00    -0.079 SA 
BRANCH  21  22
HETATM   22  C   UNL     1      -8.079   7.003  66.895  1.00  0.00    -0.116 A  
HETATM   23  C   UNL     1      -8.315   6.322  68.091  1.00  0.00    -0.115 A  
HETATM   24  C   UNL     1      -8.327   6.344  65.701  1.00  0.00    -0.147 A  
HETATM   25  H   UNL     1      -9.547   2.635  67.784  1.00  0.00     0.000 HD 
HETATM   26  O   UNL     1      -9.405   3.066  66.949  1.00  0.00    -0.168 OA 
HETATM   27  C   UNL     1      -8.800   5.020  65.649  1.00  0.00    -0.143 A  
HETATM   28  C   UNL     1      -8.794   5.006  68.143  1.00  0.00    -0.110 A  
HETATM   29  C   UNL     1      -9.013   4.373  66.901  1.00  0.00    -0.118 A  
BRANCH  27  30
HETATM   30  C   UNL     1      -8.983   4.347  64.265  1.00  0.00    -0.151 C  
HETATM   31  C   UNL     1      -8.089   3.087  64.070  1.00  0.00    -0.082 C  
HETATM   32  C   UNL     1     -10.438   3.866  64.092  1.00  0.00    -0.246 C  
HETATM   33  C   UNL     1      -8.586   5.296  63.113  1.00  0.00    -0.058 C  
ENDBRANCH  27  30
BRANCH  28  34
HETATM   34  C   UNL     1      -9.076   4.336  69.519  1.00  0.00    -0.183 C  
HETATM   35  C   UNL     1      -7.841   4.285  70.468  1.00  0.00    -0.052 C  
HETATM   36  C   UNL     1      -9.533   2.869  69.361  1.00  0.00    -0.158 C  
HETATM   37  C   UNL     1     -10.151   5.142  70.279  1.00  0.00    -0.338 C  
ENDBRANCH  28  34
ENDBRANCH  21  22
ENDBRANCH   2  21
TORSDOF 8
ENDMDL
MODEL      216
REMARK 921   NORMALIZED FREE ENERGY PREDICTED BY IDOCK:   -3.93 KCAL/MOL
REMARK 922        TOTAL FREE ENERGY PREDICTED BY IDOCK:   -6.36 KCAL/MOL
REMARK 923 INTER-LIGAND FREE ENERGY PREDICTED BY IDOCK:   -6.61 KCAL/MOL
REMARK 924 INTRA-LIGAND FREE ENERGY PREDICTED BY IDOCK:    0.24 KCAL/MOL
REMARK 927      BINDING AFFINITY PREDICTED BY RF-SCORE:    0.00 PKD
ROOT
HETATM    1  C   UNL     1     -11.185  10.341  70.643  1.00  0.00    -0.406 C  
HETATM    2  C   UNL     1     -10.988  11.236  69.407  1.00  0.00    -0.228 C  
HETATM    3  C   UNL     1      -9.478  11.421  69.182  1.00  0.00     0.120 C  
ENDROOT
BRANCH   2   4
HETATM    4  S   UNL     1     -11.729  12.891  69.753  1.00  0.00    -0.235 SA 
BRANCH   4   5
HETATM    5  C   UNL     1     -11.451  13.836  68.258  1.00  0.00    -0.312 A  
HETATM    6  C   UNL     1     -10.730  15.232  65.944  1.00  0.00    -0.334 A  
HETATM    7  O   UNL     1     -10.336  15.827  64.779  1.00  0.00    -0.570 OA 
HETATM    8  H   UNL     1     -10.525  15.435  63.934  1.00  0.00     0.000 HD 
HETATM    9  C   UNL     1     -10.806  15.065  68.350  1.00  0.00    -0.256 A  
HETATM   10  C   UNL     1     -11.380  13.988  65.804  1.00  0.00    -0.312 A  
HETATM   11  C   UNL     1     -11.741  13.346  66.990  1.00  0.00    -0.426 A  
HETATM   12  C   UNL     1     -10.448  15.820  67.210  1.00  0.00    -0.308 A  
BRANCH  12  13
HETATM   13  C   UNL     1      -9.751  17.191  67.406  1.00  0.00    -0.253 C  
HETATM   14  C   UNL     1      -9.493  17.481  68.902  1.00  0.00    -0.189 C  
HETATM   15  C   UNL     1     -10.589  18.323  66.775  1.00  0.00    -0.338 C  
HETATM   16  C   UNL     1      -8.348  17.274  66.738  1.00  0.00    -0.276 C  
ENDBRANCH  12  13
BRANCH  10  17
HETATM   17  C   UNL     1     -11.719  13.322  64.444  1.00  0.00    -0.433 C  
HETATM   18  C   UNL     1     -12.850  12.282  64.595  1.00  0.00    -0.144 C  
HETATM   19  C   UNL     1     -12.219  14.314  63.351  1.00  0.00     0.418 C  
HETATM   20  C   UNL     1     -10.456  12.660  63.856  1.00  0.00    -0.441 C  
ENDBRANCH  10  17
ENDBRANCH   4   5
ENDBRANCH   2   4
BRANCH   2  21
HETATM   21  S   UNL     1     -11.678  10.346  67.945  1.00  0.00     0.775 SA 
BRANCH  21  22
HETATM   22  C   UNL     1     -10.541   8.992  67.653  1.00  0.00    -0.231 A  
HETATM   23  C   UNL     1     -10.372   7.914  68.525  1.00  0.00    -0.229 A  
HETATM   24  C   UNL     1      -9.675   9.111  66.576  1.00  0.00    -0.306 A  
HETATM   25  H   UNL     1      -7.401   5.506  67.767  1.00  0.00     0.000 HD 
HETATM   26  O   UNL     1      -7.486   6.221  67.148  1.00  0.00    -0.082 OA 
HETATM   27  C   UNL     1      -8.636   8.194  66.334  1.00  0.00    -0.150 A  
HETATM   28  C   UNL     1      -9.374   6.945  68.363  1.00  0.00    -0.129 A  
HETATM   29  C   UNL     1      -8.507   7.121  67.263  1.00  0.00    -0.122 A  
BRANCH  27  30
HETATM   30  C   UNL     1      -7.678   8.449  65.142  1.00  0.00    -0.097 C  
HETATM   31  C   UNL     1      -8.078   9.688  64.286  1.00  0.00    -0.146 C  
HETATM   32  C   UNL     1      -6.251   8.730  65.653  1.00  0.00    -0.052 C  
HETATM   33  C   UNL     1      -7.676   7.266  64.150  1.00  0.00    -0.120 C  
ENDBRANCH  27  30
BRANCH  28  34
HETATM   34  C   UNL     1      -9.286   5.749  69.353  1.00  0.00    -0.144 C  
HETATM   35  C   UNL     1      -9.111   4.362  68.664  1.00  0.00    -0.171 C  
HETATM   36  C   UNL     1     -10.561   5.621  70.215  1.00  0.00    -0.370 C  
HETATM   37  C   UNL     1      -8.051   5.918  70.266  1.00  0.00    -0.107 C  
ENDBRANCH  28  34
ENDBRANCH  21  22
ENDBRANCH   2  21
TORSDOF 8
ENDMDL
MODEL      217
REMARK 921   NORMALIZED FREE ENERGY PREDICTED BY IDOCK:   -3.92 KCAL/MOL
REMARK 922        TOTAL FREE ENERGY PREDICTED BY IDOCK:   -6.35 KCAL/MOL
REMARK 923 INTER-LIGAND FREE ENERGY PREDICTED BY IDOCK:   -7.29 KCAL/MOL
REMARK 924 INTRA-LIGAND FREE ENERGY PREDICTED BY IDOCK:    0.94 KCAL/MOL
REMARK 927      BINDING AFFINITY PREDICTED BY RF-SCORE:    0.00 PKD
ROOT
HETATM    1  C   UNL     1      -9.937  14.024  64.943  1.00  0.00    -0.161 C  
HETATM    2  C   UNL     1     -11.442  14.040  65.265  1.00  0.00    -0.322 C  
HETATM    3  C   UNL     1     -12.129  15.026  64.306  1.00  0.00    -0.323 C  
ENDROOT
BRANCH   2   4
HETATM    4  S   UNL     1     -11.671  14.654  66.990  1.00  0.00    -0.321 SA 
BRANCH   4   5
HETATM    5  C   UNL     1     -10.274  15.736  67.279  1.00  0.00    -0.268 A  
HETATM    6  C   UNL     1      -8.214  17.487  67.993  1.00  0.00    -0.239 A  
HETATM    7  O   UNL     1      -7.197  18.288  68.428  1.00  0.00    -0.248 OA 
HETATM    8  H   UNL     1      -6.377  17.923  68.740  1.00  0.00     0.000 HD 
HETATM    9  C   UNL     1     -10.463  17.111  67.202  1.00  0.00    -0.291 A  
HETATM   10  C   UNL     1      -7.980  16.099  68.088  1.00  0.00    -0.148 A  
HETATM   11  C   UNL     1      -9.032  15.270  67.694  1.00  0.00    -0.182 A  
HETATM   12  C   UNL     1      -9.443  18.035  67.525  1.00  0.00    -0.262 A  
BRANCH  12  13
HETATM   13  C   UNL     1      -9.732  19.551  67.391  1.00  0.00    -0.449 C  
HETATM   14  C   UNL     1      -8.497  20.314  66.861  1.00  0.00    -0.354 C  
HETATM   15  C   UNL     1     -10.189  20.140  68.742  1.00  0.00    -0.323 C  
HETATM   16  C   UNL     1     -10.865  19.879  66.376  1.00  0.00    -0.315 C  
ENDBRANCH  12  13
BRANCH  10  17
HETATM   17  C   UNL     1      -6.651  15.463  68.578  1.00  0.00    -0.109 C  
HETATM   18  C   UNL     1      -6.039  16.272  69.741  1.00  0.00    -0.198 C  
HETATM   19  C   UNL     1      -6.799  14.010  69.123  1.00  0.00    -0.112 C  
HETATM   20  C   UNL     1      -5.654  15.368  67.406  1.00  0.00     0.114 C  
ENDBRANCH  10  17
ENDBRANCH   4   5
ENDBRANCH   2   4
BRANCH   2  21
HETATM   21  S   UNL     1     -12.113  12.354  64.925  1.00  0.00    -0.374 SA 
BRANCH  21  22
HETATM   22  C   UNL     1     -10.752  11.240  65.270  1.00  0.00    -0.237 A  
HETATM   23  C   UNL     1      -9.807  10.848  64.319  1.00  0.00    -0.365 A  
HETATM   24  C   UNL     1     -10.737  10.619  66.509  1.00  0.00    -0.218 A  
HETATM   25  H   UNL     1      -7.371   7.987  65.360  1.00  0.00     0.000 HD 
HETATM   26  O   UNL     1      -7.993   8.229  66.035  1.00  0.00    -0.092 OA 
HETATM   27  C   UNL     1      -9.815   9.610  66.842  1.00  0.00    -0.257 A  
HETATM   28  C   UNL     1      -8.843   9.860  64.558  1.00  0.00    -0.238 A  
HETATM   29  C   UNL     1      -8.881   9.245  65.828  1.00  0.00    -0.177 A  
BRANCH  27  30
HETATM   30  C   UNL     1      -9.922   8.929  68.230  1.00  0.00    -0.201 C  
HETATM   31  C   UNL     1     -10.257   9.925  69.379  1.00  0.00    -0.231 C  
HETATM   32  C   UNL     1     -11.058   7.886  68.227  1.00  0.00     0.303 C  
HETATM   33  C   UNL     1      -8.587   8.275  68.648  1.00  0.00    -0.133 C  
ENDBRANCH  27  30
BRANCH  28  34
HETATM   34  C   UNL     1      -7.795   9.517  63.461  1.00  0.00    -0.134 C  
HETATM   35  C   UNL     1      -6.334   9.396  63.990  1.00  0.00    -0.094 C  
HETATM   36  C   UNL     1      -7.743  10.597  62.357  1.00  0.00    -0.189 C  
HETATM   37  C   UNL     1      -8.125   8.144  62.837  1.00  0.00    -0.143 C  
ENDBRANCH  28  34
ENDBRANCH  21  22
ENDBRANCH   2  21
TORSDOF 8
ENDMDL
MODEL      218
REMARK 921   NORMALIZED FREE ENERGY PREDICTED BY IDOCK:   -3.92 KCAL/MOL
REMARK 922        TOTAL FREE ENERGY PREDICTED BY IDOCK:   -6.35 KCAL/MOL
REMARK 923 INTER-LIGAND FREE ENERGY PREDICTED BY IDOCK:   -7.39 KCAL/MOL
REMARK 924 INTRA-LIGAND FREE ENERGY PREDICTED BY IDOCK:    1.04 KCAL/MOL
REMARK 927      BINDING AFFINITY PREDICTED BY RF-SCORE:    0.00 PKD
ROOT
HETATM    1  C   UNL     1      -8.297  11.257  68.663  1.00  0.00    -0.146 C  
HETATM    2  C   UNL     1      -8.654   9.786  68.940  1.00  0.00    -0.134 C  
HETATM    3  C   UNL     1      -8.473   9.522  70.444  1.00  0.00    -0.238 C  
ENDROOT
BRANCH   2   4
HETATM    4  S   UNL     1      -7.475   8.707  68.015  1.00  0.00    -0.098 SA 
BRANCH   4   5
HETATM    5  C   UNL     1      -8.245   7.091  68.010  1.00  0.00    -0.119 A  
HETATM    6  C   UNL     1      -9.177   4.454  67.951  1.00  0.00    -0.136 A  
HETATM    7  O   UNL     1      -9.561   3.145  67.992  1.00  0.00    -0.185 OA 
HETATM    8  H   UNL     1      -9.739   2.706  68.817  1.00  0.00     0.000 HD 
HETATM    9  C   UNL     1      -8.417   6.433  66.796  1.00  0.00    -0.112 A  
HETATM   10  C   UNL     1      -9.016   5.083  69.204  1.00  0.00    -0.130 A  
HETATM   11  C   UNL     1      -8.573   6.407  69.175  1.00  0.00    -0.125 A  
HETATM   12  C   UNL     1      -8.912   5.111  66.715  1.00  0.00    -0.113 A  
BRANCH  12  13
HETATM   13  C   UNL     1      -9.092   4.462  65.319  1.00  0.00    -0.146 C  
HETATM   14  C   UNL     1     -10.587   4.353  64.940  1.00  0.00    -0.120 C  
HETATM   15  C   UNL     1      -8.423   3.072  65.275  1.00  0.00    -0.099 C  
HETATM   16  C   UNL     1      -8.449   5.283  64.165  1.00  0.00    -0.108 C  
ENDBRANCH  12  13
BRANCH  10  17
HETATM   17  C   UNL     1      -9.308   4.407  70.570  1.00  0.00    -0.213 C  
HETATM   18  C   UNL     1     -10.513   5.067  71.274  1.00  0.00    -0.213 C  
HETATM   19  C   UNL     1      -9.670   2.894  70.472  1.00  0.00    -0.084 C  
HETATM   20  C   UNL     1      -8.057   4.478  71.467  1.00  0.00    -0.100 C  
ENDBRANCH  10  17
ENDBRANCH   4   5
ENDBRANCH   2   4
BRANCH   2  21
HETATM   21  S   UNL     1     -10.438   9.548  68.531  1.00  0.00    -0.212 SA 
BRANCH  21  22
HETATM   22  C   UNL     1     -11.075  11.203  68.272  1.00  0.00    -0.251 A  
HETATM   23  C   UNL     1     -10.977  11.895  67.063  1.00  0.00    -0.326 A  
HETATM   24  C   UNL     1     -11.550  11.882  69.384  1.00  0.00    -0.388 A  
HETATM   25  H   UNL     1     -11.991  15.660  67.122  1.00  0.00     0.000 HD 
HETATM   26  O   UNL     1     -12.078  15.223  67.961  1.00  0.00    -0.155 OA 
HETATM   27  C   UNL     1     -11.930  13.236  69.341  1.00  0.00    -0.356 A  
HETATM   28  C   UNL     1     -11.339  13.241  66.918  1.00  0.00    -0.351 A  
HETATM   29  C   UNL     1     -11.798  13.892  68.082  1.00  0.00    -0.372 A  
BRANCH  27  30
HETATM   30  C   UNL     1     -12.385  13.925  70.653  1.00  0.00    -0.451 C  
HETATM   31  C   UNL     1     -13.624  14.850  70.464  1.00  0.00     0.061 C  
HETATM   32  C   UNL     1     -12.799  12.868  71.696  1.00  0.00    -0.368 C  
HETATM   33  C   UNL     1     -11.285  14.847  71.223  1.00  0.00    -0.183 C  
ENDBRANCH  27  30
BRANCH  28  34
HETATM   34  C   UNL     1     -11.244  13.924  65.523  1.00  0.00    -0.307 C  
HETATM   35  C   UNL     1     -10.372  15.215  65.504  1.00  0.00    -0.399 C  
HETATM   36  C   UNL     1     -12.632  14.358  65.001  1.00  0.00    -0.309 C  
HETATM   37  C   UNL     1     -10.582  12.960  64.515  1.00  0.00    -0.403 C  
ENDBRANCH  28  34
ENDBRANCH  21  22
ENDBRANCH   2  21
TORSDOF 8
ENDMDL
MODEL      219
REMARK 921   NORMALIZED FREE ENERGY PREDICTED BY IDOCK:   -3.92 KCAL/MOL
REMARK 922        TOTAL FREE ENERGY PREDICTED BY IDOCK:   -6.35 KCAL/MOL
REMARK 923 INTER-LIGAND FREE ENERGY PREDICTED BY IDOCK:   -7.17 KCAL/MOL
REMARK 924 INTRA-LIGAND FREE ENERGY PREDICTED BY IDOCK:    0.82 KCAL/MOL
REMARK 927      BINDING AFFINITY PREDICTED BY RF-SCORE:    0.00 PKD
ROOT
HETATM    1  C   UNL     1     -11.796  12.558  70.130  1.00  0.00    -0.336 C  
HETATM    2  C   UNL     1     -11.455  11.123  69.690  1.00  0.00    -0.310 C  
HETATM    3  C   UNL     1     -12.354  10.760  68.496  1.00  0.00     0.593 C  
ENDROOT
BRANCH   2   4
HETATM    4  S   UNL     1     -11.844   9.972  71.079  1.00  0.00    -0.407 SA 
BRANCH   4   5
HETATM    5  C   UNL     1     -10.649   8.649  70.922  1.00  0.00    -0.214 A  
HETATM    6  C   UNL     1      -8.963   6.417  70.846  1.00  0.00    -0.144 A  
HETATM    7  O   UNL     1      -8.221   5.273  70.777  1.00  0.00    -0.105 OA 
HETATM    8  H   UNL     1      -8.228   4.724  70.002  1.00  0.00     0.000 HD 
HETATM    9  C   UNL     1      -9.840   8.341  72.011  1.00  0.00    -0.327 A  
HETATM   10  C   UNL     1      -9.768   6.691  69.720  1.00  0.00    -0.168 A  
HETATM   11  C   UNL     1     -10.571   7.831  69.801  1.00  0.00    -0.241 A  
HETATM   12  C   UNL     1      -8.952   7.241  72.009  1.00  0.00    -0.143 A  
BRANCH  12  13
HETATM   13  C   UNL     1      -8.071   6.984  73.258  1.00  0.00    -0.112 C  
HETATM   14  C   UNL     1      -8.208   8.130  74.286  1.00  0.00    -0.290 C  
HETATM   15  C   UNL     1      -6.594   6.797  72.853  1.00  0.00    -0.066 C  
HETATM   16  C   UNL     1      -8.467   5.699  74.042  1.00  0.00    -0.114 C  
ENDBRANCH  12  13
BRANCH  10  17
HETATM   17  C   UNL     1      -9.798   5.828  68.431  1.00  0.00    -0.174 C  
HETATM   18  C   UNL     1      -9.958   4.329  68.764  1.00  0.00    -0.023 C  
HETATM   19  C   UNL     1     -10.974   6.161  67.464  1.00  0.00    -0.404 C  
HETATM   20  C   UNL     1      -8.510   6.062  67.615  1.00  0.00    -0.107 C  
ENDBRANCH  10  17
ENDBRANCH   4   5
ENDBRANCH   2   4
BRANCH   2  21
HETATM   21  S   UNL     1      -9.703  11.107  69.110  1.00  0.00     0.059 SA 
BRANCH  21  22
HETATM   22  C   UNL     1      -9.810  11.173  67.323  1.00  0.00    -0.175 A  
HETATM   23  C   UNL     1      -9.045  10.376  66.467  1.00  0.00    -0.175 A  
HETATM   24  C   UNL     1     -10.584  12.180  66.769  1.00  0.00    -0.256 A  
HETATM   25  H   UNL     1      -9.197  11.251  62.670  1.00  0.00     0.000 HD 
HETATM   26  O   UNL     1      -9.736  11.810  63.217  1.00  0.00    -0.377 OA 
HETATM   27  C   UNL     1     -10.623  12.434  65.385  1.00  0.00    -0.316 A  
HETATM   28  C   UNL     1      -9.024  10.545  65.076  1.00  0.00    -0.223 A  
HETATM   29  C   UNL     1      -9.814  11.595  64.564  1.00  0.00    -0.224 A  
BRANCH  27  30
HETATM   30  C   UNL     1     -11.468  13.627  64.869  1.00  0.00    -0.352 C  
HETATM   31  C   UNL     1     -12.679  13.966  65.787  1.00  0.00    -0.503 C  
HETATM   32  C   UNL     1     -10.607  14.905  64.811  1.00  0.00    -0.336 C  
HETATM   33  C   UNL     1     -12.088  13.329  63.487  1.00  0.00    -0.550 C  
ENDBRANCH  27  30
BRANCH  28  34
HETATM   34  C   UNL     1      -8.181   9.583  64.191  1.00  0.00    -0.159 C  
HETATM   35  C   UNL     1      -8.707   9.436  62.731  1.00  0.00    -0.231 C  
HETATM   36  C   UNL     1      -8.156   8.148  64.764  1.00  0.00    -0.152 C  
HETATM   37  C   UNL     1      -6.740  10.122  64.062  1.00  0.00    -0.107 C  
ENDBRANCH  28  34
ENDBRANCH  21  22
ENDBRANCH   2  21
TORSDOF 8
ENDMDL
MODEL      220
REMARK 921   NORMALIZED FREE ENERGY PREDICTED BY IDOCK:   -3.90 KCAL/MOL
REMARK 922        TOTAL FREE ENERGY PREDICTED BY IDOCK:   -6.32 KCAL/MOL
REMARK 923 INTER-LIGAND FREE ENERGY PREDICTED BY IDOCK:   -6.98 KCAL/MOL
REMARK 924 INTRA-LIGAND FREE ENERGY PREDICTED BY IDOCK:    0.66 KCAL/MOL
REMARK 927      BINDING AFFINITY PREDICTED BY RF-SCORE:    0.00 PKD
ROOT
HETATM    1  C   UNL     1     -11.423  11.183  69.650  1.00  0.00    -0.383 C  
HETATM    2  C   UNL     1     -10.470   9.978  69.562  1.00  0.00    -0.240 C  
HETATM    3  C   UNL     1     -11.089   8.943  68.608  1.00  0.00     0.195 C  
ENDROOT
BRANCH   2   4
HETATM    4  S   UNL     1     -10.332   9.211  71.236  1.00  0.00    -0.338 SA 
BRANCH   4   5
HETATM    5  C   UNL     1      -9.791   7.533  70.926  1.00  0.00    -0.177 A  
HETATM    6  C   UNL     1      -8.684   4.991  70.559  1.00  0.00    -0.113 A  
HETATM    7  O   UNL     1      -8.119   3.750  70.479  1.00  0.00    -0.053 OA 
HETATM    8  H   UNL     1      -8.342   3.063  71.096  1.00  0.00     0.000 HD 
HETATM    9  C   UNL     1      -8.912   7.294  69.875  1.00  0.00    -0.142 A  
HETATM   10  C   UNL     1      -9.569   5.189  71.639  1.00  0.00    -0.204 A  
HETATM   11  C   UNL     1     -10.113   6.470  71.761  1.00  0.00    -0.202 A  
HETATM   12  C   UNL     1      -8.350   6.020  69.632  1.00  0.00    -0.119 A  
BRANCH  12  13
HETATM   13  C   UNL     1      -7.396   5.838  68.425  1.00  0.00    -0.080 C  
HETATM   14  C   UNL     1      -7.861   4.680  67.512  1.00  0.00    -0.090 C  
HETATM   15  C   UNL     1      -5.950   5.597  68.904  1.00  0.00    -0.024 C  
HETATM   16  C   UNL     1      -7.336   7.079  67.488  1.00  0.00    -0.092 C  
ENDBRANCH  12  13
BRANCH  10  17
HETATM   17  C   UNL     1      -9.970   4.091  72.660  1.00  0.00    -0.214 C  
HETATM   18  C   UNL     1     -10.133   2.720  71.971  1.00  0.00    -0.186 C  
HETATM   19  C   UNL     1      -8.926   3.859  73.794  1.00  0.00    -0.091 C  
HETATM   20  C   UNL     1     -11.276   4.492  73.375  1.00  0.00    -0.404 C  
ENDBRANCH  10  17
ENDBRANCH   4   5
ENDBRANCH   2   4
BRANCH   2  21
HETATM   21  S   UNL     1      -8.884  10.560  68.821  1.00  0.00    -0.164 SA 
BRANCH  21  22
HETATM   22  C   UNL     1      -9.273  10.890  67.103  1.00  0.00    -0.148 A  
HETATM   23  C   UNL     1      -8.704  10.201  66.030  1.00  0.00    -0.153 A  
HETATM   24  C   UNL     1     -10.066  11.994  66.832  1.00  0.00    -0.224 A  
HETATM   25  H   UNL     1      -9.413  11.625  62.470  1.00  0.00     0.000 HD 
HETATM   26  O   UNL     1      -9.823  12.117  63.172  1.00  0.00    -0.398 OA 
HETATM   27  C   UNL     1     -10.312  12.448  65.523  1.00  0.00    -0.298 A  
HETATM   28  C   UNL     1      -8.897  10.569  64.692  1.00  0.00    -0.211 A  
HETATM   29  C   UNL     1      -9.697  11.711  64.469  1.00  0.00    -0.178 A  
BRANCH  27  30
HETATM   30  C   UNL     1     -11.157  13.732  65.326  1.00  0.00    -0.315 C  
HETATM   31  C   UNL     1     -12.145  13.640  64.125  1.00  0.00    -0.484 C  
HETATM   32  C   UNL     1     -12.026  13.997  66.571  1.00  0.00    -0.470 C  
HETATM   33  C   UNL     1     -10.269  14.956  65.015  1.00  0.00    -0.365 C  
ENDBRANCH  27  30
BRANCH  28  34
HETATM   34  C   UNL     1      -8.266   9.718  63.553  1.00  0.00    -0.156 C  
HETATM   35  C   UNL     1      -6.970  10.332  62.942  1.00  0.00    -0.129 C  
HETATM   36  C   UNL     1      -9.235   9.540  62.364  1.00  0.00    -0.185 C  
HETATM   37  C   UNL     1      -7.851   8.337  64.104  1.00  0.00    -0.145 C  
ENDBRANCH  28  34
ENDBRANCH  21  22
ENDBRANCH   2  21
TORSDOF 8
ENDMDL
MODEL      221
REMARK 921   NORMALIZED FREE ENERGY PREDICTED BY IDOCK:   -3.89 KCAL/MOL
REMARK 922        TOTAL FREE ENERGY PREDICTED BY IDOCK:   -6.31 KCAL/MOL
REMARK 923 INTER-LIGAND FREE ENERGY PREDICTED BY IDOCK:   -6.00 KCAL/MOL
REMARK 924 INTRA-LIGAND FREE ENERGY PREDICTED BY IDOCK:   -0.31 KCAL/MOL
REMARK 927      BINDING AFFINITY PREDICTED BY RF-SCORE:    0.00 PKD
ROOT
HETATM    1  C   UNL     1     -12.179   7.993  71.112  1.00  0.00    -0.262 C  
HETATM    2  C   UNL     1     -11.160   9.036  70.620  1.00  0.00    -0.265 C  
HETATM    3  C   UNL     1     -11.638  10.426  71.069  1.00  0.00    -0.384 C  
ENDROOT
BRANCH   2   4
HETATM    4  S   UNL     1     -11.127   9.003  68.774  1.00  0.00     0.300 SA 
BRANCH   4   5
HETATM    5  C   UNL     1     -10.364  10.553  68.305  1.00  0.00    -0.168 A  
HETATM    6  C   UNL     1      -9.033  12.823  67.356  1.00  0.00    -0.195 A  
HETATM    7  O   UNL     1      -8.420  13.910  66.799  1.00  0.00    -0.417 OA 
HETATM    8  H   UNL     1      -8.898  14.521  66.250  1.00  0.00     0.000 HD 
HETATM    9  C   UNL     1      -9.024  10.762  68.612  1.00  0.00    -0.162 A  
HETATM   10  C   UNL     1     -10.392  12.649  67.017  1.00  0.00    -0.241 A  
HETATM   11  C   UNL     1     -11.015  11.513  67.539  1.00  0.00    -0.308 A  
HETATM   12  C   UNL     1      -8.317  11.908  68.180  1.00  0.00    -0.161 A  
BRANCH  12  13
HETATM   13  C   UNL     1      -6.831  12.072  68.587  1.00  0.00    -0.091 C  
HETATM   14  C   UNL     1      -5.910  12.112  67.345  1.00  0.00    -0.137 C  
HETATM   15  C   UNL     1      -6.399  10.938  69.540  1.00  0.00    -0.082 C  
HETATM   16  C   UNL     1      -6.537  13.401  69.341  1.00  0.00    -0.075 C  
ENDBRANCH  12  13
BRANCH  10  17
HETATM   17  C   UNL     1     -11.210  13.630  66.136  1.00  0.00    -0.309 C  
HETATM   18  C   UNL     1     -11.548  14.925  66.905  1.00  0.00    -0.286 C  
HETATM   19  C   UNL     1     -10.473  14.100  64.846  1.00  0.00    -0.461 C  
HETATM   20  C   UNL     1     -12.501  12.943  65.649  1.00  0.00    -0.400 C  
ENDBRANCH  10  17
ENDBRANCH   4   5
ENDBRANCH   2   4
BRANCH   2  21
HETATM   21  S   UNL     1      -9.548   8.691  71.450  1.00  0.00    -0.269 SA 
BRANCH  21  22
HETATM   22  C   UNL     1      -9.042   7.090  70.826  1.00  0.00    -0.154 A  
HETATM   23  C   UNL     1      -9.321   5.881  71.466  1.00  0.00    -0.160 A  
HETATM   24  C   UNL     1      -8.196   7.074  69.728  1.00  0.00    -0.131 A  
HETATM   25  H   UNL     1      -7.550   2.708  70.052  1.00  0.00     0.000 HD 
HETATM   26  O   UNL     1      -7.340   3.508  69.585  1.00  0.00    -0.045 OA 
HETATM   27  C   UNL     1      -7.606   5.893  69.241  1.00  0.00    -0.089 A  
HETATM   28  C   UNL     1      -8.790   4.652  71.053  1.00  0.00    -0.149 A  
HETATM   29  C   UNL     1      -7.920   4.692  69.942  1.00  0.00    -0.068 A  
BRANCH  27  30
HETATM   30  C   UNL     1      -6.620   5.987  68.049  1.00  0.00    -0.055 C  
HETATM   31  C   UNL     1      -5.230   5.352  68.348  1.00  0.00    -0.003 C  
HETATM   32  C   UNL     1      -7.181   5.227  66.830  1.00  0.00    -0.078 C  
HETATM   33  C   UNL     1      -6.314   7.455  67.678  1.00  0.00    -0.052 C  
ENDBRANCH  27  30
BRANCH  28  34
HETATM   34  C   UNL     1      -9.190   3.344  71.794  1.00  0.00    -0.185 C  
HETATM   35  C   UNL     1      -8.041   2.711  72.635  1.00  0.00    -0.055 C  
HETATM   36  C   UNL     1      -9.634   2.239  70.810  1.00  0.00    -0.168 C  
HETATM   37  C   UNL     1     -10.325   3.641  72.797  1.00  0.00    -0.239 C  
ENDBRANCH  28  34
ENDBRANCH  21  22
ENDBRANCH   2  21
TORSDOF 8
ENDMDL
MODEL      222
REMARK 921   NORMALIZED FREE ENERGY PREDICTED BY IDOCK:   -3.88 KCAL/MOL
REMARK 922        TOTAL FREE ENERGY PREDICTED BY IDOCK:   -6.30 KCAL/MOL
REMARK 923 INTER-LIGAND FREE ENERGY PREDICTED BY IDOCK:   -6.83 KCAL/MOL
REMARK 924 INTRA-LIGAND FREE ENERGY PREDICTED BY IDOCK:    0.53 KCAL/MOL
REMARK 927      BINDING AFFINITY PREDICTED BY RF-SCORE:    0.00 PKD
ROOT
HETATM    1  C   UNL     1     -10.561  11.423  69.735  1.00  0.00     0.198 C  
HETATM    2  C   UNL     1      -9.772  10.396  68.904  1.00  0.00    -0.198 C  
HETATM    3  C   UNL     1      -9.409   9.214  69.817  1.00  0.00    -0.190 C  
ENDROOT
BRANCH   2   4
HETATM    4  S   UNL     1      -8.206  11.183  68.324  1.00  0.00    -0.140 SA 
BRANCH   4   5
HETATM    5  C   UNL     1      -8.731  12.655  67.451  1.00  0.00    -0.191 A  
HETATM    6  C   UNL     1      -9.798  14.946  66.253  1.00  0.00    -0.294 A  
HETATM    7  O   UNL     1     -10.331  16.104  65.762  1.00  0.00    -0.342 OA 
HETATM    8  H   UNL     1     -10.010  16.954  66.040  1.00  0.00     0.000 HD 
HETATM    9  C   UNL     1      -9.729  12.545  66.490  1.00  0.00    -0.249 A  
HETATM   10  C   UNL     1      -8.788  15.104  67.226  1.00  0.00    -0.216 A  
HETATM   11  C   UNL     1      -8.272  13.927  67.773  1.00  0.00    -0.173 A  
HETATM   12  C   UNL     1     -10.279  13.672  65.836  1.00  0.00    -0.318 A  
BRANCH  12  13
HETATM   13  C   UNL     1     -11.374  13.456  64.761  1.00  0.00    -0.356 C  
HETATM   14  C   UNL     1     -12.529  12.583  65.303  1.00  0.00    -0.390 C  
HETATM   15  C   UNL     1     -10.772  12.823  63.490  1.00  0.00    -0.232 C  
HETATM   16  C   UNL     1     -12.059  14.775  64.299  1.00  0.00    -0.415 C  
ENDBRANCH  12  13
BRANCH  10  17
HETATM   17  C   UNL     1      -8.227  16.473  67.696  1.00  0.00    -0.169 C  
HETATM   18  C   UNL     1      -9.365  17.440  68.087  1.00  0.00    -0.277 C  
HETATM   19  C   UNL     1      -7.309  16.391  68.952  1.00  0.00    -0.214 C  
HETATM   20  C   UNL     1      -7.355  17.090  66.584  1.00  0.00    -0.296 C  
ENDBRANCH  10  17
ENDBRANCH   4   5
ENDBRANCH   2   4
BRANCH   2  21
HETATM   21  S   UNL     1     -10.885   9.767  67.573  1.00  0.00    -0.134 SA 
BRANCH  21  22
HETATM   22  C   UNL     1      -9.937   8.492  66.745  1.00  0.00    -0.281 A  
HETATM   23  C   UNL     1      -9.770   7.198  67.243  1.00  0.00    -0.198 A  
HETATM   24  C   UNL     1      -9.207   8.868  65.628  1.00  0.00    -0.268 A  
HETATM   25  H   UNL     1      -7.176   4.942  65.403  1.00  0.00     0.000 HD 
HETATM   26  O   UNL     1      -7.266   5.811  65.030  1.00  0.00    -0.062 OA 
HETATM   27  C   UNL     1      -8.304   8.001  64.984  1.00  0.00    -0.121 A  
HETATM   28  C   UNL     1      -8.902   6.261  66.668  1.00  0.00    -0.132 A  
HETATM   29  C   UNL     1      -8.168   6.697  65.545  1.00  0.00    -0.138 A  
BRANCH  27  30
HETATM   30  C   UNL     1      -7.484   8.535  63.783  1.00  0.00    -0.118 C  
HETATM   31  C   UNL     1      -7.918   9.960  63.327  1.00  0.00    -0.151 C  
HETATM   32  C   UNL     1      -5.993   8.646  64.160  1.00  0.00    -0.067 C  
HETATM   33  C   UNL     1      -7.662   7.648  62.532  1.00  0.00    -0.117 C  
ENDBRANCH  27  30
BRANCH  28  34
HETATM   34  C   UNL     1      -8.811   4.824  67.258  1.00  0.00    -0.104 C  
HETATM   35  C   UNL     1      -7.365   4.376  67.625  1.00  0.00    -0.069 C  
HETATM   36  C   UNL     1      -9.330   3.761  66.264  1.00  0.00    -0.190 C  
HETATM   37  C   UNL     1      -9.616   4.749  68.573  1.00  0.00    -0.218 C  
ENDBRANCH  28  34
ENDBRANCH  21  22
ENDBRANCH   2  21
TORSDOF 8
ENDMDL
MODEL      223
REMARK 921   NORMALIZED FREE ENERGY PREDICTED BY IDOCK:   -3.88 KCAL/MOL
REMARK 922        TOTAL FREE ENERGY PREDICTED BY IDOCK:   -6.30 KCAL/MOL
REMARK 923 INTER-LIGAND FREE ENERGY PREDICTED BY IDOCK:   -6.69 KCAL/MOL
REMARK 924 INTRA-LIGAND FREE ENERGY PREDICTED BY IDOCK:    0.40 KCAL/MOL
REMARK 927      BINDING AFFINITY PREDICTED BY RF-SCORE:    0.00 PKD
ROOT
HETATM    1  C   UNL     1     -11.783   7.670  70.421  1.00  0.00    -0.079 C  
HETATM    2  C   UNL     1     -10.615   8.514  69.881  1.00  0.00    -0.228 C  
HETATM    3  C   UNL     1     -10.834   9.973  70.312  1.00  0.00    -0.370 C  
ENDROOT
BRANCH   2   4
HETATM    4  S   UNL     1     -10.641   8.445  68.036  1.00  0.00    -0.070 SA 
BRANCH   4   5
HETATM    5  C   UNL     1      -9.959  10.016  67.512  1.00  0.00    -0.190 A  
HETATM    6  C   UNL     1      -9.055  12.594  66.911  1.00  0.00    -0.218 A  
HETATM    7  O   UNL     1      -8.586  13.861  66.716  1.00  0.00    -0.401 OA 
HETATM    8  H   UNL     1      -7.723  14.122  67.016  1.00  0.00     0.000 HD 
HETATM    9  C   UNL     1     -10.772  10.901  66.812  1.00  0.00    -0.309 A  
HETATM   10  C   UNL     1      -8.198  11.729  67.625  1.00  0.00    -0.145 A  
HETATM   11  C   UNL     1      -8.688  10.446  67.876  1.00  0.00    -0.118 A  
HETATM   12  C   UNL     1     -10.349  12.203  66.461  1.00  0.00    -0.239 A  
BRANCH  12  13
HETATM   13  C   UNL     1     -11.312  13.116  65.662  1.00  0.00    -0.328 C  
HETATM   14  C   UNL     1     -10.586  13.799  64.480  1.00  0.00    -0.405 C  
HETATM   15  C   UNL     1     -11.951  14.175  66.585  1.00  0.00    -0.470 C  
HETATM   16  C   UNL     1     -12.496  12.347  65.007  1.00  0.00    -0.393 C  
ENDBRANCH  12  13
BRANCH  10  17
HETATM   17  C   UNL     1      -6.777  12.112  68.119  1.00  0.00    -0.070 C  
HETATM   18  C   UNL     1      -5.756  12.084  66.962  1.00  0.00    -0.123 C  
HETATM   19  C   UNL     1      -6.673  13.545  68.722  1.00  0.00    -0.105 C  
HETATM   20  C   UNL     1      -6.339  11.154  69.246  1.00  0.00    -0.076 C  
ENDBRANCH  10  17
ENDBRANCH   4   5
ENDBRANCH   2   4
BRANCH   2  21
HETATM   21  S   UNL     1      -9.063   7.911  70.677  1.00  0.00    -0.154 SA 
BRANCH  21  22
HETATM   22  C   UNL     1      -9.205   6.125  70.667  1.00  0.00    -0.154 A  
HETATM   23  C   UNL     1      -9.567   5.367  71.783  1.00  0.00    -0.186 A  
HETATM   24  C   UNL     1      -8.780   5.460  69.528  1.00  0.00    -0.108 A  
HETATM   25  H   UNL     1      -9.201   1.498  71.456  1.00  0.00     0.000 HD 
HETATM   26  O   UNL     1      -8.952   1.978  70.674  1.00  0.00    -0.065 OA 
HETATM   27  C   UNL     1      -8.694   4.057  69.455  1.00  0.00    -0.124 A  
HETATM   28  C   UNL     1      -9.525   3.966  71.805  1.00  0.00    -0.210 A  
HETATM   29  C   UNL     1      -9.068   3.337  70.628  1.00  0.00    -0.120 A  
BRANCH  27  30
HETATM   30  C   UNL     1      -8.143   3.409  68.160  1.00  0.00    -0.079 C  
HETATM   31  C   UNL     1      -6.815   2.626  68.380  1.00  0.00    -0.047 C  
HETATM   32  C   UNL     1      -9.152   2.385  67.603  1.00  0.00    -0.215 C  
HETATM   33  C   UNL     1      -7.804   4.471  67.092  1.00  0.00    -0.097 C  
ENDBRANCH  27  30
BRANCH  28  34
HETATM   34  C   UNL     1      -9.992   3.196  73.074  1.00  0.00    -0.204 C  
HETATM   35  C   UNL     1     -10.681   1.831  72.773  1.00  0.00    -0.230 C  
HETATM   36  C   UNL     1     -11.024   4.005  73.890  1.00  0.00    -0.289 C  
HETATM   37  C   UNL     1      -8.772   2.860  73.958  1.00  0.00    -0.076 C  
ENDBRANCH  28  34
ENDBRANCH  21  22
ENDBRANCH   2  21
TORSDOF 8
ENDMDL
MODEL      224
REMARK 921   NORMALIZED FREE ENERGY PREDICTED BY IDOCK:   -3.87 KCAL/MOL
REMARK 922        TOTAL FREE ENERGY PREDICTED BY IDOCK:   -6.28 KCAL/MOL
REMARK 923 INTER-LIGAND FREE ENERGY PREDICTED BY IDOCK:   -7.17 KCAL/MOL
REMARK 924 INTRA-LIGAND FREE ENERGY PREDICTED BY IDOCK:    0.88 KCAL/MOL
REMARK 927      BINDING AFFINITY PREDICTED BY RF-SCORE:    0.00 PKD
ROOT
HETATM    1  C   UNL     1      -7.664  12.605  68.608  1.00  0.00    -0.066 C  
HETATM    2  C   UNL     1      -6.160  12.890  68.775  1.00  0.00    -0.075 C  
HETATM    3  C   UNL     1      -5.879  13.136  70.266  1.00  0.00    -0.156 C  
ENDROOT
BRANCH   2   4
HETATM    4  S   UNL     1      -5.743  14.429  67.845  1.00  0.00    -0.067 SA 
BRANCH   4   5
HETATM    5  C   UNL     1      -7.312  15.258  67.609  1.00  0.00    -0.178 A  
HETATM    6  C   UNL     1      -9.639  16.691  67.008  1.00  0.00    -0.244 A  
HETATM    7  O   UNL     1     -10.767  17.354  66.619  1.00  0.00    -0.225 OA 
HETATM    8  H   UNL     1     -11.469  16.909  66.157  1.00  0.00     0.000 HD 
HETATM    9  C   UNL     1      -7.422  16.600  67.959  1.00  0.00    -0.170 A  
HETATM   10  C   UNL     1      -9.569  15.332  66.633  1.00  0.00    -0.276 A  
HETATM   11  C   UNL     1      -8.396  14.658  66.980  1.00  0.00    -0.214 A  
HETATM   12  C   UNL     1      -8.588  17.357  67.702  1.00  0.00    -0.217 A  
BRANCH  12  13
HETATM   13  C   UNL     1      -8.633  18.841  68.146  1.00  0.00    -0.338 C  
HETATM   14  C   UNL     1      -7.350  19.236  68.914  1.00  0.00    -0.392 C  
HETATM   15  C   UNL     1      -9.882  19.114  69.009  1.00  0.00    -0.437 C  
HETATM   16  C   UNL     1      -8.706  19.842  66.957  1.00  0.00    -0.402 C  
ENDBRANCH  12  13
BRANCH  10  17
HETATM   17  C   UNL     1     -10.697  14.567  65.890  1.00  0.00    -0.308 C  
HETATM   18  C   UNL     1     -10.275  13.116  65.575  1.00  0.00    -0.297 C  
HETATM   19  C   UNL     1     -12.024  14.441  66.697  1.00  0.00    -0.414 C  
HETATM   20  C   UNL     1     -11.069  15.313  64.593  1.00  0.00    -0.346 C  
ENDBRANCH  10  17
ENDBRANCH   4   5
ENDBRANCH   2   4
BRANCH   2  21
HETATM   21  S   UNL     1      -5.236  11.377  68.263  1.00  0.00    -0.038 SA 
BRANCH  21  22
HETATM   22  C   UNL     1      -6.340  10.521  67.141  1.00  0.00    -0.068 A  
HETATM   23  C   UNL     1      -6.195  10.523  65.752  1.00  0.00    -0.132 A  
HETATM   24  C   UNL     1      -7.485   9.957  67.683  1.00  0.00    -0.090 A  
HETATM   25  H   UNL     1      -9.136   9.007  63.688  1.00  0.00     0.000 HD 
HETATM   26  O   UNL     1      -9.269   8.980  64.629  1.00  0.00    -0.082 OA 
HETATM   27  C   UNL     1      -8.504   9.397  66.891  1.00  0.00    -0.128 A  
HETATM   28  C   UNL     1      -7.149   9.982  64.880  1.00  0.00    -0.136 A  
HETATM   29  C   UNL     1      -8.304   9.438  65.480  1.00  0.00    -0.134 A  
BRANCH  27  30
HETATM   30  C   UNL     1      -9.777   8.852  67.587  1.00  0.00    -0.202 C  
HETATM   31  C   UNL     1     -10.303   7.528  66.959  1.00  0.00    -0.395 C  
HETATM   32  C   UNL     1      -9.481   8.532  69.066  1.00  0.00    -0.150 C  
HETATM   33  C   UNL     1     -10.956   9.842  67.473  1.00  0.00    -0.239 C  
ENDBRANCH  27  30
BRANCH  28  34
HETATM   34  C   UNL     1      -6.887   9.983  63.346  1.00  0.00    -0.132 C  
HETATM   35  C   UNL     1      -5.583  10.724  62.923  1.00  0.00    -0.136 C  
HETATM   36  C   UNL     1      -8.025  10.679  62.569  1.00  0.00    -0.191 C  
HETATM   37  C   UNL     1      -6.721   8.532  62.846  1.00  0.00    -0.090 C  
ENDBRANCH  28  34
ENDBRANCH  21  22
ENDBRANCH   2  21
TORSDOF 8
ENDMDL
MODEL      225
REMARK 921   NORMALIZED FREE ENERGY PREDICTED BY IDOCK:   -3.85 KCAL/MOL
REMARK 922        TOTAL FREE ENERGY PREDICTED BY IDOCK:   -6.26 KCAL/MOL
REMARK 923 INTER-LIGAND FREE ENERGY PREDICTED BY IDOCK:   -6.50 KCAL/MOL
REMARK 924 INTRA-LIGAND FREE ENERGY PREDICTED BY IDOCK:    0.24 KCAL/MOL
REMARK 927      BINDING AFFINITY PREDICTED BY RF-SCORE:    0.00 PKD
ROOT
HETATM    1  C   UNL     1     -12.123   8.185  71.088  1.00  0.00    -0.281 C  
HETATM    2  C   UNL     1     -11.102   9.161  70.476  1.00  0.00    -0.260 C  
HETATM    3  C   UNL     1     -11.667  10.586  70.596  1.00  0.00    -0.453 C  
ENDROOT
BRANCH   2   4
HETATM    4  S   UNL     1     -10.906   8.764  68.684  1.00  0.00     0.121 SA 
BRANCH   4   5
HETATM    5  C   UNL     1     -10.083  10.193  67.988  1.00  0.00    -0.157 A  
HETATM    6  C   UNL     1      -8.925  12.586  67.117  1.00  0.00    -0.200 A  
HETATM    7  O   UNL     1      -8.324  13.767  66.787  1.00  0.00    -0.422 OA 
HETATM    8  H   UNL     1      -7.416  13.940  67.008  1.00  0.00     0.000 HD 
HETATM    9  C   UNL     1     -10.835  11.118  67.270  1.00  0.00    -0.326 A  
HETATM   10  C   UNL     1      -8.127  11.677  67.844  1.00  0.00    -0.138 A  
HETATM   11  C   UNL     1      -8.747  10.488  68.232  1.00  0.00    -0.135 A  
HETATM   12  C   UNL     1     -10.286  12.327  66.784  1.00  0.00    -0.229 A  
BRANCH  12  13
HETATM   13  C   UNL     1     -11.190  13.290  65.974  1.00  0.00    -0.316 C  
HETATM   14  C   UNL     1     -11.742  14.425  66.867  1.00  0.00    -0.422 C  
HETATM   15  C   UNL     1     -12.348  12.519  65.308  1.00  0.00    -0.469 C  
HETATM   16  C   UNL     1     -10.442  14.021  64.822  1.00  0.00    -0.445 C  
ENDBRANCH  12  13
BRANCH  10  17
HETATM   17  C   UNL     1      -6.638  11.916  68.212  1.00  0.00    -0.054 C  
HETATM   18  C   UNL     1      -6.416  13.348  68.745  1.00  0.00    -0.098 C  
HETATM   19  C   UNL     1      -6.096  10.975  69.330  1.00  0.00    -0.050 C  
HETATM   20  C   UNL     1      -5.746  11.656  66.982  1.00  0.00    -0.130 C  
ENDBRANCH  10  17
ENDBRANCH   4   5
ENDBRANCH   2   4
BRANCH   2  21
HETATM   21  S   UNL     1      -9.558   9.073  71.483  1.00  0.00    -0.215 SA 
BRANCH  21  22
HETATM   22  C   UNL     1      -8.889   7.443  71.158  1.00  0.00    -0.142 A  
HETATM   23  C   UNL     1      -8.120   7.126  70.036  1.00  0.00    -0.127 A  
HETATM   24  C   UNL     1      -9.292   6.413  71.992  1.00  0.00    -0.151 A  
HETATM   25  H   UNL     1      -7.358   3.347  69.454  1.00  0.00     0.000 HD 
HETATM   26  O   UNL     1      -7.877   3.521  70.230  1.00  0.00    -0.047 OA 
HETATM   27  C   UNL     1      -8.964   5.066  71.750  1.00  0.00    -0.149 A  
HETATM   28  C   UNL     1      -7.735   5.818  69.714  1.00  0.00    -0.084 A  
HETATM   29  C   UNL     1      -8.186   4.804  70.584  1.00  0.00    -0.092 A  
BRANCH  27  30
HETATM   30  C   UNL     1      -9.519   3.979  72.705  1.00  0.00    -0.170 C  
HETATM   31  C   UNL     1     -10.851   4.391  73.399  1.00  0.00    -0.347 C  
HETATM   32  C   UNL     1      -9.830   2.688  71.921  1.00  0.00    -0.227 C  
HETATM   33  C   UNL     1      -8.542   3.686  73.864  1.00  0.00    -0.086 C  
ENDBRANCH  27  30
BRANCH  28  34
HETATM   34  C   UNL     1      -6.837   5.558  68.470  1.00  0.00    -0.059 C  
HETATM   35  C   UNL     1      -7.504   4.669  67.378  1.00  0.00    -0.078 C  
HETATM   36  C   UNL     1      -5.528   4.829  68.849  1.00  0.00    -0.011 C  
HETATM   37  C   UNL     1      -6.509   6.896  67.775  1.00  0.00    -0.050 C  
ENDBRANCH  28  34
ENDBRANCH  21  22
ENDBRANCH   2  21
TORSDOF 8
ENDMDL
MODEL      226
REMARK 921   NORMALIZED FREE ENERGY PREDICTED BY IDOCK:   -3.85 KCAL/MOL
REMARK 922        TOTAL FREE ENERGY PREDICTED BY IDOCK:   -6.25 KCAL/MOL
REMARK 923 INTER-LIGAND FREE ENERGY PREDICTED BY IDOCK:   -6.36 KCAL/MOL
REMARK 924 INTRA-LIGAND FREE ENERGY PREDICTED BY IDOCK:    0.12 KCAL/MOL
REMARK 927      BINDING AFFINITY PREDICTED BY RF-SCORE:    0.00 PKD
ROOT
HETATM    1  C   UNL     1     -10.140   5.369  66.402  1.00  0.00    -0.239 C  
HETATM    2  C   UNL     1      -9.642   5.860  67.773  1.00  0.00    -0.115 C  
HETATM    3  C   UNL     1      -9.825   4.720  68.789  1.00  0.00    -0.218 C  
ENDROOT
BRANCH   2   4
HETATM    4  S   UNL     1     -10.690   7.284  68.306  1.00  0.00    -0.072 SA 
BRANCH   4   5
HETATM    5  C   UNL     1     -10.364   8.566  67.101  1.00  0.00    -0.307 A  
HETATM    6  C   UNL     1      -9.645  10.671  65.404  1.00  0.00    -0.230 A  
HETATM    7  O   UNL     1      -9.198  11.665  64.582  1.00  0.00    -0.416 OA 
HETATM    8  H   UNL     1      -8.636  11.479  63.839  1.00  0.00     0.000 HD 
HETATM    9  C   UNL     1     -10.801   9.860  67.361  1.00  0.00    -0.293 A  
HETATM   10  C   UNL     1      -9.177   9.374  65.103  1.00  0.00    -0.287 A  
HETATM   11  C   UNL     1      -9.586   8.356  65.968  1.00  0.00    -0.196 A  
HETATM   12  C   UNL     1     -10.488  10.950  66.518  1.00  0.00    -0.308 A  
BRANCH  12  13
HETATM   13  C   UNL     1     -11.036  12.356  66.872  1.00  0.00    -0.335 C  
HETATM   14  C   UNL     1      -9.931  13.432  66.766  1.00  0.00    -0.264 C  
HETATM   15  C   UNL     1     -11.656  12.359  68.285  1.00  0.00    -0.384 C  
HETATM   16  C   UNL     1     -12.158  12.845  65.911  1.00  0.00    -0.503 C  
ENDBRANCH  12  13
BRANCH  10  17
HETATM   17  C   UNL     1      -8.271   9.026  63.892  1.00  0.00    -0.172 C  
HETATM   18  C   UNL     1      -8.020   7.506  63.799  1.00  0.00    -0.082 C  
HETATM   19  C   UNL     1      -8.867   9.428  62.509  1.00  0.00    -0.243 C  
HETATM   20  C   UNL     1      -6.934   9.786  64.004  1.00  0.00    -0.120 C  
ENDBRANCH  10  17
ENDBRANCH   4   5
ENDBRANCH   2   4
BRANCH   2  21
HETATM   21  S   UNL     1      -7.836   6.212  67.629  1.00  0.00    -0.106 SA 
BRANCH  21  22
HETATM   22  C   UNL     1      -7.541   7.570  68.760  1.00  0.00    -0.106 A  
HETATM   23  C   UNL     1      -7.130   8.843  68.357  1.00  0.00    -0.077 A  
HETATM   24  C   UNL     1      -7.577   7.287  70.116  1.00  0.00    -0.090 A  
HETATM   25  H   UNL     1      -6.070  11.309  71.186  1.00  0.00     0.000 HD 
HETATM   26  O   UNL     1      -6.350  10.457  71.500  1.00  0.00    -0.217 OA 
HETATM   27  C   UNL     1      -7.210   8.227  71.098  1.00  0.00    -0.065 A  
HETATM   28  C   UNL     1      -6.754   9.848  69.258  1.00  0.00    -0.055 A  
HETATM   29  C   UNL     1      -6.789   9.505  70.626  1.00  0.00    -0.115 A  
BRANCH  27  30
HETATM   30  C   UNL     1      -7.219   7.794  72.586  1.00  0.00    -0.097 C  
HETATM   31  C   UNL     1      -6.079   8.446  73.423  1.00  0.00    -0.108 C  
HETATM   32  C   UNL     1      -8.538   8.221  73.259  1.00  0.00    -0.273 C  
HETATM   33  C   UNL     1      -7.001   6.272  72.737  1.00  0.00    -0.075 C  
ENDBRANCH  27  30
BRANCH  28  34
HETATM   34  C   UNL     1      -6.354  11.255  68.728  1.00  0.00    -0.051 C  
HETATM   35  C   UNL     1      -7.457  12.342  68.910  1.00  0.00    -0.012 C  
HETATM   36  C   UNL     1      -6.047  11.233  67.214  1.00  0.00    -0.076 C  
HETATM   37  C   UNL     1      -5.126  11.775  69.505  1.00  0.00    -0.057 C  
ENDBRANCH  28  34
ENDBRANCH  21  22
ENDBRANCH   2  21
TORSDOF 8
ENDMDL
MODEL      227
REMARK 921   NORMALIZED FREE ENERGY PREDICTED BY IDOCK:   -3.84 KCAL/MOL
REMARK 922        TOTAL FREE ENERGY PREDICTED BY IDOCK:   -6.23 KCAL/MOL
REMARK 923 INTER-LIGAND FREE ENERGY PREDICTED BY IDOCK:   -6.70 KCAL/MOL
REMARK 924 INTRA-LIGAND FREE ENERGY PREDICTED BY IDOCK:    0.48 KCAL/MOL
REMARK 927      BINDING AFFINITY PREDICTED BY RF-SCORE:    0.00 PKD
ROOT
HETATM    1  C   UNL     1     -11.132   7.783  70.946  1.00  0.00    -0.270 C  
HETATM    2  C   UNL     1     -10.189   8.261  69.828  1.00  0.00    -0.204 C  
HETATM    3  C   UNL     1     -10.121   9.796  69.878  1.00  0.00    -0.288 C  
ENDROOT
BRANCH   2   4
HETATM    4  S   UNL     1     -10.904   7.767  68.199  1.00  0.00     0.145 SA 
BRANCH   4   5
HETATM    5  C   UNL     1     -10.382   9.049  67.064  1.00  0.00    -0.269 A  
HETATM    6  C   UNL     1      -9.750  10.928  65.091  1.00  0.00    -0.262 A  
HETATM    7  O   UNL     1      -9.542  11.863  64.117  1.00  0.00    -0.447 OA 
HETATM    8  H   UNL     1      -9.949  12.721  64.159  1.00  0.00     0.000 HD 
HETATM    9  C   UNL     1      -9.511   8.718  66.032  1.00  0.00    -0.302 A  
HETATM   10  C   UNL     1     -10.641  11.305  66.118  1.00  0.00    -0.312 A  
HETATM   11  C   UNL     1     -10.901  10.338  67.091  1.00  0.00    -0.278 A  
HETATM   12  C   UNL     1      -9.139   9.643  65.029  1.00  0.00    -0.284 A  
BRANCH  12  13
HETATM   13  C   UNL     1      -8.145   9.196  63.927  1.00  0.00    -0.155 C  
HETATM   14  C   UNL     1      -6.857  10.051  63.954  1.00  0.00    -0.126 C  
HETATM   15  C   UNL     1      -8.807   9.264  62.535  1.00  0.00    -0.226 C  
HETATM   16  C   UNL     1      -7.650   7.730  64.095  1.00  0.00    -0.113 C  
ENDBRANCH  12  13
BRANCH  10  17
HETATM   17  C   UNL     1     -11.314  12.699  66.229  1.00  0.00    -0.376 C  
HETATM   18  C   UNL     1     -12.437  12.863  65.183  1.00  0.00    -0.561 C  
HETATM   19  C   UNL     1     -11.993  12.975  67.605  1.00  0.00    -0.353 C  
HETATM   20  C   UNL     1     -10.255  13.807  66.060  1.00  0.00    -0.315 C  
ENDBRANCH  10  17
ENDBRANCH   4   5
ENDBRANCH   2   4
BRANCH   2  21
HETATM   21  S   UNL     1      -8.502   7.604  70.188  1.00  0.00    -0.140 SA 
BRANCH  21  22
HETATM   22  C   UNL     1      -8.650   5.829  69.994  1.00  0.00    -0.128 A  
HETATM   23  C   UNL     1      -8.914   4.950  71.046  1.00  0.00    -0.168 A  
HETATM   24  C   UNL     1      -8.329   5.296  68.755  1.00  0.00    -0.092 A  
HETATM   25  H   UNL     1      -8.590   1.144  70.263  1.00  0.00     0.000 HD 
HETATM   26  O   UNL     1      -8.409   1.708  69.521  1.00  0.00    -0.044 OA 
HETATM   27  C   UNL     1      -8.254   3.910  68.521  1.00  0.00    -0.083 A  
HETATM   28  C   UNL     1      -8.874   3.556  70.911  1.00  0.00    -0.141 A  
HETATM   29  C   UNL     1      -8.525   3.064  69.635  1.00  0.00    -0.061 A  
BRANCH  27  30
HETATM   30  C   UNL     1      -7.822   3.413  67.118  1.00  0.00    -0.079 C  
HETATM   31  C   UNL     1      -8.779   2.338  66.524  1.00  0.00    -0.125 C  
HETATM   32  C   UNL     1      -7.822   4.583  66.113  1.00  0.00    -0.095 C  
HETATM   33  C   UNL     1      -6.437   2.733  67.157  1.00  0.00    -0.036 C  
ENDBRANCH  27  30
BRANCH  28  34
HETATM   34  C   UNL     1      -9.229   2.647  72.123  1.00  0.00    -0.149 C  
HETATM   35  C   UNL     1      -9.985   3.383  73.270  1.00  0.00    -0.184 C  
HETATM   36  C   UNL     1      -7.967   2.048  72.781  1.00  0.00    -0.053 C  
HETATM   37  C   UNL     1     -10.171   1.513  71.664  1.00  0.00    -0.134 C  
ENDBRANCH  28  34
ENDBRANCH  21  22
ENDBRANCH   2  21
TORSDOF 8
ENDMDL
MODEL      228
REMARK 921   NORMALIZED FREE ENERGY PREDICTED BY IDOCK:   -3.82 KCAL/MOL
REMARK 922        TOTAL FREE ENERGY PREDICTED BY IDOCK:   -6.21 KCAL/MOL
REMARK 923 INTER-LIGAND FREE ENERGY PREDICTED BY IDOCK:   -6.10 KCAL/MOL
REMARK 924 INTRA-LIGAND FREE ENERGY PREDICTED BY IDOCK:   -0.10 KCAL/MOL
REMARK 927      BINDING AFFINITY PREDICTED BY RF-SCORE:    0.00 PKD
ROOT
HETATM    1  C   UNL     1      -9.332  10.148  65.935  1.00  0.00    -0.224 C  
HETATM    2  C   UNL     1      -9.150   9.346  67.236  1.00  0.00    -0.133 C  
HETATM    3  C   UNL     1     -10.248   8.272  67.297  1.00  0.00    -0.344 C  
ENDROOT
BRANCH   2   4
HETATM    4  S   UNL     1      -9.375  10.486  68.670  1.00  0.00    -0.180 SA 
BRANCH   4   5
HETATM    5  C   UNL     1     -10.003   9.447  69.985  1.00  0.00    -0.221 A  
HETATM    6  C   UNL     1     -10.913   8.043  72.227  1.00  0.00    -0.314 A  
HETATM    7  O   UNL     1     -11.414   7.439  73.344  1.00  0.00    -0.593 OA 
HETATM    8  H   UNL     1     -12.348   7.415  73.518  1.00  0.00     0.000 HD 
HETATM    9  C   UNL     1      -9.099   8.822  70.837  1.00  0.00    -0.256 A  
HETATM   10  C   UNL     1     -11.865   8.664  71.390  1.00  0.00    -0.352 A  
HETATM   11  C   UNL     1     -11.358   9.329  70.271  1.00  0.00    -0.238 A  
HETATM   12  C   UNL     1      -9.513   8.077  71.966  1.00  0.00    -0.257 A  
BRANCH  12  13
HETATM   13  C   UNL     1      -8.438   7.395  72.850  1.00  0.00    -0.145 C  
HETATM   14  C   UNL     1      -8.884   5.980  73.283  1.00  0.00    -0.130 C  
HETATM   15  C   UNL     1      -8.120   8.261  74.087  1.00  0.00    -0.284 C  
HETATM   16  C   UNL     1      -7.082   7.176  72.120  1.00  0.00    -0.068 C  
ENDBRANCH  12  13
BRANCH  10  17
HETATM   17  C   UNL     1     -13.397   8.636  71.631  1.00  0.00    -0.386 C  
HETATM   18  C   UNL     1     -14.141   9.523  70.611  1.00  0.00     0.535 C  
HETATM   19  C   UNL     1     -14.042   7.224  71.492  1.00  0.00    -0.515 C  
HETATM   20  C   UNL     1     -13.709   9.095  73.070  1.00  0.00     0.143 C  
ENDBRANCH  10  17
ENDBRANCH   4   5
ENDBRANCH   2   4
BRANCH   2  21
HETATM   21  S   UNL     1      -7.518   8.488  67.151  1.00  0.00    -0.085 SA 
BRANCH  21  22
HETATM   22  C   UNL     1      -7.920   6.750  66.982  1.00  0.00    -0.109 A  
HETATM   23  C   UNL     1      -8.148   6.119  65.757  1.00  0.00    -0.124 A  
HETATM   24  C   UNL     1      -8.168   6.039  68.146  1.00  0.00    -0.113 A  
HETATM   25  H   UNL     1      -9.540   2.480  65.902  1.00  0.00     0.000 HD 
HETATM   26  O   UNL     1      -9.392   2.871  66.755  1.00  0.00    -0.148 OA 
HETATM   27  C   UNL     1      -8.643   4.715  68.140  1.00  0.00    -0.108 A  
HETATM   28  C   UNL     1      -8.612   4.802  65.647  1.00  0.00    -0.127 A  
HETATM   29  C   UNL     1      -8.867   4.127  66.860  1.00  0.00    -0.119 A  
BRANCH  27  30
HETATM   30  C   UNL     1      -8.954   4.027  69.494  1.00  0.00    -0.163 C  
HETATM   31  C   UNL     1      -9.511   2.582  69.336  1.00  0.00    -0.129 C  
HETATM   32  C   UNL     1      -7.668   3.898  70.335  1.00  0.00    -0.048 C  
HETATM   33  C   UNL     1     -10.042   4.788  70.282  1.00  0.00    -0.304 C  
ENDBRANCH  27  30
BRANCH  28  34
HETATM   34  C   UNL     1      -8.793   4.158  64.243  1.00  0.00    -0.139 C  
HETATM   35  C   UNL     1      -8.362   5.076  63.060  1.00  0.00    -0.110 C  
HETATM   36  C   UNL     1     -10.269   3.795  63.964  1.00  0.00    -0.233 C  
HETATM   37  C   UNL     1      -7.912   2.895  64.132  1.00  0.00    -0.082 C  
ENDBRANCH  28  34
ENDBRANCH  21  22
ENDBRANCH   2  21
TORSDOF 8
ENDMDL
MODEL      229
REMARK 921   NORMALIZED FREE ENERGY PREDICTED BY IDOCK:   -3.80 KCAL/MOL
REMARK 922        TOTAL FREE ENERGY PREDICTED BY IDOCK:   -6.17 KCAL/MOL
REMARK 923 INTER-LIGAND FREE ENERGY PREDICTED BY IDOCK:   -6.49 KCAL/MOL
REMARK 924 INTRA-LIGAND FREE ENERGY PREDICTED BY IDOCK:    0.32 KCAL/MOL
REMARK 927      BINDING AFFINITY PREDICTED BY RF-SCORE:    0.00 PKD
ROOT
HETATM    1  C   UNL     1      -6.345   9.154  67.865  1.00  0.00    -0.055 C  
HETATM    2  C   UNL     1      -7.546  10.081  68.125  1.00  0.00    -0.084 C  
HETATM    3  C   UNL     1      -7.584  10.411  69.626  1.00  0.00    -0.158 C  
ENDROOT
BRANCH   2   4
HETATM    4  S   UNL     1      -9.096   9.175  67.692  1.00  0.00    -0.121 SA 
BRANCH   4   5
HETATM    5  C   UNL     1      -9.163   7.810  68.848  1.00  0.00    -0.140 A  
HETATM    6  C   UNL     1      -9.016   5.782  70.769  1.00  0.00    -0.148 A  
HETATM    7  O   UNL     1      -8.936   4.866  71.778  1.00  0.00    -0.132 OA 
HETATM    8  H   UNL     1      -9.480   4.934  72.554  1.00  0.00     0.000 HD 
HETATM    9  C   UNL     1      -8.290   6.741  68.677  1.00  0.00    -0.120 A  
HETATM   10  C   UNL     1      -9.915   6.849  70.984  1.00  0.00    -0.199 A  
HETATM   11  C   UNL     1      -9.967   7.820  69.982  1.00  0.00    -0.187 A  
HETATM   12  C   UNL     1      -8.201   5.679  69.606  1.00  0.00    -0.107 A  
BRANCH  12  13
HETATM   13  C   UNL     1      -7.215   4.517  69.325  1.00  0.00    -0.052 C  
HETATM   14  C   UNL     1      -6.681   4.571  67.875  1.00  0.00    -0.051 C  
HETATM   15  C   UNL     1      -7.886   3.155  69.601  1.00  0.00    -0.051 C  
HETATM   16  C   UNL     1      -5.941   4.555  70.218  1.00  0.00    -0.017 C  
ENDBRANCH  12  13
BRANCH  10  17
HETATM   17  C   UNL     1     -10.830   6.989  72.230  1.00  0.00    -0.262 C  
HETATM   18  C   UNL     1     -11.782   5.782  72.363  1.00  0.00    -0.281 C  
HETATM   19  C   UNL     1     -10.062   7.058  73.584  1.00  0.00    -0.376 C  
HETATM   20  C   UNL     1     -11.635   8.302  72.142  1.00  0.00    -0.428 C  
ENDBRANCH  10  17
ENDBRANCH   4   5
ENDBRANCH   2   4
BRANCH   2  21
HETATM   21  S   UNL     1      -7.261  11.653  67.202  1.00  0.00    -0.146 SA 
BRANCH  21  22
HETATM   22  C   UNL     1      -8.898  12.322  66.915  1.00  0.00    -0.207 A  
HETATM   23  C   UNL     1      -9.605  12.168  65.721  1.00  0.00    -0.209 A  
HETATM   24  C   UNL     1      -9.417  13.168  67.883  1.00  0.00    -0.218 A  
HETATM   25  H   UNL     1     -12.874  14.258  65.345  1.00  0.00     0.000 HD 
HETATM   26  O   UNL     1     -12.427  14.386  66.173  1.00  0.00    -0.392 OA 
HETATM   27  C   UNL     1     -10.619  13.878  67.706  1.00  0.00    -0.248 A  
HETATM   28  C   UNL     1     -10.814  12.823  65.454  1.00  0.00    -0.313 A  
HETATM   29  C   UNL     1     -11.290  13.687  66.462  1.00  0.00    -0.319 A  
BRANCH  27  30
HETATM   30  C   UNL     1     -11.083  14.851  68.819  1.00  0.00    -0.274 C  
HETATM   31  C   UNL     1     -12.280  14.307  69.654  1.00  0.00    -0.371 C  
HETATM   32  C   UNL     1      -9.940  15.095  69.825  1.00  0.00    -0.149 C  
HETATM   33  C   UNL     1     -11.583  16.189  68.234  1.00  0.00    -0.181 C  
ENDBRANCH  27  30
BRANCH  28  34
HETATM   34  C   UNL     1     -11.561  12.558  64.115  1.00  0.00    -0.457 C  
HETATM   35  C   UNL     1     -12.007  13.850  63.367  1.00  0.00     0.078 C  
HETATM   36  C   UNL     1     -12.855  11.743  64.332  1.00  0.00     0.232 C  
HETATM   37  C   UNL     1     -10.629  11.812  63.137  1.00  0.00    -0.341 C  
ENDBRANCH  28  34
ENDBRANCH  21  22
ENDBRANCH   2  21
TORSDOF 8
ENDMDL
MODEL      230
REMARK 921   NORMALIZED FREE ENERGY PREDICTED BY IDOCK:   -3.79 KCAL/MOL
REMARK 922        TOTAL FREE ENERGY PREDICTED BY IDOCK:   -6.16 KCAL/MOL
REMARK 923 INTER-LIGAND FREE ENERGY PREDICTED BY IDOCK:   -6.63 KCAL/MOL
REMARK 924 INTRA-LIGAND FREE ENERGY PREDICTED BY IDOCK:    0.47 KCAL/MOL
REMARK 927      BINDING AFFINITY PREDICTED BY RF-SCORE:    0.00 PKD
ROOT
HETATM    1  C   UNL     1      -8.783  10.153  69.632  1.00  0.00    -0.176 C  
HETATM    2  C   UNL     1     -10.173   9.549  69.901  1.00  0.00    -0.231 C  
HETATM    3  C   UNL     1     -11.207  10.686  69.871  1.00  0.00    -0.378 C  
ENDROOT
BRANCH   2   4
HETATM    4  S   UNL     1     -10.177   8.807  71.592  1.00  0.00    -0.349 SA 
BRANCH   4   5
HETATM    5  C   UNL     1      -9.520   7.157  71.367  1.00  0.00    -0.161 A  
HETATM    6  C   UNL     1      -8.275   4.657  71.202  1.00  0.00    -0.092 A  
HETATM    7  O   UNL     1      -7.670   3.433  71.224  1.00  0.00    -0.050 OA 
HETATM    8  H   UNL     1      -8.028   2.712  71.729  1.00  0.00     0.000 HD 
HETATM    9  C   UNL     1      -8.384   6.987  70.582  1.00  0.00    -0.127 A  
HETATM   10  C   UNL     1      -9.423   4.785  72.012  1.00  0.00    -0.186 A  
HETATM   11  C   UNL     1     -10.020   6.047  72.038  1.00  0.00    -0.195 A  
HETATM   12  C   UNL     1      -7.737   5.738  70.445  1.00  0.00    -0.095 A  
BRANCH  12  13
HETATM   13  C   UNL     1      -6.489   5.634  69.533  1.00  0.00    -0.041 C  
HETATM   14  C   UNL     1      -6.165   6.991  68.868  1.00  0.00    -0.027 C  
HETATM   15  C   UNL     1      -6.688   4.543  68.460  1.00  0.00    -0.047 C  
HETATM   16  C   UNL     1      -5.190   5.249  70.299  1.00  0.00    -0.004 C  
ENDBRANCH  12  13
BRANCH  10  17
HETATM   17  C   UNL     1     -10.048   3.629  72.839  1.00  0.00    -0.221 C  
HETATM   18  C   UNL     1     -11.461   3.999  73.338  1.00  0.00    -0.208 C  
HETATM   19  C   UNL     1     -10.229   2.300  72.046  1.00  0.00    -0.155 C  
HETATM   20  C   UNL     1      -9.131   3.282  74.029  1.00  0.00    -0.096 C  
ENDBRANCH  10  17
ENDBRANCH   4   5
ENDBRANCH   2   4
BRANCH   2  21
HETATM   21  S   UNL     1     -10.564   8.386  68.522  1.00  0.00    -0.041 SA 
BRANCH  21  22
HETATM   22  C   UNL     1     -10.214   9.311  67.028  1.00  0.00    -0.262 A  
HETATM   23  C   UNL     1     -10.929  10.442  66.627  1.00  0.00    -0.067 A  
HETATM   24  C   UNL     1      -9.282   8.776  66.153  1.00  0.00    -0.273 A  
HETATM   25  H   UNL     1     -10.190  11.792  63.044  1.00  0.00     0.000 HD 
HETATM   26  O   UNL     1      -9.679  11.027  63.282  1.00  0.00    -0.292 OA 
HETATM   27  C   UNL     1      -9.035   9.322  64.880  1.00  0.00    -0.229 A  
HETATM   28  C   UNL     1     -10.748  11.063  65.384  1.00  0.00    -0.222 A  
HETATM   29  C   UNL     1      -9.802  10.469  64.522  1.00  0.00    -0.337 A  
BRANCH  27  30
HETATM   30  C   UNL     1      -8.022   8.611  63.947  1.00  0.00    -0.159 C  
HETATM   31  C   UNL     1      -7.629   7.185  64.437  1.00  0.00    -0.112 C  
HETATM   32  C   UNL     1      -8.628   8.425  62.541  1.00  0.00    -0.068 C  
HETATM   33  C   UNL     1      -6.687   9.382  63.863  1.00  0.00    -0.096 C  
ENDBRANCH  27  30
BRANCH  28  34
HETATM   34  C   UNL     1     -11.551  12.349  65.035  1.00  0.00    -0.392 C  
HETATM   35  C   UNL     1     -10.716  13.443  64.303  1.00  0.00    -0.374 C  
HETATM   36  C   UNL     1     -12.111  13.038  66.299  1.00  0.00    -0.453 C  
HETATM   37  C   UNL     1     -12.707  11.996  64.074  1.00  0.00    -0.415 C  
ENDBRANCH  28  34
ENDBRANCH  21  22
ENDBRANCH   2  21
TORSDOF 8
ENDMDL
MODEL      231
REMARK 921   NORMALIZED FREE ENERGY PREDICTED BY IDOCK:   -3.78 KCAL/MOL
REMARK 922        TOTAL FREE ENERGY PREDICTED BY IDOCK:   -6.15 KCAL/MOL
REMARK 923 INTER-LIGAND FREE ENERGY PREDICTED BY IDOCK:   -7.20 KCAL/MOL
REMARK 924 INTRA-LIGAND FREE ENERGY PREDICTED BY IDOCK:    1.05 KCAL/MOL
REMARK 927      BINDING AFFINITY PREDICTED BY RF-SCORE:    0.00 PKD
ROOT
HETATM    1  C   UNL     1      -6.520   9.730  66.453  1.00  0.00    -0.071 C  
HETATM    2  C   UNL     1      -7.516  10.410  67.408  1.00  0.00    -0.094 C  
HETATM    3  C   UNL     1      -7.285   9.853  68.822  1.00  0.00    -0.076 C  
ENDROOT
BRANCH   2   4
HETATM    4  S   UNL     1      -9.231   9.970  66.885  1.00  0.00    -0.148 SA 
BRANCH   4   5
HETATM    5  C   UNL     1      -9.705   8.622  67.964  1.00  0.00    -0.158 A  
HETATM    6  C   UNL     1     -10.164   6.517  69.748  1.00  0.00    -0.187 A  
HETATM    7  O   UNL     1     -10.349   5.548  70.693  1.00  0.00    -0.228 OA 
HETATM    8  H   UNL     1     -10.779   5.737  71.518  1.00  0.00     0.000 HD 
HETATM    9  C   UNL     1      -9.285   7.333  67.654  1.00  0.00    -0.130 A  
HETATM   10  C   UNL     1     -10.605   7.809  70.105  1.00  0.00    -0.237 A  
HETATM   11  C   UNL     1     -10.374   8.818  69.167  1.00  0.00    -0.227 A  
HETATM   12  C   UNL     1      -9.519   6.233  68.510  1.00  0.00    -0.123 A  
BRANCH  12  13
HETATM   13  C   UNL     1      -9.035   4.827  68.075  1.00  0.00    -0.126 C  
HETATM   14  C   UNL     1      -9.971   4.217  67.006  1.00  0.00    -0.116 C  
HETATM   15  C   UNL     1      -8.927   3.887  69.293  1.00  0.00    -0.175 C  
HETATM   16  C   UNL     1      -7.627   4.833  67.411  1.00  0.00    -0.086 C  
ENDBRANCH  12  13
BRANCH  10  17
HETATM   17  C   UNL     1     -11.324   8.156  71.436  1.00  0.00    -0.299 C  
HETATM   18  C   UNL     1     -10.347   8.105  72.629  1.00  0.00    -0.398 C  
HETATM   19  C   UNL     1     -11.945   9.584  71.475  1.00  0.00    -0.475 C  
HETATM   20  C   UNL     1     -12.501   7.185  71.663  1.00  0.00    -0.405 C  
ENDBRANCH  10  17
ENDBRANCH   4   5
ENDBRANCH   2   4
BRANCH   2  21
HETATM   21  S   UNL     1      -7.133  12.215  67.437  1.00  0.00    -0.148 SA 
BRANCH  21  22
HETATM   22  C   UNL     1      -8.727  13.026  67.319  1.00  0.00    -0.209 A  
HETATM   23  C   UNL     1      -9.387  13.608  68.404  1.00  0.00    -0.181 A  
HETATM   24  C   UNL     1      -9.403  12.927  66.113  1.00  0.00    -0.102 A  
HETATM   25  H   UNL     1     -13.066  14.750  67.799  1.00  0.00     0.000 HD 
HETATM   26  O   UNL     1     -12.650  14.366  67.036  1.00  0.00    -0.128 OA 
HETATM   27  C   UNL     1     -10.723  13.383  65.942  1.00  0.00    -0.285 A  
HETATM   28  C   UNL     1     -10.697  14.099  68.331  1.00  0.00    -0.264 A  
HETATM   29  C   UNL     1     -11.347  13.959  67.087  1.00  0.00    -0.327 A  
BRANCH  27  30
HETATM   30  C   UNL     1     -11.416  13.166  64.573  1.00  0.00    -0.390 C  
HETATM   31  C   UNL     1     -12.661  12.235  64.654  1.00  0.00    -0.275 C  
HETATM   32  C   UNL     1     -11.926  14.510  64.014  1.00  0.00    -0.238 C  
HETATM   33  C   UNL     1     -10.474  12.481  63.560  1.00  0.00    -0.360 C  
ENDBRANCH  27  30
BRANCH  28  34
HETATM   34  C   UNL     1     -11.341  14.778  69.574  1.00  0.00    -0.312 C  
HETATM   35  C   UNL     1     -12.080  16.113  69.260  1.00  0.00     0.030 C  
HETATM   36  C   UNL     1     -10.287  15.134  70.646  1.00  0.00     0.144 C  
HETATM   37  C   UNL     1     -12.411  13.844  70.181  1.00  0.00    -0.400 C  
ENDBRANCH  28  34
ENDBRANCH  21  22
ENDBRANCH   2  21
TORSDOF 8
ENDMDL
MODEL      232
REMARK 921   NORMALIZED FREE ENERGY PREDICTED BY IDOCK:   -3.76 KCAL/MOL
REMARK 922        TOTAL FREE ENERGY PREDICTED BY IDOCK:   -6.11 KCAL/MOL
REMARK 923 INTER-LIGAND FREE ENERGY PREDICTED BY IDOCK:   -5.12 KCAL/MOL
REMARK 924 INTRA-LIGAND FREE ENERGY PREDICTED BY IDOCK:   -0.99 KCAL/MOL
REMARK 927      BINDING AFFINITY PREDICTED BY RF-SCORE:    0.00 PKD
ROOT
HETATM    1  C   UNL     1     -10.042   4.689  66.572  1.00  0.00    -0.279 C  
HETATM    2  C   UNL     1      -8.925   3.650  66.779  1.00  0.00    -0.142 C  
HETATM    3  C   UNL     1      -8.893   2.726  65.551  1.00  0.00    -0.132 C  
ENDROOT
BRANCH   2   4
HETATM    4  S   UNL     1      -9.335   2.629  68.262  1.00  0.00    -0.167 SA 
BRANCH   4   5
HETATM    5  C   UNL     1      -8.942   3.677  69.659  1.00  0.00    -0.111 A  
HETATM    6  C   UNL     1      -8.480   5.120  72.011  1.00  0.00    -0.126 A  
HETATM    7  O   UNL     1      -8.218   5.738  73.200  1.00  0.00    -0.117 OA 
HETATM    8  H   UNL     1      -7.374   5.653  73.627  1.00  0.00     0.000 HD 
HETATM    9  C   UNL     1      -9.941   4.479  70.200  1.00  0.00    -0.278 A  
HETATM   10  C   UNL     1      -7.439   4.317  71.499  1.00  0.00    -0.060 A  
HETATM   11  C   UNL     1      -7.714   3.638  70.309  1.00  0.00    -0.047 A  
HETATM   12  C   UNL     1      -9.745   5.249  71.369  1.00  0.00    -0.219 A  
BRANCH  12  13
HETATM   13  C   UNL     1     -10.907   6.133  71.890  1.00  0.00    -0.295 C  
HETATM   14  C   UNL     1     -11.764   5.377  72.932  1.00  0.00    -0.232 C  
HETATM   15  C   UNL     1     -11.788   6.619  70.721  1.00  0.00    -0.441 C  
HETATM   16  C   UNL     1     -10.427   7.416  72.628  1.00  0.00    -0.303 C  
ENDBRANCH  12  13
BRANCH  10  17
HETATM   17  C   UNL     1      -6.043   4.162  72.159  1.00  0.00    -0.016 C  
HETATM   18  C   UNL     1      -5.227   5.469  72.055  1.00  0.00    -0.016 C  
HETATM   19  C   UNL     1      -6.087   3.827  73.680  1.00  0.00    -0.015 C  
HETATM   20  C   UNL     1      -5.278   2.998  71.498  1.00  0.00    -0.004 C  
ENDBRANCH  10  17
ENDBRANCH   4   5
ENDBRANCH   2   4
BRANCH   2  21
HETATM   21  S   UNL     1      -7.318   4.553  66.856  1.00  0.00    -0.082 SA 
BRANCH  21  22
HETATM   22  C   UNL     1      -7.758   6.286  66.748  1.00  0.00    -0.100 A  
HETATM   23  C   UNL     1      -7.807   7.005  65.552  1.00  0.00    -0.115 A  
HETATM   24  C   UNL     1      -7.906   6.979  67.940  1.00  0.00    -0.114 A  
HETATM   25  H   UNL     1      -8.259  10.866  65.853  1.00  0.00     0.000 HD 
HETATM   26  O   UNL     1      -8.238  10.413  66.688  1.00  0.00    -0.123 OA 
HETATM   27  C   UNL     1      -8.096   8.373  67.989  1.00  0.00    -0.123 A  
HETATM   28  C   UNL     1      -8.000   8.391  65.497  1.00  0.00    -0.115 A  
HETATM   29  C   UNL     1      -8.127   9.053  66.736  1.00  0.00    -0.111 A  
BRANCH  27  30
HETATM   30  C   UNL     1      -8.183   9.066  69.373  1.00  0.00    -0.117 C  
HETATM   31  C   UNL     1      -7.306  10.348  69.475  1.00  0.00    -0.144 C  
HETATM   32  C   UNL     1      -9.631   9.517  69.654  1.00  0.00    -0.216 C  
HETATM   33  C   UNL     1      -7.674   8.146  70.503  1.00  0.00    -0.085 C  
ENDBRANCH  27  30
BRANCH  28  34
HETATM   34  C   UNL     1      -8.090   9.108  64.119  1.00  0.00    -0.149 C  
HETATM   35  C   UNL     1      -6.923  10.103  63.841  1.00  0.00    -0.103 C  
HETATM   36  C   UNL     1      -9.382   9.945  63.989  1.00  0.00    -0.280 C  
HETATM   37  C   UNL     1      -8.025   8.064  62.983  1.00  0.00    -0.148 C  
ENDBRANCH  28  34
ENDBRANCH  21  22
ENDBRANCH   2  21
TORSDOF 8
ENDMDL
MODEL      233
REMARK 921   NORMALIZED FREE ENERGY PREDICTED BY IDOCK:   -3.75 KCAL/MOL
REMARK 922        TOTAL FREE ENERGY PREDICTED BY IDOCK:   -6.10 KCAL/MOL
REMARK 923 INTER-LIGAND FREE ENERGY PREDICTED BY IDOCK:   -7.88 KCAL/MOL
REMARK 924 INTRA-LIGAND FREE ENERGY PREDICTED BY IDOCK:    1.78 KCAL/MOL
REMARK 927      BINDING AFFINITY PREDICTED BY RF-SCORE:    0.00 PKD
ROOT
HETATM    1  C   UNL     1     -10.604  14.558  65.371  1.00  0.00    -0.385 C  
HETATM    2  C   UNL     1     -10.680  13.111  65.889  1.00  0.00    -0.274 C  
HETATM    3  C   UNL     1      -9.394  12.814  66.677  1.00  0.00    -0.242 C  
ENDROOT
BRANCH   2   4
HETATM    4  S   UNL     1     -10.750  11.968  64.441  1.00  0.00    -0.352 SA 
BRANCH   4   5
HETATM    5  C   UNL     1      -9.636  10.631  64.862  1.00  0.00    -0.269 A  
HETATM    6  C   UNL     1      -8.096   8.358  65.398  1.00  0.00    -0.133 A  
HETATM    7  O   UNL     1      -7.353   7.224  65.560  1.00  0.00    -0.070 OA 
HETATM    8  H   UNL     1      -6.621   7.025  64.988  1.00  0.00     0.000 HD 
HETATM    9  C   UNL     1      -9.958   9.799  65.929  1.00  0.00    -0.345 A  
HETATM   10  C   UNL     1      -7.735   9.173  64.303  1.00  0.00    -0.120 A  
HETATM   11  C   UNL     1      -8.521  10.308  64.097  1.00  0.00    -0.180 A  
HETATM   12  C   UNL     1      -9.194   8.656  66.256  1.00  0.00    -0.257 A  
BRANCH  12  13
HETATM   13  C   UNL     1      -9.612   7.797  67.476  1.00  0.00    -0.184 C  
HETATM   14  C   UNL     1     -10.535   8.588  68.430  1.00  0.00    -0.215 C  
HETATM   15  C   UNL     1      -8.369   7.283  68.232  1.00  0.00    -0.125 C  
HETATM   16  C   UNL     1     -10.432   6.531  67.091  1.00  0.00    -0.354 C  
ENDBRANCH  12  13
BRANCH  10  17
HETATM   17  C   UNL     1      -6.539   8.891  63.355  1.00  0.00    -0.089 C  
HETATM   18  C   UNL     1      -6.172  10.143  62.530  1.00  0.00    -0.124 C  
HETATM   19  C   UNL     1      -5.225   8.482  64.086  1.00  0.00    -0.048 C  
HETATM   20  C   UNL     1      -6.879   7.712  62.421  1.00  0.00    -0.076 C  
ENDBRANCH  10  17
ENDBRANCH   4   5
ENDBRANCH   2   4
BRANCH   2  21
HETATM   21  S   UNL     1     -12.103  13.001  67.059  1.00  0.00    -0.167 SA 
BRANCH  21  22
HETATM   22  C   UNL     1     -11.895  14.392  68.169  1.00  0.00    -0.327 A  
HETATM   23  C   UNL     1     -11.044  15.470  67.916  1.00  0.00    -0.321 A  
HETATM   24  C   UNL     1     -12.499  14.307  69.414  1.00  0.00    -0.112 A  
HETATM   25  H   UNL     1     -10.483  17.976  70.850  1.00  0.00     0.000 HD 
HETATM   26  O   UNL     1     -11.073  17.261  71.059  1.00  0.00     0.544 OA 
HETATM   27  C   UNL     1     -12.283  15.258  70.429  1.00  0.00    -0.404 A  
HETATM   28  C   UNL     1     -10.773  16.471  68.857  1.00  0.00    -0.337 A  
HETATM   29  C   UNL     1     -11.397  16.329  70.115  1.00  0.00    -0.282 A  
BRANCH  27  30
HETATM   30  C   UNL     1     -12.951  15.039  71.810  1.00  0.00    -0.429 C  
HETATM   31  C   UNL     1     -13.247  13.542  72.120  1.00  0.00    -0.551 C  
HETATM   32  C   UNL     1     -12.021  15.531  72.937  1.00  0.00    -0.575 C  
HETATM   33  C   UNL     1     -14.324  15.741  71.896  1.00  0.00    -0.235 C  
ENDBRANCH  27  30
BRANCH  28  34
HETATM   34  C   UNL     1      -9.849  17.664  68.478  1.00  0.00    -0.346 C  
HETATM   35  C   UNL     1     -10.285  19.028  69.093  1.00  0.00    -0.118 C  
HETATM   36  C   UNL     1      -9.810  17.897  66.951  1.00  0.00    -0.321 C  
HETATM   37  C   UNL     1      -8.422  17.407  69.006  1.00  0.00    -0.056 C  
ENDBRANCH  28  34
ENDBRANCH  21  22
ENDBRANCH   2  21
TORSDOF 8
ENDMDL
MODEL      234
REMARK 921   NORMALIZED FREE ENERGY PREDICTED BY IDOCK:   -3.74 KCAL/MOL
REMARK 922        TOTAL FREE ENERGY PREDICTED BY IDOCK:   -6.09 KCAL/MOL
REMARK 923 INTER-LIGAND FREE ENERGY PREDICTED BY IDOCK:   -6.92 KCAL/MOL
REMARK 924 INTRA-LIGAND FREE ENERGY PREDICTED BY IDOCK:    0.83 KCAL/MOL
REMARK 927      BINDING AFFINITY PREDICTED BY RF-SCORE:    0.00 PKD
ROOT
HETATM    1  C   UNL     1     -11.190   8.495  69.977  1.00  0.00    -0.086 C  
HETATM    2  C   UNL     1     -10.648   9.615  69.072  1.00  0.00    -0.218 C  
HETATM    3  C   UNL     1     -10.601   9.089  67.629  1.00  0.00    -0.298 C  
ENDROOT
BRANCH   2   4
HETATM    4  S   UNL     1      -8.925  10.018  69.598  1.00  0.00    -0.175 SA 
BRANCH   4   5
HETATM    5  C   UNL     1      -8.311   8.509  70.340  1.00  0.00    -0.124 A  
HETATM    6  C   UNL     1      -7.635   6.074  71.538  1.00  0.00    -0.099 A  
HETATM    7  O   UNL     1      -7.366   4.838  72.055  1.00  0.00    -0.075 OA 
HETATM    8  H   UNL     1      -7.102   4.115  71.498  1.00  0.00     0.000 HD 
HETATM    9  C   UNL     1      -8.388   8.360  71.720  1.00  0.00    -0.212 A  
HETATM   10  C   UNL     1      -7.545   6.180  70.134  1.00  0.00    -0.096 A  
HETATM   11  C   UNL     1      -7.868   7.425  69.590  1.00  0.00    -0.117 A  
HETATM   12  C   UNL     1      -8.030   7.158  72.373  1.00  0.00    -0.102 A  
BRANCH  12  13
HETATM   13  C   UNL     1      -8.125   7.086  73.919  1.00  0.00    -0.138 C  
HETATM   14  C   UNL     1      -9.512   6.575  74.372  1.00  0.00    -0.270 C  
HETATM   15  C   UNL     1      -7.828   8.462  74.548  1.00  0.00    -0.259 C  
HETATM   16  C   UNL     1      -7.110   6.094  74.557  1.00  0.00    -0.090 C  
ENDBRANCH  12  13
BRANCH  10  17
HETATM   17  C   UNL     1      -7.104   5.028  69.192  1.00  0.00    -0.056 C  
HETATM   18  C   UNL     1      -6.754   5.559  67.785  1.00  0.00    -0.055 C  
HETATM   19  C   UNL     1      -5.835   4.261  69.669  1.00  0.00    -0.018 C  
HETATM   20  C   UNL     1      -8.221   3.969  69.104  1.00  0.00    -0.078 C  
ENDBRANCH  10  17
ENDBRANCH   4   5
ENDBRANCH   2   4
BRANCH   2  21
HETATM   21  S   UNL     1     -11.845  11.019  69.128  1.00  0.00    -0.315 SA 
BRANCH  21  22
HETATM   22  C   UNL     1     -11.216  12.207  67.944  1.00  0.00    -0.272 A  
HETATM   23  C   UNL     1     -10.605  13.412  68.298  1.00  0.00    -0.264 A  
HETATM   24  C   UNL     1     -11.495  11.979  66.605  1.00  0.00    -0.411 A  
HETATM   25  H   UNL     1      -9.904  15.930  65.404  1.00  0.00     0.000 HD 
HETATM   26  O   UNL     1     -10.314  15.121  65.122  1.00  0.00    -0.379 OA 
HETATM   27  C   UNL     1     -11.194  12.912  65.596  1.00  0.00    -0.325 A  
HETATM   28  C   UNL     1     -10.258  14.400  67.367  1.00  0.00    -0.247 A  
HETATM   29  C   UNL     1     -10.580  14.128  66.020  1.00  0.00    -0.297 A  
BRANCH  27  30
HETATM   30  C   UNL     1     -11.606  12.593  64.137  1.00  0.00    -0.458 C  
HETATM   31  C   UNL     1     -12.132  13.837  63.360  1.00  0.00    -0.122 C  
HETATM   32  C   UNL     1     -10.393  12.076  63.339  1.00  0.00    -0.468 C  
HETATM   33  C   UNL     1     -12.764  11.574  64.083  1.00  0.00     0.283 C  
ENDBRANCH  27  30
BRANCH  28  34
HETATM   34  C   UNL     1      -9.536  15.694  67.840  1.00  0.00    -0.206 C  
HETATM   35  C   UNL     1     -10.395  16.987  67.709  1.00  0.00    -0.335 C  
HETATM   36  C   UNL     1      -8.254  15.968  67.024  1.00  0.00    -0.255 C  
HETATM   37  C   UNL     1      -9.188  15.577  69.340  1.00  0.00    -0.280 C  
ENDBRANCH  28  34
ENDBRANCH  21  22
ENDBRANCH   2  21
TORSDOF 8
ENDMDL
MODEL      235
REMARK 921   NORMALIZED FREE ENERGY PREDICTED BY IDOCK:   -3.72 KCAL/MOL
REMARK 922        TOTAL FREE ENERGY PREDICTED BY IDOCK:   -6.05 KCAL/MOL
REMARK 923 INTER-LIGAND FREE ENERGY PREDICTED BY IDOCK:   -7.53 KCAL/MOL
REMARK 924 INTRA-LIGAND FREE ENERGY PREDICTED BY IDOCK:    1.48 KCAL/MOL
REMARK 927      BINDING AFFINITY PREDICTED BY RF-SCORE:    0.00 PKD
ROOT
HETATM    1  C   UNL     1      -8.287  11.578  68.555  1.00  0.00    -0.146 C  
HETATM    2  C   UNL     1      -8.567  10.069  68.672  1.00  0.00    -0.123 C  
HETATM    3  C   UNL     1      -7.892   9.552  69.953  1.00  0.00    -0.140 C  
ENDROOT
BRANCH   2   4
HETATM    4  S   UNL     1      -7.802   9.212  67.228  1.00  0.00    -0.099 SA 
BRANCH   4   5
HETATM    5  C   UNL     1      -8.207   7.483  67.456  1.00  0.00    -0.113 A  
HETATM    6  C   UNL     1      -9.119   4.871  67.869  1.00  0.00    -0.113 A  
HETATM    7  O   UNL     1      -9.637   3.614  68.001  1.00  0.00    -0.176 OA 
HETATM    8  H   UNL     1      -9.815   3.070  67.243  1.00  0.00     0.000 HD 
HETATM    9  C   UNL     1      -8.419   7.008  68.746  1.00  0.00    -0.122 A  
HETATM   10  C   UNL     1      -8.920   5.313  66.544  1.00  0.00    -0.120 A  
HETATM   11  C   UNL     1      -8.439   6.615  66.395  1.00  0.00    -0.125 A  
HETATM   12  C   UNL     1      -8.852   5.687  69.005  1.00  0.00    -0.106 A  
BRANCH  12  13
HETATM   13  C   UNL     1      -9.042   5.234  70.475  1.00  0.00    -0.174 C  
HETATM   14  C   UNL     1     -10.536   5.013  70.806  1.00  0.00    -0.222 C  
HETATM   15  C   UNL     1      -8.422   6.261  71.446  1.00  0.00    -0.127 C  
HETATM   16  C   UNL     1      -8.359   3.873  70.798  1.00  0.00    -0.090 C  
ENDBRANCH  12  13
BRANCH  10  17
HETATM   17  C   UNL     1      -9.185   4.450  65.281  1.00  0.00    -0.155 C  
HETATM   18  C   UNL     1      -8.573   5.099  64.021  1.00  0.00    -0.090 C  
HETATM   19  C   UNL     1      -8.571   3.018  65.343  1.00  0.00    -0.112 C  
HETATM   20  C   UNL     1     -10.701   4.244  65.097  1.00  0.00    -0.134 C  
ENDBRANCH  10  17
ENDBRANCH   4   5
ENDBRANCH   2   4
BRANCH   2  21
HETATM   21  S   UNL     1     -10.389   9.843  68.857  1.00  0.00    -0.216 SA 
BRANCH  21  22
HETATM   22  C   UNL     1     -11.082  11.479  68.627  1.00  0.00    -0.238 A  
HETATM   23  C   UNL     1     -10.977  12.210  67.442  1.00  0.00    -0.308 A  
HETATM   24  C   UNL     1     -11.613  12.107  69.744  1.00  0.00    -0.334 A  
HETATM   25  H   UNL     1     -12.135  15.931  67.578  1.00  0.00     0.000 HD 
HETATM   26  O   UNL     1     -12.228  15.467  68.402  1.00  0.00    -0.115 OA 
HETATM   27  C   UNL     1     -12.043  13.447  69.729  1.00  0.00    -0.374 A  
HETATM   28  C   UNL     1     -11.385  13.545  67.325  1.00  0.00    -0.339 A  
HETATM   29  C   UNL     1     -11.902  14.144  68.493  1.00  0.00    -0.355 A  
BRANCH  27  30
HETATM   30  C   UNL     1     -12.561  14.079  71.046  1.00  0.00    -0.437 C  
HETATM   31  C   UNL     1     -13.793  15.008  70.839  1.00  0.00    -0.269 C  
HETATM   32  C   UNL     1     -13.018  12.978  72.024  1.00  0.00    -0.395 C  
HETATM   33  C   UNL     1     -11.492  14.978  71.704  1.00  0.00    -0.377 C  
ENDBRANCH  27  30
BRANCH  28  34
HETATM   34  C   UNL     1     -11.278  14.272  65.953  1.00  0.00    -0.319 C  
HETATM   35  C   UNL     1     -12.652  14.569  65.281  1.00  0.00    -0.240 C  
HETATM   36  C   UNL     1     -10.489  13.437  64.921  1.00  0.00    -0.404 C  
HETATM   37  C   UNL     1     -10.602  15.647  66.144  1.00  0.00    -0.325 C  
ENDBRANCH  28  34
ENDBRANCH  21  22
ENDBRANCH   2  21
TORSDOF 8
ENDMDL
MODEL      236
REMARK 921   NORMALIZED FREE ENERGY PREDICTED BY IDOCK:   -3.69 KCAL/MOL
REMARK 922        TOTAL FREE ENERGY PREDICTED BY IDOCK:   -6.01 KCAL/MOL
REMARK 923 INTER-LIGAND FREE ENERGY PREDICTED BY IDOCK:   -6.23 KCAL/MOL
REMARK 924 INTRA-LIGAND FREE ENERGY PREDICTED BY IDOCK:    0.22 KCAL/MOL
REMARK 927      BINDING AFFINITY PREDICTED BY RF-SCORE:    0.00 PKD
ROOT
HETATM    1  C   UNL     1     -10.982   6.729  66.680  1.00  0.00    -0.064 C  
HETATM    2  C   UNL     1     -10.313   7.169  67.995  1.00  0.00    -0.194 C  
HETATM    3  C   UNL     1     -10.983   6.412  69.153  1.00  0.00    -0.416 C  
ENDROOT
BRANCH   2   4
HETATM    4  S   UNL     1     -10.610   8.975  68.234  1.00  0.00    -0.114 SA 
BRANCH   4   5
HETATM    5  C   UNL     1     -10.279   9.707  66.635  1.00  0.00    -0.232 A  
HETATM    6  C   UNL     1      -9.594  11.051  64.279  1.00  0.00    -0.262 A  
HETATM    7  O   UNL     1      -9.161  11.696  63.156  1.00  0.00    -0.529 OA 
HETATM    8  H   UNL     1      -8.486  11.324  62.600  1.00  0.00     0.000 HD 
HETATM    9  C   UNL     1     -10.898  10.908  66.305  1.00  0.00    -0.191 A  
HETATM   10  C   UNL     1      -8.939   9.837  64.576  1.00  0.00    -0.278 A  
HETATM   11  C   UNL     1      -9.337   9.195  65.750  1.00  0.00    -0.309 A  
HETATM   12  C   UNL     1     -10.606  11.609  65.112  1.00  0.00    -0.343 A  
BRANCH  12  13
HETATM   13  C   UNL     1     -11.359  12.930  64.813  1.00  0.00    -0.349 C  
HETATM   14  C   UNL     1     -12.087  12.865  63.451  1.00  0.00    -0.610 C  
HETATM   15  C   UNL     1     -10.390  14.129  64.848  1.00  0.00    -0.435 C  
HETATM   16  C   UNL     1     -12.479  13.253  65.845  1.00  0.00    -0.433 C  
ENDBRANCH  12  13
BRANCH  10  17
HETATM   17  C   UNL     1      -7.843   9.190  63.687  1.00  0.00    -0.136 C  
HETATM   18  C   UNL     1      -8.467   8.334  62.564  1.00  0.00    -0.099 C  
HETATM   19  C   UNL     1      -6.922  10.214  62.959  1.00  0.00    -0.133 C  
HETATM   20  C   UNL     1      -6.903   8.331  64.558  1.00  0.00    -0.068 C  
ENDBRANCH  10  17
ENDBRANCH   4   5
ENDBRANCH   2   4
BRANCH   2  21
HETATM   21  S   UNL     1      -8.541   6.657  67.928  1.00  0.00    -0.117 SA 
BRANCH  21  22
HETATM   22  C   UNL     1      -7.698   7.773  69.049  1.00  0.00    -0.109 A  
HETATM   23  C   UNL     1      -7.544   7.534  70.416  1.00  0.00    -0.090 A  
HETATM   24  C   UNL     1      -7.318   9.009  68.549  1.00  0.00    -0.077 A  
HETATM   25  H   UNL     1      -6.149  10.481  72.555  1.00  0.00     0.000 HD 
HETATM   26  O   UNL     1      -6.232  10.680  71.630  1.00  0.00    -0.052 OA 
HETATM   27  C   UNL     1      -6.792  10.028  69.363  1.00  0.00    -0.064 A  
HETATM   28  C   UNL     1      -7.022   8.482  71.307  1.00  0.00    -0.075 A  
HETATM   29  C   UNL     1      -6.668   9.730  70.752  1.00  0.00    -0.077 A  
BRANCH  27  30
HETATM   30  C   UNL     1      -6.459  11.399  68.722  1.00  0.00    -0.056 C  
HETATM   31  C   UNL     1      -7.587  12.456  68.910  1.00  0.00     0.035 C  
HETATM   32  C   UNL     1      -5.199  12.003  69.373  1.00  0.00    -0.064 C  
HETATM   33  C   UNL     1      -6.276  11.283  67.193  1.00  0.00    -0.096 C  
ENDBRANCH  27  30
BRANCH  28  34
HETATM   34  C   UNL     1      -6.839   8.118  72.808  1.00  0.00    -0.105 C  
HETATM   35  C   UNL     1      -6.829   6.586  73.096  1.00  0.00    -0.073 C  
HETATM   36  C   UNL     1      -7.977   8.691  73.681  1.00  0.00     0.061 C  
HETATM   37  C   UNL     1      -5.477   8.644  73.309  1.00  0.00    -0.078 C  
ENDBRANCH  28  34
ENDBRANCH  21  22
ENDBRANCH   2  21
TORSDOF 8
ENDMDL
MODEL      237
REMARK 921   NORMALIZED FREE ENERGY PREDICTED BY IDOCK:   -3.67 KCAL/MOL
REMARK 922        TOTAL FREE ENERGY PREDICTED BY IDOCK:   -5.99 KCAL/MOL
REMARK 923 INTER-LIGAND FREE ENERGY PREDICTED BY IDOCK:   -6.74 KCAL/MOL
REMARK 924 INTRA-LIGAND FREE ENERGY PREDICTED BY IDOCK:    0.76 KCAL/MOL
REMARK 927      BINDING AFFINITY PREDICTED BY RF-SCORE:    0.00 PKD
ROOT
HETATM    1  C   UNL     1      -5.931  10.294  67.608  1.00  0.00    -0.052 C  
HETATM    2  C   UNL     1      -6.237  11.443  68.585  1.00  0.00    -0.048 C  
HETATM    3  C   UNL     1      -5.353  11.265  69.830  1.00  0.00    -0.062 C  
ENDROOT
BRANCH   2   4
HETATM    4  S   UNL     1      -8.004  11.319  69.107  1.00  0.00     0.082 SA 
BRANCH   4   5
HETATM    5  C   UNL     1      -8.184   9.645  69.713  1.00  0.00    -0.161 A  
HETATM    6  C   UNL     1      -8.667   7.135  70.851  1.00  0.00    -0.146 A  
HETATM    7  O   UNL     1      -9.002   5.925  71.389  1.00  0.00    -0.139 OA 
HETATM    8  H   UNL     1      -9.566   5.317  70.926  1.00  0.00     0.000 HD 
HETATM    9  C   UNL     1      -7.628   9.312  70.944  1.00  0.00    -0.130 A  
HETATM   10  C   UNL     1      -9.253   7.431  69.602  1.00  0.00    -0.146 A  
HETATM   11  C   UNL     1      -8.958   8.687  69.067  1.00  0.00    -0.142 A  
HETATM   12  C   UNL     1      -7.820   8.047  71.545  1.00  0.00    -0.109 A  
BRANCH  12  13
HETATM   13  C   UNL     1      -7.145   7.754  72.909  1.00  0.00    -0.092 C  
HETATM   14  C   UNL     1      -6.405   6.396  72.889  1.00  0.00    -0.059 C  
HETATM   15  C   UNL     1      -8.185   7.782  74.048  1.00  0.00    -0.268 C  
HETATM   16  C   UNL     1      -6.055   8.793  73.298  1.00  0.00    -0.067 C  
ENDBRANCH  12  13
BRANCH  10  17
HETATM   17  C   UNL     1     -10.167   6.461  68.808  1.00  0.00    -0.206 C  
HETATM   18  C   UNL     1     -10.598   7.074  67.459  1.00  0.00    -0.351 C  
HETATM   19  C   UNL     1      -9.496   5.102  68.444  1.00  0.00    -0.168 C  
HETATM   20  C   UNL     1     -11.404   6.098  69.654  1.00  0.00    -0.442 C  
ENDBRANCH  10  17
ENDBRANCH   4   5
ENDBRANCH   2   4
BRANCH   2  21
HETATM   21  S   UNL     1      -5.759  13.027  67.768  1.00  0.00    -0.121 SA 
BRANCH  21  22
HETATM   22  C   UNL     1      -7.303  13.902  67.522  1.00  0.00    -0.166 A  
HETATM   23  C   UNL     1      -8.452  13.317  66.986  1.00  0.00    -0.138 A  
HETATM   24  C   UNL     1      -7.298  15.272  67.735  1.00  0.00    -0.181 A  
HETATM   25  H   UNL     1     -11.390  15.728  66.111  1.00  0.00     0.000 HD 
HETATM   26  O   UNL     1     -10.630  16.163  66.480  1.00  0.00    -0.308 OA 
HETATM   27  C   UNL     1      -8.400  16.092  67.427  1.00  0.00    -0.188 A  
HETATM   28  C   UNL     1      -9.602  14.047  66.655  1.00  0.00    -0.299 A  
HETATM   29  C   UNL     1      -9.540  15.440  66.873  1.00  0.00    -0.226 A  
BRANCH  27  30
HETATM   30  C   UNL     1      -8.273  17.622  67.639  1.00  0.00    -0.225 C  
HETATM   31  C   UNL     1      -6.913  18.045  68.269  1.00  0.00    -0.228 C  
HETATM   32  C   UNL     1      -8.362  18.358  66.287  1.00  0.00    -0.231 C  
HETATM   33  C   UNL     1      -9.345  18.152  68.616  1.00  0.00    -0.309 C  
ENDBRANCH  27  30
BRANCH  28  34
HETATM   34  C   UNL     1     -10.857  13.311  66.106  1.00  0.00    -0.290 C  
HETATM   35  C   UNL     1     -10.729  11.758  66.089  1.00  0.00    -0.320 C  
HETATM   36  C   UNL     1     -11.168  13.713  64.648  1.00  0.00    -0.383 C  
HETATM   37  C   UNL     1     -12.075  13.617  67.006  1.00  0.00    -0.423 C  
ENDBRANCH  28  34
ENDBRANCH  21  22
ENDBRANCH   2  21
TORSDOF 8
ENDMDL
MODEL      238
REMARK 921   NORMALIZED FREE ENERGY PREDICTED BY IDOCK:   -3.63 KCAL/MOL
REMARK 922        TOTAL FREE ENERGY PREDICTED BY IDOCK:   -5.92 KCAL/MOL
REMARK 923 INTER-LIGAND FREE ENERGY PREDICTED BY IDOCK:   -5.50 KCAL/MOL
REMARK 924 INTRA-LIGAND FREE ENERGY PREDICTED BY IDOCK:   -0.42 KCAL/MOL
REMARK 927      BINDING AFFINITY PREDICTED BY RF-SCORE:    0.00 PKD
ROOT
HETATM    1  C   UNL     1      -8.231  10.796  69.181  1.00  0.00    -0.124 C  
HETATM    2  C   UNL     1      -6.705  10.980  69.256  1.00  0.00    -0.099 C  
HETATM    3  C   UNL     1      -6.358  11.573  70.632  1.00  0.00     0.393 C  
ENDROOT
BRANCH   2   4
HETATM    4  S   UNL     1      -6.191  12.189  67.959  1.00  0.00    -0.074 SA 
BRANCH   4   5
HETATM    5  C   UNL     1      -7.726  12.872  67.339  1.00  0.00    -0.159 A  
HETATM    6  C   UNL     1      -9.960  14.080  66.166  1.00  0.00    -0.312 A  
HETATM    7  O   UNL     1     -11.019  14.632  65.504  1.00  0.00    -0.311 OA 
HETATM    8  H   UNL     1     -11.557  14.117  64.914  1.00  0.00     0.000 HD 
HETATM    9  C   UNL     1      -8.020  14.206  67.597  1.00  0.00    -0.187 A  
HETATM   10  C   UNL     1      -9.697  12.724  65.875  1.00  0.00    -0.203 A  
HETATM   11  C   UNL     1      -8.585  12.164  66.507  1.00  0.00    -0.070 A  
HETATM   12  C   UNL     1      -9.153  14.852  67.051  1.00  0.00    -0.255 A  
BRANCH  12  13
HETATM   13  C   UNL     1      -9.417  16.336  67.409  1.00  0.00    -0.227 C  
HETATM   14  C   UNL     1      -8.426  16.839  68.484  1.00  0.00    -0.244 C  
HETATM   15  C   UNL     1     -10.871  16.531  67.885  1.00  0.00    -0.326 C  
HETATM   16  C   UNL     1      -9.224  17.308  66.209  1.00  0.00    -0.243 C  
ENDBRANCH  12  13
BRANCH  10  17
HETATM   17  C   UNL     1     -10.560  11.846  64.930  1.00  0.00    -0.333 C  
HETATM   18  C   UNL     1     -10.310  10.343  65.179  1.00  0.00    -0.260 C  
HETATM   19  C   UNL     1     -12.097  12.039  65.101  1.00  0.00    -0.165 C  
HETATM   20  C   UNL     1     -10.258  12.205  63.461  1.00  0.00    -0.453 C  
ENDBRANCH  10  17
ENDBRANCH   4   5
ENDBRANCH   2   4
BRANCH   2  21
HETATM   21  S   UNL     1      -5.925   9.311  69.141  1.00  0.00    -0.042 SA 
BRANCH  21  22
HETATM   22  C   UNL     1      -6.917   8.422  67.943  1.00  0.00    -0.078 A  
HETATM   23  C   UNL     1      -7.866   7.455  68.282  1.00  0.00    -0.122 A  
HETATM   24  C   UNL     1      -6.607   8.600  66.604  1.00  0.00    -0.060 A  
HETATM   25  H   UNL     1      -9.376   5.387  65.341  1.00  0.00     0.000 HD 
HETATM   26  O   UNL     1      -8.740   6.038  65.069  1.00  0.00    -0.091 OA 
HETATM   27  C   UNL     1      -7.205   7.844  65.579  1.00  0.00    -0.067 A  
HETATM   28  C   UNL     1      -8.523   6.659  67.334  1.00  0.00    -0.120 A  
HETATM   29  C   UNL     1      -8.159   6.866  65.987  1.00  0.00    -0.119 A  
BRANCH  27  30
HETATM   30  C   UNL     1      -6.743   8.071  64.117  1.00  0.00    -0.065 C  
HETATM   31  C   UNL     1      -5.836   9.326  63.946  1.00  0.00    -0.079 C  
HETATM   32  C   UNL     1      -5.905   6.872  63.629  1.00  0.00    -0.036 C  
HETATM   33  C   UNL     1      -7.940   8.315  63.173  1.00  0.00    -0.158 C  
ENDBRANCH  27  30
BRANCH  28  34
HETATM   34  C   UNL     1      -9.603   5.638  67.793  1.00  0.00    -0.128 C  
HETATM   35  C   UNL     1      -9.252   4.153  67.476  1.00  0.00    -0.184 C  
HETATM   36  C   UNL     1     -10.964   5.894  67.108  1.00  0.00    -0.289 C  
HETATM   37  C   UNL     1      -9.767   5.707  69.327  1.00  0.00    -0.205 C  
ENDBRANCH  28  34
ENDBRANCH  21  22
ENDBRANCH   2  21
TORSDOF 8
ENDMDL
MODEL      239
REMARK 921   NORMALIZED FREE ENERGY PREDICTED BY IDOCK:   -3.63 KCAL/MOL
REMARK 922        TOTAL FREE ENERGY PREDICTED BY IDOCK:   -5.92 KCAL/MOL
REMARK 923 INTER-LIGAND FREE ENERGY PREDICTED BY IDOCK:   -7.90 KCAL/MOL
REMARK 924 INTRA-LIGAND FREE ENERGY PREDICTED BY IDOCK:    1.98 KCAL/MOL
REMARK 927      BINDING AFFINITY PREDICTED BY RF-SCORE:    0.00 PKD
ROOT
HETATM    1  C   UNL     1      -5.866  12.117  67.067  1.00  0.00    -0.093 C  
HETATM    2  C   UNL     1      -6.671  12.901  68.118  1.00  0.00    -0.096 C  
HETATM    3  C   UNL     1      -6.273  12.387  69.511  1.00  0.00    -0.126 C  
ENDROOT
BRANCH   2   4
HETATM    4  S   UNL     1      -8.467  12.554  67.865  1.00  0.00    -0.182 SA 
BRANCH   4   5
HETATM    5  C   UNL     1      -8.512  10.984  67.006  1.00  0.00    -0.141 A  
HETATM    6  C   UNL     1      -8.874   8.575  65.631  1.00  0.00    -0.173 A  
HETATM    7  O   UNL     1      -9.096   7.453  64.886  1.00  0.00    -0.156 OA 
HETATM    8  H   UNL     1      -8.860   7.414  63.966  1.00  0.00     0.000 HD 
HETATM    9  C   UNL     1      -9.052   9.879  67.655  1.00  0.00    -0.140 A  
HETATM   10  C   UNL     1      -8.324   9.672  64.934  1.00  0.00    -0.152 A  
HETATM   11  C   UNL     1      -8.141  10.842  65.674  1.00  0.00    -0.112 A  
HETATM   12  C   UNL     1      -9.228   8.633  67.010  1.00  0.00    -0.186 A  
BRANCH  12  13
HETATM   13  C   UNL     1      -9.818   7.447  67.815  1.00  0.00    -0.187 C  
HETATM   14  C   UNL     1     -10.506   7.936  69.110  1.00  0.00    -0.218 C  
HETATM   15  C   UNL     1      -8.721   6.414  68.146  1.00  0.00    -0.116 C  
HETATM   16  C   UNL     1     -10.924   6.667  67.048  1.00  0.00    -0.463 C  
ENDBRANCH  12  13
BRANCH  10  17
HETATM   17  C   UNL     1      -7.912   9.644  63.438  1.00  0.00    -0.145 C  
HETATM   18  C   UNL     1      -8.608   8.489  62.687  1.00  0.00    -0.078 C  
HETATM   19  C   UNL     1      -8.288  10.933  62.646  1.00  0.00    -0.202 C  
HETATM   20  C   UNL     1      -6.380   9.516  63.319  1.00  0.00    -0.100 C  
ENDBRANCH  10  17
ENDBRANCH   4   5
ENDBRANCH   2   4
BRANCH   2  21
HETATM   21  S   UNL     1      -6.181  14.676  68.002  1.00  0.00    -0.165 SA 
BRANCH  21  22
HETATM   22  C   UNL     1      -7.679  15.537  67.528  1.00  0.00    -0.171 A  
HETATM   23  C   UNL     1      -8.691  14.969  66.751  1.00  0.00    -0.293 A  
HETATM   24  C   UNL     1      -7.756  16.889  67.824  1.00  0.00    -0.184 A  
HETATM   25  H   UNL     1     -11.488  17.379  65.497  1.00  0.00     0.000 HD 
HETATM   26  O   UNL     1     -10.823  17.802  66.028  1.00  0.00    -0.194 OA 
HETATM   27  C   UNL     1      -8.806  17.708  67.369  1.00  0.00    -0.235 A  
HETATM   28  C   UNL     1      -9.781  15.699  66.258  1.00  0.00    -0.328 A  
HETATM   29  C   UNL     1      -9.803  17.074  66.571  1.00  0.00    -0.294 A  
BRANCH  27  30
HETATM   30  C   UNL     1      -8.767  19.222  67.697  1.00  0.00    -0.335 C  
HETATM   31  C   UNL     1      -9.959  19.690  68.584  1.00  0.00    -0.553 C  
HETATM   32  C   UNL     1      -7.489  19.566  68.487  1.00  0.00    -0.368 C  
HETATM   33  C   UNL     1      -8.862  20.084  66.419  1.00  0.00    -0.388 C  
ENDBRANCH  27  30
BRANCH  28  34
HETATM   34  C   UNL     1     -10.890  14.978  65.439  1.00  0.00    -0.376 C  
HETATM   35  C   UNL     1     -10.422  13.658  64.755  1.00  0.00    -0.436 C  
HETATM   36  C   UNL     1     -11.427  15.865  64.294  1.00  0.00    -0.197 C  
HETATM   37  C   UNL     1     -12.048  14.573  66.376  1.00  0.00    -0.320 C  
ENDBRANCH  28  34
ENDBRANCH  21  22
ENDBRANCH   2  21
TORSDOF 8
ENDMDL
MODEL      240
REMARK 921   NORMALIZED FREE ENERGY PREDICTED BY IDOCK:   -3.62 KCAL/MOL
REMARK 922        TOTAL FREE ENERGY PREDICTED BY IDOCK:   -5.91 KCAL/MOL
REMARK 923 INTER-LIGAND FREE ENERGY PREDICTED BY IDOCK:   -6.37 KCAL/MOL
REMARK 924 INTRA-LIGAND FREE ENERGY PREDICTED BY IDOCK:    0.46 KCAL/MOL
REMARK 927      BINDING AFFINITY PREDICTED BY RF-SCORE:    0.00 PKD
ROOT
HETATM    1  C   UNL     1      -8.355  10.970  69.078  1.00  0.00    -0.089 C  
HETATM    2  C   UNL     1      -6.847  11.188  68.858  1.00  0.00    -0.086 C  
HETATM    3  C   UNL     1      -6.343  12.175  69.924  1.00  0.00    -0.074 C  
ENDROOT
BRANCH   2   4
HETATM    4  S   UNL     1      -6.597  11.952  67.196  1.00  0.00    -0.132 SA 
BRANCH   4   5
HETATM    5  C   UNL     1      -7.965  13.090  67.007  1.00  0.00    -0.004 A  
HETATM    6  C   UNL     1      -9.935  15.015  66.515  1.00  0.00    -0.263 A  
HETATM    7  O   UNL     1     -10.886  15.934  66.175  1.00  0.00    -0.296 OA 
HETATM    8  H   UNL     1     -11.605  15.712  65.594  1.00  0.00     0.000 HD 
HETATM    9  C   UNL     1      -7.874  14.353  67.583  1.00  0.00    -0.194 A  
HETATM   10  C   UNL     1     -10.066  13.748  65.908  1.00  0.00    -0.325 A  
HETATM   11  C   UNL     1      -9.070  12.816  66.208  1.00  0.00    -0.033 A  
HETATM   12  C   UNL     1      -8.859  15.348  67.387  1.00  0.00    -0.196 A  
BRANCH  12  13
HETATM   13  C   UNL     1      -8.688  16.721  68.085  1.00  0.00    -0.219 C  
HETATM   14  C   UNL     1      -8.346  17.831  67.064  1.00  0.00    -0.242 C  
HETATM   15  C   UNL     1      -7.603  16.645  69.179  1.00  0.00    -0.192 C  
HETATM   16  C   UNL     1      -9.979  17.221  68.795  1.00  0.00    -0.325 C  
ENDBRANCH  12  13
BRANCH  10  17
HETATM   17  C   UNL     1     -11.231  13.341  64.966  1.00  0.00    -0.325 C  
HETATM   18  C   UNL     1     -12.270  12.471  65.704  1.00  0.00    -0.403 C  
HETATM   19  C   UNL     1     -12.038  14.544  64.391  1.00  0.00    -0.492 C  
HETATM   20  C   UNL     1     -10.674  12.591  63.740  1.00  0.00    -0.483 C  
ENDBRANCH  10  17
ENDBRANCH   4   5
ENDBRANCH   2   4
BRANCH   2  21
HETATM   21  S   UNL     1      -5.994   9.574  69.127  1.00  0.00    -0.038 SA 
BRANCH  21  22
HETATM   22  C   UNL     1      -6.827   8.426  68.032  1.00  0.00    -0.070 A  
HETATM   23  C   UNL     1      -6.802   8.521  66.638  1.00  0.00    -0.072 A  
HETATM   24  C   UNL     1      -7.666   7.488  68.613  1.00  0.00    -0.119 A  
HETATM   25  H   UNL     1      -9.206   6.153  64.684  1.00  0.00     0.000 HD 
HETATM   26  O   UNL     1      -9.247   6.053  65.628  1.00  0.00    -0.089 OA 
HETATM   27  C   UNL     1      -8.493   6.637  67.857  1.00  0.00    -0.119 A  
HETATM   28  C   UNL     1      -7.581   7.713  65.800  1.00  0.00    -0.088 A  
HETATM   29  C   UNL     1      -8.431   6.787  66.440  1.00  0.00    -0.126 A  
BRANCH  27  30
HETATM   30  C   UNL     1      -9.446   5.667  68.601  1.00  0.00    -0.152 C  
HETATM   31  C   UNL     1      -9.279   4.182  68.161  1.00  0.00    -0.194 C  
HETATM   32  C   UNL     1      -9.161   5.696  70.116  1.00  0.00    -0.159 C  
HETATM   33  C   UNL     1     -10.928   5.999  68.323  1.00  0.00    -0.347 C  
ENDBRANCH  27  30
BRANCH  28  34
HETATM   34  C   UNL     1      -7.457   7.851  64.255  1.00  0.00    -0.103 C  
HETATM   35  C   UNL     1      -7.824   6.557  63.468  1.00  0.00    -0.110 C  
HETATM   36  C   UNL     1      -6.015   8.199  63.823  1.00  0.00    -0.066 C  
HETATM   37  C   UNL     1      -8.432   8.936  63.750  1.00  0.00    -0.147 C  
ENDBRANCH  28  34
ENDBRANCH  21  22
ENDBRANCH   2  21
TORSDOF 8
ENDMDL
MODEL      241
REMARK 921   NORMALIZED FREE ENERGY PREDICTED BY IDOCK:   -3.60 KCAL/MOL
REMARK 922        TOTAL FREE ENERGY PREDICTED BY IDOCK:   -5.89 KCAL/MOL
REMARK 923 INTER-LIGAND FREE ENERGY PREDICTED BY IDOCK:   -7.10 KCAL/MOL
REMARK 924 INTRA-LIGAND FREE ENERGY PREDICTED BY IDOCK:    1.21 KCAL/MOL
REMARK 927      BINDING AFFINITY PREDICTED BY RF-SCORE:    0.00 PKD
ROOT
HETATM    1  C   UNL     1     -12.035  11.525  69.254  1.00  0.00    -0.397 C  
HETATM    2  C   UNL     1     -10.959  10.429  69.340  1.00  0.00    -0.251 C  
HETATM    3  C   UNL     1     -11.244   9.386  68.247  1.00  0.00     0.129 C  
ENDROOT
BRANCH   2   4
HETATM    4  S   UNL     1     -11.094   9.597  70.983  1.00  0.00    -0.376 SA 
BRANCH   4   5
HETATM    5  C   UNL     1      -9.894   8.270  70.922  1.00  0.00    -0.182 A  
HETATM    6  C   UNL     1      -8.187   6.056  71.028  1.00  0.00    -0.123 A  
HETATM    7  O   UNL     1      -7.435   4.917  71.062  1.00  0.00    -0.068 OA 
HETATM    8  H   UNL     1      -7.488   4.268  70.370  1.00  0.00     0.000 HD 
HETATM    9  C   UNL     1      -9.008   8.116  71.983  1.00  0.00    -0.236 A  
HETATM   10  C   UNL     1      -9.071   6.172  69.935  1.00  0.00    -0.146 A  
HETATM   11  C   UNL     1      -9.882   7.308  69.918  1.00  0.00    -0.178 A  
HETATM   12  C   UNL     1      -8.107   7.030  72.065  1.00  0.00    -0.097 A  
BRANCH  12  13
HETATM   13  C   UNL     1      -7.138   6.948  73.273  1.00  0.00    -0.074 C  
HETATM   14  C   UNL     1      -7.345   5.640  74.070  1.00  0.00    -0.089 C  
HETATM   15  C   UNL     1      -7.313   8.173  74.195  1.00  0.00    -0.221 C  
HETATM   16  C   UNL     1      -5.637   6.930  72.864  1.00  0.00    -0.038 C  
ENDBRANCH  12  13
BRANCH  10  17
HETATM   17  C   UNL     1      -9.177   5.142  68.779  1.00  0.00    -0.152 C  
HETATM   18  C   UNL     1      -7.881   5.104  67.942  1.00  0.00    -0.091 C  
HETATM   19  C   UNL     1      -9.405   3.673  69.248  1.00  0.00    -0.245 C  
HETATM   20  C   UNL     1     -10.386   5.483  67.883  1.00  0.00    -0.240 C  
ENDBRANCH  10  17
ENDBRANCH   4   5
ENDBRANCH   2   4
BRANCH   2  21
HETATM   21  S   UNL     1      -9.325  11.206  68.975  1.00  0.00     0.030 SA 
BRANCH  21  22
HETATM   22  C   UNL     1      -9.704  12.590  67.903  1.00  0.00    -0.205 A  
HETATM   23  C   UNL     1     -10.443  12.482  66.723  1.00  0.00    -0.243 A  
HETATM   24  C   UNL     1      -9.094  13.802  68.190  1.00  0.00    -0.194 A  
HETATM   25  H   UNL     1     -10.540  15.634  64.430  1.00  0.00     0.000 HD 
HETATM   26  O   UNL     1     -10.034  15.750  65.225  1.00  0.00    -0.383 OA 
HETATM   27  C   UNL     1      -9.187  14.919  67.338  1.00  0.00    -0.198 A  
HETATM   28  C   UNL     1     -10.601  13.539  65.816  1.00  0.00    -0.283 A  
HETATM   29  C   UNL     1      -9.946  14.744  66.144  1.00  0.00    -0.304 A  
BRANCH  27  30
HETATM   30  C   UNL     1      -8.414  16.208  67.713  1.00  0.00    -0.165 C  
HETATM   31  C   UNL     1      -7.498  16.733  66.568  1.00  0.00    -0.322 C  
HETATM   32  C   UNL     1      -9.401  17.351  68.025  1.00  0.00    -0.276 C  
HETATM   33  C   UNL     1      -7.461  15.975  68.906  1.00  0.00    -0.188 C  
ENDBRANCH  27  30
BRANCH  28  34
HETATM   34  C   UNL     1     -11.481  13.348  64.548  1.00  0.00    -0.402 C  
HETATM   35  C   UNL     1     -12.724  12.434  64.766  1.00  0.00    -0.324 C  
HETATM   36  C   UNL     1     -10.690  12.696  63.392  1.00  0.00    -0.220 C  
HETATM   37  C   UNL     1     -12.044  14.713  64.095  1.00  0.00    -0.346 C  
ENDBRANCH  28  34
ENDBRANCH  21  22
ENDBRANCH   2  21
TORSDOF 8
ENDMDL
MODEL      242
REMARK 921   NORMALIZED FREE ENERGY PREDICTED BY IDOCK:   -3.60 KCAL/MOL
REMARK 922        TOTAL FREE ENERGY PREDICTED BY IDOCK:   -5.88 KCAL/MOL
REMARK 923 INTER-LIGAND FREE ENERGY PREDICTED BY IDOCK:   -6.75 KCAL/MOL
REMARK 924 INTRA-LIGAND FREE ENERGY PREDICTED BY IDOCK:    0.87 KCAL/MOL
REMARK 927      BINDING AFFINITY PREDICTED BY RF-SCORE:    0.00 PKD
ROOT
HETATM    1  C   UNL     1      -8.651   9.598  70.429  1.00  0.00    -0.200 C  
HETATM    2  C   UNL     1      -8.369   8.950  69.062  1.00  0.00    -0.124 C  
HETATM    3  C   UNL     1      -7.670   7.602  69.303  1.00  0.00    -0.104 C  
ENDROOT
BRANCH   2   4
HETATM    4  S   UNL     1      -7.216  10.040  68.118  1.00  0.00    -0.082 SA 
BRANCH   4   5
HETATM    5  C   UNL     1      -7.944  11.672  68.222  1.00  0.00    -0.143 A  
HETATM    6  C   UNL     1      -9.091  14.181  68.680  1.00  0.00    -0.138 A  
HETATM    7  O   UNL     1      -9.576  15.425  68.970  1.00  0.00    -0.207 OA 
HETATM    8  H   UNL     1      -9.014  16.191  68.960  1.00  0.00     0.000 HD 
HETATM    9  C   UNL     1      -9.305  11.785  68.486  1.00  0.00    -0.158 A  
HETATM   10  C   UNL     1      -7.706  14.113  68.419  1.00  0.00    -0.140 A  
HETATM   11  C   UNL     1      -7.190  12.839  68.171  1.00  0.00    -0.115 A  
HETATM   12  C   UNL     1      -9.934  13.033  68.695  1.00  0.00    -0.114 A  
BRANCH  12  13
HETATM   13  C   UNL     1     -11.461  13.069  68.961  1.00  0.00    -0.353 C  
HETATM   14  C   UNL     1     -12.107  11.688  68.706  1.00  0.00    -0.221 C  
HETATM   15  C   UNL     1     -12.140  14.149  68.094  1.00  0.00    -0.297 C  
HETATM   16  C   UNL     1     -11.825  13.411  70.435  1.00  0.00    -0.283 C  
ENDBRANCH  12  13
BRANCH  10  17
HETATM   17  C   UNL     1      -6.758  15.340  68.378  1.00  0.00    -0.113 C  
HETATM   18  C   UNL     1      -7.300  16.436  67.436  1.00  0.00    -0.184 C  
HETATM   19  C   UNL     1      -6.562  16.044  69.755  1.00  0.00    -0.143 C  
HETATM   20  C   UNL     1      -5.349  14.898  67.934  1.00  0.00    -0.099 C  
ENDBRANCH  10  17
ENDBRANCH   4   5
ENDBRANCH   2   4
BRANCH   2  21
HETATM   21  S   UNL     1      -9.991   8.613  68.247  1.00  0.00    -0.186 SA 
BRANCH  21  22
HETATM   22  C   UNL     1      -9.776   9.157  66.553  1.00  0.00    -0.241 A  
HETATM   23  C   UNL     1      -8.859   8.592  65.664  1.00  0.00    -0.227 A  
HETATM   24  C   UNL     1     -10.452  10.303  66.164  1.00  0.00    -0.200 A  
HETATM   25  H   UNL     1      -8.340  10.455  62.278  1.00  0.00     0.000 HD 
HETATM   26  O   UNL     1      -8.976  10.866  62.851  1.00  0.00    -0.234 OA 
HETATM   27  C   UNL     1     -10.246  10.919  64.915  1.00  0.00    -0.381 A  
HETATM   28  C   UNL     1      -8.592   9.125  64.396  1.00  0.00    -0.204 A  
HETATM   29  C   UNL     1      -9.292  10.302  64.054  1.00  0.00    -0.289 A  
BRANCH  27  30
HETATM   30  C   UNL     1     -11.001  12.235  64.599  1.00  0.00    -0.349 C  
HETATM   31  C   UNL     1     -10.189  13.513  64.965  1.00  0.00    -0.345 C  
HETATM   32  C   UNL     1     -11.291  12.335  63.088  1.00  0.00    -0.254 C  
HETATM   33  C   UNL     1     -12.309  12.351  65.410  1.00  0.00    -0.308 C  
ENDBRANCH  27  30
BRANCH  28  34
HETATM   34  C   UNL     1      -7.591   8.406  63.447  1.00  0.00    -0.129 C  
HETATM   35  C   UNL     1      -6.640   9.369  62.675  1.00  0.00    -0.096 C  
HETATM   36  C   UNL     1      -8.319   7.587  62.358  1.00  0.00    -0.040 C  
HETATM   37  C   UNL     1      -6.667   7.481  64.269  1.00  0.00    -0.048 C  
ENDBRANCH  28  34
ENDBRANCH  21  22
ENDBRANCH   2  21
TORSDOF 8
ENDMDL
MODEL      243
REMARK 921   NORMALIZED FREE ENERGY PREDICTED BY IDOCK:   -3.59 KCAL/MOL
REMARK 922        TOTAL FREE ENERGY PREDICTED BY IDOCK:   -5.87 KCAL/MOL
REMARK 923 INTER-LIGAND FREE ENERGY PREDICTED BY IDOCK:   -6.15 KCAL/MOL
REMARK 924 INTRA-LIGAND FREE ENERGY PREDICTED BY IDOCK:    0.28 KCAL/MOL
REMARK 927      BINDING AFFINITY PREDICTED BY RF-SCORE:    0.00 PKD
ROOT
HETATM    1  C   UNL     1     -10.097   9.144  68.078  1.00  0.00    -0.238 C  
HETATM    2  C   UNL     1      -8.846   9.231  68.970  1.00  0.00    -0.136 C  
HETATM    3  C   UNL     1      -9.304   9.395  70.428  1.00  0.00    -0.317 C  
ENDROOT
BRANCH   2   4
HETATM    4  S   UNL     1      -7.884  10.733  68.493  1.00  0.00    -0.130 SA 
BRANCH   4   5
HETATM    5  C   UNL     1      -9.109  11.880  67.870  1.00  0.00    -0.183 A  
HETATM    6  C   UNL     1     -11.222  13.454  66.930  1.00  0.00    -0.308 A  
HETATM    7  O   UNL     1     -12.304  14.199  66.558  1.00  0.00    -0.460 OA 
HETATM    8  H   UNL     1     -12.694  14.836  67.146  1.00  0.00     0.000 HD 
HETATM    9  C   UNL     1      -9.592  11.709  66.577  1.00  0.00    -0.226 A  
HETATM   10  C   UNL     1     -10.765  13.659  68.250  1.00  0.00    -0.266 A  
HETATM   11  C   UNL     1      -9.691  12.865  68.659  1.00  0.00    -0.047 A  
HETATM   12  C   UNL     1     -10.638  12.500  66.048  1.00  0.00    -0.289 A  
BRANCH  12  13
HETATM   13  C   UNL     1     -11.100  12.256  64.589  1.00  0.00    -0.358 C  
HETATM   14  C   UNL     1     -10.514  10.940  64.027  1.00  0.00    -0.379 C  
HETATM   15  C   UNL     1     -10.710  13.446  63.688  1.00  0.00     0.403 C  
HETATM   16  C   UNL     1     -12.641  12.096  64.445  1.00  0.00    -0.377 C  
ENDBRANCH  12  13
BRANCH  10  17
HETATM   17  C   UNL     1     -11.364  14.698  69.235  1.00  0.00    -0.313 C  
HETATM   18  C   UNL     1     -12.589  14.124  69.977  1.00  0.00    -0.268 C  
HETATM   19  C   UNL     1     -10.383  15.155  70.357  1.00  0.00    -0.020 C  
HETATM   20  C   UNL     1     -11.750  15.981  68.472  1.00  0.00    -0.244 C  
ENDBRANCH  10  17
ENDBRANCH   4   5
ENDBRANCH   2   4
BRANCH   2  21
HETATM   21  S   UNL     1      -7.938   7.630  68.833  1.00  0.00    -0.127 SA 
BRANCH  21  22
HETATM   22  C   UNL     1      -8.199   7.097  67.143  1.00  0.00    -0.118 A  
HETATM   23  C   UNL     1      -8.624   5.815  66.787  1.00  0.00    -0.112 A  
HETATM   24  C   UNL     1      -7.805   7.964  66.135  1.00  0.00    -0.094 A  
HETATM   25  H   UNL     1      -8.512   4.930  62.991  1.00  0.00     0.000 HD 
HETATM   26  O   UNL     1      -8.222   5.813  63.191  1.00  0.00    -0.120 OA 
HETATM   27  C   UNL     1      -7.811   7.601  64.776  1.00  0.00    -0.129 A  
HETATM   28  C   UNL     1      -8.675   5.364  65.462  1.00  0.00    -0.154 A  
HETATM   29  C   UNL     1      -8.246   6.276  64.475  1.00  0.00    -0.062 A  
BRANCH  27  30
HETATM   30  C   UNL     1      -7.288   8.617  63.729  1.00  0.00    -0.101 C  
HETATM   31  C   UNL     1      -5.933   8.197  63.088  1.00  0.00    -0.076 C  
HETATM   32  C   UNL     1      -8.289   8.746  62.563  1.00  0.00    -0.202 C  
HETATM   33  C   UNL     1      -7.016   9.998  64.364  1.00  0.00    -0.129 C  
ENDBRANCH  27  30
BRANCH  28  34
HETATM   34  C   UNL     1      -9.208   3.936  65.148  1.00  0.00    -0.150 C  
HETATM   35  C   UNL     1      -8.338   3.141  64.129  1.00  0.00    -0.089 C  
HETATM   36  C   UNL     1     -10.626   3.974  64.536  1.00  0.00    -0.201 C  
HETATM   37  C   UNL     1      -9.216   3.088  66.439  1.00  0.00    -0.133 C  
ENDBRANCH  28  34
ENDBRANCH  21  22
ENDBRANCH   2  21
TORSDOF 8
ENDMDL
MODEL      244
REMARK 921   NORMALIZED FREE ENERGY PREDICTED BY IDOCK:   -3.59 KCAL/MOL
REMARK 922        TOTAL FREE ENERGY PREDICTED BY IDOCK:   -5.87 KCAL/MOL
REMARK 923 INTER-LIGAND FREE ENERGY PREDICTED BY IDOCK:   -7.01 KCAL/MOL
REMARK 924 INTRA-LIGAND FREE ENERGY PREDICTED BY IDOCK:    1.14 KCAL/MOL
REMARK 927      BINDING AFFINITY PREDICTED BY RF-SCORE:    0.00 PKD
ROOT
HETATM    1  C   UNL     1      -8.104  11.119  69.296  1.00  0.00     0.045 C  
HETATM    2  C   UNL     1      -8.585   9.658  69.343  1.00  0.00    -0.158 C  
HETATM    3  C   UNL     1      -8.362   9.123  70.767  1.00  0.00    -0.248 C  
ENDROOT
BRANCH   2   4
HETATM    4  S   UNL     1      -7.555   8.659  68.181  1.00  0.00    -0.098 SA 
BRANCH   4   5
HETATM    5  C   UNL     1      -8.208   6.997  68.308  1.00  0.00    -0.124 A  
HETATM    6  C   UNL     1      -8.959   4.304  68.418  1.00  0.00    -0.115 A  
HETATM    7  O   UNL     1      -9.244   2.974  68.532  1.00  0.00    -0.143 OA 
HETATM    8  H   UNL     1      -9.272   2.543  69.379  1.00  0.00     0.000 HD 
HETATM    9  C   UNL     1      -8.506   6.302  67.141  1.00  0.00    -0.108 A  
HETATM   10  C   UNL     1      -8.662   4.970  69.627  1.00  0.00    -0.110 A  
HETATM   11  C   UNL     1      -8.318   6.319  69.517  1.00  0.00    -0.118 A  
HETATM   12  C   UNL     1      -8.918   4.949  67.149  1.00  0.00    -0.110 A  
BRANCH  12  13
HETATM   13  C   UNL     1      -9.252   4.258  65.802  1.00  0.00    -0.146 C  
HETATM   14  C   UNL     1      -8.859   2.763  65.826  1.00  0.00    -0.134 C  
HETATM   15  C   UNL     1      -8.552   4.979  64.631  1.00  0.00    -0.150 C  
HETATM   16  C   UNL     1     -10.771   4.263  65.463  1.00  0.00    -0.038 C  
ENDBRANCH  12  13
BRANCH  10  17
HETATM   17  C   UNL     1      -8.710   4.308  71.029  1.00  0.00    -0.127 C  
HETATM   18  C   UNL     1     -10.157   4.225  71.560  1.00  0.00    -0.205 C  
HETATM   19  C   UNL     1      -8.177   2.844  71.065  1.00  0.00    -0.074 C  
HETATM   20  C   UNL     1      -7.821   5.097  72.011  1.00  0.00    -0.111 C  
ENDBRANCH  10  17
ENDBRANCH   4   5
ENDBRANCH   2   4
BRANCH   2  21
HETATM   21  S   UNL     1     -10.400   9.646  69.008  1.00  0.00    -0.213 SA 
BRANCH  21  22
HETATM   22  C   UNL     1     -10.853  11.374  68.867  1.00  0.00    -0.215 A  
HETATM   23  C   UNL     1     -11.440  12.111  69.897  1.00  0.00    -0.210 A  
HETATM   24  C   UNL     1     -10.752  11.957  67.613  1.00  0.00    -0.253 A  
HETATM   25  H   UNL     1     -12.765  15.658  68.966  1.00  0.00     0.000 HD 
HETATM   26  O   UNL     1     -12.367  15.192  68.241  1.00  0.00    -0.011 OA 
HETATM   27  C   UNL     1     -11.222  13.255  67.340  1.00  0.00    -0.316 A  
HETATM   28  C   UNL     1     -11.930  13.413  69.726  1.00  0.00    -0.396 A  
HETATM   29  C   UNL     1     -11.821  13.954  68.428  1.00  0.00    -0.374 A  
BRANCH  27  30
HETATM   30  C   UNL     1     -11.125  13.793  65.890  1.00  0.00    -0.286 C  
HETATM   31  C   UNL     1     -12.509  14.151  65.272  1.00  0.00    -0.474 C  
HETATM   32  C   UNL     1     -10.296  15.093  65.857  1.00  0.00    -0.344 C  
HETATM   33  C   UNL     1     -10.522  12.743  64.932  1.00  0.00    -0.342 C  
ENDBRANCH  27  30
BRANCH  28  34
HETATM   34  C   UNL     1     -12.527  14.183  70.939  1.00  0.00    -0.436 C  
HETATM   35  C   UNL     1     -13.773  15.052  70.591  1.00  0.00    -0.048 C  
HETATM   36  C   UNL     1     -11.504  15.161  71.558  1.00  0.00    -0.422 C  
HETATM   37  C   UNL     1     -13.006  13.178  72.009  1.00  0.00    -0.401 C  
ENDBRANCH  28  34
ENDBRANCH  21  22
ENDBRANCH   2  21
TORSDOF 8
ENDMDL
MODEL      245
REMARK 921   NORMALIZED FREE ENERGY PREDICTED BY IDOCK:   -3.58 KCAL/MOL
REMARK 922        TOTAL FREE ENERGY PREDICTED BY IDOCK:   -5.86 KCAL/MOL
REMARK 923 INTER-LIGAND FREE ENERGY PREDICTED BY IDOCK:   -7.37 KCAL/MOL
REMARK 924 INTRA-LIGAND FREE ENERGY PREDICTED BY IDOCK:    1.51 KCAL/MOL
REMARK 927      BINDING AFFINITY PREDICTED BY RF-SCORE:    0.00 PKD
ROOT
HETATM    1  C   UNL     1      -9.294  10.796  65.549  1.00  0.00    -0.242 C  
HETATM    2  C   UNL     1      -9.954  11.884  66.415  1.00  0.00    -0.213 C  
HETATM    3  C   UNL     1     -10.814  12.771  65.501  1.00  0.00    -0.301 C  
ENDROOT
BRANCH   2   4
HETATM    4  S   UNL     1      -8.628  12.932  67.159  1.00  0.00    -0.176 SA 
BRANCH   4   5
HETATM    5  C   UNL     1      -9.491  14.347  67.834  1.00  0.00    -0.214 A  
HETATM    6  C   UNL     1     -10.652  16.544  69.119  1.00  0.00    -0.319 A  
HETATM    7  O   UNL     1     -11.126  17.658  69.752  1.00  0.00     0.116 OA 
HETATM    8  H   UNL     1     -10.899  18.531  69.454  1.00  0.00     0.000 HD 
HETATM    9  C   UNL     1     -10.360  14.158  68.903  1.00  0.00    -0.204 A  
HETATM   10  C   UNL     1      -9.774  16.783  68.040  1.00  0.00    -0.243 A  
HETATM   11  C   UNL     1      -9.243  15.651  67.418  1.00  0.00    -0.205 A  
HETATM   12  C   UNL     1     -10.993  15.235  69.565  1.00  0.00    -0.280 A  
BRANCH  12  13
HETATM   13  C   UNL     1     -11.965  14.931  70.734  1.00  0.00    -0.372 C  
HETATM   14  C   UNL     1     -12.099  13.410  70.971  1.00  0.00    -0.192 C  
HETATM   15  C   UNL     1     -13.349  15.558  70.468  1.00  0.00    -0.079 C  
HETATM   16  C   UNL     1     -11.490  15.505  72.100  1.00  0.00    -0.512 C  
ENDBRANCH  12  13
BRANCH  10  17
HETATM   17  C   UNL     1      -9.391  18.192  67.515  1.00  0.00    -0.258 C  
HETATM   18  C   UNL     1      -8.295  18.106  66.431  1.00  0.00    -0.272 C  
HETATM   19  C   UNL     1     -10.566  18.969  66.849  1.00  0.00    -0.518 C  
HETATM   20  C   UNL     1      -8.919  19.076  68.686  1.00  0.00    -0.402 C  
ENDBRANCH  10  17
ENDBRANCH   4   5
ENDBRANCH   2   4
BRANCH   2  21
HETATM   21  S   UNL     1     -11.076  11.048  67.619  1.00  0.00    -0.306 SA 
BRANCH  21  22
HETATM   22  C   UNL     1     -10.008   9.968  68.569  1.00  0.00    -0.162 A  
HETATM   23  C   UNL     1     -10.472   8.920  69.368  1.00  0.00    -0.228 A  
HETATM   24  C   UNL     1      -8.663  10.297  68.629  1.00  0.00    -0.133 A  
HETATM   25  H   UNL     1      -7.849   7.201  71.686  1.00  0.00     0.000 HD 
HETATM   26  O   UNL     1      -7.493   7.903  71.154  1.00  0.00    -0.073 OA 
HETATM   27  C   UNL     1      -7.753   9.622  69.464  1.00  0.00    -0.109 A  
HETATM   28  C   UNL     1      -9.643   8.184  70.225  1.00  0.00    -0.171 A  
HETATM   29  C   UNL     1      -8.286   8.569  70.263  1.00  0.00    -0.125 A  
BRANCH  27  30
HETATM   30  C   UNL     1      -6.282  10.108  69.511  1.00  0.00    -0.048 C  
HETATM   31  C   UNL     1      -6.073  11.502  68.850  1.00  0.00    -0.052 C  
HETATM   32  C   UNL     1      -5.814  10.256  70.973  1.00  0.00    -0.044 C  
HETATM   33  C   UNL     1      -5.343   9.157  68.736  1.00  0.00    -0.037 C  
ENDBRANCH  27  30
BRANCH  28  34
HETATM   34  C   UNL     1     -10.231   6.999  71.045  1.00  0.00    -0.209 C  
HETATM   35  C   UNL     1     -11.681   7.241  71.563  1.00  0.00    -0.320 C  
HETATM   36  C   UNL     1      -9.390   6.699  72.305  1.00  0.00    -0.139 C  
HETATM   37  C   UNL     1     -10.312   5.740  70.155  1.00  0.00    -0.324 C  
ENDBRANCH  28  34
ENDBRANCH  21  22
ENDBRANCH   2  21
TORSDOF 8
ENDMDL
MODEL      246
REMARK 921   NORMALIZED FREE ENERGY PREDICTED BY IDOCK:   -3.57 KCAL/MOL
REMARK 922        TOTAL FREE ENERGY PREDICTED BY IDOCK:   -5.83 KCAL/MOL
REMARK 923 INTER-LIGAND FREE ENERGY PREDICTED BY IDOCK:   -6.01 KCAL/MOL
REMARK 924 INTRA-LIGAND FREE ENERGY PREDICTED BY IDOCK:    0.17 KCAL/MOL
REMARK 927      BINDING AFFINITY PREDICTED BY RF-SCORE:    0.00 PKD
ROOT
HETATM    1  C   UNL     1     -13.016   8.777  71.645  1.00  0.00    -0.390 C  
HETATM    2  C   UNL     1     -11.776   9.243  70.861  1.00  0.00    -0.296 C  
HETATM    3  C   UNL     1     -11.682   8.412  69.571  1.00  0.00     0.799 C  
ENDROOT
BRANCH   2   4
HETATM    4  S   UNL     1     -10.273   8.907  71.878  1.00  0.00    -0.269 SA 
BRANCH   4   5
HETATM    5  C   UNL     1      -9.812   7.227  71.467  1.00  0.00    -0.174 A  
HETATM    6  C   UNL     1      -9.382   4.544  70.801  1.00  0.00    -0.151 A  
HETATM    7  O   UNL     1      -9.231   3.249  70.393  1.00  0.00    -0.118 OA 
HETATM    8  H   UNL     1      -8.975   3.037  69.503  1.00  0.00     0.000 HD 
HETATM    9  C   UNL     1      -9.997   6.228  72.417  1.00  0.00    -0.187 A  
HETATM   10  C   UNL     1      -9.185   5.524  69.805  1.00  0.00    -0.168 A  
HETATM   11  C   UNL     1      -9.387   6.849  70.198  1.00  0.00    -0.159 A  
HETATM   12  C   UNL     1      -9.765   4.862  72.136  1.00  0.00    -0.213 A  
BRANCH  12  13
HETATM   13  C   UNL     1      -9.975   3.817  73.260  1.00  0.00    -0.187 C  
HETATM   14  C   UNL     1     -10.498   4.483  74.554  1.00  0.00    -0.298 C  
HETATM   15  C   UNL     1      -8.667   3.048  73.542  1.00  0.00    -0.077 C  
HETATM   16  C   UNL     1     -11.041   2.737  72.913  1.00  0.00    -0.003 C  
ENDBRANCH  12  13
BRANCH  10  17
HETATM   17  C   UNL     1      -8.753   5.220  68.346  1.00  0.00    -0.099 C  
HETATM   18  C   UNL     1      -9.779   4.309  67.638  1.00  0.00    -0.186 C  
HETATM   19  C   UNL     1      -8.630   6.481  67.438  1.00  0.00    -0.118 C  
HETATM   20  C   UNL     1      -7.357   4.565  68.338  1.00  0.00    -0.065 C  
ENDBRANCH  10  17
ENDBRANCH   4   5
ENDBRANCH   2   4
BRANCH   2  21
HETATM   21  S   UNL     1     -12.035  11.008  70.385  1.00  0.00    -0.390 SA 
BRANCH  21  22
HETATM   22  C   UNL     1     -10.915  11.283  69.014  1.00  0.00    -0.236 A  
HETATM   23  C   UNL     1     -11.325  11.693  67.743  1.00  0.00    -0.356 A  
HETATM   24  C   UNL     1      -9.590  10.918  69.193  1.00  0.00    -0.125 A  
HETATM   25  H   UNL     1      -8.624  11.620  64.932  1.00  0.00     0.000 HD 
HETATM   26  O   UNL     1      -8.304  11.341  65.782  1.00  0.00    -0.106 OA 
HETATM   27  C   UNL     1      -8.648  10.938  68.147  1.00  0.00    -0.133 A  
HETATM   28  C   UNL     1     -10.462  11.755  66.642  1.00  0.00    -0.259 A  
HETATM   29  C   UNL     1      -9.128  11.355  66.871  1.00  0.00    -0.175 A  
BRANCH  27  30
HETATM   30  C   UNL     1      -7.206  10.447  68.432  1.00  0.00    -0.080 C  
HETATM   31  C   UNL     1      -6.705   9.384  67.410  1.00  0.00    -0.068 C  
HETATM   32  C   UNL     1      -6.213  11.624  68.341  1.00  0.00    -0.050 C  
HETATM   33  C   UNL     1      -7.101   9.755  69.808  1.00  0.00    -0.095 C  
ENDBRANCH  27  30
BRANCH  28  34
HETATM   34  C   UNL     1     -10.989  12.268  65.271  1.00  0.00    -0.347 C  
HETATM   35  C   UNL     1     -12.515  12.580  65.251  1.00  0.00    -0.390 C  
HETATM   36  C   UNL     1     -10.767  11.233  64.146  1.00  0.00    -0.436 C  
HETATM   37  C   UNL     1     -10.288  13.596  64.908  1.00  0.00    -0.408 C  
ENDBRANCH  28  34
ENDBRANCH  21  22
ENDBRANCH   2  21
TORSDOF 8
ENDMDL
MODEL      247
REMARK 921   NORMALIZED FREE ENERGY PREDICTED BY IDOCK:   -3.55 KCAL/MOL
REMARK 922        TOTAL FREE ENERGY PREDICTED BY IDOCK:   -5.80 KCAL/MOL
REMARK 923 INTER-LIGAND FREE ENERGY PREDICTED BY IDOCK:   -6.35 KCAL/MOL
REMARK 924 INTRA-LIGAND FREE ENERGY PREDICTED BY IDOCK:    0.54 KCAL/MOL
REMARK 927      BINDING AFFINITY PREDICTED BY RF-SCORE:    0.00 PKD
ROOT
HETATM    1  C   UNL     1     -11.076   9.531  70.689  1.00  0.00    -0.364 C  
HETATM    2  C   UNL     1     -10.749  10.364  69.437  1.00  0.00    -0.244 C  
HETATM    3  C   UNL     1     -11.299   9.622  68.207  1.00  0.00     0.122 C  
ENDROOT
BRANCH   2   4
HETATM    4  S   UNL     1      -8.915  10.484  69.269  1.00  0.00    -0.083 SA 
BRANCH   4   5
HETATM    5  C   UNL     1      -8.366   8.795  69.044  1.00  0.00    -0.129 A  
HETATM    6  C   UNL     1      -7.795   6.076  68.719  1.00  0.00    -0.100 A  
HETATM    7  O   UNL     1      -7.585   4.747  68.485  1.00  0.00    -0.072 OA 
HETATM    8  H   UNL     1      -7.430   4.416  67.608  1.00  0.00     0.000 HD 
HETATM    9  C   UNL     1      -8.338   7.946  70.145  1.00  0.00    -0.127 A  
HETATM   10  C   UNL     1      -7.815   6.901  67.574  1.00  0.00    -0.112 A  
HETATM   11  C   UNL     1      -8.080   8.254  67.796  1.00  0.00    -0.127 A  
HETATM   12  C   UNL     1      -8.026   6.571  70.034  1.00  0.00    -0.116 A  
BRANCH  12  13
HETATM   13  C   UNL     1      -7.996   5.702  71.317  1.00  0.00    -0.112 C  
HETATM   14  C   UNL     1      -8.225   6.561  72.582  1.00  0.00    -0.110 C  
HETATM   15  C   UNL     1      -6.663   4.933  71.423  1.00  0.00    -0.039 C  
HETATM   16  C   UNL     1      -9.118   4.624  71.362  1.00  0.00    -0.173 C  
ENDBRANCH  12  13
BRANCH  10  17
HETATM   17  C   UNL     1      -7.553   6.403  66.128  1.00  0.00    -0.090 C  
HETATM   18  C   UNL     1      -8.356   5.120  65.824  1.00  0.00    -0.120 C  
HETATM   19  C   UNL     1      -7.964   7.416  65.017  1.00  0.00    -0.129 C  
HETATM   20  C   UNL     1      -6.045   6.154  65.925  1.00  0.00    -0.033 C  
ENDBRANCH  10  17
ENDBRANCH   4   5
ENDBRANCH   2   4
BRANCH   2  21
HETATM   21  S   UNL     1     -11.642  11.973  69.577  1.00  0.00    -0.312 SA 
BRANCH  21  22
HETATM   22  C   UNL     1     -10.998  12.974  68.237  1.00  0.00    -0.260 A  
HETATM   23  C   UNL     1     -10.219  14.118  68.424  1.00  0.00    -0.247 A  
HETATM   24  C   UNL     1     -11.432  12.675  66.955  1.00  0.00    -0.406 A  
HETATM   25  H   UNL     1      -9.517  16.287  65.261  1.00  0.00     0.000 HD 
HETATM   26  O   UNL     1     -10.044  15.515  65.091  1.00  0.00    -0.328 OA 
HETATM   27  C   UNL     1     -11.124  13.479  65.842  1.00  0.00    -0.292 A  
HETATM   28  C   UNL     1      -9.853  14.977  67.380  1.00  0.00    -0.224 A  
HETATM   29  C   UNL     1     -10.335  14.639  66.097  1.00  0.00    -0.300 A  
BRANCH  27  30
HETATM   30  C   UNL     1     -11.712  13.098  64.460  1.00  0.00    -0.417 C  
HETATM   31  C   UNL     1     -12.125  14.332  63.605  1.00  0.00     0.048 C  
HETATM   32  C   UNL     1     -10.665  12.334  63.626  1.00  0.00    -0.513 C  
HETATM   33  C   UNL     1     -13.004  12.264  64.602  1.00  0.00     0.015 C  
ENDBRANCH  27  30
BRANCH  28  34
HETATM   34  C   UNL     1      -8.942  16.205  67.667  1.00  0.00    -0.194 C  
HETATM   35  C   UNL     1      -8.469  16.314  69.148  1.00  0.00    -0.218 C  
HETATM   36  C   UNL     1      -9.662  17.537  67.367  1.00  0.00    -0.274 C  
HETATM   37  C   UNL     1      -7.651  16.104  66.825  1.00  0.00    -0.268 C  
ENDBRANCH  28  34
ENDBRANCH  21  22
ENDBRANCH   2  21
TORSDOF 8
ENDMDL
MODEL      248
REMARK 921   NORMALIZED FREE ENERGY PREDICTED BY IDOCK:   -3.54 KCAL/MOL
REMARK 922        TOTAL FREE ENERGY PREDICTED BY IDOCK:   -5.79 KCAL/MOL
REMARK 923 INTER-LIGAND FREE ENERGY PREDICTED BY IDOCK:   -6.32 KCAL/MOL
REMARK 924 INTRA-LIGAND FREE ENERGY PREDICTED BY IDOCK:    0.53 KCAL/MOL
REMARK 927      BINDING AFFINITY PREDICTED BY RF-SCORE:    0.00 PKD
ROOT
HETATM    1  C   UNL     1      -6.238  13.785  69.590  1.00  0.00    -0.121 C  
HETATM    2  C   UNL     1      -6.615  12.397  69.044  1.00  0.00    -0.100 C  
HETATM    3  C   UNL     1      -5.951  11.333  69.932  1.00  0.00    -0.117 C  
ENDROOT
BRANCH   2   4
HETATM    4  S   UNL     1      -5.938  12.230  67.335  1.00  0.00    -0.149 SA 
BRANCH   4   5
HETATM    5  C   UNL     1      -6.885  10.903  66.596  1.00  0.00    -0.127 A  
HETATM    6  C   UNL     1      -8.107   8.687  65.404  1.00  0.00    -0.121 A  
HETATM    7  O   UNL     1      -8.656   7.546  64.891  1.00  0.00    -0.353 OA 
HETATM    8  H   UNL     1      -9.081   6.906  65.450  1.00  0.00     0.000 HD 
HETATM    9  C   UNL     1      -6.843  10.734  65.216  1.00  0.00     0.111 A  
HETATM   10  C   UNL     1      -8.173   8.817  66.808  1.00  0.00    -0.108 A  
HETATM   11  C   UNL     1      -7.569   9.955  67.348  1.00  0.00    -0.091 A  
HETATM   12  C   UNL     1      -7.470   9.646  64.567  1.00  0.00    -0.128 A  
BRANCH  12  13
HETATM   13  C   UNL     1      -7.391   9.548  63.022  1.00  0.00    -0.108 C  
HETATM   14  C   UNL     1      -8.797   9.403  62.396  1.00  0.00    -0.257 C  
HETATM   15  C   UNL     1      -6.489   8.370  62.597  1.00  0.00    -0.088 C  
HETATM   16  C   UNL     1      -6.787  10.814  62.349  1.00  0.00    -0.094 C  
ENDBRANCH  12  13
BRANCH  10  17
HETATM   17  C   UNL     1      -8.870   7.803  67.753  1.00  0.00    -0.126 C  
HETATM   18  C   UNL     1     -10.405   7.966  67.715  1.00  0.00    -0.289 C  
HETATM   19  C   UNL     1      -8.608   6.309  67.394  1.00  0.00    -0.107 C  
HETATM   20  C   UNL     1      -8.346   7.982  69.192  1.00  0.00    -0.132 C  
ENDBRANCH  10  17
ENDBRANCH   4   5
ENDBRANCH   2   4
BRANCH   2  21
HETATM   21  S   UNL     1      -8.445  12.205  69.196  1.00  0.00     0.714 SA 
BRANCH  21  22
HETATM   22  C   UNL     1      -9.129  13.378  68.027  1.00  0.00    -0.205 A  
HETATM   23  C   UNL     1      -9.942  13.020  66.950  1.00  0.00    -0.243 A  
HETATM   24  C   UNL     1      -8.694  14.691  68.116  1.00  0.00    -0.168 A  
HETATM   25  H   UNL     1     -10.733  15.821  64.355  1.00  0.00     0.000 HD 
HETATM   26  O   UNL     1     -10.183  16.105  65.075  1.00  0.00    -0.535 OA 
HETATM   27  C   UNL     1      -9.034  15.670  67.165  1.00  0.00    -0.232 A  
HETATM   28  C   UNL     1     -10.343  13.924  65.957  1.00  0.00    -0.310 A  
HETATM   29  C   UNL     1      -9.858  15.243  66.083  1.00  0.00    -0.307 A  
BRANCH  27  30
HETATM   30  C   UNL     1      -8.443  17.095  67.315  1.00  0.00    -0.211 C  
HETATM   31  C   UNL     1      -7.762  17.336  68.695  1.00  0.00    -0.265 C  
HETATM   32  C   UNL     1      -7.350  17.335  66.255  1.00  0.00    -0.342 C  
HETATM   33  C   UNL     1      -9.538  18.179  67.219  1.00  0.00    -0.281 C  
ENDBRANCH  27  30
BRANCH  28  34
HETATM   34  C   UNL     1     -11.290  13.453  64.816  1.00  0.00    -0.356 C  
HETATM   35  C   UNL     1     -12.029  14.613  64.083  1.00  0.00    -0.316 C  
HETATM   36  C   UNL     1     -12.406  12.524  65.342  1.00  0.00    -0.426 C  
HETATM   37  C   UNL     1     -10.473  12.727  63.727  1.00  0.00    -0.335 C  
ENDBRANCH  28  34
ENDBRANCH  21  22
ENDBRANCH   2  21
TORSDOF 8
ENDMDL
MODEL      249
REMARK 921   NORMALIZED FREE ENERGY PREDICTED BY IDOCK:   -3.52 KCAL/MOL
REMARK 922        TOTAL FREE ENERGY PREDICTED BY IDOCK:   -5.77 KCAL/MOL
REMARK 923 INTER-LIGAND FREE ENERGY PREDICTED BY IDOCK:   -5.30 KCAL/MOL
REMARK 924 INTRA-LIGAND FREE ENERGY PREDICTED BY IDOCK:   -0.47 KCAL/MOL
REMARK 927      BINDING AFFINITY PREDICTED BY RF-SCORE:    0.00 PKD
ROOT
HETATM    1  C   UNL     1     -13.285  13.436  72.003  1.00  0.00    -0.531 C  
HETATM    2  C   UNL     1     -12.490  13.713  70.714  1.00  0.00    -0.359 C  
HETATM    3  C   UNL     1     -10.992  13.608  71.041  1.00  0.00     2.163 C  
ENDROOT
BRANCH   2   4
HETATM    4  S   UNL     1     -12.844  15.439  70.162  1.00  0.00    -0.031 SA 
BRANCH   4   5
HETATM    5  C   UNL     1     -11.842  15.662  68.695  1.00  0.00    -0.291 A  
HETATM    6  C   UNL     1     -10.071  15.844  66.538  1.00  0.00    -0.282 A  
HETATM    7  O   UNL     1      -9.202  15.831  65.485  1.00  0.00    -0.280 OA 
HETATM    8  H   UNL     1      -9.350  15.277  64.727  1.00  0.00     0.000 HD 
HETATM    9  C   UNL     1     -10.755  16.527  68.749  1.00  0.00    -0.339 A  
HETATM   10  C   UNL     1     -11.160  14.951  66.441  1.00  0.00    -0.342 A  
HETATM   11  C   UNL     1     -12.028  14.919  67.535  1.00  0.00    -0.158 A  
HETATM   12  C   UNL     1      -9.849  16.674  67.674  1.00  0.00    -0.256 A  
BRANCH  12  13
HETATM   13  C   UNL     1      -8.676  17.678  67.811  1.00  0.00    -0.232 C  
HETATM   14  C   UNL     1      -8.447  18.457  66.496  1.00  0.00    -0.287 C  
HETATM   15  C   UNL     1      -7.384  16.950  68.237  1.00  0.00    -0.193 C  
HETATM   16  C   UNL     1      -8.923  18.777  68.885  1.00  0.00    -0.239 C  
ENDBRANCH  12  13
BRANCH  10  17
HETATM   17  C   UNL     1     -11.445  14.042  65.216  1.00  0.00    -0.322 C  
HETATM   18  C   UNL     1     -12.132  14.831  64.081  1.00  0.00    -0.323 C  
HETATM   19  C   UNL     1     -10.170  13.422  64.569  1.00  0.00    -0.321 C  
HETATM   20  C   UNL     1     -12.318  12.846  65.644  1.00  0.00    -0.482 C  
ENDBRANCH  10  17
ENDBRANCH   4   5
ENDBRANCH   2   4
BRANCH   2  21
HETATM   21  S   UNL     1     -12.902  12.389  69.496  1.00  0.00     1.281 SA 
BRANCH  21  22
HETATM   22  C   UNL     1     -11.491  11.285  69.523  1.00  0.00    -0.307 A  
HETATM   23  C   UNL     1     -11.359  10.211  70.406  1.00  0.00    -0.401 A  
HETATM   24  C   UNL     1     -10.408  11.618  68.724  1.00  0.00    -0.213 A  
HETATM   25  H   UNL     1      -7.889   8.434  70.485  1.00  0.00     0.000 HD 
HETATM   26  O   UNL     1      -7.940   9.154  69.867  1.00  0.00    -0.085 OA 
HETATM   27  C   UNL     1      -9.186  10.923  68.773  1.00  0.00    -0.187 A  
HETATM   28  C   UNL     1     -10.187   9.452  70.522  1.00  0.00    -0.332 A  
HETATM   29  C   UNL     1      -9.108   9.843  69.700  1.00  0.00    -0.227 A  
BRANCH  27  30
HETATM   30  C   UNL     1      -8.012  11.413  67.887  1.00  0.00    -0.120 C  
HETATM   31  C   UNL     1      -6.637  11.382  68.617  1.00  0.00    -0.062 C  
HETATM   32  C   UNL     1      -7.859  10.504  66.651  1.00  0.00    -0.125 C  
HETATM   33  C   UNL     1      -8.200  12.884  67.458  1.00  0.00    -0.184 C  
ENDBRANCH  27  30
BRANCH  28  34
HETATM   34  C   UNL     1     -10.139   8.241  71.497  1.00  0.00    -0.270 C  
HETATM   35  C   UNL     1      -8.933   8.264  72.483  1.00  0.00    -0.305 C  
HETATM   36  C   UNL     1     -10.025   6.899  70.741  1.00  0.00    -0.201 C  
HETATM   37  C   UNL     1     -11.402   8.238  72.385  1.00  0.00    -0.457 C  
ENDBRANCH  28  34
ENDBRANCH  21  22
ENDBRANCH   2  21
TORSDOF 8
ENDMDL
MODEL      250
REMARK 921   NORMALIZED FREE ENERGY PREDICTED BY IDOCK:   -3.52 KCAL/MOL
REMARK 922        TOTAL FREE ENERGY PREDICTED BY IDOCK:   -5.77 KCAL/MOL
REMARK 923 INTER-LIGAND FREE ENERGY PREDICTED BY IDOCK:   -5.84 KCAL/MOL
REMARK 924 INTRA-LIGAND FREE ENERGY PREDICTED BY IDOCK:    0.07 KCAL/MOL
REMARK 927      BINDING AFFINITY PREDICTED BY RF-SCORE:    0.00 PKD
ROOT
HETATM    1  C   UNL     1     -11.316  16.897  68.105  1.00  0.00     0.043 C  
HETATM    2  C   UNL     1      -9.787  17.035  67.996  1.00  0.00    -0.275 C  
HETATM    3  C   UNL     1      -9.399  18.454  68.442  1.00  0.00    -0.347 C  
ENDROOT
BRANCH   2   4
HETATM    4  S   UNL     1      -9.301  16.831  66.227  1.00  0.00    -0.265 SA 
BRANCH   4   5
HETATM    5  C   UNL     1      -9.312  15.062  65.952  1.00  0.00    -0.213 A  
HETATM    6  C   UNL     1      -9.490  12.276  65.774  1.00  0.00    -0.121 A  
HETATM    7  O   UNL     1      -9.678  10.925  65.696  1.00  0.00    -0.208 OA 
HETATM    8  H   UNL     1     -10.312  10.547  65.098  1.00  0.00     0.000 HD 
HETATM    9  C   UNL     1      -8.504  14.254  66.745  1.00  0.00    -0.051 A  
HETATM   10  C   UNL     1     -10.330  13.057  64.953  1.00  0.00    -0.343 A  
HETATM   11  C   UNL     1     -10.182  14.442  65.063  1.00  0.00    -0.406 A  
HETATM   12  C   UNL     1      -8.538  12.842  66.670  1.00  0.00     0.007 A  
BRANCH  12  13
HETATM   13  C   UNL     1      -7.586  12.019  67.575  1.00  0.00    -0.147 C  
HETATM   14  C   UNL     1      -6.831  12.929  68.570  1.00  0.00    -0.095 C  
HETATM   15  C   UNL     1      -6.587  11.211  66.721  1.00  0.00    -0.133 C  
HETATM   16  C   UNL     1      -8.324  10.981  68.469  1.00  0.00    -0.149 C  
ENDBRANCH  12  13
BRANCH  10  17
HETATM   17  C   UNL     1     -11.368  12.479  63.955  1.00  0.00    -0.504 C  
HETATM   18  C   UNL     1     -10.695  11.546  62.925  1.00  0.00     0.023 C  
HETATM   19  C   UNL     1     -12.484  11.617  64.619  1.00  0.00     0.381 C  
HETATM   20  C   UNL     1     -12.103  13.629  63.238  1.00  0.00    -0.096 C  
ENDBRANCH  10  17
ENDBRANCH   4   5
ENDBRANCH   2   4
BRANCH   2  21
HETATM   21  S   UNL     1      -9.023  15.837  69.174  1.00  0.00    -0.264 SA 
BRANCH  21  22
HETATM   22  C   UNL     1     -10.409  15.041  69.984  1.00  0.00    -0.075 A  
HETATM   23  C   UNL     1     -11.078  15.574  71.088  1.00  0.00    -0.367 A  
HETATM   24  C   UNL     1     -10.727  13.753  69.580  1.00  0.00     0.073 A  
HETATM   25  H   UNL     1     -13.653  13.244  72.861  1.00  0.00     0.000 HD 
HETATM   26  O   UNL     1     -13.225  12.848  72.111  1.00  0.00    -0.465 OA 
HETATM   27  C   UNL     1     -11.687  12.966  70.241  1.00  0.00    -0.187 A  
HETATM   28  C   UNL     1     -12.055  14.873  71.805  1.00  0.00    -0.428 A  
HETATM   29  C   UNL     1     -12.329  13.560  71.366  1.00  0.00    -0.170 A  
BRANCH  27  30
HETATM   30  C   UNL     1     -11.924  11.513  69.754  1.00  0.00    -0.415 C  
HETATM   31  C   UNL     1     -13.323  10.953  70.147  1.00  0.00     0.543 C  
HETATM   32  C   UNL     1     -11.856  11.447  68.215  1.00  0.00    -0.320 C  
HETATM   33  C   UNL     1     -10.913  10.531  70.384  1.00  0.00    -0.252 C  
ENDBRANCH  27  30
BRANCH  28  34
HETATM   34  C   UNL     1     -12.787  15.559  72.995  1.00  0.00    -0.582 C  
HETATM   35  C   UNL     1     -12.225  16.965  73.363  1.00  0.00    -0.040 C  
HETATM   36  C   UNL     1     -12.684  14.725  74.291  1.00  0.00     0.358 C  
HETATM   37  C   UNL     1     -14.270  15.786  72.632  1.00  0.00    -0.351 C  
ENDBRANCH  28  34
ENDBRANCH  21  22
ENDBRANCH   2  21
TORSDOF 8
ENDMDL
MODEL      251
REMARK 921   NORMALIZED FREE ENERGY PREDICTED BY IDOCK:   -3.51 KCAL/MOL
REMARK 922        TOTAL FREE ENERGY PREDICTED BY IDOCK:   -5.76 KCAL/MOL
REMARK 923 INTER-LIGAND FREE ENERGY PREDICTED BY IDOCK:   -7.43 KCAL/MOL
REMARK 924 INTRA-LIGAND FREE ENERGY PREDICTED BY IDOCK:    1.68 KCAL/MOL
REMARK 927      BINDING AFFINITY PREDICTED BY RF-SCORE:    0.00 PKD
ROOT
HETATM    1  C   UNL     1     -11.779  12.142  69.108  1.00  0.00    -0.384 C  
HETATM    2  C   UNL     1     -10.813  10.944  69.103  1.00  0.00    -0.235 C  
HETATM    3  C   UNL     1     -11.192  10.026  67.929  1.00  0.00    -0.169 C  
ENDROOT
BRANCH   2   4
HETATM    4  S   UNL     1     -11.037   9.998  70.673  1.00  0.00    -0.329 SA 
BRANCH   4   5
HETATM    5  C   UNL     1      -9.954   8.582  70.510  1.00  0.00    -0.188 A  
HETATM    6  C   UNL     1      -8.102   6.534  70.065  1.00  0.00    -0.121 A  
HETATM    7  O   UNL     1      -7.124   5.601  69.871  1.00  0.00    -0.063 OA 
HETATM    8  H   UNL     1      -6.444   5.453  70.518  1.00  0.00     0.000 HD 
HETATM    9  C   UNL     1     -10.016   7.818  69.350  1.00  0.00    -0.188 A  
HETATM   10  C   UNL     1      -8.000   7.286  71.255  1.00  0.00    -0.098 A  
HETATM   11  C   UNL     1      -8.965   8.278  71.439  1.00  0.00    -0.211 A  
HETATM   12  C   UNL     1      -9.121   6.755  69.094  1.00  0.00    -0.138 A  
BRANCH  12  13
HETATM   13  C   UNL     1      -9.276   5.941  67.784  1.00  0.00    -0.108 C  
HETATM   14  C   UNL     1      -8.208   6.345  66.742  1.00  0.00    -0.110 C  
HETATM   15  C   UNL     1     -10.693   6.116  67.199  1.00  0.00    -0.422 C  
HETATM   16  C   UNL     1      -9.079   4.409  67.979  1.00  0.00    -0.158 C  
ENDBRANCH  12  13
BRANCH  10  17
HETATM   17  C   UNL     1      -6.915   7.066  72.343  1.00  0.00    -0.065 C  
HETATM   18  C   UNL     1      -7.288   7.783  73.658  1.00  0.00    -0.149 C  
HETATM   19  C   UNL     1      -6.696   5.574  72.737  1.00  0.00    -0.072 C  
HETATM   20  C   UNL     1      -5.550   7.564  71.828  1.00  0.00    -0.036 C  
ENDBRANCH  10  17
ENDBRANCH   4   5
ENDBRANCH   2   4
BRANCH   2  21
HETATM   21  S   UNL     1      -9.111  11.587  68.798  1.00  0.00     0.018 SA 
BRANCH  21  22
HETATM   22  C   UNL     1      -9.330  12.943  67.648  1.00  0.00    -0.195 A  
HETATM   23  C   UNL     1      -8.882  14.244  67.883  1.00  0.00    -0.179 A  
HETATM   24  C   UNL     1     -10.125  12.710  66.536  1.00  0.00    -0.257 A  
HETATM   25  H   UNL     1     -10.070  16.979  65.370  1.00  0.00     0.000 HD 
HETATM   26  O   UNL     1     -10.391  16.107  65.172  1.00  0.00    -0.560 OA 
HETATM   27  C   UNL     1     -10.501  13.732  65.644  1.00  0.00    -0.312 A  
HETATM   28  C   UNL     1      -9.195  15.326  67.049  1.00  0.00    -0.235 A  
HETATM   29  C   UNL     1     -10.022  15.041  65.942  1.00  0.00    -0.326 A  
BRANCH  27  30
HETATM   30  C   UNL     1     -11.448  13.384  64.468  1.00  0.00    -0.402 C  
HETATM   31  C   UNL     1     -12.631  12.459  64.882  1.00  0.00    -0.372 C  
HETATM   32  C   UNL     1     -12.091  14.667  63.902  1.00  0.00    -0.076 C  
HETATM   33  C   UNL     1     -10.712  12.610  63.353  1.00  0.00    -0.220 C  
ENDBRANCH  27  30
BRANCH  28  34
HETATM   34  C   UNL     1      -8.614  16.736  67.357  1.00  0.00    -0.206 C  
HETATM   35  C   UNL     1      -7.669  17.292  66.249  1.00  0.00    -0.353 C  
HETATM   36  C   UNL     1      -7.774  16.741  68.653  1.00  0.00    -0.232 C  
HETATM   37  C   UNL     1      -9.765  17.759  67.474  1.00  0.00    -0.284 C  
ENDBRANCH  28  34
ENDBRANCH  21  22
ENDBRANCH   2  21
TORSDOF 8
ENDMDL
MODEL      252
REMARK 921   NORMALIZED FREE ENERGY PREDICTED BY IDOCK:   -3.49 KCAL/MOL
REMARK 922        TOTAL FREE ENERGY PREDICTED BY IDOCK:   -5.72 KCAL/MOL
REMARK 923 INTER-LIGAND FREE ENERGY PREDICTED BY IDOCK:   -5.93 KCAL/MOL
REMARK 924 INTRA-LIGAND FREE ENERGY PREDICTED BY IDOCK:    0.21 KCAL/MOL
REMARK 927      BINDING AFFINITY PREDICTED BY RF-SCORE:    0.00 PKD
ROOT
HETATM    1  C   UNL     1      -6.587  10.875  69.408  1.00  0.00    -0.095 C  
HETATM    2  C   UNL     1      -7.200   9.514  69.783  1.00  0.00    -0.084 C  
HETATM    3  C   UNL     1      -6.913   9.250  71.270  1.00  0.00    -0.026 C  
ENDROOT
BRANCH   2   4
HETATM    4  S   UNL     1      -6.368   8.198  68.790  1.00  0.00    -0.045 SA 
BRANCH   4   5
HETATM    5  C   UNL     1      -7.480   6.797  68.867  1.00  0.00    -0.096 A  
HETATM    6  C   UNL     1      -8.985   4.439  68.915  1.00  0.00    -0.109 A  
HETATM    7  O   UNL     1      -9.649   3.249  69.002  1.00  0.00    -0.159 OA 
HETATM    8  H   UNL     1      -9.844   2.851  69.842  1.00  0.00     0.000 HD 
HETATM    9  C   UNL     1      -7.907   6.211  67.680  1.00  0.00    -0.105 A  
HETATM   10  C   UNL     1      -8.571   4.998  70.143  1.00  0.00    -0.111 A  
HETATM   11  C   UNL     1      -7.846   6.189  70.063  1.00  0.00    -0.106 A  
HETATM   12  C   UNL     1      -8.692   5.036  67.655  1.00  0.00    -0.103 A  
BRANCH  12  13
HETATM   13  C   UNL     1      -9.142   4.463  66.287  1.00  0.00    -0.126 C  
HETATM   14  C   UNL     1      -8.281   5.025  65.133  1.00  0.00    -0.131 C  
HETATM   15  C   UNL     1     -10.636   4.758  66.037  1.00  0.00    -0.300 C  
HETATM   16  C   UNL     1      -8.987   2.918  66.181  1.00  0.00    -0.149 C  
ENDBRANCH  12  13
BRANCH  10  17
HETATM   17  C   UNL     1      -8.882   4.387  71.535  1.00  0.00    -0.149 C  
HETATM   18  C   UNL     1      -8.338   5.279  72.672  1.00  0.00    -0.114 C  
HETATM   19  C   UNL     1     -10.402   4.222  71.837  1.00  0.00    -0.140 C  
HETATM   20  C   UNL     1      -8.283   2.970  71.630  1.00  0.00    -0.067 C  
ENDBRANCH  10  17
ENDBRANCH   4   5
ENDBRANCH   2   4
BRANCH   2  21
HETATM   21  S   UNL     1      -9.029   9.636  69.567  1.00  0.00    -0.210 SA 
BRANCH  21  22
HETATM   22  C   UNL     1      -9.253  10.641  68.101  1.00  0.00    -0.148 A  
HETATM   23  C   UNL     1      -9.965  11.842  68.082  1.00  0.00    -0.197 A  
HETATM   24  C   UNL     1      -8.824  10.110  66.895  1.00  0.00    -0.142 A  
HETATM   25  H   UNL     1     -10.672  13.395  64.576  1.00  0.00     0.000 HD 
HETATM   26  O   UNL     1     -10.179  12.583  64.547  1.00  0.00    -0.317 OA 
HETATM   27  C   UNL     1      -9.082  10.729  65.658  1.00  0.00    -0.215 A  
HETATM   28  C   UNL     1     -10.264  12.538  66.903  1.00  0.00    -0.237 A  
HETATM   29  C   UNL     1      -9.822  11.947  65.701  1.00  0.00    -0.241 A  
BRANCH  27  30
HETATM   30  C   UNL     1      -8.619  10.022  64.359  1.00  0.00    -0.199 C  
HETATM   31  C   UNL     1      -8.529   8.474  64.499  1.00  0.00    -0.108 C  
HETATM   32  C   UNL     1      -9.623  10.288  63.219  1.00  0.00    -0.305 C  
HETATM   33  C   UNL     1      -7.200  10.466  63.944  1.00  0.00     0.021 C  
ENDBRANCH  27  30
BRANCH  28  34
HETATM   34  C   UNL     1     -11.021  13.896  66.975  1.00  0.00    -0.301 C  
HETATM   35  C   UNL     1     -10.200  15.111  66.449  1.00  0.00    -0.291 C  
HETATM   36  C   UNL     1     -11.412  14.260  68.424  1.00  0.00    -0.331 C  
HETATM   37  C   UNL     1     -12.285  13.834  66.089  1.00  0.00    -0.499 C  
ENDBRANCH  28  34
ENDBRANCH  21  22
ENDBRANCH   2  21
TORSDOF 8
ENDMDL
MODEL      253
REMARK 921   NORMALIZED FREE ENERGY PREDICTED BY IDOCK:   -3.46 KCAL/MOL
REMARK 922        TOTAL FREE ENERGY PREDICTED BY IDOCK:   -5.68 KCAL/MOL
REMARK 923 INTER-LIGAND FREE ENERGY PREDICTED BY IDOCK:   -6.56 KCAL/MOL
REMARK 924 INTRA-LIGAND FREE ENERGY PREDICTED BY IDOCK:    0.88 KCAL/MOL
REMARK 927      BINDING AFFINITY PREDICTED BY RF-SCORE:    0.00 PKD
ROOT
HETATM    1  C   UNL     1     -12.414  15.195  64.670  1.00  0.00    -0.060 C  
HETATM    2  C   UNL     1     -11.569  14.107  65.355  1.00  0.00    -0.334 C  
HETATM    3  C   UNL     1     -10.097  14.328  64.971  1.00  0.00    -0.324 C  
ENDROOT
BRANCH   2   4
HETATM    4  S   UNL     1     -12.094  12.458  64.712  1.00  0.00    -0.395 SA 
BRANCH   4   5
HETATM    5  C   UNL     1     -10.812  11.330  65.250  1.00  0.00    -0.194 A  
HETATM    6  C   UNL     1      -8.626   9.803  66.094  1.00  0.00    -0.127 A  
HETATM    7  O   UNL     1      -7.546   9.123  66.583  1.00  0.00    -0.089 OA 
HETATM    8  H   UNL     1      -7.484   8.887  67.501  1.00  0.00     0.000 HD 
HETATM    9  C   UNL     1      -9.827  10.952  64.344  1.00  0.00    -0.365 A  
HETATM   10  C   UNL     1      -9.601  10.166  67.048  1.00  0.00    -0.209 A  
HETATM   11  C   UNL     1     -10.684  10.906  66.568  1.00  0.00    -0.270 A  
HETATM   12  C   UNL     1      -8.719  10.156  64.718  1.00  0.00    -0.202 A  
BRANCH  12  13
HETATM   13  C   UNL     1      -7.679   9.763  63.638  1.00  0.00    -0.137 C  
HETATM   14  C   UNL     1      -8.371   9.277  62.343  1.00  0.00    -0.181 C  
HETATM   15  C   UNL     1      -6.721   8.679  64.175  1.00  0.00    -0.075 C  
HETATM   16  C   UNL     1      -6.777  10.947  63.185  1.00  0.00     0.327 C  
ENDBRANCH  12  13
BRANCH  10  17
HETATM   17  C   UNL     1      -9.543   9.788  68.551  1.00  0.00    -0.155 C  
HETATM   18  C   UNL     1      -8.097   9.480  68.996  1.00  0.00    -0.101 C  
HETATM   19  C   UNL     1     -10.038  10.909  69.514  1.00  0.00    -0.056 C  
HETATM   20  C   UNL     1     -10.457   8.576  68.821  1.00  0.00    -0.208 C  
ENDBRANCH  10  17
ENDBRANCH   4   5
ENDBRANCH   2   4
BRANCH   2  21
HETATM   21  S   UNL     1     -11.722  14.334  67.180  1.00  0.00    -0.418 SA 
BRANCH  21  22
HETATM   22  C   UNL     1     -10.398  15.460  67.616  1.00  0.00    -0.262 A  
HETATM   23  C   UNL     1     -10.415  16.828  67.335  1.00  0.00    -0.310 A  
HETATM   24  C   UNL     1      -9.232  14.905  68.121  1.00  0.00    -0.186 A  
HETATM   25  H   UNL     1      -7.095  18.777  67.956  1.00  0.00     0.000 HD 
HETATM   26  O   UNL     1      -7.045  17.852  68.166  1.00  0.00    -0.211 OA 
HETATM   27  C   UNL     1      -8.069  15.663  68.353  1.00  0.00    -0.137 A  
HETATM   28  C   UNL     1      -9.312  17.667  67.541  1.00  0.00    -0.248 A  
HETATM   29  C   UNL     1      -8.144  17.051  68.038  1.00  0.00    -0.204 A  
BRANCH  27  30
HETATM   30  C   UNL     1      -6.795  14.938  68.855  1.00  0.00    -0.104 C  
HETATM   31  C   UNL     1      -5.955  15.791  69.852  1.00  0.00    -0.166 C  
HETATM   32  C   UNL     1      -7.175  13.651  69.613  1.00  0.00     0.334 C  
HETATM   33  C   UNL     1      -5.828  14.618  67.695  1.00  0.00    -0.024 C  
ENDBRANCH  27  30
BRANCH  28  34
HETATM   34  C   UNL     1      -9.430  19.191  67.247  1.00  0.00    -0.367 C  
HETATM   35  C   UNL     1      -9.364  20.092  68.516  1.00  0.00    -0.211 C  
HETATM   36  C   UNL     1     -10.771  19.542  66.565  1.00  0.00    -0.535 C  
HETATM   37  C   UNL     1      -8.254  19.641  66.355  1.00  0.00    -0.356 C  
ENDBRANCH  28  34
ENDBRANCH  21  22
ENDBRANCH   2  21
TORSDOF 8
ENDMDL
MODEL      254
REMARK 921   NORMALIZED FREE ENERGY PREDICTED BY IDOCK:   -3.46 KCAL/MOL
REMARK 922        TOTAL FREE ENERGY PREDICTED BY IDOCK:   -5.68 KCAL/MOL
REMARK 923 INTER-LIGAND FREE ENERGY PREDICTED BY IDOCK:   -5.81 KCAL/MOL
REMARK 924 INTRA-LIGAND FREE ENERGY PREDICTED BY IDOCK:    0.13 KCAL/MOL
REMARK 927      BINDING AFFINITY PREDICTED BY RF-SCORE:    0.00 PKD
ROOT
HETATM    1  C   UNL     1     -10.684   9.662  70.960  1.00  0.00    -0.393 C  
HETATM    2  C   UNL     1     -10.545  10.397  69.615  1.00  0.00    -0.253 C  
HETATM    3  C   UNL     1     -11.163   9.516  68.518  1.00  0.00     0.060 C  
ENDROOT
BRANCH   2   4
HETATM    4  S   UNL     1      -8.749  10.613  69.243  1.00  0.00    -0.013 SA 
BRANCH   4   5
HETATM    5  C   UNL     1      -8.156   8.961  68.888  1.00  0.00    -0.112 A  
HETATM    6  C   UNL     1      -6.961   6.503  68.295  1.00  0.00    -0.080 A  
HETATM    7  O   UNL     1      -6.308   5.323  68.079  1.00  0.00    -0.036 OA 
HETATM    8  H   UNL     1      -6.089   4.739  68.796  1.00  0.00     0.000 HD 
HETATM    9  C   UNL     1      -7.867   8.620  67.572  1.00  0.00    -0.102 A  
HETATM   10  C   UNL     1      -7.235   6.810  69.645  1.00  0.00    -0.081 A  
HETATM   11  C   UNL     1      -7.855   8.038  69.883  1.00  0.00    -0.102 A  
HETATM   12  C   UNL     1      -7.289   7.378  67.220  1.00  0.00    -0.098 A  
BRANCH  12  13
HETATM   13  C   UNL     1      -7.020   7.071  65.726  1.00  0.00    -0.060 C  
HETATM   14  C   UNL     1      -7.594   5.693  65.323  1.00  0.00    -0.084 C  
HETATM   15  C   UNL     1      -5.509   7.134  65.420  1.00  0.00    -0.028 C  
HETATM   16  C   UNL     1      -7.697   8.080  64.753  1.00  0.00    -0.120 C  
ENDBRANCH  12  13
BRANCH  10  17
HETATM   17  C   UNL     1      -6.906   5.878  70.842  1.00  0.00    -0.062 C  
HETATM   18  C   UNL     1      -5.443   5.391  70.788  1.00  0.00    -0.008 C  
HETATM   19  C   UNL     1      -7.063   6.550  72.239  1.00  0.00    -0.077 C  
HETATM   20  C   UNL     1      -7.872   4.676  70.849  1.00  0.00    -0.077 C  
ENDBRANCH  10  17
ENDBRANCH   4   5
ENDBRANCH   2   4
BRANCH   2  21
HETATM   21  S   UNL     1     -11.528  11.956  69.716  1.00  0.00    -0.177 SA 
BRANCH  21  22
HETATM   22  C   UNL     1     -10.864  13.003  68.422  1.00  0.00    -0.258 A  
HETATM   23  C   UNL     1      -9.989  14.066  68.653  1.00  0.00    -0.203 A  
HETATM   24  C   UNL     1     -11.374  12.835  67.144  1.00  0.00    -0.365 A  
HETATM   25  H   UNL     1      -9.251  16.408  65.624  1.00  0.00     0.000 HD 
HETATM   26  O   UNL     1      -9.844  15.693  65.424  1.00  0.00    -0.310 OA 
HETATM   27  C   UNL     1     -11.051  13.695  66.078  1.00  0.00    -0.297 A  
HETATM   28  C   UNL     1      -9.600  14.971  67.656  1.00  0.00    -0.203 A  
HETATM   29  C   UNL     1     -10.161  14.768  66.378  1.00  0.00    -0.280 A  
BRANCH  27  30
HETATM   30  C   UNL     1     -11.726  13.465  64.702  1.00  0.00    -0.406 C  
HETATM   31  C   UNL     1     -10.748  12.916  63.621  1.00  0.00    -0.229 C  
HETATM   32  C   UNL     1     -12.851  12.418  64.827  1.00  0.00    -0.185 C  
HETATM   33  C   UNL     1     -12.274  14.781  64.110  1.00  0.00    -0.321 C  
ENDBRANCH  27  30
BRANCH  28  34
HETATM   34  C   UNL     1      -8.582  16.100  67.987  1.00  0.00    -0.171 C  
HETATM   35  C   UNL     1      -7.984  16.018  69.424  1.00  0.00    -0.152 C  
HETATM   36  C   UNL     1      -9.227  17.501  67.890  1.00  0.00    -0.265 C  
HETATM   37  C   UNL     1      -7.375  16.011  67.028  1.00  0.00    -0.258 C  
ENDBRANCH  28  34
ENDBRANCH  21  22
ENDBRANCH   2  21
TORSDOF 8
ENDMDL
MODEL      255
REMARK 921   NORMALIZED FREE ENERGY PREDICTED BY IDOCK:   -3.46 KCAL/MOL
REMARK 922        TOTAL FREE ENERGY PREDICTED BY IDOCK:   -5.68 KCAL/MOL
REMARK 923 INTER-LIGAND FREE ENERGY PREDICTED BY IDOCK:   -5.36 KCAL/MOL
REMARK 924 INTRA-LIGAND FREE ENERGY PREDICTED BY IDOCK:   -0.31 KCAL/MOL
REMARK 927      BINDING AFFINITY PREDICTED BY RF-SCORE:    0.00 PKD
ROOT
HETATM    1  C   UNL     1     -13.407   9.662  72.207  1.00  0.00    -0.498 C  
HETATM    2  C   UNL     1     -12.406   8.858  71.359  1.00  0.00    -0.313 C  
HETATM    3  C   UNL     1     -12.369   9.470  69.949  1.00  0.00     0.551 C  
ENDROOT
BRANCH   2   4
HETATM    4  S   UNL     1     -13.012   7.119  71.220  1.00  0.00    -0.242 SA 
BRANCH   4   5
HETATM    5  C   UNL     1     -11.613   6.199  70.587  1.00  0.00    -0.185 A  
HETATM    6  C   UNL     1      -9.614   4.530  69.565  1.00  0.00    -0.195 A  
HETATM    7  O   UNL     1      -8.700   3.697  68.986  1.00  0.00    -0.080 OA 
HETATM    8  H   UNL     1      -8.445   3.797  68.076  1.00  0.00     0.000 HD 
HETATM    9  C   UNL     1     -11.029   5.227  71.392  1.00  0.00    -0.076 A  
HETATM   10  C   UNL     1     -10.182   5.500  68.712  1.00  0.00    -0.270 A  
HETATM   11  C   UNL     1     -11.156   6.324  69.280  1.00  0.00    -0.461 A  
HETATM   12  C   UNL     1      -9.996   4.380  70.929  1.00  0.00    -0.242 A  
BRANCH  12  13
HETATM   13  C   UNL     1      -9.386   3.339  71.902  1.00  0.00    -0.194 C  
HETATM   14  C   UNL     1     -10.282   3.140  73.145  1.00  0.00    -0.227 C  
HETATM   15  C   UNL     1      -7.963   3.758  72.326  1.00  0.00    -0.069 C  
HETATM   16  C   UNL     1      -9.247   1.918  71.282  1.00  0.00    -0.171 C  
ENDBRANCH  12  13
BRANCH  10  17
HETATM   17  C   UNL     1      -9.783   5.705  67.226  1.00  0.00    -0.147 C  
HETATM   18  C   UNL     1      -8.259   5.900  67.078  1.00  0.00    -0.105 C  
HETATM   19  C   UNL     1     -10.134   4.504  66.297  1.00  0.00    -0.280 C  
HETATM   20  C   UNL     1     -10.539   6.916  66.644  1.00  0.00    -0.197 C  
ENDBRANCH  10  17
ENDBRANCH   4   5
ENDBRANCH   2   4
BRANCH   2  21
HETATM   21  S   UNL     1     -10.733   9.059  72.112  1.00  0.00     0.030 SA 
BRANCH  21  22
HETATM   22  C   UNL     1      -9.604   9.097  70.721  1.00  0.00    -0.275 A  
HETATM   23  C   UNL     1      -8.393   8.404  70.682  1.00  0.00    -0.129 A  
HETATM   24  C   UNL     1      -9.887   9.989  69.698  1.00  0.00    -0.261 A  
HETATM   25  H   UNL     1      -6.009   9.224  67.707  1.00  0.00     0.000 HD 
HETATM   26  O   UNL     1      -6.825   9.710  67.694  1.00  0.00    -0.079 OA 
HETATM   27  C   UNL     1      -9.001  10.225  68.631  1.00  0.00    -0.144 A  
HETATM   28  C   UNL     1      -7.450   8.564  69.658  1.00  0.00    -0.075 A  
HETATM   29  C   UNL     1      -7.776   9.496  68.650  1.00  0.00    -0.081 A  
BRANCH  27  30
HETATM   30  C   UNL     1      -9.377  11.291  67.571  1.00  0.00    -0.166 C  
HETATM   31  C   UNL     1      -9.583  10.697  66.146  1.00  0.00    -0.232 C  
HETATM   32  C   UNL     1     -10.710  11.970  67.945  1.00  0.00    -0.243 C  
HETATM   33  C   UNL     1      -8.261  12.346  67.403  1.00  0.00    -0.180 C  
ENDBRANCH  27  30
BRANCH  28  34
HETATM   34  C   UNL     1      -6.145   7.716  69.665  1.00  0.00    -0.030 C  
HETATM   35  C   UNL     1      -5.396   7.689  68.299  1.00  0.00    -0.027 C  
HETATM   36  C   UNL     1      -6.423   6.237  70.011  1.00  0.00    -0.043 C  
HETATM   37  C   UNL     1      -5.143   8.312  70.677  1.00  0.00    -0.022 C  
ENDBRANCH  28  34
ENDBRANCH  21  22
ENDBRANCH   2  21
TORSDOF 8
ENDMDL
MODEL      256
REMARK 921   NORMALIZED FREE ENERGY PREDICTED BY IDOCK:   -3.43 KCAL/MOL
REMARK 922        TOTAL FREE ENERGY PREDICTED BY IDOCK:   -5.63 KCAL/MOL
REMARK 923 INTER-LIGAND FREE ENERGY PREDICTED BY IDOCK:   -7.14 KCAL/MOL
REMARK 924 INTRA-LIGAND FREE ENERGY PREDICTED BY IDOCK:    1.50 KCAL/MOL
REMARK 927      BINDING AFFINITY PREDICTED BY RF-SCORE:    0.00 PKD
ROOT
HETATM    1  C   UNL     1      -7.880   9.059  70.835  1.00  0.00    -0.172 C  
HETATM    2  C   UNL     1      -8.145   9.264  69.333  1.00  0.00    -0.108 C  
HETATM    3  C   UNL     1      -7.214   8.326  68.547  1.00  0.00    -0.088 C  
ENDROOT
BRANCH   2   4
HETATM    4  S   UNL     1      -7.721  11.005  68.890  1.00  0.00    -0.132 SA 
BRANCH   4   5
HETATM    5  C   UNL     1      -8.342  11.216  67.224  1.00  0.00    -0.135 A  
HETATM    6  C   UNL     1      -9.458  11.288  64.660  1.00  0.00    -0.188 A  
HETATM    7  O   UNL     1     -10.095  11.312  63.452  1.00  0.00    -0.330 OA 
HETATM    8  H   UNL     1     -10.846  11.874  63.298  1.00  0.00     0.000 HD 
HETATM    9  C   UNL     1      -7.821  10.423  66.207  1.00  0.00    -0.132 A  
HETATM   10  C   UNL     1     -10.020  12.108  65.662  1.00  0.00    -0.271 A  
HETATM   11  C   UNL     1      -9.408  12.053  66.916  1.00  0.00    -0.200 A  
HETATM   12  C   UNL     1      -8.332  10.446  64.890  1.00  0.00    -0.165 A  
BRANCH  12  13
HETATM   13  C   UNL     1      -7.677   9.545  63.813  1.00  0.00    -0.126 C  
HETATM   14  C   UNL     1      -8.702   9.119  62.738  1.00  0.00    -0.190 C  
HETATM   15  C   UNL     1      -7.031   8.303  64.462  1.00  0.00    -0.073 C  
HETATM   16  C   UNL     1      -6.541  10.253  63.019  1.00  0.00    -0.127 C  
ENDBRANCH  12  13
BRANCH  10  17
HETATM   17  C   UNL     1     -11.235  13.050  65.448  1.00  0.00    -0.317 C  
HETATM   18  C   UNL     1     -12.296  12.396  64.537  1.00  0.00    -0.519 C  
HETATM   19  C   UNL     1     -11.994  13.425  66.756  1.00  0.00    -0.447 C  
HETATM   20  C   UNL     1     -10.761  14.387  64.845  1.00  0.00    -0.444 C  
ENDBRANCH  10  17
ENDBRANCH   4   5
ENDBRANCH   2   4
BRANCH   2  21
HETATM   21  S   UNL     1      -9.886   8.758  68.989  1.00  0.00    -0.186 SA 
BRANCH  21  22
HETATM   22  C   UNL     1      -9.943   7.011  69.382  1.00  0.00    -0.162 A  
HETATM   23  C   UNL     1     -10.126   6.508  70.672  1.00  0.00    -0.212 A  
HETATM   24  C   UNL     1      -9.633   6.120  68.366  1.00  0.00    -0.123 A  
HETATM   25  H   UNL     1      -9.619   2.669  71.136  1.00  0.00     0.000 HD 
HETATM   26  O   UNL     1      -9.493   2.971  70.244  1.00  0.00    -0.156 OA 
HETATM   27  C   UNL     1      -9.491   4.738  68.584  1.00  0.00    -0.208 A  
HETATM   28  C   UNL     1     -10.014   5.148  70.989  1.00  0.00    -0.274 A  
HETATM   29  C   UNL     1      -9.679   4.285  69.923  1.00  0.00    -0.221 A  
BRANCH  27  30
HETATM   30  C   UNL     1      -9.076   3.833  67.396  1.00  0.00    -0.186 C  
HETATM   31  C   UNL     1      -9.719   4.261  66.044  1.00  0.00    -0.216 C  
HETATM   32  C   UNL     1      -7.551   3.898  67.181  1.00  0.00    -0.080 C  
HETATM   33  C   UNL     1      -9.531   2.373  67.607  1.00  0.00    -0.115 C  
ENDBRANCH  27  30
BRANCH  28  34
HETATM   34  C   UNL     1     -10.280   4.665  72.443  1.00  0.00    -0.249 C  
HETATM   35  C   UNL     1     -10.423   3.119  72.586  1.00  0.00    -0.175 C  
HETATM   36  C   UNL     1     -11.591   5.252  73.013  1.00  0.00    -0.290 C  
HETATM   37  C   UNL     1      -9.093   5.058  73.348  1.00  0.00    -0.121 C  
ENDBRANCH  28  34
ENDBRANCH  21  22
ENDBRANCH   2  21
TORSDOF 8
ENDMDL
MODEL      257
REMARK 921   NORMALIZED FREE ENERGY PREDICTED BY IDOCK:   -3.41 KCAL/MOL
REMARK 922        TOTAL FREE ENERGY PREDICTED BY IDOCK:   -5.60 KCAL/MOL
REMARK 923 INTER-LIGAND FREE ENERGY PREDICTED BY IDOCK:   -7.62 KCAL/MOL
REMARK 924 INTRA-LIGAND FREE ENERGY PREDICTED BY IDOCK:    2.03 KCAL/MOL
REMARK 927      BINDING AFFINITY PREDICTED BY RF-SCORE:    0.00 PKD
ROOT
HETATM    1  C   UNL     1     -11.829  12.111  69.092  1.00  0.00    -0.361 C  
HETATM    2  C   UNL     1     -11.030  10.800  69.186  1.00  0.00    -0.244 C  
HETATM    3  C   UNL     1     -11.484   9.876  68.044  1.00  0.00     0.213 C  
ENDROOT
BRANCH   2   4
HETATM    4  S   UNL     1     -11.429   9.978  70.790  1.00  0.00    -0.375 SA 
BRANCH   4   5
HETATM    5  C   UNL     1     -10.614   8.387  70.702  1.00  0.00    -0.208 A  
HETATM    6  C   UNL     1      -9.611   5.778  70.589  1.00  0.00    -0.174 A  
HETATM    7  O   UNL     1      -9.187   4.487  70.457  1.00  0.00    -0.107 OA 
HETATM    8  H   UNL     1      -8.948   4.127  69.610  1.00  0.00     0.000 HD 
HETATM    9  C   UNL     1     -10.495   7.628  71.862  1.00  0.00    -0.256 A  
HETATM   10  C   UNL     1      -9.716   6.511  69.387  1.00  0.00    -0.155 A  
HETATM   11  C   UNL     1     -10.198   7.817  69.505  1.00  0.00    -0.207 A  
HETATM   12  C   UNL     1      -9.968   6.316  71.858  1.00  0.00    -0.193 A  
BRANCH  12  13
HETATM   13  C   UNL     1      -9.852   5.550  73.200  1.00  0.00    -0.177 C  
HETATM   14  C   UNL     1     -10.880   4.399  73.280  1.00  0.00    -0.336 C  
HETATM   15  C   UNL     1     -10.028   6.512  74.394  1.00  0.00    -0.374 C  
HETATM   16  C   UNL     1      -8.471   4.862  73.404  1.00  0.00    -0.106 C  
ENDBRANCH  12  13
BRANCH  10  17
HETATM   17  C   UNL     1      -9.324   5.967  67.988  1.00  0.00    -0.111 C  
HETATM   18  C   UNL     1     -10.459   5.117  67.380  1.00  0.00    -0.172 C  
HETATM   19  C   UNL     1      -9.028   7.072  66.931  1.00  0.00    -0.135 C  
HETATM   20  C   UNL     1      -8.029   5.136  68.095  1.00  0.00    -0.087 C  
ENDBRANCH  10  17
ENDBRANCH   4   5
ENDBRANCH   2   4
BRANCH   2  21
HETATM   21  S   UNL     1      -9.248  11.201  68.920  1.00  0.00    -0.033 SA 
BRANCH  21  22
HETATM   22  C   UNL     1      -9.254  12.619  67.824  1.00  0.00    -0.195 A  
HETATM   23  C   UNL     1      -8.609  13.824  68.107  1.00  0.00    -0.175 A  
HETATM   24  C   UNL     1     -10.075  12.556  66.709  1.00  0.00    -0.233 A  
HETATM   25  H   UNL     1      -9.358  16.807  65.710  1.00  0.00     0.000 HD 
HETATM   26  O   UNL     1      -9.809  16.004  65.480  1.00  0.00    -0.411 OA 
HETATM   27  C   UNL     1     -10.288  13.658  65.860  1.00  0.00    -0.304 A  
HETATM   28  C   UNL     1      -8.750  14.973  67.318  1.00  0.00    -0.221 A  
HETATM   29  C   UNL     1      -9.611  14.864  66.206  1.00  0.00    -0.307 A  
BRANCH  27  30
HETATM   30  C   UNL     1     -11.277  13.509  64.677  1.00  0.00    -0.377 C  
HETATM   31  C   UNL     1     -10.686  12.709  63.478  1.00  0.00    -0.337 C  
HETATM   32  C   UNL     1     -12.534  12.735  65.125  1.00  0.00    -0.565 C  
HETATM   33  C   UNL     1     -11.668  14.880  64.085  1.00  0.00    -0.144 C  
ENDBRANCH  27  30
BRANCH  28  34
HETATM   34  C   UNL     1      -7.957  16.263  67.677  1.00  0.00    -0.160 C  
HETATM   35  C   UNL     1      -8.774  17.580  67.511  1.00  0.00    -0.225 C  
HETATM   36  C   UNL     1      -6.709  16.439  66.784  1.00  0.00    -0.144 C  
HETATM   37  C   UNL     1      -7.537  16.220  69.162  1.00  0.00    -0.227 C  
ENDBRANCH  28  34
ENDBRANCH  21  22
ENDBRANCH   2  21
TORSDOF 8
ENDMDL
MODEL      258
REMARK 921   NORMALIZED FREE ENERGY PREDICTED BY IDOCK:   -3.37 KCAL/MOL
REMARK 922        TOTAL FREE ENERGY PREDICTED BY IDOCK:   -5.55 KCAL/MOL
REMARK 923 INTER-LIGAND FREE ENERGY PREDICTED BY IDOCK:   -7.16 KCAL/MOL
REMARK 924 INTRA-LIGAND FREE ENERGY PREDICTED BY IDOCK:    1.61 KCAL/MOL
REMARK 927      BINDING AFFINITY PREDICTED BY RF-SCORE:    0.00 PKD
ROOT
HETATM    1  C   UNL     1      -5.241  12.576  67.659  1.00  0.00    -0.107 C  
HETATM    2  C   UNL     1      -6.404  12.782  68.645  1.00  0.00    -0.075 C  
HETATM    3  C   UNL     1      -6.284  11.730  69.759  1.00  0.00    -0.138 C  
ENDROOT
BRANCH   2   4
HETATM    4  S   UNL     1      -7.994  12.500  67.750  1.00  0.00    -0.178 SA 
BRANCH   4   5
HETATM    5  C   UNL     1      -8.398  10.785  68.068  1.00  0.00    -0.120 A  
HETATM    6  C   UNL     1      -8.761   8.083  68.694  1.00  0.00    -0.131 A  
HETATM    7  O   UNL     1      -8.916   6.788  69.097  1.00  0.00    -0.133 OA 
HETATM    8  H   UNL     1      -9.452   6.563  69.850  1.00  0.00     0.000 HD 
HETATM    9  C   UNL     1      -7.783   9.798  67.306  1.00  0.00    -0.095 A  
HETATM   10  C   UNL     1      -9.403   9.052  69.496  1.00  0.00    -0.160 A  
HETATM   11  C   UNL     1      -9.209  10.384  69.123  1.00  0.00    -0.202 A  
HETATM   12  C   UNL     1      -7.959   8.420  67.566  1.00  0.00    -0.106 A  
BRANCH  12  13
HETATM   13  C   UNL     1      -7.253   7.386  66.653  1.00  0.00    -0.080 C  
HETATM   14  C   UNL     1      -5.775   7.770  66.410  1.00  0.00    -0.036 C  
HETATM   15  C   UNL     1      -7.999   7.245  65.310  1.00  0.00    -0.127 C  
HETATM   16  C   UNL     1      -7.195   5.956  67.263  1.00  0.00    -0.076 C  
ENDBRANCH  12  13
BRANCH  10  17
HETATM   17  C   UNL     1     -10.296   8.726  70.722  1.00  0.00    -0.264 C  
HETATM   18  C   UNL     1     -11.226   9.908  71.067  1.00  0.00    -0.435 C  
HETATM   19  C   UNL     1     -11.244   7.506  70.517  1.00  0.00    -0.287 C  
HETATM   20  C   UNL     1      -9.412   8.366  71.933  1.00  0.00    -0.323 C  
ENDBRANCH  10  17
ENDBRANCH   4   5
ENDBRANCH   2   4
BRANCH   2  21
HETATM   21  S   UNL     1      -6.210  14.449  69.413  1.00  0.00    -0.122 SA 
BRANCH  21  22
HETATM   22  C   UNL     1      -7.752  15.295  69.072  1.00  0.00    -0.183 A  
HETATM   23  C   UNL     1      -8.983  14.648  68.938  1.00  0.00    -0.136 A  
HETATM   24  C   UNL     1      -7.683  16.647  68.773  1.00  0.00    -0.233 A  
HETATM   25  H   UNL     1     -11.959  16.809  67.645  1.00  0.00     0.000 HD 
HETATM   26  O   UNL     1     -11.143  17.287  67.729  1.00  0.00    -0.257 OA 
HETATM   27  C   UNL     1      -8.798  17.387  68.337  1.00  0.00    -0.271 A  
HETATM   28  C   UNL     1     -10.151  15.299  68.520  1.00  0.00    -0.222 A  
HETATM   29  C   UNL     1     -10.024  16.669  68.210  1.00  0.00    -0.261 A  
BRANCH  27  30
HETATM   30  C   UNL     1      -8.605  18.878  67.963  1.00  0.00    -0.330 C  
HETATM   31  C   UNL     1      -7.192  19.425  68.324  1.00  0.00    -0.331 C  
HETATM   32  C   UNL     1      -8.760  19.073  66.442  1.00  0.00    -0.322 C  
HETATM   33  C   UNL     1      -9.589  19.789  68.729  1.00  0.00    -0.391 C  
ENDBRANCH  27  30
BRANCH  28  34
HETATM   34  C   UNL     1     -11.492  14.514  68.444  1.00  0.00    -0.328 C  
HETATM   35  C   UNL     1     -11.434  13.091  69.078  1.00  0.00    -0.353 C  
HETATM   36  C   UNL     1     -11.947  14.294  66.985  1.00  0.00    -0.463 C  
HETATM   37  C   UNL     1     -12.585  15.274  69.226  1.00  0.00     0.115 C  
ENDBRANCH  28  34
ENDBRANCH  21  22
ENDBRANCH   2  21
TORSDOF 8
ENDMDL
MODEL      259
REMARK 921   NORMALIZED FREE ENERGY PREDICTED BY IDOCK:   -3.37 KCAL/MOL
REMARK 922        TOTAL FREE ENERGY PREDICTED BY IDOCK:   -5.54 KCAL/MOL
REMARK 923 INTER-LIGAND FREE ENERGY PREDICTED BY IDOCK:   -5.41 KCAL/MOL
REMARK 924 INTRA-LIGAND FREE ENERGY PREDICTED BY IDOCK:   -0.12 KCAL/MOL
REMARK 927      BINDING AFFINITY PREDICTED BY RF-SCORE:    0.00 PKD
ROOT
HETATM    1  C   UNL     1     -13.103  13.508  72.408  1.00  0.00    -0.494 C  
HETATM    2  C   UNL     1     -12.561  13.698  70.981  1.00  0.00    -0.363 C  
HETATM    3  C   UNL     1     -11.026  13.630  71.035  1.00  0.00     2.163 C  
ENDROOT
BRANCH   2   4
HETATM    4  S   UNL     1     -13.046  15.376  70.383  1.00  0.00    -0.027 SA 
BRANCH   4   5
HETATM    5  C   UNL     1     -11.950  15.704  69.006  1.00  0.00    -0.304 A  
HETATM    6  C   UNL     1     -10.475  16.329  66.713  1.00  0.00    -0.287 A  
HETATM    7  O   UNL     1      -9.790  16.730  65.601  1.00  0.00    -0.544 OA 
HETATM    8  H   UNL     1      -9.249  17.511  65.608  1.00  0.00     0.000 HD 
HETATM    9  C   UNL     1     -12.033  14.899  67.875  1.00  0.00    -0.206 A  
HETATM   10  C   UNL     1     -10.362  17.175  67.837  1.00  0.00    -0.350 A  
HETATM   11  C   UNL     1     -11.099  16.802  68.963  1.00  0.00    -0.171 A  
HETATM   12  C   UNL     1     -11.286  15.158  66.704  1.00  0.00    -0.274 A  
BRANCH  12  13
HETATM   13  C   UNL     1     -11.423  14.196  65.497  1.00  0.00    -0.324 C  
HETATM   14  C   UNL     1     -11.975  12.820  65.936  1.00  0.00    -0.506 C  
HETATM   15  C   UNL     1     -10.069  14.027  64.778  1.00  0.00    -0.224 C  
HETATM   16  C   UNL     1     -12.423  14.696  64.415  1.00  0.00    -0.312 C  
ENDBRANCH  12  13
BRANCH  10  17
HETATM   17  C   UNL     1      -9.478  18.450  67.892  1.00  0.00    -0.299 C  
HETATM   18  C   UNL     1      -7.999  18.094  68.151  1.00  0.00    -0.290 C  
HETATM   19  C   UNL     1      -9.475  19.284  66.576  1.00  0.00    -0.407 C  
HETATM   20  C   UNL     1     -10.002  19.402  68.986  1.00  0.00    -0.477 C  
ENDBRANCH  10  17
ENDBRANCH   4   5
ENDBRANCH   2   4
BRANCH   2  21
HETATM   21  S   UNL     1     -13.158  12.286  69.953  1.00  0.00     1.523 SA 
BRANCH  21  22
HETATM   22  C   UNL     1     -11.715  11.251  69.711  1.00  0.00    -0.349 A  
HETATM   23  C   UNL     1     -11.503  10.042  70.377  1.00  0.00    -0.389 A  
HETATM   24  C   UNL     1     -10.688  11.765  68.935  1.00  0.00    -0.241 A  
HETATM   25  H   UNL     1      -7.982   8.418  69.965  1.00  0.00     0.000 HD 
HETATM   26  O   UNL     1      -8.089   9.234  69.492  1.00  0.00    -0.098 OA 
HETATM   27  C   UNL     1      -9.444  11.121  68.799  1.00  0.00    -0.173 A  
HETATM   28  C   UNL     1     -10.304   9.321  70.296  1.00  0.00    -0.272 A  
HETATM   29  C   UNL     1      -9.284   9.895  69.509  1.00  0.00    -0.223 A  
BRANCH  27  30
HETATM   30  C   UNL     1      -8.335  11.809  67.963  1.00  0.00    -0.154 C  
HETATM   31  C   UNL     1      -6.922  11.701  68.608  1.00  0.00    -0.088 C  
HETATM   32  C   UNL     1      -8.221  11.145  66.576  1.00  0.00    -0.167 C  
HETATM   33  C   UNL     1      -8.589  13.325  67.818  1.00  0.00    -0.184 C  
ENDBRANCH  27  30
BRANCH  28  34
HETATM   34  C   UNL     1     -10.168   7.957  71.031  1.00  0.00    -0.217 C  
HETATM   35  C   UNL     1     -11.412   7.565  71.883  1.00  0.00    -0.307 C  
HETATM   36  C   UNL     1      -8.978   7.950  72.015  1.00  0.00    -0.189 C  
HETATM   37  C   UNL     1     -10.000   6.823  69.996  1.00  0.00    -0.189 C  
ENDBRANCH  28  34
ENDBRANCH  21  22
ENDBRANCH   2  21
TORSDOF 8
ENDMDL
MODEL      260
REMARK 921   NORMALIZED FREE ENERGY PREDICTED BY IDOCK:   -3.36 KCAL/MOL
REMARK 922        TOTAL FREE ENERGY PREDICTED BY IDOCK:   -5.53 KCAL/MOL
REMARK 923 INTER-LIGAND FREE ENERGY PREDICTED BY IDOCK:   -8.05 KCAL/MOL
REMARK 924 INTRA-LIGAND FREE ENERGY PREDICTED BY IDOCK:    2.52 KCAL/MOL
REMARK 927      BINDING AFFINITY PREDICTED BY RF-SCORE:    0.00 PKD
ROOT
HETATM    1  C   UNL     1     -12.721  10.028  70.817  1.00  0.00    -0.355 C  
HETATM    2  C   UNL     1     -11.633   8.940  70.808  1.00  0.00    -0.259 C  
HETATM    3  C   UNL     1     -10.720   9.160  72.025  1.00  0.00    -0.225 C  
ENDROOT
BRANCH   2   4
HETATM    4  S   UNL     1     -10.616   9.134  69.279  1.00  0.00    -0.189 SA 
BRANCH   4   5
HETATM    5  C   UNL     1     -10.986  10.784  68.692  1.00  0.00    -0.239 A  
HETATM    6  C   UNL     1     -11.834  13.260  67.705  1.00  0.00    -0.353 A  
HETATM    7  O   UNL     1     -12.329  14.462  67.286  1.00  0.00    -0.617 OA 
HETATM    8  H   UNL     1     -12.597  15.131  67.905  1.00  0.00     0.000 HD 
HETATM    9  C   UNL     1     -11.039  11.014  67.322  1.00  0.00    -0.359 A  
HETATM   10  C   UNL     1     -11.799  13.070  69.103  1.00  0.00    -0.360 A  
HETATM   11  C   UNL     1     -11.343  11.825  69.542  1.00  0.00    -0.317 A  
HETATM   12  C   UNL     1     -11.433  12.257  66.777  1.00  0.00    -0.421 A  
BRANCH  12  13
HETATM   13  C   UNL     1     -11.442  12.433  65.237  1.00  0.00    -0.389 C  
HETATM   14  C   UNL     1     -10.688  11.280  64.536  1.00  0.00    -0.390 C  
HETATM   15  C   UNL     1     -10.832  13.794  64.841  1.00  0.00    -0.398 C  
HETATM   16  C   UNL     1     -12.870  12.408  64.618  1.00  0.00    -0.252 C  
ENDBRANCH  12  13
BRANCH  10  17
HETATM   17  C   UNL     1     -12.213  14.141  70.147  1.00  0.00    -0.415 C  
HETATM   18  C   UNL     1     -12.743  15.417  69.459  1.00  0.00     0.133 C  
HETATM   19  C   UNL     1     -13.352  13.691  71.109  1.00  0.00    -0.187 C  
HETATM   20  C   UNL     1     -11.012  14.479  71.054  1.00  0.00     0.435 C  
ENDBRANCH  10  17
ENDBRANCH   4   5
ENDBRANCH   2   4
BRANCH   2  21
HETATM   21  S   UNL     1     -12.463   7.304  71.007  1.00  0.00    -0.233 SA 
BRANCH  21  22
HETATM   22  C   UNL     1     -11.136   6.102  70.934  1.00  0.00    -0.307 A  
HETATM   23  C   UNL     1     -10.444   5.777  69.766  1.00  0.00    -0.363 A  
HETATM   24  C   UNL     1     -10.897   5.349  72.073  1.00  0.00    -0.266 A  
HETATM   25  H   UNL     1      -8.033   2.718  69.961  1.00  0.00     0.000 HD 
HETATM   26  O   UNL     1      -8.479   2.912  70.777  1.00  0.00    -0.055 OA 
HETATM   27  C   UNL     1      -9.992   4.272  72.095  1.00  0.00    -0.246 A  
HETATM   28  C   UNL     1      -9.517   4.729  69.689  1.00  0.00    -0.223 A  
HETATM   29  C   UNL     1      -9.323   3.981  70.870  1.00  0.00    -0.151 A  
BRANCH  27  30
HETATM   30  C   UNL     1      -9.844   3.448  73.399  1.00  0.00    -0.165 C  
HETATM   31  C   UNL     1     -10.327   1.975  73.255  1.00  0.00    -0.202 C  
HETATM   32  C   UNL     1      -8.362   3.371  73.817  1.00  0.00    -0.075 C  
HETATM   33  C   UNL     1     -10.698   4.036  74.544  1.00  0.00    -0.124 C  
ENDBRANCH  27  30
BRANCH  28  34
HETATM   34  C   UNL     1      -8.753   4.463  68.360  1.00  0.00    -0.118 C  
HETATM   35  C   UNL     1      -8.255   5.754  67.643  1.00  0.00    -0.101 C  
HETATM   36  C   UNL     1      -9.637   3.734  67.325  1.00  0.00    -0.213 C  
HETATM   37  C   UNL     1      -7.485   3.631  68.646  1.00  0.00    -0.054 C  
ENDBRANCH  28  34
ENDBRANCH  21  22
ENDBRANCH   2  21
TORSDOF 8
ENDMDL
MODEL      261
REMARK 921   NORMALIZED FREE ENERGY PREDICTED BY IDOCK:   -3.31 KCAL/MOL
REMARK 922        TOTAL FREE ENERGY PREDICTED BY IDOCK:   -5.45 KCAL/MOL
REMARK 923 INTER-LIGAND FREE ENERGY PREDICTED BY IDOCK:   -5.53 KCAL/MOL
REMARK 924 INTRA-LIGAND FREE ENERGY PREDICTED BY IDOCK:    0.08 KCAL/MOL
REMARK 927      BINDING AFFINITY PREDICTED BY RF-SCORE:    0.00 PKD
ROOT
HETATM    1  C   UNL     1      -8.917   5.919  70.341  1.00  0.00    -0.154 C  
HETATM    2  C   UNL     1      -9.281   7.364  69.955  1.00  0.00    -0.144 C  
HETATM    3  C   UNL     1      -9.861   8.063  71.195  1.00  0.00    -0.198 C  
ENDROOT
BRANCH   2   4
HETATM    4  S   UNL     1     -10.589   7.316  68.652  1.00  0.00    -0.130 SA 
BRANCH   4   5
HETATM    5  C   UNL     1      -9.690   7.234  67.107  1.00  0.00    -0.168 A  
HETATM    6  C   UNL     1      -8.051   7.216  64.840  1.00  0.00    -0.107 A  
HETATM    7  O   UNL     1      -7.183   7.154  63.787  1.00  0.00    -0.063 OA 
HETATM    8  H   UNL     1      -6.795   6.331  63.513  1.00  0.00     0.000 HD 
HETATM    9  C   UNL     1      -9.431   8.414  66.417  1.00  0.00    -0.293 A  
HETATM   10  C   UNL     1      -8.285   5.997  65.510  1.00  0.00    -0.142 A  
HETATM   11  C   UNL     1      -9.131   6.058  66.620  1.00  0.00    -0.142 A  
HETATM   12  C   UNL     1      -8.633   8.450  65.250  1.00  0.00    -0.177 A  
BRANCH  12  13
HETATM   13  C   UNL     1      -8.414   9.805  64.532  1.00  0.00    -0.182 C  
HETATM   14  C   UNL     1      -6.922  10.209  64.538  1.00  0.00    -0.117 C  
HETATM   15  C   UNL     1      -9.273  10.910  65.180  1.00  0.00    -0.240 C  
HETATM   16  C   UNL     1      -8.811   9.781  63.027  1.00  0.00    -0.255 C  
ENDBRANCH  12  13
BRANCH  10  17
HETATM   17  C   UNL     1      -7.683   4.631  65.086  1.00  0.00    -0.085 C  
HETATM   18  C   UNL     1      -8.162   3.495  66.014  1.00  0.00    -0.097 C  
HETATM   19  C   UNL     1      -8.076   4.177  63.647  1.00  0.00    -0.091 C  
HETATM   20  C   UNL     1      -6.143   4.714  65.088  1.00  0.00    -0.030 C  
ENDBRANCH  10  17
ENDBRANCH   4   5
ENDBRANCH   2   4
BRANCH   2  21
HETATM   21  S   UNL     1      -7.723   8.236  69.485  1.00  0.00    -0.103 SA 
BRANCH  21  22
HETATM   22  C   UNL     1      -8.209   9.943  69.237  1.00  0.00    -0.138 A  
HETATM   23  C   UNL     1      -9.535  10.371  69.152  1.00  0.00    -0.220 A  
HETATM   24  C   UNL     1      -7.203  10.856  68.962  1.00  0.00    -0.101 A  
HETATM   25  H   UNL     1     -10.108  14.067  68.050  1.00  0.00     0.000 HD 
HETATM   26  O   UNL     1      -9.193  13.817  68.102  1.00  0.00    -0.188 OA 
HETATM   27  C   UNL     1      -7.466  12.189  68.595  1.00  0.00    -0.105 A  
HETATM   28  C   UNL     1      -9.899  11.678  68.805  1.00  0.00    -0.129 A  
HETATM   29  C   UNL     1      -8.839  12.564  68.516  1.00  0.00    -0.046 A  
BRANCH  27  30
HETATM   30  C   UNL     1      -6.275  13.115  68.241  1.00  0.00    -0.092 C  
HETATM   31  C   UNL     1      -5.515  13.645  69.493  1.00  0.00    -0.087 C  
HETATM   32  C   UNL     1      -5.232  12.348  67.404  1.00  0.00    -0.092 C  
HETATM   33  C   UNL     1      -6.743  14.383  67.494  1.00  0.00    -0.132 C  
ENDBRANCH  27  30
BRANCH  28  34
HETATM   34  C   UNL     1     -11.400  12.086  68.781  1.00  0.00    -0.331 C  
HETATM   35  C   UNL     1     -11.722  13.383  69.583  1.00  0.00    -0.375 C  
HETATM   36  C   UNL     1     -12.303  10.991  69.391  1.00  0.00    -0.222 C  
HETATM   37  C   UNL     1     -11.837  12.376  67.329  1.00  0.00    -0.357 C  
ENDBRANCH  28  34
ENDBRANCH  21  22
ENDBRANCH   2  21
TORSDOF 8
ENDMDL
MODEL      262
REMARK 921   NORMALIZED FREE ENERGY PREDICTED BY IDOCK:   -3.31 KCAL/MOL
REMARK 922        TOTAL FREE ENERGY PREDICTED BY IDOCK:   -5.45 KCAL/MOL
REMARK 923 INTER-LIGAND FREE ENERGY PREDICTED BY IDOCK:   -6.29 KCAL/MOL
REMARK 924 INTRA-LIGAND FREE ENERGY PREDICTED BY IDOCK:    0.84 KCAL/MOL
REMARK 927      BINDING AFFINITY PREDICTED BY RF-SCORE:    0.00 PKD
ROOT
HETATM    1  C   UNL     1     -11.840  16.651  67.960  1.00  0.00     0.639 C  
HETATM    2  C   UNL     1     -10.402  17.120  67.672  1.00  0.00    -0.344 C  
HETATM    3  C   UNL     1     -10.350  18.647  67.845  1.00  0.00    -0.442 C  
ENDROOT
BRANCH   2   4
HETATM    4  S   UNL     1      -9.990  16.721  65.918  1.00  0.00    -0.230 SA 
BRANCH   4   5
HETATM    5  C   UNL     1      -9.409  15.029  65.959  1.00  0.00    -0.269 A  
HETATM    6  C   UNL     1      -8.640  12.359  66.286  1.00  0.00     0.179 A  
HETATM    7  O   UNL     1      -8.363  11.033  66.459  1.00  0.00    -0.152 OA 
HETATM    8  H   UNL     1      -8.839  10.362  65.984  1.00  0.00     0.000 HD 
HETATM    9  C   UNL     1      -8.369  14.697  66.822  1.00  0.00    -0.078 A  
HETATM   10  C   UNL     1      -9.701  12.651  65.402  1.00  0.00    -0.076 A  
HETATM   11  C   UNL     1     -10.026  14.001  65.256  1.00  0.00    -0.283 A  
HETATM   12  C   UNL     1      -7.927  13.366  66.998  1.00  0.00     0.023 A  
BRANCH  12  13
HETATM   13  C   UNL     1      -6.747  13.088  67.964  1.00  0.00    -0.114 C  
HETATM   14  C   UNL     1      -5.502  12.585  67.199  1.00  0.00     0.014 C  
HETATM   15  C   UNL     1      -7.159  12.071  69.049  1.00  0.00    -0.077 C  
HETATM   16  C   UNL     1      -6.258  14.354  68.726  1.00  0.00    -0.085 C  
ENDBRANCH  12  13
BRANCH  10  17
HETATM   17  C   UNL     1     -10.491  11.585  64.597  1.00  0.00    -0.356 C  
HETATM   18  C   UNL     1     -10.636  10.273  65.396  1.00  0.00    -0.002 C  
HETATM   19  C   UNL     1     -11.947  12.006  64.234  1.00  0.00    -0.424 C  
HETATM   20  C   UNL     1      -9.789  11.320  63.250  1.00  0.00    -0.418 C  
ENDBRANCH  10  17
ENDBRANCH   4   5
ENDBRANCH   2   4
BRANCH   2  21
HETATM   21  S   UNL     1      -9.294  16.365  68.940  1.00  0.00    -0.244 SA 
BRANCH  21  22
HETATM   22  C   UNL     1     -10.320  15.169  69.794  1.00  0.00    -0.210 A  
HETATM   23  C   UNL     1     -10.558  13.874  69.328  1.00  0.00    -0.062 A  
HETATM   24  C   UNL     1     -11.035  15.615  70.894  1.00  0.00    -0.311 A  
HETATM   25  H   UNL     1     -13.291  11.821  71.205  1.00  0.00     0.000 HD 
HETATM   26  O   UNL     1     -13.153  12.693  71.556  1.00  0.00    -0.373 OA 
HETATM   27  C   UNL     1     -11.991  14.820  71.553  1.00  0.00    -0.415 A  
HETATM   28  C   UNL     1     -11.483  13.004  69.920  1.00  0.00    -0.151 A  
HETATM   29  C   UNL     1     -12.198  13.511  71.025  1.00  0.00    -0.262 A  
BRANCH  27  30
HETATM   30  C   UNL     1     -12.787  15.433  72.733  1.00  0.00    -0.528 C  
HETATM   31  C   UNL     1     -12.317  16.869  73.112  1.00  0.00     0.216 C  
HETATM   32  C   UNL     1     -14.279  15.557  72.364  1.00  0.00    -0.571 C  
HETATM   33  C   UNL     1     -12.615  14.606  74.025  1.00  0.00     0.010 C  
ENDBRANCH  27  30
BRANCH  28  34
HETATM   34  C   UNL     1     -11.653  11.559  69.368  1.00  0.00    -0.388 C  
HETATM   35  C   UNL     1     -10.336  10.725  69.349  1.00  0.00    -0.207 C  
HETATM   36  C   UNL     1     -12.160  11.558  67.909  1.00  0.00     0.054 C  
HETATM   37  C   UNL     1     -12.632  10.771  70.264  1.00  0.00    -0.350 C  
ENDBRANCH  28  34
ENDBRANCH  21  22
ENDBRANCH   2  21
TORSDOF 8
ENDMDL
MODEL      263
REMARK 921   NORMALIZED FREE ENERGY PREDICTED BY IDOCK:   -3.29 KCAL/MOL
REMARK 922        TOTAL FREE ENERGY PREDICTED BY IDOCK:   -5.43 KCAL/MOL
REMARK 923 INTER-LIGAND FREE ENERGY PREDICTED BY IDOCK:   -6.04 KCAL/MOL
REMARK 924 INTRA-LIGAND FREE ENERGY PREDICTED BY IDOCK:    0.61 KCAL/MOL
REMARK 927      BINDING AFFINITY PREDICTED BY RF-SCORE:    0.00 PKD
ROOT
HETATM    1  C   UNL     1      -8.747   9.639  70.340  1.00  0.00    -0.213 C  
HETATM    2  C   UNL     1      -8.379   8.902  69.041  1.00  0.00    -0.124 C  
HETATM    3  C   UNL     1      -7.803   7.526  69.414  1.00  0.00    -0.121 C  
ENDROOT
BRANCH   2   4
HETATM    4  S   UNL     1      -7.065   9.862  68.169  1.00  0.00    -0.078 SA 
BRANCH   4   5
HETATM    5  C   UNL     1      -7.822  11.443  67.805  1.00  0.00    -0.117 A  
HETATM    6  C   UNL     1      -8.795  13.948  67.027  1.00  0.00    -0.218 A  
HETATM    7  O   UNL     1      -9.274  15.135  66.552  1.00  0.00    -0.249 OA 
HETATM    8  H   UNL     1     -10.039  15.171  65.989  1.00  0.00     0.000 HD 
HETATM    9  C   UNL     1      -7.178  12.606  68.216  1.00  0.00    -0.113 A  
HETATM   10  C   UNL     1      -9.478  12.794  66.586  1.00  0.00    -0.249 A  
HETATM   11  C   UNL     1      -8.965  11.571  67.025  1.00  0.00    -0.174 A  
HETATM   12  C   UNL     1      -7.649  13.894  67.872  1.00  0.00    -0.158 A  
BRANCH  12  13
HETATM   13  C   UNL     1      -6.883  15.137  68.390  1.00  0.00    -0.109 C  
HETATM   14  C   UNL     1      -5.580  14.730  69.116  1.00  0.00    -0.095 C  
HETATM   15  C   UNL     1      -7.778  15.979  69.323  1.00  0.00    -0.223 C  
HETATM   16  C   UNL     1      -6.421  16.099  67.257  1.00  0.00    -0.216 C  
ENDBRANCH  12  13
BRANCH  10  17
HETATM   17  C   UNL     1     -10.737  12.811  65.679  1.00  0.00    -0.297 C  
HETATM   18  C   UNL     1     -10.649  13.930  64.620  1.00  0.00    -0.432 C  
HETATM   19  C   UNL     1     -10.961  11.498  64.870  1.00  0.00    -0.319 C  
HETATM   20  C   UNL     1     -12.002  12.987  66.544  1.00  0.00    -0.457 C  
ENDBRANCH  10  17
ENDBRANCH   4   5
ENDBRANCH   2   4
BRANCH   2  21
HETATM   21  S   UNL     1      -9.932   8.629  68.082  1.00  0.00    -0.185 SA 
BRANCH  21  22
HETATM   22  C   UNL     1      -9.416   7.744  66.612  1.00  0.00    -0.205 A  
HETATM   23  C   UNL     1      -9.537   6.361  66.453  1.00  0.00    -0.156 A  
HETATM   24  C   UNL     1      -8.719   8.460  65.651  1.00  0.00    -0.204 A  
HETATM   25  H   UNL     1      -7.775   4.804  63.342  1.00  0.00     0.000 HD 
HETATM   26  O   UNL     1      -7.676   5.746  63.411  1.00  0.00    -0.075 OA 
HETATM   27  C   UNL     1      -8.127   7.849  64.530  1.00  0.00    -0.114 A  
HETATM   28  C   UNL     1      -8.990   5.663  65.368  1.00  0.00    -0.079 A  
HETATM   29  C   UNL     1      -8.275   6.434  64.428  1.00  0.00    -0.019 A  
BRANCH  27  30
HETATM   30  C   UNL     1      -7.311   8.725  63.547  1.00  0.00    -0.100 C  
HETATM   31  C   UNL     1      -6.714   7.920  62.355  1.00  0.00    -0.085 C  
HETATM   32  C   UNL     1      -8.214   9.806  62.919  1.00  0.00    -0.153 C  
HETATM   33  C   UNL     1      -6.092   9.373  64.238  1.00  0.00    -0.079 C  
ENDBRANCH  27  30
BRANCH  28  34
HETATM   34  C   UNL     1      -9.212   4.129  65.242  1.00  0.00    -0.152 C  
HETATM   35  C   UNL     1      -7.942   3.335  64.811  1.00  0.00    -0.086 C  
HETATM   36  C   UNL     1     -10.286   3.788  64.186  1.00  0.00    -0.260 C  
HETATM   37  C   UNL     1      -9.621   3.547  66.612  1.00  0.00    -0.132 C  
ENDBRANCH  28  34
ENDBRANCH  21  22
ENDBRANCH   2  21
TORSDOF 8
ENDMDL
MODEL      264
REMARK 921   NORMALIZED FREE ENERGY PREDICTED BY IDOCK:   -3.29 KCAL/MOL
REMARK 922        TOTAL FREE ENERGY PREDICTED BY IDOCK:   -5.42 KCAL/MOL
REMARK 923 INTER-LIGAND FREE ENERGY PREDICTED BY IDOCK:   -5.45 KCAL/MOL
REMARK 924 INTRA-LIGAND FREE ENERGY PREDICTED BY IDOCK:    0.03 KCAL/MOL
REMARK 927      BINDING AFFINITY PREDICTED BY RF-SCORE:    0.00 PKD
ROOT
HETATM    1  C   UNL     1     -10.742   9.641  70.957  1.00  0.00    -0.393 C  
HETATM    2  C   UNL     1     -10.772  10.299  69.566  1.00  0.00    -0.249 C  
HETATM    3  C   UNL     1     -11.467   9.334  68.592  1.00  0.00     0.530 C  
ENDROOT
BRANCH   2   4
HETATM    4  S   UNL     1      -9.034  10.549  68.994  1.00  0.00    -0.159 SA 
BRANCH   4   5
HETATM    5  C   UNL     1      -8.435   8.903  68.625  1.00  0.00    -0.128 A  
HETATM    6  C   UNL     1      -7.244   6.460  67.962  1.00  0.00    -0.087 A  
HETATM    7  O   UNL     1      -6.584   5.294  67.698  1.00  0.00    -0.050 OA 
HETATM    8  H   UNL     1      -6.230   4.756  68.397  1.00  0.00     0.000 HD 
HETATM    9  C   UNL     1      -8.342   8.504  67.296  1.00  0.00    -0.115 A  
HETATM   10  C   UNL     1      -7.314   6.827  69.323  1.00  0.00    -0.093 A  
HETATM   11  C   UNL     1      -7.942   8.043  69.600  1.00  0.00    -0.117 A  
HETATM   12  C   UNL     1      -7.775   7.266  66.915  1.00  0.00    -0.110 A  
BRANCH  12  13
HETATM   13  C   UNL     1      -7.732   6.892  65.411  1.00  0.00    -0.107 C  
HETATM   14  C   UNL     1      -8.320   8.021  64.534  1.00  0.00    -0.048 C  
HETATM   15  C   UNL     1      -8.482   5.568  65.158  1.00  0.00    -0.147 C  
HETATM   16  C   UNL     1      -6.290   6.678  64.867  1.00  0.00    -0.038 C  
ENDBRANCH  12  13
BRANCH  10  17
HETATM   17  C   UNL     1      -6.762   5.970  70.493  1.00  0.00    -0.053 C  
HETATM   18  C   UNL     1      -5.290   5.573  70.251  1.00  0.00    -0.005 C  
HETATM   19  C   UNL     1      -6.769   6.693  71.875  1.00  0.00    -0.059 C  
HETATM   20  C   UNL     1      -7.635   4.713  70.678  1.00  0.00    -0.054 C  
ENDBRANCH  10  17
ENDBRANCH   4   5
ENDBRANCH   2   4
BRANCH   2  21
HETATM   21  S   UNL     1     -11.798  11.828  69.684  1.00  0.00    -0.335 SA 
BRANCH  21  22
HETATM   22  C   UNL     1     -11.285  12.833  68.291  1.00  0.00    -0.271 A  
HETATM   23  C   UNL     1     -11.612  12.549  66.964  1.00  0.00    -0.437 A  
HETATM   24  C   UNL     1     -10.388  13.859  68.544  1.00  0.00    -0.244 A  
HETATM   25  H   UNL     1      -9.820  14.678  64.232  1.00  0.00     0.000 HD 
HETATM   26  O   UNL     1      -9.577  14.907  65.122  1.00  0.00    -0.123 OA 
HETATM   27  C   UNL     1      -9.792  14.616  67.519  1.00  0.00    -0.218 A  
HETATM   28  C   UNL     1     -11.079  13.251  65.875  1.00  0.00    -0.301 A  
HETATM   29  C   UNL     1     -10.156  14.273  66.184  1.00  0.00    -0.313 A  
BRANCH  27  30
HETATM   30  C   UNL     1      -8.748  15.697  67.899  1.00  0.00    -0.166 C  
HETATM   31  C   UNL     1      -9.247  17.150  67.644  1.00  0.00    -0.238 C  
HETATM   32  C   UNL     1      -8.422  15.619  69.404  1.00  0.00    -0.244 C  
HETATM   33  C   UNL     1      -7.460  15.566  67.059  1.00  0.00    -0.205 C  
ENDBRANCH  27  30
BRANCH  28  34
HETATM   34  C   UNL     1     -11.533  12.902  64.429  1.00  0.00    -0.405 C  
HETATM   35  C   UNL     1     -12.469  11.660  64.337  1.00  0.00     0.120 C  
HETATM   36  C   UNL     1     -10.333  12.579  63.511  1.00  0.00    -0.311 C  
HETATM   37  C   UNL     1     -12.343  14.077  63.839  1.00  0.00    -0.280 C  
ENDBRANCH  28  34
ENDBRANCH  21  22
ENDBRANCH   2  21
TORSDOF 8
ENDMDL
MODEL      265
REMARK 921   NORMALIZED FREE ENERGY PREDICTED BY IDOCK:   -3.28 KCAL/MOL
REMARK 922        TOTAL FREE ENERGY PREDICTED BY IDOCK:   -5.42 KCAL/MOL
REMARK 923 INTER-LIGAND FREE ENERGY PREDICTED BY IDOCK:   -6.73 KCAL/MOL
REMARK 924 INTRA-LIGAND FREE ENERGY PREDICTED BY IDOCK:    1.31 KCAL/MOL
REMARK 927      BINDING AFFINITY PREDICTED BY RF-SCORE:    0.00 PKD
ROOT
HETATM    1  C   UNL     1     -11.541  11.633  69.609  1.00  0.00    -0.401 C  
HETATM    2  C   UNL     1     -10.517  10.505  69.391  1.00  0.00    -0.240 C  
HETATM    3  C   UNL     1     -11.011   9.624  68.232  1.00  0.00    -0.172 C  
ENDROOT
BRANCH   2   4
HETATM    4  S   UNL     1     -10.447   9.468  70.917  1.00  0.00    -0.296 SA 
BRANCH   4   5
HETATM    5  C   UNL     1      -9.571   7.987  70.422  1.00  0.00    -0.174 A  
HETATM    6  C   UNL     1      -7.954   5.810  69.738  1.00  0.00    -0.100 A  
HETATM    7  O   UNL     1      -7.127   4.750  69.499  1.00  0.00    -0.052 OA 
HETATM    8  H   UNL     1      -7.092   4.006  70.089  1.00  0.00     0.000 HD 
HETATM    9  C   UNL     1      -8.816   8.012  69.255  1.00  0.00    -0.141 A  
HETATM   10  C   UNL     1      -8.702   5.743  70.933  1.00  0.00    -0.135 A  
HETATM   11  C   UNL     1      -9.512   6.845  71.213  1.00  0.00    -0.165 A  
HETATM   12  C   UNL     1      -8.006   6.925  68.853  1.00  0.00    -0.116 A  
BRANCH  12  13
HETATM   13  C   UNL     1      -7.214   7.029  67.525  1.00  0.00    -0.090 C  
HETATM   14  C   UNL     1      -7.540   8.343  66.779  1.00  0.00    -0.090 C  
HETATM   15  C   UNL     1      -7.503   5.812  66.622  1.00  0.00    -0.084 C  
HETATM   16  C   UNL     1      -5.671   7.059  67.724  1.00  0.00    -0.024 C  
ENDBRANCH  12  13
BRANCH  10  17
HETATM   17  C   UNL     1      -8.684   4.541  71.914  1.00  0.00    -0.129 C  
HETATM   18  C   UNL     1      -9.758   4.698  73.011  1.00  0.00    -0.163 C  
HETATM   19  C   UNL     1      -8.978   3.164  71.246  1.00  0.00    -0.160 C  
HETATM   20  C   UNL     1      -7.285   4.405  72.548  1.00  0.00    -0.071 C  
ENDBRANCH  10  17
ENDBRANCH   4   5
ENDBRANCH   2   4
BRANCH   2  21
HETATM   21  S   UNL     1      -8.921  11.277  68.881  1.00  0.00     0.029 SA 
BRANCH  21  22
HETATM   22  C   UNL     1      -9.391  12.681  67.872  1.00  0.00    -0.204 A  
HETATM   23  C   UNL     1     -10.228  12.594  66.757  1.00  0.00    -0.246 A  
HETATM   24  C   UNL     1      -8.761  13.889  68.131  1.00  0.00    -0.182 A  
HETATM   25  H   UNL     1     -10.523  15.791  64.545  1.00  0.00     0.000 HD 
HETATM   26  O   UNL     1      -9.951  15.893  65.296  1.00  0.00    -0.424 OA 
HETATM   27  C   UNL     1      -8.926  15.022  67.313  1.00  0.00    -0.212 A  
HETATM   28  C   UNL     1     -10.463  13.668  65.889  1.00  0.00    -0.297 A  
HETATM   29  C   UNL     1      -9.784  14.869  66.184  1.00  0.00    -0.306 A  
BRANCH  27  30
HETATM   30  C   UNL     1      -8.125  16.306  67.647  1.00  0.00    -0.161 C  
HETATM   31  C   UNL     1      -7.363  16.221  69.002  1.00  0.00    -0.214 C  
HETATM   32  C   UNL     1      -7.051  16.561  66.571  1.00  0.00    -0.148 C  
HETATM   33  C   UNL     1      -9.052  17.533  67.789  1.00  0.00    -0.249 C  
ENDBRANCH  27  30
BRANCH  28  34
HETATM   34  C   UNL     1     -11.448  13.500  64.696  1.00  0.00    -0.381 C  
HETATM   35  C   UNL     1     -12.055  14.839  64.178  1.00  0.00    -0.323 C  
HETATM   36  C   UNL     1     -12.659  12.619  65.071  1.00  0.00    -0.504 C  
HETATM   37  C   UNL     1     -10.705  12.886  63.490  1.00  0.00    -0.104 C  
ENDBRANCH  28  34
ENDBRANCH  21  22
ENDBRANCH   2  21
TORSDOF 8
ENDMDL
MODEL      266
REMARK 921   NORMALIZED FREE ENERGY PREDICTED BY IDOCK:   -3.26 KCAL/MOL
REMARK 922        TOTAL FREE ENERGY PREDICTED BY IDOCK:   -5.38 KCAL/MOL
REMARK 923 INTER-LIGAND FREE ENERGY PREDICTED BY IDOCK:   -6.43 KCAL/MOL
REMARK 924 INTRA-LIGAND FREE ENERGY PREDICTED BY IDOCK:    1.05 KCAL/MOL
REMARK 927      BINDING AFFINITY PREDICTED BY RF-SCORE:    0.00 PKD
ROOT
HETATM    1  C   UNL     1      -7.641  11.028  68.832  1.00  0.00    -0.134 C  
HETATM    2  C   UNL     1      -8.029   9.560  69.085  1.00  0.00    -0.094 C  
HETATM    3  C   UNL     1      -7.930   9.289  70.595  1.00  0.00    -0.189 C  
ENDROOT
BRANCH   2   4
HETATM    4  S   UNL     1      -6.816   8.470  68.220  1.00  0.00    -0.067 SA 
BRANCH   4   5
HETATM    5  C   UNL     1      -7.558   6.842  68.258  1.00  0.00    -0.107 A  
HETATM    6  C   UNL     1      -8.971   4.431  68.399  1.00  0.00    -0.115 A  
HETATM    7  O   UNL     1      -9.730   3.296  68.405  1.00  0.00    -0.118 OA 
HETATM    8  H   UNL     1     -10.036   2.900  67.596  1.00  0.00     0.000 HD 
HETATM    9  C   UNL     1      -7.827   6.255  69.490  1.00  0.00    -0.101 A  
HETATM   10  C   UNL     1      -8.722   4.992  67.128  1.00  0.00    -0.103 A  
HETATM   11  C   UNL     1      -7.991   6.182  67.114  1.00  0.00    -0.102 A  
HETATM   12  C   UNL     1      -8.512   5.024  69.610  1.00  0.00    -0.092 A  
BRANCH  12  13
HETATM   13  C   UNL     1      -8.750   4.431  71.022  1.00  0.00    -0.136 C  
HETATM   14  C   UNL     1     -10.246   4.480  71.407  1.00  0.00    -0.183 C  
HETATM   15  C   UNL     1      -7.899   5.172  72.074  1.00  0.00    -0.111 C  
HETATM   16  C   UNL     1      -8.361   2.929  71.138  1.00  0.00    -0.086 C  
ENDBRANCH  12  13
BRANCH  10  17
HETATM   17  C   UNL     1      -9.192   4.370  65.786  1.00  0.00    -0.142 C  
HETATM   18  C   UNL     1      -8.561   5.099  64.580  1.00  0.00    -0.142 C  
HETATM   19  C   UNL     1      -8.805   2.871  65.605  1.00  0.00    -0.136 C  
HETATM   20  C   UNL     1     -10.730   4.416  65.697  1.00  0.00    -0.083 C  
ENDBRANCH  10  17
ENDBRANCH   4   5
ENDBRANCH   2   4
BRANCH   2  21
HETATM   21  S   UNL     1      -9.792   9.344  68.582  1.00  0.00    -0.168 SA 
BRANCH  21  22
HETATM   22  C   UNL     1     -10.364  10.996  68.190  1.00  0.00    -0.182 A  
HETATM   23  C   UNL     1     -10.841  11.901  69.140  1.00  0.00    -0.196 A  
HETATM   24  C   UNL     1     -10.480  11.326  66.848  1.00  0.00    -0.286 A  
HETATM   25  H   UNL     1     -12.498  15.155  67.772  1.00  0.00     0.000 HD 
HETATM   26  O   UNL     1     -12.181  14.568  67.095  1.00  0.00    -0.355 OA 
HETATM   27  C   UNL     1     -11.063  12.529  66.410  1.00  0.00    -0.332 A  
HETATM   28  C   UNL     1     -11.428  13.128  68.804  1.00  0.00    -0.348 A  
HETATM   29  C   UNL     1     -11.540  13.409  67.426  1.00  0.00    -0.354 A  
BRANCH  27  30
HETATM   30  C   UNL     1     -11.208  12.777  64.888  1.00  0.00    -0.331 C  
HETATM   31  C   UNL     1     -10.894  14.245  64.470  1.00  0.00    -0.305 C  
HETATM   32  C   UNL     1     -10.218  11.892  64.105  1.00  0.00    -0.364 C  
HETATM   33  C   UNL     1     -12.654  12.529  64.406  1.00  0.00    -0.497 C  
ENDBRANCH  27  30
BRANCH  28  34
HETATM   34  C   UNL     1     -11.889  14.101  69.927  1.00  0.00    -0.387 C  
HETATM   35  C   UNL     1     -10.739  14.951  70.546  1.00  0.00    -0.009 C  
HETATM   36  C   UNL     1     -12.526  13.347  71.115  1.00  0.00    -0.414 C  
HETATM   37  C   UNL     1     -12.896  15.120  69.352  1.00  0.00     0.340 C  
ENDBRANCH  28  34
ENDBRANCH  21  22
ENDBRANCH   2  21
TORSDOF 8
ENDMDL
MODEL      267
REMARK 921   NORMALIZED FREE ENERGY PREDICTED BY IDOCK:   -3.24 KCAL/MOL
REMARK 922        TOTAL FREE ENERGY PREDICTED BY IDOCK:   -5.36 KCAL/MOL
REMARK 923 INTER-LIGAND FREE ENERGY PREDICTED BY IDOCK:   -6.37 KCAL/MOL
REMARK 924 INTRA-LIGAND FREE ENERGY PREDICTED BY IDOCK:    1.01 KCAL/MOL
REMARK 927      BINDING AFFINITY PREDICTED BY RF-SCORE:    0.00 PKD
ROOT
HETATM    1  C   UNL     1      -7.562  12.385  68.619  1.00  0.00    -0.082 C  
HETATM    2  C   UNL     1      -6.059  12.710  68.559  1.00  0.00    -0.062 C  
HETATM    3  C   UNL     1      -5.454  12.449  69.949  1.00  0.00    -0.101 C  
ENDROOT
BRANCH   2   4
HETATM    4  S   UNL     1      -5.857  14.502  68.167  1.00  0.00    -0.140 SA 
BRANCH   4   5
HETATM    5  C   UNL     1      -7.489  15.048  67.675  1.00  0.00    -0.181 A  
HETATM    6  C   UNL     1      -9.912  16.009  66.660  1.00  0.00    -0.267 A  
HETATM    7  O   UNL     1     -11.075  16.426  66.078  1.00  0.00    -0.049 OA 
HETATM    8  H   UNL     1     -11.671  15.811  65.666  1.00  0.00     0.000 HD 
HETATM    9  C   UNL     1      -7.796  16.403  67.751  1.00  0.00    -0.164 A  
HETATM   10  C   UNL     1      -9.641  14.628  66.559  1.00  0.00    -0.308 A  
HETATM   11  C   UNL     1      -8.429  14.198  67.105  1.00  0.00    -0.214 A  
HETATM   12  C   UNL     1      -9.019  16.930  67.278  1.00  0.00    -0.212 A  
BRANCH  12  13
HETATM   13  C   UNL     1      -9.288  18.450  67.423  1.00  0.00    -0.275 C  
HETATM   14  C   UNL     1      -8.366  19.083  68.490  1.00  0.00    -0.387 C  
HETATM   15  C   UNL     1     -10.769  18.710  67.768  1.00  0.00    -0.394 C  
HETATM   16  C   UNL     1      -9.002  19.257  66.124  1.00  0.00    -0.270 C  
ENDBRANCH  12  13
BRANCH  10  17
HETATM   17  C   UNL     1     -10.593  13.590  65.907  1.00  0.00    -0.284 C  
HETATM   18  C   UNL     1     -10.195  12.148  66.287  1.00  0.00    -0.249 C  
HETATM   19  C   UNL     1     -12.084  13.731  66.339  1.00  0.00    -0.483 C  
HETATM   20  C   UNL     1     -10.587  13.764  64.375  1.00  0.00    -0.316 C  
ENDBRANCH  10  17
ENDBRANCH   4   5
ENDBRANCH   2   4
BRANCH   2  21
HETATM   21  S   UNL     1      -5.273  11.541  67.367  1.00  0.00    -0.072 SA 
BRANCH  21  22
HETATM   22  C   UNL     1      -6.597  10.449  66.852  1.00  0.00    -0.078 A  
HETATM   23  C   UNL     1      -7.215   9.523  67.696  1.00  0.00    -0.082 A  
HETATM   24  C   UNL     1      -6.911  10.424  65.502  1.00  0.00    -0.134 A  
HETATM   25  H   UNL     1      -9.644   6.980  66.012  1.00  0.00     0.000 HD 
HETATM   26  O   UNL     1      -9.250   7.597  65.406  1.00  0.00     0.148 OA 
HETATM   27  C   UNL     1      -7.819   9.500  64.952  1.00  0.00    -0.119 A  
HETATM   28  C   UNL     1      -8.138   8.571  67.244  1.00  0.00    -0.105 A  
HETATM   29  C   UNL     1      -8.410   8.574  65.860  1.00  0.00    -0.138 A  
BRANCH  27  30
HETATM   30  C   UNL     1      -8.054   9.507  63.420  1.00  0.00    -0.149 C  
HETATM   31  C   UNL     1      -9.408  10.157  63.007  1.00  0.00    -0.330 C  
HETATM   32  C   UNL     1      -6.956  10.329  62.715  1.00  0.00    -0.134 C  
HETATM   33  C   UNL     1      -8.111   8.075  62.846  1.00  0.00    -0.126 C  
ENDBRANCH  27  30
BRANCH  28  34
HETATM   34  C   UNL     1      -8.817   7.607  68.259  1.00  0.00    -0.125 C  
HETATM   35  C   UNL     1      -8.429   6.109  68.072  1.00  0.00    -0.116 C  
HETATM   36  C   UNL     1     -10.357   7.648  68.149  1.00  0.00    -0.250 C  
HETATM   37  C   UNL     1      -8.383   7.972  69.695  1.00  0.00    -0.126 C  
ENDBRANCH  28  34
ENDBRANCH  21  22
ENDBRANCH   2  21
TORSDOF 8
ENDMDL
MODEL      268
REMARK 921   NORMALIZED FREE ENERGY PREDICTED BY IDOCK:   -3.24 KCAL/MOL
REMARK 922        TOTAL FREE ENERGY PREDICTED BY IDOCK:   -5.35 KCAL/MOL
REMARK 923 INTER-LIGAND FREE ENERGY PREDICTED BY IDOCK:   -6.53 KCAL/MOL
REMARK 924 INTRA-LIGAND FREE ENERGY PREDICTED BY IDOCK:    1.18 KCAL/MOL
REMARK 927      BINDING AFFINITY PREDICTED BY RF-SCORE:    0.00 PKD
ROOT
HETATM    1  C   UNL     1      -8.104   9.852  67.074  1.00  0.00    -0.110 C  
HETATM    2  C   UNL     1      -8.936  11.055  67.552  1.00  0.00    -0.137 C  
HETATM    3  C   UNL     1      -9.706  11.618  66.346  1.00  0.00    -0.236 C  
ENDROOT
BRANCH   2   4
HETATM    4  S   UNL     1      -7.786  12.362  68.167  1.00  0.00    -0.155 SA 
BRANCH   4   5
HETATM    5  C   UNL     1      -8.805  13.823  68.335  1.00  0.00    -0.165 A  
HETATM    6  C   UNL     1     -10.252  16.161  68.852  1.00  0.00    -0.245 A  
HETATM    7  O   UNL     1     -10.869  17.351  69.114  1.00  0.00    -0.329 OA 
HETATM    8  H   UNL     1     -10.630  18.146  68.651  1.00  0.00     0.000 HD 
HETATM    9  C   UNL     1      -9.834  13.821  69.272  1.00  0.00     0.349 A  
HETATM   10  C   UNL     1      -9.215  16.209  67.896  1.00  0.00    -0.200 A  
HETATM   11  C   UNL     1      -8.543  15.008  67.658  1.00  0.00    -0.179 A  
HETATM   12  C   UNL     1     -10.611  14.970  69.546  1.00  0.00    -0.264 A  
BRANCH  12  13
HETATM   13  C   UNL     1     -11.752  14.873  70.590  1.00  0.00    -0.357 C  
HETATM   14  C   UNL     1     -13.080  15.423  70.022  1.00  0.00     0.126 C  
HETATM   15  C   UNL     1     -11.371  15.619  71.885  1.00  0.00    -0.421 C  
HETATM   16  C   UNL     1     -12.080  13.412  71.017  1.00  0.00    -0.192 C  
ENDBRANCH  12  13
BRANCH  10  17
HETATM   17  C   UNL     1      -8.805  17.482  67.109  1.00  0.00    -0.246 C  
HETATM   18  C   UNL     1      -9.975  18.014  66.255  1.00  0.00    -0.338 C  
HETATM   19  C   UNL     1      -8.375  18.680  68.008  1.00  0.00    -0.299 C  
HETATM   20  C   UNL     1      -7.585  17.174  66.217  1.00  0.00    -0.352 C  
ENDBRANCH  10  17
ENDBRANCH   4   5
ENDBRANCH   2   4
BRANCH   2  21
HETATM   21  S   UNL     1     -10.170  10.441  68.780  1.00  0.00    -0.200 SA 
BRANCH  21  22
HETATM   22  C   UNL     1      -9.679   8.751  69.119  1.00  0.00    -0.175 A  
HETATM   23  C   UNL     1      -9.309   7.835  68.132  1.00  0.00    -0.148 A  
HETATM   24  C   UNL     1      -9.828   8.295  70.419  1.00  0.00    -0.194 A  
HETATM   25  H   UNL     1      -8.867   4.131  69.268  1.00  0.00     0.000 HD 
HETATM   26  O   UNL     1      -9.112   4.724  69.969  1.00  0.00    -0.095 OA 
HETATM   27  C   UNL     1      -9.627   6.949  70.779  1.00  0.00    -0.167 A  
HETATM   28  C   UNL     1      -9.078   6.478  68.392  1.00  0.00    -0.123 A  
HETATM   29  C   UNL     1      -9.261   6.059  69.727  1.00  0.00    -0.143 A  
BRANCH  27  30
HETATM   30  C   UNL     1      -9.883   6.524  72.247  1.00  0.00    -0.166 C  
HETATM   31  C   UNL     1     -10.106   7.729  73.208  1.00  0.00    -0.374 C  
HETATM   32  C   UNL     1     -11.160   5.665  72.340  1.00  0.00    -0.324 C  
HETATM   33  C   UNL     1      -8.676   5.764  72.839  1.00  0.00    -0.124 C  
ENDBRANCH  27  30
BRANCH  28  34
HETATM   34  C   UNL     1      -8.622   5.533  67.243  1.00  0.00    -0.108 C  
HETATM   35  C   UNL     1      -8.605   6.203  65.836  1.00  0.00    -0.147 C  
HETATM   36  C   UNL     1      -9.553   4.308  67.103  1.00  0.00    -0.224 C  
HETATM   37  C   UNL     1      -7.173   5.065  67.498  1.00  0.00    -0.070 C  
ENDBRANCH  28  34
ENDBRANCH  21  22
ENDBRANCH   2  21
TORSDOF 8
ENDMDL
MODEL      269
REMARK 921   NORMALIZED FREE ENERGY PREDICTED BY IDOCK:   -3.24 KCAL/MOL
REMARK 922        TOTAL FREE ENERGY PREDICTED BY IDOCK:   -5.35 KCAL/MOL
REMARK 923 INTER-LIGAND FREE ENERGY PREDICTED BY IDOCK:   -6.83 KCAL/MOL
REMARK 924 INTRA-LIGAND FREE ENERGY PREDICTED BY IDOCK:    1.48 KCAL/MOL
REMARK 927      BINDING AFFINITY PREDICTED BY RF-SCORE:    0.00 PKD
ROOT
HETATM    1  C   UNL     1     -11.261  11.431  69.545  1.00  0.00    -0.322 C  
HETATM    2  C   UNL     1     -10.305  10.355  69.001  1.00  0.00    -0.214 C  
HETATM    3  C   UNL     1     -10.900   9.796  67.698  1.00  0.00    -0.301 C  
ENDROOT
BRANCH   2   4
HETATM    4  S   UNL     1     -10.202   8.980  70.228  1.00  0.00    -0.216 SA 
BRANCH   4   5
HETATM    5  C   UNL     1      -9.486   7.613  69.322  1.00  0.00    -0.158 A  
HETATM    6  C   UNL     1      -8.102   5.570  68.005  1.00  0.00    -0.096 A  
HETATM    7  O   UNL     1      -7.383   4.549  67.451  1.00  0.00    -0.071 OA 
HETATM    8  H   UNL     1      -7.372   3.682  67.840  1.00  0.00     0.000 HD 
HETATM    9  C   UNL     1      -8.808   7.874  68.137  1.00  0.00    -0.125 A  
HETATM   10  C   UNL     1      -8.774   5.260  69.206  1.00  0.00    -0.108 A  
HETATM   11  C   UNL     1      -9.471   6.310  69.808  1.00  0.00    -0.163 A  
HETATM   12  C   UNL     1      -8.119   6.869  67.420  1.00  0.00    -0.115 A  
BRANCH  12  13
HETATM   13  C   UNL     1      -7.407   7.244  66.096  1.00  0.00    -0.075 C  
HETATM   14  C   UNL     1      -7.894   6.358  64.926  1.00  0.00    -0.113 C  
HETATM   15  C   UNL     1      -5.876   7.137  66.250  1.00  0.00    -0.035 C  
HETATM   16  C   UNL     1      -7.690   8.702  65.631  1.00  0.00    -0.091 C  
ENDBRANCH  12  13
BRANCH  10  17
HETATM   17  C   UNL     1      -8.793   3.856  69.866  1.00  0.00    -0.143 C  
HETATM   18  C   UNL     1      -9.378   2.796  68.908  1.00  0.00    -0.220 C  
HETATM   19  C   UNL     1      -7.386   3.317  70.264  1.00  0.00    -0.041 C  
HETATM   20  C   UNL     1      -9.606   3.904  71.175  1.00  0.00    -0.244 C  
ENDBRANCH  10  17
ENDBRANCH   4   5
ENDBRANCH   2   4
BRANCH   2  21
HETATM   21  S   UNL     1      -8.703  11.175  68.589  1.00  0.00    -0.128 SA 
BRANCH  21  22
HETATM   22  C   UNL     1      -9.143  12.517  67.486  1.00  0.00    -0.187 A  
HETATM   23  C   UNL     1      -9.018  13.868  67.815  1.00  0.00    -0.188 A  
HETATM   24  C   UNL     1      -9.787  12.183  66.305  1.00  0.00    -0.250 A  
HETATM   25  H   UNL     1     -10.616  16.421  65.340  1.00  0.00     0.000 HD 
HETATM   26  O   UNL     1     -10.717  15.514  65.077  1.00  0.00    -0.413 OA 
HETATM   27  C   UNL     1     -10.321  13.149  65.432  1.00  0.00    -0.313 A  
HETATM   28  C   UNL     1      -9.508  14.903  67.008  1.00  0.00    -0.239 A  
HETATM   29  C   UNL     1     -10.171  14.511  65.826  1.00  0.00    -0.335 A  
BRANCH  27  30
HETATM   30  C   UNL     1     -11.082  12.673  64.169  1.00  0.00    -0.428 C  
HETATM   31  C   UNL     1     -12.066  11.499  64.448  1.00  0.00     0.070 C  
HETATM   32  C   UNL     1     -11.941  13.820  63.599  1.00  0.00    -0.298 C  
HETATM   33  C   UNL     1     -10.116  12.134  63.092  1.00  0.00    -0.154 C  
ENDBRANCH  27  30
BRANCH  28  34
HETATM   34  C   UNL     1      -9.283  16.385  67.425  1.00  0.00    -0.213 C  
HETATM   35  C   UNL     1     -10.589  17.233  67.492  1.00  0.00    -0.329 C  
HETATM   36  C   UNL     1      -8.362  17.128  66.432  1.00  0.00    -0.315 C  
HETATM   37  C   UNL     1      -8.678  16.441  68.844  1.00  0.00    -0.253 C  
ENDBRANCH  28  34
ENDBRANCH  21  22
ENDBRANCH   2  21
TORSDOF 8
ENDMDL
MODEL      270
REMARK 921   NORMALIZED FREE ENERGY PREDICTED BY IDOCK:   -3.17 KCAL/MOL
REMARK 922        TOTAL FREE ENERGY PREDICTED BY IDOCK:   -5.25 KCAL/MOL
REMARK 923 INTER-LIGAND FREE ENERGY PREDICTED BY IDOCK:   -7.18 KCAL/MOL
REMARK 924 INTRA-LIGAND FREE ENERGY PREDICTED BY IDOCK:    1.93 KCAL/MOL
REMARK 927      BINDING AFFINITY PREDICTED BY RF-SCORE:    0.00 PKD
ROOT
HETATM    1  C   UNL     1     -11.579  11.612  69.609  1.00  0.00    -0.401 C  
HETATM    2  C   UNL     1     -10.612  10.446  69.337  1.00  0.00    -0.239 C  
HETATM    3  C   UNL     1     -11.183   9.605  68.183  1.00  0.00     0.000 C  
ENDROOT
BRANCH   2   4
HETATM    4  S   UNL     1     -10.531   9.382  70.844  1.00  0.00    -0.316 SA 
BRANCH   4   5
HETATM    5  C   UNL     1      -9.813   7.843  70.277  1.00  0.00    -0.184 A  
HETATM    6  C   UNL     1      -8.970   5.338  69.361  1.00  0.00    -0.100 A  
HETATM    7  O   UNL     1      -8.619   4.129  68.833  1.00  0.00    -0.081 OA 
HETATM    8  H   UNL     1      -8.342   4.045  67.927  1.00  0.00     0.000 HD 
HETATM    9  C   UNL     1      -9.827   6.742  71.127  1.00  0.00    -0.188 A  
HETATM   10  C   UNL     1      -8.941   6.428  68.464  1.00  0.00    -0.125 A  
HETATM   11  C   UNL     1      -9.347   7.660  68.981  1.00  0.00    -0.146 A  
HETATM   12  C   UNL     1      -9.384   5.464  70.718  1.00  0.00    -0.200 A  
BRANCH  12  13
HETATM   13  C   UNL     1      -9.414   4.297  71.737  1.00  0.00    -0.206 C  
HETATM   14  C   UNL     1      -8.138   4.280  72.610  1.00  0.00    -0.096 C  
HETATM   15  C   UNL     1      -9.588   2.945  71.013  1.00  0.00    -0.219 C  
HETATM   16  C   UNL     1     -10.588   4.392  72.755  1.00  0.00    -0.254 C  
ENDBRANCH  12  13
BRANCH  10  17
HETATM   17  C   UNL     1      -8.482   6.335  66.985  1.00  0.00    -0.108 C  
HETATM   18  C   UNL     1      -7.160   5.548  66.856  1.00  0.00    -0.070 C  
HETATM   19  C   UNL     1      -9.488   5.602  66.047  1.00  0.00    -0.129 C  
HETATM   20  C   UNL     1      -8.323   7.752  66.397  1.00  0.00    -0.131 C  
ENDBRANCH  10  17
ENDBRANCH   4   5
ENDBRANCH   2   4
BRANCH   2  21
HETATM   21  S   UNL     1      -9.003  11.159  68.781  1.00  0.00    -0.086 SA 
BRANCH  21  22
HETATM   22  C   UNL     1      -9.452  12.564  67.762  1.00  0.00    -0.197 A  
HETATM   23  C   UNL     1     -10.301  12.485  66.656  1.00  0.00    -0.244 A  
HETATM   24  C   UNL     1      -8.791  13.759  68.001  1.00  0.00    -0.182 A  
HETATM   25  H   UNL     1     -10.545  15.664  64.413  1.00  0.00     0.000 HD 
HETATM   26  O   UNL     1      -9.963  15.761  65.158  1.00  0.00    -0.393 OA 
HETATM   27  C   UNL     1      -8.939  14.887  67.173  1.00  0.00    -0.230 A  
HETATM   28  C   UNL     1     -10.520  13.554  65.779  1.00  0.00    -0.293 A  
HETATM   29  C   UNL     1      -9.811  14.742  66.055  1.00  0.00    -0.324 A  
BRANCH  27  30
HETATM   30  C   UNL     1      -8.105  16.156  67.485  1.00  0.00    -0.164 C  
HETATM   31  C   UNL     1      -7.686  16.946  66.211  1.00  0.00    -0.332 C  
HETATM   32  C   UNL     1      -8.929  17.138  68.343  1.00  0.00    -0.259 C  
HETATM   33  C   UNL     1      -6.776  15.806  68.189  1.00  0.00    -0.130 C  
ENDBRANCH  27  30
BRANCH  28  34
HETATM   34  C   UNL     1     -11.521  13.397  64.598  1.00  0.00    -0.375 C  
HETATM   35  C   UNL     1     -12.141  14.739  64.105  1.00  0.00    -0.323 C  
HETATM   36  C   UNL     1     -12.723  12.505  64.978  1.00  0.00    -0.302 C  
HETATM   37  C   UNL     1     -10.792  12.801  63.374  1.00  0.00    -0.154 C  
ENDBRANCH  28  34
ENDBRANCH  21  22
ENDBRANCH   2  21
TORSDOF 8
ENDMDL
MODEL      271
REMARK 921   NORMALIZED FREE ENERGY PREDICTED BY IDOCK:   -3.12 KCAL/MOL
REMARK 922        TOTAL FREE ENERGY PREDICTED BY IDOCK:   -5.18 KCAL/MOL
REMARK 923 INTER-LIGAND FREE ENERGY PREDICTED BY IDOCK:   -5.84 KCAL/MOL
REMARK 924 INTRA-LIGAND FREE ENERGY PREDICTED BY IDOCK:    0.66 KCAL/MOL
REMARK 927      BINDING AFFINITY PREDICTED BY RF-SCORE:    0.00 PKD
ROOT
HETATM    1  C   UNL     1      -5.273  12.420  67.230  1.00  0.00    -0.062 C  
HETATM    2  C   UNL     1      -6.334  12.063  68.286  1.00  0.00    -0.052 C  
HETATM    3  C   UNL     1      -7.703  11.994  67.589  1.00  0.00    -0.144 C  
ENDROOT
BRANCH   2   4
HETATM    4  S   UNL     1      -6.392  13.412  69.545  1.00  0.00    -0.083 SA 
BRANCH   4   5
HETATM    5  C   UNL     1      -7.603  14.571  68.915  1.00  0.00    -0.138 A  
HETATM    6  C   UNL     1      -9.572  16.430  68.215  1.00  0.00    -0.221 A  
HETATM    7  O   UNL     1     -10.489  17.403  67.938  1.00  0.00    -0.353 OA 
HETATM    8  H   UNL     1     -10.221  18.288  67.718  1.00  0.00     0.000 HD 
HETATM    9  C   UNL     1      -8.945  14.208  68.917  1.00  0.00     0.019 A  
HETATM   10  C   UNL     1      -8.222  16.842  68.201  1.00  0.00    -0.207 A  
HETATM   11  C   UNL     1      -7.279  15.868  68.533  1.00  0.00    -0.128 A  
HETATM   12  C   UNL     1      -9.973  15.103  68.544  1.00  0.00    -0.223 A  
BRANCH  12  13
HETATM   13  C   UNL     1     -11.441  14.608  68.554  1.00  0.00    -0.327 C  
HETATM   14  C   UNL     1     -11.567  13.238  69.259  1.00  0.00    -0.370 C  
HETATM   15  C   UNL     1     -11.999  14.527  67.118  1.00  0.00    -0.373 C  
HETATM   16  C   UNL     1     -12.407  15.545  69.337  1.00  0.00    -0.143 C  
ENDBRANCH  12  13
BRANCH  10  17
HETATM   17  C   UNL     1      -7.744  18.272  67.834  1.00  0.00    -0.249 C  
HETATM   18  C   UNL     1      -8.503  19.342  68.646  1.00  0.00    -0.395 C  
HETATM   19  C   UNL     1      -6.235  18.536  68.119  1.00  0.00    -0.195 C  
HETATM   20  C   UNL     1      -7.929  18.513  66.322  1.00  0.00    -0.273 C  
ENDBRANCH  10  17
ENDBRANCH   4   5
ENDBRANCH   2   4
BRANCH   2  21
HETATM   21  S   UNL     1      -5.942  10.382  68.939  1.00  0.00    -0.040 SA 
BRANCH  21  22
HETATM   22  C   UNL     1      -6.873   9.256  67.901  1.00  0.00    -0.072 A  
HETATM   23  C   UNL     1      -7.969   8.513  68.346  1.00  0.00    -0.118 A  
HETATM   24  C   UNL     1      -6.375   9.001  66.633  1.00  0.00    -0.066 A  
HETATM   25  H   UNL     1      -9.330   5.787  65.913  1.00  0.00     0.000 HD 
HETATM   26  O   UNL     1      -8.589   6.275  65.571  1.00  0.00    -0.150 OA 
HETATM   27  C   UNL     1      -6.924   8.023  65.784  1.00  0.00    -0.060 A  
HETATM   28  C   UNL     1      -8.591   7.525  67.572  1.00  0.00    -0.122 A  
HETATM   29  C   UNL     1      -8.034   7.290  66.296  1.00  0.00    -0.110 A  
BRANCH  27  30
HETATM   30  C   UNL     1      -6.253   7.766  64.411  1.00  0.00    -0.052 C  
HETATM   31  C   UNL     1      -5.125   8.786  64.076  1.00  0.00    -0.052 C  
HETATM   32  C   UNL     1      -5.587   6.375  64.393  1.00  0.00    -0.025 C  
HETATM   33  C   UNL     1      -7.264   7.896  63.251  1.00  0.00    -0.091 C  
ENDBRANCH  27  30
BRANCH  28  34
HETATM   34  C   UNL     1      -9.838   6.776  68.124  1.00  0.00    -0.144 C  
HETATM   35  C   UNL     1     -10.380   7.348  69.469  1.00  0.00    -0.218 C  
HETATM   36  C   UNL     1      -9.537   5.287  68.403  1.00  0.00    -0.176 C  
HETATM   37  C   UNL     1     -11.004   6.897  67.120  1.00  0.00    -0.427 C  
ENDBRANCH  28  34
ENDBRANCH  21  22
ENDBRANCH   2  21
TORSDOF 8
ENDMDL
MODEL      272
REMARK 921   NORMALIZED FREE ENERGY PREDICTED BY IDOCK:   -3.07 KCAL/MOL
REMARK 922        TOTAL FREE ENERGY PREDICTED BY IDOCK:   -5.10 KCAL/MOL
REMARK 923 INTER-LIGAND FREE ENERGY PREDICTED BY IDOCK:   -6.15 KCAL/MOL
REMARK 924 INTRA-LIGAND FREE ENERGY PREDICTED BY IDOCK:    1.04 KCAL/MOL
REMARK 927      BINDING AFFINITY PREDICTED BY RF-SCORE:    0.00 PKD
ROOT
HETATM    1  C   UNL     1      -6.958   9.375  67.010  1.00  0.00    -0.085 C  
HETATM    2  C   UNL     1      -7.095   8.403  68.196  1.00  0.00    -0.085 C  
HETATM    3  C   UNL     1      -8.445   7.679  68.071  1.00  0.00    -0.123 C  
ENDROOT
BRANCH   2   4
HETATM    4  S   UNL     1      -7.104   9.381  69.762  1.00  0.00    -0.078 SA 
BRANCH   4   5
HETATM    5  C   UNL     1      -8.820   9.825  70.012  1.00  0.00    -0.215 A  
HETATM    6  C   UNL     1     -11.555  10.397  70.136  1.00  0.00    -0.312 A  
HETATM    7  O   UNL     1     -12.908  10.578  70.177  1.00  0.00    -0.499 OA 
HETATM    8  H   UNL     1     -13.468  10.014  70.699  1.00  0.00     0.000 HD 
HETATM    9  C   UNL     1      -9.347  10.898  69.301  1.00  0.00    -0.027 A  
HETATM   10  C   UNL     1     -11.064   9.297  70.872  1.00  0.00    -0.374 A  
HETATM   11  C   UNL     1      -9.688   9.072  70.795  1.00  0.00    -0.306 A  
HETATM   12  C   UNL     1     -10.717  11.243  69.355  1.00  0.00    -0.188 A  
BRANCH  12  13
HETATM   13  C   UNL     1     -11.215  12.468  68.547  1.00  0.00    -0.322 C  
HETATM   14  C   UNL     1     -12.095  13.394  69.418  1.00  0.00    -0.321 C  
HETATM   15  C   UNL     1     -11.988  12.015  67.292  1.00  0.00    -0.111 C  
HETATM   16  C   UNL     1     -10.065  13.383  68.035  1.00  0.00    -0.241 C  
ENDBRANCH  12  13
BRANCH  10  17
HETATM   17  C   UNL     1     -11.942   8.362  71.746  1.00  0.00    -0.380 C  
HETATM   18  C   UNL     1     -13.109   9.136  72.395  1.00  0.00    -0.493 C  
HETATM   19  C   UNL     1     -12.611   7.194  70.961  1.00  0.00    -0.335 C  
HETATM   20  C   UNL     1     -11.073   7.691  72.829  1.00  0.00    -0.437 C  
ENDBRANCH  10  17
ENDBRANCH   4   5
ENDBRANCH   2   4
BRANCH   2  21
HETATM   21  S   UNL     1      -5.755   7.142  68.054  1.00  0.00    -0.023 SA 
BRANCH  21  22
HETATM   22  C   UNL     1      -6.380   5.938  66.882  1.00  0.00    -0.042 A  
HETATM   23  C   UNL     1      -6.494   6.174  65.510  1.00  0.00    -0.043 A  
HETATM   24  C   UNL     1      -6.919   4.770  67.398  1.00  0.00    -0.061 A  
HETATM   25  H   UNL     1      -8.420   3.493  63.435  1.00  0.00     0.000 HD 
HETATM   26  O   UNL     1      -8.357   3.293  64.362  1.00  0.00    -0.092 OA 
HETATM   27  C   UNL     1      -7.580   3.821  66.596  1.00  0.00    -0.081 A  
HETATM   28  C   UNL     1      -7.126   5.286  64.629  1.00  0.00    -0.054 A  
HETATM   29  C   UNL     1      -7.675   4.121  65.205  1.00  0.00    -0.085 A  
BRANCH  27  30
HETATM   30  C   UNL     1      -8.209   2.578  67.276  1.00  0.00    -0.079 C  
HETATM   31  C   UNL     1      -8.835   1.574  66.264  1.00  0.00    -0.118 C  
HETATM   32  C   UNL     1      -7.132   1.789  68.048  1.00  0.00    -0.039 C  
HETATM   33  C   UNL     1      -9.370   2.970  68.216  1.00  0.00    -0.253 C  
ENDBRANCH  27  30
BRANCH  28  34
HETATM   34  C   UNL     1      -7.167   5.602  63.107  1.00  0.00    -0.051 C  
HETATM   35  C   UNL     1      -8.480   5.152  62.398  1.00  0.00    -0.114 C  
HETATM   36  C   UNL     1      -6.026   4.897  62.342  1.00  0.00    -0.014 C  
HETATM   37  C   UNL     1      -7.080   7.128  62.889  1.00  0.00    -0.065 C  
ENDBRANCH  28  34
ENDBRANCH  21  22
ENDBRANCH   2  21
TORSDOF 8
ENDMDL
MODEL      273
REMARK 921   NORMALIZED FREE ENERGY PREDICTED BY IDOCK:   -3.06 KCAL/MOL
REMARK 922        TOTAL FREE ENERGY PREDICTED BY IDOCK:   -5.09 KCAL/MOL
REMARK 923 INTER-LIGAND FREE ENERGY PREDICTED BY IDOCK:   -6.43 KCAL/MOL
REMARK 924 INTRA-LIGAND FREE ENERGY PREDICTED BY IDOCK:    1.34 KCAL/MOL
REMARK 927      BINDING AFFINITY PREDICTED BY RF-SCORE:    0.00 PKD
ROOT
HETATM    1  C   UNL     1      -7.120   8.638  70.554  1.00  0.00    -0.044 C  
HETATM    2  C   UNL     1      -7.509   8.977  69.104  1.00  0.00    -0.072 C  
HETATM    3  C   UNL     1      -6.547   8.235  68.161  1.00  0.00    -0.057 C  
ENDROOT
BRANCH   2   4
HETATM    4  S   UNL     1      -7.290  10.792  68.844  1.00  0.00    -0.114 SA 
BRANCH   4   5
HETATM    5  C   UNL     1      -8.145  11.138  67.310  1.00  0.00    -0.137 A  
HETATM    6  C   UNL     1      -9.630  11.425  64.956  1.00  0.00    -0.221 A  
HETATM    7  O   UNL     1     -10.439  11.553  63.864  1.00  0.00    -0.313 OA 
HETATM    8  H   UNL     1     -11.181  12.146  63.863  1.00  0.00     0.000 HD 
HETATM    9  C   UNL     1      -7.815  10.403  66.176  1.00  0.00    -0.135 A  
HETATM   10  C   UNL     1     -10.002  12.188  66.084  1.00  0.00    -0.253 A  
HETATM   11  C   UNL     1      -9.211  12.026  67.223  1.00  0.00    -0.182 A  
HETATM   12  C   UNL     1      -8.517  10.535  64.956  1.00  0.00    -0.166 A  
BRANCH  12  13
HETATM   13  C   UNL     1      -8.067   9.693  63.736  1.00  0.00    -0.148 C  
HETATM   14  C   UNL     1      -6.707  10.181  63.188  1.00  0.00    -0.133 C  
HETATM   15  C   UNL     1      -9.138   9.729  62.625  1.00  0.00    -0.297 C  
HETATM   16  C   UNL     1      -7.844   8.189  64.068  1.00  0.00    -0.143 C  
ENDBRANCH  12  13
BRANCH  10  17
HETATM   17  C   UNL     1     -11.196  13.178  66.119  1.00  0.00    -0.320 C  
HETATM   18  C   UNL     1     -10.794  14.561  65.563  1.00  0.00    -0.342 C  
HETATM   19  C   UNL     1     -12.422  12.734  65.264  1.00  0.00    -0.528 C  
HETATM   20  C   UNL     1     -11.723  13.312  67.562  1.00  0.00    -0.410 C  
ENDBRANCH  10  17
ENDBRANCH   4   5
ENDBRANCH   2   4
BRANCH   2  21
HETATM   21  S   UNL     1      -9.211   8.331  68.807  1.00  0.00    -0.143 SA 
BRANCH  21  22
HETATM   22  C   UNL     1      -9.249   6.739  69.629  1.00  0.00    -0.145 A  
HETATM   23  C   UNL     1      -8.812   5.549  69.043  1.00  0.00    -0.108 A  
HETATM   24  C   UNL     1      -9.892   6.673  70.856  1.00  0.00    -0.197 A  
HETATM   25  H   UNL     1      -9.600   2.258  70.980  1.00  0.00     0.000 HD 
HETATM   26  O   UNL     1      -9.907   3.045  71.415  1.00  0.00    -0.163 OA 
HETATM   27  C   UNL     1     -10.125   5.457  71.526  1.00  0.00    -0.253 A  
HETATM   28  C   UNL     1      -8.989   4.292  69.635  1.00  0.00    -0.158 A  
HETATM   29  C   UNL     1      -9.665   4.276  70.873  1.00  0.00    -0.196 A  
BRANCH  27  30
HETATM   30  C   UNL     1     -10.911   5.480  72.861  1.00  0.00    -0.332 C  
HETATM   31  C   UNL     1     -10.624   6.745  73.723  1.00  0.00    -0.323 C  
HETATM   32  C   UNL     1     -12.429   5.489  72.587  1.00  0.00     0.312 C  
HETATM   33  C   UNL     1     -10.532   4.288  73.766  1.00  0.00    -0.277 C  
ENDBRANCH  27  30
BRANCH  28  34
HETATM   34  C   UNL     1      -8.429   3.019  68.937  1.00  0.00    -0.098 C  
HETATM   35  C   UNL     1      -9.523   2.101  68.312  1.00  0.00    -0.232 C  
HETATM   36  C   UNL     1      -7.651   2.119  69.922  1.00  0.00    -0.043 C  
HETATM   37  C   UNL     1      -7.512   3.430  67.765  1.00  0.00    -0.058 C  
ENDBRANCH  28  34
ENDBRANCH  21  22
ENDBRANCH   2  21
TORSDOF 8
ENDMDL
MODEL      274
REMARK 921   NORMALIZED FREE ENERGY PREDICTED BY IDOCK:   -3.02 KCAL/MOL
REMARK 922        TOTAL FREE ENERGY PREDICTED BY IDOCK:   -5.03 KCAL/MOL
REMARK 923 INTER-LIGAND FREE ENERGY PREDICTED BY IDOCK:   -5.63 KCAL/MOL
REMARK 924 INTRA-LIGAND FREE ENERGY PREDICTED BY IDOCK:    0.61 KCAL/MOL
REMARK 927      BINDING AFFINITY PREDICTED BY RF-SCORE:    0.00 PKD
ROOT
HETATM    1  C   UNL     1      -8.703   9.639  70.223  1.00  0.00    -0.248 C  
HETATM    2  C   UNL     1      -8.248   8.858  68.977  1.00  0.00    -0.116 C  
HETATM    3  C   UNL     1      -7.667   7.512  69.438  1.00  0.00    -0.111 C  
ENDROOT
BRANCH   2   4
HETATM    4  S   UNL     1      -6.906   9.812  68.141  1.00  0.00    -0.069 SA 
BRANCH   4   5
HETATM    5  C   UNL     1      -7.656  11.383  67.724  1.00  0.00    -0.105 A  
HETATM    6  C   UNL     1      -9.055  13.758  67.246  1.00  0.00    -0.232 A  
HETATM    7  O   UNL     1      -9.745  14.929  67.114  1.00  0.00    -0.222 OA 
HETATM    8  H   UNL     1      -9.485  15.712  67.585  1.00  0.00     0.000 HD 
HETATM    9  C   UNL     1      -8.725  11.403  66.834  1.00  0.00    -0.165 A  
HETATM   10  C   UNL     1      -7.978  13.783  68.158  1.00  0.00    -0.150 A  
HETATM   11  C   UNL     1      -7.298  12.577  68.340  1.00  0.00    -0.114 A  
HETATM   12  C   UNL     1      -9.443  12.583  66.539  1.00  0.00    -0.240 A  
BRANCH  12  13
HETATM   13  C   UNL     1     -10.608  12.519  65.518  1.00  0.00    -0.304 C  
HETATM   14  C   UNL     1     -10.879  11.065  65.068  1.00  0.00    -0.194 C  
HETATM   15  C   UNL     1     -10.312  13.414  64.297  1.00  0.00    -0.249 C  
HETATM   16  C   UNL     1     -11.966  13.015  66.094  1.00  0.00    -0.488 C  
ENDBRANCH  12  13
BRANCH  10  17
HETATM   17  C   UNL     1      -7.515  15.044  68.936  1.00  0.00    -0.143 C  
HETATM   18  C   UNL     1      -8.715  15.793  69.553  1.00  0.00    -0.160 C  
HETATM   19  C   UNL     1      -6.560  14.745  70.130  1.00  0.00    -0.145 C  
HETATM   20  C   UNL     1      -6.725  15.977  67.996  1.00  0.00    -0.140 C  
ENDBRANCH  10  17
ENDBRANCH   4   5
ENDBRANCH   2   4
BRANCH   2  21
HETATM   21  S   UNL     1      -9.739   8.513  67.946  1.00  0.00    -0.169 SA 
BRANCH  21  22
HETATM   22  C   UNL     1      -9.100   7.757  66.453  1.00  0.00    -0.175 A  
HETATM   23  C   UNL     1      -9.120   6.383  66.205  1.00  0.00    -0.167 A  
HETATM   24  C   UNL     1      -8.412   8.576  65.570  1.00  0.00    -0.183 A  
HETATM   25  H   UNL     1      -7.122   5.141  63.095  1.00  0.00     0.000 HD 
HETATM   26  O   UNL     1      -7.090   6.082  63.225  1.00  0.00    -0.046 OA 
HETATM   27  C   UNL     1      -7.731   8.076  64.445  1.00  0.00    -0.130 A  
HETATM   28  C   UNL     1      -8.480   5.791  65.108  1.00  0.00    -0.138 A  
HETATM   29  C   UNL     1      -7.778   6.664  64.251  1.00  0.00    -0.109 A  
BRANCH  27  30
HETATM   30  C   UNL     1      -6.934   9.064  63.556  1.00  0.00    -0.089 C  
HETATM   31  C   UNL     1      -6.218   8.373  62.357  1.00  0.00    -0.088 C  
HETATM   32  C   UNL     1      -7.882  10.111  62.938  1.00  0.00    -0.148 C  
HETATM   33  C   UNL     1      -5.803   9.757  64.347  1.00  0.00    -0.092 C  
ENDBRANCH  27  30
BRANCH  28  34
HETATM   34  C   UNL     1      -8.592   4.256  64.880  1.00  0.00    -0.126 C  
HETATM   35  C   UNL     1      -7.239   3.563  64.534  1.00  0.00    -0.062 C  
HETATM   36  C   UNL     1      -9.538   3.917  63.707  1.00  0.00    -0.157 C  
HETATM   37  C   UNL     1      -9.091   3.573  66.171  1.00  0.00    -0.159 C  
ENDBRANCH  28  34
ENDBRANCH  21  22
ENDBRANCH   2  21
TORSDOF 8
ENDMDL
MODEL      275
REMARK 921   NORMALIZED FREE ENERGY PREDICTED BY IDOCK:   -3.01 KCAL/MOL
REMARK 922        TOTAL FREE ENERGY PREDICTED BY IDOCK:   -5.02 KCAL/MOL
REMARK 923 INTER-LIGAND FREE ENERGY PREDICTED BY IDOCK:   -5.47 KCAL/MOL
REMARK 924 INTRA-LIGAND FREE ENERGY PREDICTED BY IDOCK:    0.45 KCAL/MOL
REMARK 927      BINDING AFFINITY PREDICTED BY RF-SCORE:    0.00 PKD
ROOT
HETATM    1  C   UNL     1      -5.360  11.153  66.388  1.00  0.00    -0.130 C  
HETATM    2  C   UNL     1      -6.386  10.421  67.271  1.00  0.00    -0.062 C  
HETATM    3  C   UNL     1      -7.588  10.035  66.393  1.00  0.00    -0.104 C  
ENDROOT
BRANCH   2   4
HETATM    4  S   UNL     1      -6.974  11.583  68.579  1.00  0.00    -0.090 SA 
BRANCH   4   5
HETATM    5  C   UNL     1      -7.612  12.995  67.683  1.00  0.00    -0.160 A  
HETATM    6  C   UNL     1      -8.803  15.235  66.504  1.00  0.00    -0.300 A  
HETATM    7  O   UNL     1      -9.369  16.378  66.016  1.00  0.00    -0.320 OA 
HETATM    8  H   UNL     1      -8.932  17.218  66.091  1.00  0.00     0.000 HD 
HETATM    9  C   UNL     1      -8.832  12.878  67.025  1.00  0.00    -0.208 A  
HETATM   10  C   UNL     1      -7.566  15.399  67.163  1.00  0.00    -0.238 A  
HETATM   11  C   UNL     1      -7.003  14.245  67.711  1.00  0.00    -0.191 A  
HETATM   12  C   UNL     1      -9.458  13.975  66.390  1.00  0.00    -0.278 A  
BRANCH  12  13
HETATM   13  C   UNL     1     -10.807  13.750  65.661  1.00  0.00    -0.287 C  
HETATM   14  C   UNL     1     -10.608  13.638  64.133  1.00  0.00    -0.082 C  
HETATM   15  C   UNL     1     -11.801  14.884  65.992  1.00  0.00    -0.114 C  
HETATM   16  C   UNL     1     -11.518  12.426  66.066  1.00  0.00    -0.431 C  
ENDBRANCH  12  13
BRANCH  10  17
HETATM   17  C   UNL     1      -6.814  16.750  67.295  1.00  0.00    -0.205 C  
HETATM   18  C   UNL     1      -7.613  17.754  68.153  1.00  0.00    -0.250 C  
HETATM   19  C   UNL     1      -5.420  16.643  67.982  1.00  0.00    -0.127 C  
HETATM   20  C   UNL     1      -6.543  17.337  65.895  1.00  0.00     0.043 C  
ENDBRANCH  10  17
ENDBRANCH   4   5
ENDBRANCH   2   4
BRANCH   2  21
HETATM   21  S   UNL     1      -5.603   8.866  67.882  1.00  0.00    -0.035 SA 
BRANCH  21  22
HETATM   22  C   UNL     1      -6.953   7.912  68.573  1.00  0.00    -0.071 A  
HETATM   23  C   UNL     1      -7.827   7.134  67.811  1.00  0.00    -0.114 A  
HETATM   24  C   UNL     1      -7.230   8.087  69.920  1.00  0.00    -0.061 A  
HETATM   25  H   UNL     1     -10.943   5.692  69.660  1.00  0.00     0.000 HD 
HETATM   26  O   UNL     1     -10.370   6.209  70.213  1.00  0.00    -0.191 OA 
HETATM   27  C   UNL     1      -8.357   7.518  70.543  1.00  0.00    -0.131 A  
HETATM   28  C   UNL     1      -8.969   6.519  68.341  1.00  0.00    -0.125 A  
HETATM   29  C   UNL     1      -9.217   6.743  69.712  1.00  0.00    -0.146 A  
BRANCH  27  30
HETATM   30  C   UNL     1      -8.617   7.827  72.040  1.00  0.00    -0.149 C  
HETATM   31  C   UNL     1      -8.812   6.548  72.907  1.00  0.00    -0.127 C  
HETATM   32  C   UNL     1      -7.413   8.574  72.649  1.00  0.00    -0.065 C  
HETATM   33  C   UNL     1      -9.914   8.641  72.236  1.00  0.00    -0.361 C  
ENDBRANCH  27  30
BRANCH  28  34
HETATM   34  C   UNL     1      -9.864   5.629  67.433  1.00  0.00    -0.160 C  
HETATM   35  C   UNL     1     -11.236   6.270  67.066  1.00  0.00    -0.248 C  
HETATM   36  C   UNL     1     -10.207   4.282  68.107  1.00  0.00     0.206 C  
HETATM   37  C   UNL     1      -9.150   5.375  66.087  1.00  0.00    -0.154 C  
ENDBRANCH  28  34
ENDBRANCH  21  22
ENDBRANCH   2  21
TORSDOF 8
ENDMDL
MODEL      276
REMARK 921   NORMALIZED FREE ENERGY PREDICTED BY IDOCK:   -2.90 KCAL/MOL
REMARK 922        TOTAL FREE ENERGY PREDICTED BY IDOCK:   -4.86 KCAL/MOL
REMARK 923 INTER-LIGAND FREE ENERGY PREDICTED BY IDOCK:   -6.79 KCAL/MOL
REMARK 924 INTRA-LIGAND FREE ENERGY PREDICTED BY IDOCK:    1.93 KCAL/MOL
REMARK 927      BINDING AFFINITY PREDICTED BY RF-SCORE:    0.00 PKD
ROOT
HETATM    1  C   UNL     1      -5.939  11.060  67.563  1.00  0.00    -0.046 C  
HETATM    2  C   UNL     1      -6.720  11.811  68.656  1.00  0.00    -0.073 C  
HETATM    3  C   UNL     1      -6.079  11.486  70.015  1.00  0.00    -0.151 C  
ENDROOT
BRANCH   2   4
HETATM    4  S   UNL     1      -8.458  11.190  68.672  1.00  0.00    -0.134 SA 
BRANCH   4   5
HETATM    5  C   UNL     1      -8.318   9.452  69.076  1.00  0.00    -0.124 A  
HETATM    6  C   UNL     1      -8.386   6.711  69.630  1.00  0.00    -0.132 A  
HETATM    7  O   UNL     1      -8.456   5.359  69.806  1.00  0.00    -0.098 OA 
HETATM    8  H   UNL     1      -8.092   4.756  69.167  1.00  0.00     0.000 HD 
HETATM    9  C   UNL     1      -8.899   8.986  70.251  1.00  0.00    -0.210 A  
HETATM   10  C   UNL     1      -7.790   7.139  68.425  1.00  0.00    -0.122 A  
HETATM   11  C   UNL     1      -7.759   8.519  68.210  1.00  0.00    -0.102 A  
HETATM   12  C   UNL     1      -8.931   7.614  70.588  1.00  0.00    -0.153 A  
BRANCH  12  13
HETATM   13  C   UNL     1      -9.579   7.185  71.928  1.00  0.00    -0.161 C  
HETATM   14  C   UNL     1     -10.160   8.400  72.686  1.00  0.00    -0.322 C  
HETATM   15  C   UNL     1      -8.558   6.438  72.812  1.00  0.00    -0.125 C  
HETATM   16  C   UNL     1     -10.784   6.215  71.753  1.00  0.00    -0.289 C  
ENDBRANCH  12  13
BRANCH  10  17
HETATM   17  C   UNL     1      -7.172   6.190  67.364  1.00  0.00    -0.076 C  
HETATM   18  C   UNL     1      -5.657   6.441  67.203  1.00  0.00    -0.012 C  
HETATM   19  C   UNL     1      -7.301   4.675  67.708  1.00  0.00    -0.073 C  
HETATM   20  C   UNL     1      -7.894   6.372  66.014  1.00  0.00    -0.103 C  
ENDBRANCH  10  17
ENDBRANCH   4   5
ENDBRANCH   2   4
BRANCH   2  21
HETATM   21  S   UNL     1      -6.524  13.621  68.353  1.00  0.00    -0.109 SA 
BRANCH  21  22
HETATM   22  C   UNL     1      -8.063  14.127  67.587  1.00  0.00    -0.180 A  
HETATM   23  C   UNL     1      -8.873  13.277  66.830  1.00  0.00    -0.140 A  
HETATM   24  C   UNL     1      -8.379  15.476  67.626  1.00  0.00    -0.167 A  
HETATM   25  H   UNL     1     -11.821  14.943  64.896  1.00  0.00     0.000 HD 
HETATM   26  O   UNL     1     -11.299  15.552  65.404  1.00  0.00    -0.258 OA 
HETATM   27  C   UNL     1      -9.474  16.020  66.930  1.00  0.00    -0.242 A  
HETATM   28  C   UNL     1      -9.990  13.722  66.110  1.00  0.00    -0.318 A  
HETATM   29  C   UNL     1     -10.258  15.106  66.166  1.00  0.00    -0.295 A  
BRANCH  27  30
HETATM   30  C   UNL     1      -9.705  17.552  66.981  1.00  0.00    -0.284 C  
HETATM   31  C   UNL     1     -10.604  17.999  68.172  1.00  0.00    -0.334 C  
HETATM   32  C   UNL     1      -8.363  18.289  67.162  1.00  0.00    -0.250 C  
HETATM   33  C   UNL     1     -10.435  18.061  65.720  1.00  0.00    -0.202 C  
ENDBRANCH  27  30
BRANCH  28  34
HETATM   34  C   UNL     1     -10.867  12.701  65.330  1.00  0.00    -0.318 C  
HETATM   35  C   UNL     1     -10.723  12.789  63.781  1.00  0.00    -0.397 C  
HETATM   36  C   UNL     1     -12.372  12.901  65.615  1.00  0.00    -0.482 C  
HETATM   37  C   UNL     1     -10.449  11.262  65.705  1.00  0.00    -0.310 C  
ENDBRANCH  28  34
ENDBRANCH  21  22
ENDBRANCH   2  21
TORSDOF 8
ENDMDL
MODEL      277
REMARK 921   NORMALIZED FREE ENERGY PREDICTED BY IDOCK:   -2.88 KCAL/MOL
REMARK 922        TOTAL FREE ENERGY PREDICTED BY IDOCK:   -4.82 KCAL/MOL
REMARK 923 INTER-LIGAND FREE ENERGY PREDICTED BY IDOCK:   -5.34 KCAL/MOL
REMARK 924 INTRA-LIGAND FREE ENERGY PREDICTED BY IDOCK:    0.52 KCAL/MOL
REMARK 927      BINDING AFFINITY PREDICTED BY RF-SCORE:    0.00 PKD
ROOT
HETATM    1  C   UNL     1     -10.057   9.302  67.847  1.00  0.00    -0.246 C  
HETATM    2  C   UNL     1      -8.723   9.562  68.570  1.00  0.00    -0.124 C  
HETATM    3  C   UNL     1      -9.033  10.167  69.949  1.00  0.00    -0.103 C  
ENDROOT
BRANCH   2   4
HETATM    4  S   UNL     1      -7.757  10.799  67.598  1.00  0.00    -0.106 SA 
BRANCH   4   5
HETATM    5  C   UNL     1      -8.966  12.006  67.066  1.00  0.00    -0.198 A  
HETATM    6  C   UNL     1     -10.629  14.043  66.112  1.00  0.00    -0.290 A  
HETATM    7  O   UNL     1     -11.401  15.021  65.554  1.00  0.00    -0.347 OA 
HETATM    8  H   UNL     1     -11.904  14.865  64.763  1.00  0.00     0.000 HD 
HETATM    9  C   UNL     1      -9.029  13.229  67.725  1.00  0.00    -0.196 A  
HETATM   10  C   UNL     1     -10.594  12.819  65.411  1.00  0.00    -0.309 A  
HETATM   11  C   UNL     1      -9.768  11.828  65.945  1.00  0.00    -0.259 A  
HETATM   12  C   UNL     1      -9.876  14.278  67.298  1.00  0.00    -0.244 A  
BRANCH  12  13
HETATM   13  C   UNL     1      -9.899  15.600  68.105  1.00  0.00    -0.212 C  
HETATM   14  C   UNL     1      -9.602  16.817  67.198  1.00  0.00    -0.238 C  
HETATM   15  C   UNL     1      -8.894  15.543  69.274  1.00  0.00    -0.256 C  
HETATM   16  C   UNL     1     -11.283  15.912  68.744  1.00  0.00    -0.359 C  
ENDBRANCH  12  13
BRANCH  10  17
HETATM   17  C   UNL     1     -11.411  12.519  64.126  1.00  0.00    -0.449 C  
HETATM   18  C   UNL     1     -10.816  11.325  63.350  1.00  0.00    -0.311 C  
HETATM   19  C   UNL     1     -12.899  12.136  64.387  1.00  0.00    -0.216 C  
HETATM   20  C   UNL     1     -11.457  13.773  63.230  1.00  0.00     0.729 C  
ENDBRANCH  10  17
ENDBRANCH   4   5
ENDBRANCH   2   4
BRANCH   2  21
HETATM   21  S   UNL     1      -7.894   7.934  68.834  1.00  0.00    -0.119 SA 
BRANCH  21  22
HETATM   22  C   UNL     1      -8.029   7.089  67.260  1.00  0.00    -0.111 A  
HETATM   23  C   UNL     1      -8.394   5.747  67.125  1.00  0.00    -0.104 A  
HETATM   24  C   UNL     1      -7.597   7.770  66.133  1.00  0.00    -0.087 A  
HETATM   25  H   UNL     1      -8.011   4.184  63.574  1.00  0.00     0.000 HD 
HETATM   26  O   UNL     1      -7.760   5.098  63.622  1.00  0.00    -0.068 OA 
HETATM   27  C   UNL     1      -7.505   7.163  64.867  1.00  0.00    -0.095 A  
HETATM   28  C   UNL     1      -8.346   5.057  65.907  1.00  0.00    -0.116 A  
HETATM   29  C   UNL     1      -7.881   5.790  64.794  1.00  0.00    -0.114 A  
BRANCH  27  30
HETATM   30  C   UNL     1      -6.946   7.990  63.681  1.00  0.00    -0.076 C  
HETATM   31  C   UNL     1      -7.936   8.095  62.483  1.00  0.00    -0.158 C  
HETATM   32  C   UNL     1      -6.663   9.439  64.127  1.00  0.00    -0.095 C  
HETATM   33  C   UNL     1      -5.673   7.347  63.089  1.00  0.00    -0.045 C  
ENDBRANCH  27  30
BRANCH  28  34
HETATM   34  C   UNL     1      -8.815   3.576  65.835  1.00  0.00    -0.128 C  
HETATM   35  C   UNL     1      -9.102   2.930  67.224  1.00  0.00    -0.202 C  
HETATM   36  C   UNL     1      -7.756   2.669  65.171  1.00  0.00    -0.077 C  
HETATM   37  C   UNL     1     -10.144   3.489  65.053  1.00  0.00    -0.005 C  
ENDBRANCH  28  34
ENDBRANCH  21  22
ENDBRANCH   2  21
TORSDOF 8
ENDMDL
MODEL      278
REMARK 921   NORMALIZED FREE ENERGY PREDICTED BY IDOCK:   -2.87 KCAL/MOL
REMARK 922        TOTAL FREE ENERGY PREDICTED BY IDOCK:   -4.81 KCAL/MOL
REMARK 923 INTER-LIGAND FREE ENERGY PREDICTED BY IDOCK:   -5.29 KCAL/MOL
REMARK 924 INTRA-LIGAND FREE ENERGY PREDICTED BY IDOCK:    0.47 KCAL/MOL
REMARK 927      BINDING AFFINITY PREDICTED BY RF-SCORE:    0.00 PKD
ROOT
HETATM    1  C   UNL     1      -7.874   8.883  68.735  1.00  0.00    -0.101 C  
HETATM    2  C   UNL     1      -8.901   9.624  67.861  1.00  0.00    -0.119 C  
HETATM    3  C   UNL     1      -9.537  10.740  68.706  1.00  0.00    -0.194 C  
ENDROOT
BRANCH   2   4
HETATM    4  S   UNL     1     -10.229   8.437  67.376  1.00  0.00    -0.283 SA 
BRANCH   4   5
HETATM    5  C   UNL     1      -9.355   6.991  66.785  1.00  0.00    -0.156 A  
HETATM    6  C   UNL     1      -8.255   4.608  65.817  1.00  0.00    -0.111 A  
HETATM    7  O   UNL     1      -7.778   3.455  65.261  1.00  0.00    -0.080 OA 
HETATM    8  H   UNL     1      -7.467   3.429  64.364  1.00  0.00     0.000 HD 
HETATM    9  C   UNL     1      -9.293   5.864  67.597  1.00  0.00    -0.107 A  
HETATM   10  C   UNL     1      -8.300   5.726  64.957  1.00  0.00    -0.138 A  
HETATM   11  C   UNL     1      -8.835   6.897  65.499  1.00  0.00     0.020 A  
HETATM   12  C   UNL     1      -8.721   4.647  67.162  1.00  0.00    -0.104 A  
BRANCH  12  13
HETATM   13  C   UNL     1      -8.674   3.447  68.142  1.00  0.00    -0.136 C  
HETATM   14  C   UNL     1      -9.742   3.585  69.250  1.00  0.00    -0.040 C  
HETATM   15  C   UNL     1      -7.269   3.306  68.764  1.00  0.00    -0.049 C  
HETATM   16  C   UNL     1      -8.981   2.080  67.464  1.00  0.00    -0.180 C  
ENDBRANCH  12  13
BRANCH  10  17
HETATM   17  C   UNL     1      -7.790   5.728  63.491  1.00  0.00    -0.106 C  
HETATM   18  C   UNL     1      -8.055   7.087  62.808  1.00  0.00    -0.054 C  
HETATM   19  C   UNL     1      -6.257   5.489  63.347  1.00  0.00    -0.022 C  
HETATM   20  C   UNL     1      -8.464   4.589  62.701  1.00  0.00    -0.098 C  
ENDBRANCH  10  17
ENDBRANCH   4   5
ENDBRANCH   2   4
BRANCH   2  21
HETATM   21  S   UNL     1      -7.993  10.414  66.462  1.00  0.00    -0.128 SA 
BRANCH  21  22
HETATM   22  C   UNL     1      -8.625  12.089  66.392  1.00  0.00    -0.037 A  
HETATM   23  C   UNL     1      -8.111  13.149  67.143  1.00  0.00    -0.107 A  
HETATM   24  C   UNL     1      -9.787  12.300  65.666  1.00  0.00    -0.247 A  
HETATM   25  H   UNL     1     -10.148  16.473  67.095  1.00  0.00     0.000 HD 
HETATM   26  O   UNL     1     -10.527  15.780  66.567  1.00  0.00    -0.293 OA 
HETATM   27  C   UNL     1     -10.467  13.532  65.662  1.00  0.00    -0.296 A  
HETATM   28  C   UNL     1      -8.710  14.414  67.196  1.00  0.00    -0.243 A  
HETATM   29  C   UNL     1      -9.900  14.572  66.455  1.00  0.00    -0.290 A  
BRANCH  27  30
HETATM   30  C   UNL     1     -11.795  13.648  64.871  1.00  0.00    -0.398 C  
HETATM   31  C   UNL     1     -12.204  12.326  64.156  1.00  0.00    -0.539 C  
HETATM   32  C   UNL     1     -12.957  13.991  65.826  1.00  0.00    -0.297 C  
HETATM   33  C   UNL     1     -11.696  14.696  63.742  1.00  0.00     0.360 C  
ENDBRANCH  27  30
BRANCH  28  34
HETATM   34  C   UNL     1      -8.044  15.554  68.020  1.00  0.00    -0.140 C  
HETATM   35  C   UNL     1      -9.009  16.269  69.013  1.00  0.00    -0.254 C  
HETATM   36  C   UNL     1      -7.490  16.672  67.109  1.00  0.00    -0.218 C  
HETATM   37  C   UNL     1      -6.908  14.973  68.889  1.00  0.00    -0.103 C  
ENDBRANCH  28  34
ENDBRANCH  21  22
ENDBRANCH   2  21
TORSDOF 8
ENDMDL
MODEL      279
REMARK 921   NORMALIZED FREE ENERGY PREDICTED BY IDOCK:   -2.85 KCAL/MOL
REMARK 922        TOTAL FREE ENERGY PREDICTED BY IDOCK:   -4.78 KCAL/MOL
REMARK 923 INTER-LIGAND FREE ENERGY PREDICTED BY IDOCK:   -5.52 KCAL/MOL
REMARK 924 INTRA-LIGAND FREE ENERGY PREDICTED BY IDOCK:    0.74 KCAL/MOL
REMARK 927      BINDING AFFINITY PREDICTED BY RF-SCORE:    0.00 PKD
ROOT
HETATM    1  C   UNL     1      -8.606   9.588  70.329  1.00  0.00    -0.258 C  
HETATM    2  C   UNL     1      -8.188   8.725  69.125  1.00  0.00    -0.119 C  
HETATM    3  C   UNL     1      -7.382   7.526  69.649  1.00  0.00    -0.090 C  
ENDROOT
BRANCH   2   4
HETATM    4  S   UNL     1      -7.088   9.729  68.033  1.00  0.00    -0.079 SA 
BRANCH   4   5
HETATM    5  C   UNL     1      -7.851  11.348  67.982  1.00  0.00    -0.121 A  
HETATM    6  C   UNL     1      -9.093  13.845  68.195  1.00  0.00    -0.193 A  
HETATM    7  O   UNL     1      -9.633  15.087  68.374  1.00  0.00    -0.200 OA 
HETATM    8  H   UNL     1      -9.088  15.864  68.413  1.00  0.00     0.000 HD 
HETATM    9  C   UNL     1      -9.237  11.440  68.057  1.00  0.00    -0.171 A  
HETATM   10  C   UNL     1      -7.684  13.798  68.124  1.00  0.00    -0.140 A  
HETATM   11  C   UNL     1      -7.117  12.528  67.993  1.00  0.00    -0.103 A  
HETATM   12  C   UNL     1      -9.910  12.680  68.136  1.00  0.00    -0.226 A  
BRANCH  12  13
HETATM   13  C   UNL     1     -11.459  12.692  68.194  1.00  0.00    -0.359 C  
HETATM   14  C   UNL     1     -12.021  11.277  68.464  1.00  0.00    -0.288 C  
HETATM   15  C   UNL     1     -12.048  13.265  66.889  1.00  0.00    -0.389 C  
HETATM   16  C   UNL     1     -12.030  13.571  69.345  1.00  0.00    -0.383 C  
ENDBRANCH  12  13
BRANCH  10  17
HETATM   17  C   UNL     1      -6.760  15.044  68.169  1.00  0.00    -0.134 C  
HETATM   18  C   UNL     1      -5.272  14.641  68.084  1.00  0.00    -0.119 C  
HETATM   19  C   UNL     1      -6.980  16.047  66.997  1.00  0.00    -0.209 C  
HETATM   20  C   UNL     1      -7.026  15.847  69.458  1.00  0.00    -0.189 C  
ENDBRANCH  10  17
ENDBRANCH   4   5
ENDBRANCH   2   4
BRANCH   2  21
HETATM   21  S   UNL     1      -9.722   8.078  68.329  1.00  0.00    -0.169 SA 
BRANCH  21  22
HETATM   22  C   UNL     1      -9.168   6.720  67.301  1.00  0.00    -0.133 A  
HETATM   23  C   UNL     1      -9.073   5.398  67.741  1.00  0.00    -0.111 A  
HETATM   24  C   UNL     1      -8.663   7.035  66.049  1.00  0.00    -0.156 A  
HETATM   25  H   UNL     1      -7.294   2.886  65.348  1.00  0.00     0.000 HD 
HETATM   26  O   UNL     1      -7.344   3.772  65.009  1.00  0.00    -0.066 OA 
HETATM   27  C   UNL     1      -8.055   6.081  65.213  1.00  0.00    -0.134 A  
HETATM   28  C   UNL     1      -8.494   4.375  66.979  1.00  0.00    -0.104 A  
HETATM   29  C   UNL     1      -7.978   4.750  65.721  1.00  0.00    -0.102 A  
BRANCH  27  30
HETATM   30  C   UNL     1      -7.460   6.545  63.859  1.00  0.00    -0.085 C  
HETATM   31  C   UNL     1      -5.927   6.292  63.742  1.00  0.00    -0.022 C  
HETATM   32  C   UNL     1      -8.109   5.769  62.695  1.00  0.00    -0.108 C  
HETATM   33  C   UNL     1      -7.627   8.067  63.656  1.00  0.00    -0.129 C  
ENDBRANCH  27  30
BRANCH  28  34
HETATM   34  C   UNL     1      -8.472   2.918  67.524  1.00  0.00    -0.102 C  
HETATM   35  C   UNL     1      -9.080   1.863  66.551  1.00  0.00    -0.054 C  
HETATM   36  C   UNL     1      -9.281   2.782  68.834  1.00  0.00    -0.224 C  
HETATM   37  C   UNL     1      -7.012   2.473  67.761  1.00  0.00    -0.048 C  
ENDBRANCH  28  34
ENDBRANCH  21  22
ENDBRANCH   2  21
TORSDOF 8
ENDMDL
MODEL      280
REMARK 921   NORMALIZED FREE ENERGY PREDICTED BY IDOCK:   -2.85 KCAL/MOL
REMARK 922        TOTAL FREE ENERGY PREDICTED BY IDOCK:   -4.78 KCAL/MOL
REMARK 923 INTER-LIGAND FREE ENERGY PREDICTED BY IDOCK:   -6.05 KCAL/MOL
REMARK 924 INTRA-LIGAND FREE ENERGY PREDICTED BY IDOCK:    1.28 KCAL/MOL
REMARK 927      BINDING AFFINITY PREDICTED BY RF-SCORE:    0.00 PKD
ROOT
HETATM    1  C   UNL     1      -7.274  12.885  69.747  1.00  0.00     0.669 C  
HETATM    2  C   UNL     1      -7.467  11.651  68.847  1.00  0.00    -0.092 C  
HETATM    3  C   UNL     1      -6.977  10.413  69.616  1.00  0.00    -0.127 C  
ENDROOT
BRANCH   2   4
HETATM    4  S   UNL     1      -6.418  11.849  67.341  1.00  0.00    -0.141 SA 
BRANCH   4   5
HETATM    5  C   UNL     1      -7.497  11.428  65.976  1.00  0.00     0.207 A  
HETATM    6  C   UNL     1      -9.280  10.545  64.010  1.00  0.00    -0.253 A  
HETATM    7  O   UNL     1     -10.224  10.117  63.121  1.00  0.00    -0.432 OA 
HETATM    8  H   UNL     1     -11.051  10.574  63.018  1.00  0.00     0.000 HD 
HETATM    9  C   UNL     1      -7.185  10.326  65.187  1.00  0.00    -0.125 A  
HETATM   10  C   UNL     1      -9.638  11.666  64.788  1.00  0.00    -0.156 A  
HETATM   11  C   UNL     1      -8.701  12.081  65.737  1.00  0.00     0.280 A  
HETATM   12  C   UNL     1      -8.040   9.860  64.163  1.00  0.00    -0.152 A  
BRANCH  12  13
HETATM   13  C   UNL     1      -7.603   8.637  63.318  1.00  0.00    -0.116 C  
HETATM   14  C   UNL     1      -8.731   8.183  62.363  1.00  0.00     0.063 C  
HETATM   15  C   UNL     1      -7.170   7.471  64.231  1.00  0.00    -0.079 C  
HETATM   16  C   UNL     1      -6.390   8.927  62.388  1.00  0.00    -0.095 C  
ENDBRANCH  12  13
BRANCH  10  17
HETATM   17  C   UNL     1     -10.971  12.448  64.641  1.00  0.00    -0.344 C  
HETATM   18  C   UNL     1     -10.719  13.965  64.518  1.00  0.00    -0.382 C  
HETATM   19  C   UNL     1     -11.802  12.066  63.379  1.00  0.00    -0.542 C  
HETATM   20  C   UNL     1     -11.887  12.152  65.846  1.00  0.00    -0.342 C  
ENDBRANCH  10  17
ENDBRANCH   4   5
ENDBRANCH   2   4
BRANCH   2  21
HETATM   21  S   UNL     1      -9.275  11.451  68.536  1.00  0.00    -0.148 SA 
BRANCH  21  22
HETATM   22  C   UNL     1      -9.966  13.087  68.772  1.00  0.00    -0.010 A  
HETATM   23  C   UNL     1      -9.486  14.234  68.137  1.00  0.00    -0.204 A  
HETATM   24  C   UNL     1     -10.928  13.234  69.759  1.00  0.00     0.207 A  
HETATM   25  H   UNL     1     -10.920  17.642  69.375  1.00  0.00     0.000 HD 
HETATM   26  O   UNL     1     -11.276  16.886  69.826  1.00  0.00    -0.041 OA 
HETATM   27  C   UNL     1     -11.433  14.489  70.147  1.00  0.00    -0.297 A  
HETATM   28  C   UNL     1      -9.931  15.526  68.446  1.00  0.00    -0.214 A  
HETATM   29  C   UNL     1     -10.898  15.624  69.470  1.00  0.00    -0.271 A  
BRANCH  27  30
HETATM   30  C   UNL     1     -12.458  14.555  71.307  1.00  0.00    -0.416 C  
HETATM   31  C   UNL     1     -12.914  13.151  71.806  1.00  0.00    -0.435 C  
HETATM   32  C   UNL     1     -11.837  15.259  72.530  1.00  0.00    -0.532 C  
HETATM   33  C   UNL     1     -13.760  15.264  70.877  1.00  0.00    -0.363 C  
ENDBRANCH  27  30
BRANCH  28  34
HETATM   34  C   UNL     1      -9.379  16.747  67.657  1.00  0.00    -0.228 C  
HETATM   35  C   UNL     1      -8.526  17.729  68.515  1.00  0.00    -0.296 C  
HETATM   36  C   UNL     1     -10.515  17.607  67.059  1.00  0.00    -0.305 C  
HETATM   37  C   UNL     1      -8.443  16.259  66.530  1.00  0.00    -0.338 C  
ENDBRANCH  28  34
ENDBRANCH  21  22
ENDBRANCH   2  21
TORSDOF 8
ENDMDL
MODEL      281
REMARK 921   NORMALIZED FREE ENERGY PREDICTED BY IDOCK:   -2.84 KCAL/MOL
REMARK 922        TOTAL FREE ENERGY PREDICTED BY IDOCK:   -4.76 KCAL/MOL
REMARK 923 INTER-LIGAND FREE ENERGY PREDICTED BY IDOCK:   -6.45 KCAL/MOL
REMARK 924 INTRA-LIGAND FREE ENERGY PREDICTED BY IDOCK:    1.69 KCAL/MOL
REMARK 927      BINDING AFFINITY PREDICTED BY RF-SCORE:    0.00 PKD
ROOT
HETATM    1  C   UNL     1     -10.413  13.698  65.892  1.00  0.00    -0.297 C  
HETATM    2  C   UNL     1     -11.158  12.383  66.177  1.00  0.00    -0.302 C  
HETATM    3  C   UNL     1     -12.666  12.642  66.031  1.00  0.00     0.580 C  
ENDROOT
BRANCH   2   4
HETATM    4  S   UNL     1     -10.823  11.880  67.922  1.00  0.00    -0.226 SA 
BRANCH   4   5
HETATM    5  C   UNL     1     -10.969  13.393  68.868  1.00  0.00    -0.248 A  
HETATM    6  C   UNL     1     -11.405  15.840  70.150  1.00  0.00    -0.355 A  
HETATM    7  O   UNL     1     -11.717  17.012  70.779  1.00  0.00     0.073 OA 
HETATM    8  H   UNL     1     -12.255  17.026  71.562  1.00  0.00     0.000 HD 
HETATM    9  C   UNL     1     -10.428  14.565  68.349  1.00  0.00    -0.246 A  
HETATM   10  C   UNL     1     -11.974  14.677  70.710  1.00  0.00    -0.380 A  
HETATM   11  C   UNL     1     -11.704  13.479  70.045  1.00  0.00    -0.311 A  
HETATM   12  C   UNL     1     -10.597  15.820  68.977  1.00  0.00    -0.232 A  
BRANCH  12  13
HETATM   13  C   UNL     1      -9.941  17.072  68.341  1.00  0.00    -0.289 C  
HETATM   14  C   UNL     1     -10.587  17.413  66.978  1.00  0.00    -0.238 C  
HETATM   15  C   UNL     1      -8.421  16.867  68.179  1.00  0.00    -0.217 C  
HETATM   16  C   UNL     1     -10.112  18.362  69.194  1.00  0.00    -0.174 C  
ENDBRANCH  12  13
BRANCH  10  17
HETATM   17  C   UNL     1     -12.846  14.656  71.994  1.00  0.00    -0.403 C  
HETATM   18  C   UNL     1     -13.324  13.226  72.322  1.00  0.00    -0.630 C  
HETATM   19  C   UNL     1     -12.109  15.146  73.276  1.00  0.00    -0.511 C  
HETATM   20  C   UNL     1     -14.052  15.600  71.822  1.00  0.00    -0.431 C  
ENDBRANCH  10  17
ENDBRANCH   4   5
ENDBRANCH   2   4
BRANCH   2  21
HETATM   21  S   UNL     1     -10.663  11.158  64.888  1.00  0.00    -0.199 SA 
BRANCH  21  22
HETATM   22  C   UNL     1      -9.687   9.937  65.765  1.00  0.00    -0.266 A  
HETATM   23  C   UNL     1     -10.166   8.680  66.140  1.00  0.00     0.028 A  
HETATM   24  C   UNL     1      -8.441  10.332  66.227  1.00  0.00    -0.138 A  
HETATM   25  H   UNL     1      -7.891   6.582  68.512  1.00  0.00     0.000 HD 
HETATM   26  O   UNL     1      -7.527   7.427  68.275  1.00  0.00    -0.103 OA 
HETATM   27  C   UNL     1      -7.648   9.521  67.060  1.00  0.00    -0.091 A  
HETATM   28  C   UNL     1      -9.448   7.797  66.957  1.00  0.00    -0.210 A  
HETATM   29  C   UNL     1      -8.194   8.253  67.416  1.00  0.00    -0.121 A  
BRANCH  27  30
HETATM   30  C   UNL     1      -6.298  10.079  67.579  1.00  0.00    -0.059 C  
HETATM   31  C   UNL     1      -5.166   9.010  67.622  1.00  0.00    -0.034 C  
HETATM   32  C   UNL     1      -5.790  11.199  66.649  1.00  0.00    -0.123 C  
HETATM   33  C   UNL     1      -6.415  10.592  69.030  1.00  0.00    -0.054 C  
ENDBRANCH  27  30
BRANCH  28  34
HETATM   34  C   UNL     1     -10.034   6.395  67.288  1.00  0.00    -0.184 C  
HETATM   35  C   UNL     1      -9.032   5.220  67.077  1.00  0.00    -0.112 C  
HETATM   36  C   UNL     1     -11.253   6.058  66.401  1.00  0.00     0.335 C  
HETATM   37  C   UNL     1     -10.436   6.336  68.777  1.00  0.00    -0.279 C  
ENDBRANCH  28  34
ENDBRANCH  21  22
ENDBRANCH   2  21
TORSDOF 8
ENDMDL
MODEL      282
REMARK 921   NORMALIZED FREE ENERGY PREDICTED BY IDOCK:   -2.82 KCAL/MOL
REMARK 922        TOTAL FREE ENERGY PREDICTED BY IDOCK:   -4.74 KCAL/MOL
REMARK 923 INTER-LIGAND FREE ENERGY PREDICTED BY IDOCK:   -5.35 KCAL/MOL
REMARK 924 INTRA-LIGAND FREE ENERGY PREDICTED BY IDOCK:    0.61 KCAL/MOL
REMARK 927      BINDING AFFINITY PREDICTED BY RF-SCORE:    0.00 PKD
ROOT
HETATM    1  C   UNL     1     -10.237  17.358  68.757  1.00  0.00    -0.361 C  
HETATM    2  C   UNL     1      -8.790  16.961  68.416  1.00  0.00    -0.244 C  
HETATM    3  C   UNL     1      -7.863  18.116  68.829  1.00  0.00    -0.268 C  
ENDROOT
BRANCH   2   4
HETATM    4  S   UNL     1      -8.654  16.735  66.589  1.00  0.00    -0.278 SA 
BRANCH   4   5
HETATM    5  C   UNL     1      -9.087  15.020  66.309  1.00  0.00    -0.253 A  
HETATM    6  C   UNL     1      -9.654  12.375  65.596  1.00  0.00    -0.109 A  
HETATM    7  O   UNL     1      -9.833  11.075  65.220  1.00  0.00    -0.228 OA 
HETATM    8  H   UNL     1      -9.246  10.388  65.515  1.00  0.00     0.000 HD 
HETATM    9  C   UNL     1     -10.191  14.727  65.516  1.00  0.00    -0.400 A  
HETATM   10  C   UNL     1      -8.522  12.628  66.400  1.00  0.00     0.230 A  
HETATM   11  C   UNL     1      -8.300  13.962  66.748  1.00  0.00     0.081 A  
HETATM   12  C   UNL     1     -10.534  13.404  65.154  1.00  0.00    -0.358 A  
BRANCH  12  13
HETATM   13  C   UNL     1     -11.795  13.166  64.285  1.00  0.00    -0.462 C  
HETATM   14  C   UNL     1     -11.459  12.340  63.023  1.00  0.00    -0.056 C  
HETATM   15  C   UNL     1     -12.447  14.509  63.892  1.00  0.00     0.048 C  
HETATM   16  C   UNL     1     -12.903  12.349  65.010  1.00  0.00     0.019 C  
ENDBRANCH  12  13
BRANCH  10  17
HETATM   17  C   UNL     1      -7.548  11.534  66.914  1.00  0.00    -0.151 C  
HETATM   18  C   UNL     1      -8.317  10.322  67.481  1.00  0.00    -0.114 C  
HETATM   19  C   UNL     1      -6.608  10.946  65.819  1.00  0.00    -0.005 C  
HETATM   20  C   UNL     1      -6.614  12.128  67.988  1.00  0.00    -0.069 C  
ENDBRANCH  10  17
ENDBRANCH   4   5
ENDBRANCH   2   4
BRANCH   2  21
HETATM   21  S   UNL     1      -8.350  15.486  69.435  1.00  0.00    -0.212 SA 
BRANCH  21  22
HETATM   22  C   UNL     1      -9.918  14.853  70.027  1.00  0.00     0.173 A  
HETATM   23  C   UNL     1     -10.668  15.453  71.041  1.00  0.00    -0.081 A  
HETATM   24  C   UNL     1     -10.323  13.615  69.552  1.00  0.00     0.406 A  
HETATM   25  H   UNL     1     -13.717  13.429  72.386  1.00  0.00     0.000 HD 
HETATM   26  O   UNL     1     -13.238  12.991  71.693  1.00  0.00    -0.386 OA 
HETATM   27  C   UNL     1     -11.452  12.941  70.055  1.00  0.00    -0.082 A  
HETATM   28  C   UNL     1     -11.811  14.866  71.600  1.00  0.00    -0.429 A  
HETATM   29  C   UNL     1     -12.171  13.598  71.096  1.00  0.00    -0.239 A  
BRANCH  27  30
HETATM   30  C   UNL     1     -11.784  11.530  69.507  1.00  0.00    -0.413 C  
HETATM   31  C   UNL     1     -10.826  10.422  70.036  1.00  0.00    -0.348 C  
HETATM   32  C   UNL     1     -13.203  11.108  69.941  1.00  0.00     0.704 C  
HETATM   33  C   UNL     1     -11.649  11.470  67.970  1.00  0.00    -0.370 C  
ENDBRANCH  27  30
BRANCH  28  34
HETATM   34  C   UNL     1     -12.616  15.625  72.693  1.00  0.00    -0.532 C  
HETATM   35  C   UNL     1     -12.133  17.085  72.943  1.00  0.00     0.407 C  
HETATM   36  C   UNL     1     -12.524  14.923  74.066  1.00  0.00    -0.516 C  
HETATM   37  C   UNL     1     -14.094  15.744  72.263  1.00  0.00    -0.453 C  
ENDBRANCH  28  34
ENDBRANCH  21  22
ENDBRANCH   2  21
TORSDOF 8
ENDMDL
MODEL      283
REMARK 921   NORMALIZED FREE ENERGY PREDICTED BY IDOCK:   -2.77 KCAL/MOL
REMARK 922        TOTAL FREE ENERGY PREDICTED BY IDOCK:   -4.66 KCAL/MOL
REMARK 923 INTER-LIGAND FREE ENERGY PREDICTED BY IDOCK:   -5.06 KCAL/MOL
REMARK 924 INTRA-LIGAND FREE ENERGY PREDICTED BY IDOCK:    0.39 KCAL/MOL
REMARK 927      BINDING AFFINITY PREDICTED BY RF-SCORE:    0.00 PKD
ROOT
HETATM    1  C   UNL     1     -12.482   6.941  71.903  1.00  0.00    -0.350 C  
HETATM    2  C   UNL     1     -11.549   7.608  70.877  1.00  0.00    -0.280 C  
HETATM    3  C   UNL     1     -11.727   6.892  69.528  1.00  0.00    -0.008 C  
ENDROOT
BRANCH   2   4
HETATM    4  S   UNL     1      -9.802   7.377  71.430  1.00  0.00    -0.184 SA 
BRANCH   4   5
HETATM    5  C   UNL     1      -9.120   6.174  70.293  1.00  0.00    -0.153 A  
HETATM    6  C   UNL     1      -8.332   4.250  68.421  1.00  0.00    -0.092 A  
HETATM    7  O   UNL     1      -7.998   3.365  67.436  1.00  0.00    -0.080 OA 
HETATM    8  H   UNL     1      -7.622   3.658  66.614  1.00  0.00     0.000 HD 
HETATM    9  C   UNL     1      -9.302   4.821  70.556  1.00  0.00    -0.219 A  
HETATM   10  C   UNL     1      -8.131   5.612  68.111  1.00  0.00    -0.097 A  
HETATM   11  C   UNL     1      -8.518   6.529  69.091  1.00  0.00    -0.126 A  
HETATM   12  C   UNL     1      -8.895   3.812  69.654  1.00  0.00    -0.148 A  
BRANCH  12  13
HETATM   13  C   UNL     1      -9.117   2.327  70.038  1.00  0.00    -0.176 C  
HETATM   14  C   UNL     1     -10.113   2.194  71.213  1.00  0.00     0.081 C  
HETATM   15  C   UNL     1      -7.777   1.649  70.390  1.00  0.00    -0.035 C  
HETATM   16  C   UNL     1      -9.740   1.477  68.893  1.00  0.00    -0.081 C  
ENDBRANCH  12  13
BRANCH  10  17
HETATM   17  C   UNL     1      -7.508   6.129  66.787  1.00  0.00    -0.087 C  
HETATM   18  C   UNL     1      -7.789   7.633  66.586  1.00  0.00    -0.106 C  
HETATM   19  C   UNL     1      -5.957   5.989  66.711  1.00  0.00    -0.021 C  
HETATM   20  C   UNL     1      -8.057   5.316  65.598  1.00  0.00    -0.117 C  
ENDBRANCH  10  17
ENDBRANCH   4   5
ENDBRANCH   2   4
BRANCH   2  21
HETATM   21  S   UNL     1     -12.091   9.360  70.669  1.00  0.00    -0.056 SA 
BRANCH  21  22
HETATM   22  C   UNL     1     -10.829  10.113  69.644  1.00  0.00    -0.263 A  
HETATM   23  C   UNL     1     -11.082  10.693  68.399  1.00  0.00    -0.328 A  
HETATM   24  C   UNL     1      -9.512   9.969  70.049  1.00  0.00    -0.184 A  
HETATM   25  H   UNL     1      -7.966  11.698  66.280  1.00  0.00     0.000 HD 
HETATM   26  O   UNL     1      -7.753  11.314  67.122  1.00  0.00    -0.132 OA 
HETATM   27  C   UNL     1      -8.424  10.376  69.255  1.00  0.00    -0.162 A  
HETATM   28  C   UNL     1     -10.068  11.138  67.540  1.00  0.00    -0.210 A  
HETATM   29  C   UNL     1      -8.744  10.952  67.990  1.00  0.00    -0.132 A  
BRANCH  27  30
HETATM   30  C   UNL     1      -6.985  10.111  69.766  1.00  0.00    -0.118 C  
HETATM   31  C   UNL     1      -6.041   9.531  68.672  1.00  0.00    -0.043 C  
HETATM   32  C   UNL     1      -6.334  11.427  70.236  1.00  0.00    -0.043 C  
HETATM   33  C   UNL     1      -6.969   9.064  70.900  1.00  0.00    -0.093 C  
ENDBRANCH  27  30
BRANCH  28  34
HETATM   34  C   UNL     1     -10.437  11.817  66.190  1.00  0.00    -0.284 C  
HETATM   35  C   UNL     1     -10.232  10.907  64.942  1.00  0.00    -0.381 C  
HETATM   36  C   UNL     1      -9.580  13.075  65.926  1.00  0.00    -0.126 C  
HETATM   37  C   UNL     1     -11.935  12.193  66.189  1.00  0.00    -0.225 C  
ENDBRANCH  28  34
ENDBRANCH  21  22
ENDBRANCH   2  21
TORSDOF 8
ENDMDL
MODEL      284
REMARK 921   NORMALIZED FREE ENERGY PREDICTED BY IDOCK:   -2.72 KCAL/MOL
REMARK 922        TOTAL FREE ENERGY PREDICTED BY IDOCK:   -4.59 KCAL/MOL
REMARK 923 INTER-LIGAND FREE ENERGY PREDICTED BY IDOCK:   -4.71 KCAL/MOL
REMARK 924 INTRA-LIGAND FREE ENERGY PREDICTED BY IDOCK:    0.12 KCAL/MOL
REMARK 927      BINDING AFFINITY PREDICTED BY RF-SCORE:    0.00 PKD
ROOT
HETATM    1  C   UNL     1      -7.834  10.985  67.378  1.00  0.00    -0.118 C  
HETATM    2  C   UNL     1      -7.681   9.505  67.771  1.00  0.00    -0.088 C  
HETATM    3  C   UNL     1      -6.399   8.963  67.118  1.00  0.00    -0.060 C  
ENDROOT
BRANCH   2   4
HETATM    4  S   UNL     1      -9.118   8.563  67.094  1.00  0.00    -0.144 SA 
BRANCH   4   5
HETATM    5  C   UNL     1      -8.435   6.982  66.603  1.00  0.00    -0.121 A  
HETATM    6  C   UNL     1      -7.625   4.391  65.929  1.00  0.00    -0.089 A  
HETATM    7  O   UNL     1      -7.315   3.117  65.547  1.00  0.00    -0.069 OA 
HETATM    8  H   UNL     1      -7.364   2.847  64.637  1.00  0.00     0.000 HD 
HETATM    9  C   UNL     1      -7.998   6.104  67.588  1.00  0.00    -0.106 A  
HETATM   10  C   UNL     1      -8.064   5.248  64.898  1.00  0.00    -0.122 A  
HETATM   11  C   UNL     1      -8.432   6.538  65.285  1.00  0.00    -0.091 A  
HETATM   12  C   UNL     1      -7.552   4.795  67.293  1.00  0.00    -0.086 A  
BRANCH  12  13
HETATM   13  C   UNL     1      -7.060   3.891  68.452  1.00  0.00    -0.051 C  
HETATM   14  C   UNL     1      -8.081   2.772  68.762  1.00  0.00    -0.069 C  
HETATM   15  C   UNL     1      -6.779   4.729  69.716  1.00  0.00    -0.040 C  
HETATM   16  C   UNL     1      -5.735   3.139  68.133  1.00  0.00    -0.019 C  
ENDBRANCH  12  13
BRANCH  10  17
HETATM   17  C   UNL     1      -8.143   4.851  63.400  1.00  0.00    -0.100 C  
HETATM   18  C   UNL     1      -8.297   6.094  62.498  1.00  0.00    -0.034 C  
HETATM   19  C   UNL     1      -6.879   4.112  62.865  1.00  0.00    -0.035 C  
HETATM   20  C   UNL     1      -9.318   3.877  63.178  1.00  0.00    -0.120 C  
ENDBRANCH  10  17
ENDBRANCH   4   5
ENDBRANCH   2   4
BRANCH   2  21
HETATM   21  S   UNL     1      -7.468   9.422  69.602  1.00  0.00    -0.095 SA 
BRANCH  21  22
HETATM   22  C   UNL     1      -9.028   8.790  70.218  1.00  0.00    -0.161 A  
HETATM   23  C   UNL     1     -10.196   9.551  70.307  1.00  0.00    -0.312 A  
HETATM   24  C   UNL     1      -9.024   7.522  70.778  1.00  0.00    -0.149 A  
HETATM   25  H   UNL     1     -13.186   7.941  72.223  1.00  0.00     0.000 HD 
HETATM   26  O   UNL     1     -12.413   7.390  72.178  1.00  0.00    -0.265 OA 
HETATM   27  C   UNL     1     -10.143   6.978  71.434  1.00  0.00    -0.197 A  
HETATM   28  C   UNL     1     -11.364   9.095  70.932  1.00  0.00    -0.359 A  
HETATM   29  C   UNL     1     -11.302   7.806  71.502  1.00  0.00    -0.255 A  
BRANCH  27  30
HETATM   30  C   UNL     1     -10.018   5.578  72.087  1.00  0.00    -0.219 C  
HETATM   31  C   UNL     1     -10.025   4.414  71.052  1.00  0.00    -0.242 C  
HETATM   32  C   UNL     1      -8.683   5.461  72.849  1.00  0.00    -0.118 C  
HETATM   33  C   UNL     1     -11.206   5.280  73.027  1.00  0.00    -0.387 C  
ENDBRANCH  27  30
BRANCH  28  34
HETATM   34  C   UNL     1     -12.637   9.988  70.944  1.00  0.00    -0.424 C  
HETATM   35  C   UNL     1     -12.852  10.772  72.274  1.00  0.00     0.031 C  
HETATM   36  C   UNL     1     -13.924   9.157  70.746  1.00  0.00     0.297 C  
HETATM   37  C   UNL     1     -12.531  11.062  69.840  1.00  0.00    -0.286 C  
ENDBRANCH  28  34
ENDBRANCH  21  22
ENDBRANCH   2  21
TORSDOF 8
ENDMDL
MODEL      285
REMARK 921   NORMALIZED FREE ENERGY PREDICTED BY IDOCK:   -2.72 KCAL/MOL
REMARK 922        TOTAL FREE ENERGY PREDICTED BY IDOCK:   -4.59 KCAL/MOL
REMARK 923 INTER-LIGAND FREE ENERGY PREDICTED BY IDOCK:   -6.45 KCAL/MOL
REMARK 924 INTRA-LIGAND FREE ENERGY PREDICTED BY IDOCK:    1.86 KCAL/MOL
REMARK 927      BINDING AFFINITY PREDICTED BY RF-SCORE:    0.00 PKD
ROOT
HETATM    1  C   UNL     1     -10.691  11.148  68.649  1.00  0.00    -0.234 C  
HETATM    2  C   UNL     1      -9.722  10.145  67.997  1.00  0.00    -0.142 C  
HETATM    3  C   UNL     1     -10.444   9.477  66.815  1.00  0.00    -0.263 C  
ENDROOT
BRANCH   2   4
HETATM    4  S   UNL     1      -9.305   8.839  69.233  1.00  0.00    -0.150 SA 
BRANCH   4   5
HETATM    5  C   UNL     1      -8.469   7.568  68.289  1.00  0.00    -0.125 A  
HETATM    6  C   UNL     1      -7.434   5.474  66.750  1.00  0.00    -0.087 A  
HETATM    7  O   UNL     1      -6.989   4.483  65.923  1.00  0.00    -0.060 OA 
HETATM    8  H   UNL     1      -6.704   4.668  65.036  1.00  0.00     0.000 HD 
HETATM    9  C   UNL     1      -8.401   6.280  68.809  1.00  0.00    -0.120 A  
HETATM   10  C   UNL     1      -7.486   6.765  66.182  1.00  0.00    -0.081 A  
HETATM   11  C   UNL     1      -7.987   7.778  67.003  1.00  0.00    -0.116 A  
HETATM   12  C   UNL     1      -7.860   5.196  68.080  1.00  0.00    -0.087 A  
BRANCH  12  13
HETATM   13  C   UNL     1      -7.804   3.797  68.745  1.00  0.00    -0.055 C  
HETATM   14  C   UNL     1      -6.384   3.481  69.269  1.00  0.00    -0.029 C  
HETATM   15  C   UNL     1      -8.269   2.706  67.758  1.00  0.00    -0.080 C  
HETATM   16  C   UNL     1      -8.724   3.666  69.994  1.00  0.00    -0.122 C  
ENDBRANCH  12  13
BRANCH  10  17
HETATM   17  C   UNL     1      -7.017   7.112  64.744  1.00  0.00    -0.051 C  
HETATM   18  C   UNL     1      -5.490   6.938  64.596  1.00  0.00    -0.031 C  
HETATM   19  C   UNL     1      -7.641   6.214  63.633  1.00  0.00    -0.082 C  
HETATM   20  C   UNL     1      -7.430   8.555  64.392  1.00  0.00    -0.110 C  
ENDBRANCH  10  17
ENDBRANCH   4   5
ENDBRANCH   2   4
BRANCH   2  21
HETATM   21  S   UNL     1      -8.288  11.093  67.328  1.00  0.00    -0.139 SA 
BRANCH  21  22
HETATM   22  C   UNL     1      -8.964  12.688  66.869  1.00  0.00    -0.213 A  
HETATM   23  C   UNL     1     -10.081  12.852  66.046  1.00  0.00    -0.290 A  
HETATM   24  C   UNL     1      -8.240  13.813  67.230  1.00  0.00    -0.173 A  
HETATM   25  H   UNL     1     -10.854  16.486  64.862  1.00  0.00     0.000 HD 
HETATM   26  O   UNL     1     -10.092  16.417  65.425  1.00  0.00    -0.543 OA 
HETATM   27  C   UNL     1      -8.582  15.107  66.796  1.00  0.00    -0.297 A  
HETATM   28  C   UNL     1     -10.506  14.099  65.570  1.00  0.00    -0.352 A  
HETATM   29  C   UNL     1      -9.725  15.211  65.950  1.00  0.00    -0.350 A  
BRANCH  27  30
HETATM   30  C   UNL     1      -7.670  16.294  67.199  1.00  0.00    -0.223 C  
HETATM   31  C   UNL     1      -7.493  17.346  66.064  1.00  0.00    -0.255 C  
HETATM   32  C   UNL     1      -8.281  17.056  68.392  1.00  0.00    -0.250 C  
HETATM   33  C   UNL     1      -6.238  15.825  67.532  1.00  0.00    -0.173 C  
ENDBRANCH  27  30
BRANCH  28  34
HETATM   34  C   UNL     1     -11.789  14.200  64.696  1.00  0.00    -0.443 C  
HETATM   35  C   UNL     1     -11.767  13.300  63.425  1.00  0.00    -0.313 C  
HETATM   36  C   UNL     1     -12.020  15.637  64.178  1.00  0.00    -0.048 C  
HETATM   37  C   UNL     1     -13.013  13.734  65.514  1.00  0.00    -0.363 C  
ENDBRANCH  28  34
ENDBRANCH  21  22
ENDBRANCH   2  21
TORSDOF 8
ENDMDL
MODEL      286
REMARK 921   NORMALIZED FREE ENERGY PREDICTED BY IDOCK:   -2.70 KCAL/MOL
REMARK 922        TOTAL FREE ENERGY PREDICTED BY IDOCK:   -4.57 KCAL/MOL
REMARK 923 INTER-LIGAND FREE ENERGY PREDICTED BY IDOCK:   -4.84 KCAL/MOL
REMARK 924 INTRA-LIGAND FREE ENERGY PREDICTED BY IDOCK:    0.28 KCAL/MOL
REMARK 927      BINDING AFFINITY PREDICTED BY RF-SCORE:    0.00 PKD
ROOT
HETATM    1  C   UNL     1      -9.946   9.720  70.669  1.00  0.00    -0.215 C  
HETATM    2  C   UNL     1      -9.511   9.508  69.208  1.00  0.00    -0.169 C  
HETATM    3  C   UNL     1      -8.689   8.211  69.134  1.00  0.00    -0.140 C  
ENDROOT
BRANCH   2   4
HETATM    4  S   UNL     1      -8.425  10.913  68.705  1.00  0.00    -0.154 SA 
BRANCH   4   5
HETATM    5  C   UNL     1      -9.464  12.364  68.841  1.00  0.00     0.239 A  
HETATM    6  C   UNL     1     -10.963  14.676  69.322  1.00  0.00    -0.260 A  
HETATM    7  O   UNL     1     -11.607  15.854  69.575  1.00  0.00    -0.325 OA 
HETATM    8  H   UNL     1     -11.337  16.665  69.160  1.00  0.00     0.000 HD 
HETATM    9  C   UNL     1     -10.564  12.325  69.692  1.00  0.00     0.504 A  
HETATM   10  C   UNL     1      -9.853  14.762  68.454  1.00  0.00    -0.220 A  
HETATM   11  C   UNL     1      -9.156  13.573  68.229  1.00  0.00    -0.189 A  
HETATM   12  C   UNL     1     -11.368  13.460  69.943  1.00  0.00    -0.082 A  
BRANCH  12  13
HETATM   13  C   UNL     1     -12.589  13.322  70.887  1.00  0.00    -0.386 C  
HETATM   14  C   UNL     1     -13.045  11.849  71.003  1.00  0.00    -0.031 C  
HETATM   15  C   UNL     1     -13.755  14.210  70.405  1.00  0.00     0.808 C  
HETATM   16  C   UNL     1     -12.293  13.761  72.351  1.00  0.00     0.141 C  
ENDBRANCH  12  13
BRANCH  10  17
HETATM   17  C   UNL     1      -9.390  16.063  67.747  1.00  0.00    -0.211 C  
HETATM   18  C   UNL     1      -8.296  15.771  66.697  1.00  0.00    -0.319 C  
HETATM   19  C   UNL     1     -10.517  16.806  66.968  1.00  0.00    -0.285 C  
HETATM   20  C   UNL     1      -8.874  17.072  68.793  1.00  0.00    -0.244 C  
ENDBRANCH  10  17
ENDBRANCH   4   5
ENDBRANCH   2   4
BRANCH   2  21
HETATM   21  S   UNL     1     -11.034   9.276  68.191  1.00  0.00     0.099 SA 
BRANCH  21  22
HETATM   22  C   UNL     1     -10.643  10.012  66.604  1.00  0.00    -0.125 A  
HETATM   23  C   UNL     1      -9.596   9.585  65.785  1.00  0.00    -0.337 A  
HETATM   24  C   UNL     1     -11.326  11.166  66.253  1.00  0.00     0.032 A  
HETATM   25  H   UNL     1      -8.765  11.828  62.705  1.00  0.00     0.000 HD 
HETATM   26  O   UNL     1      -9.487  12.148  63.233  1.00  0.00    -0.269 OA 
HETATM   27  C   UNL     1     -11.001  11.923  65.112  1.00  0.00    -0.365 A  
HETATM   28  C   UNL     1      -9.204  10.264  64.624  1.00  0.00    -0.290 A  
HETATM   29  C   UNL     1      -9.917  11.443  64.320  1.00  0.00    -0.283 A  
BRANCH  27  30
HETATM   30  C   UNL     1     -11.780  13.235  64.841  1.00  0.00    -0.375 C  
HETATM   31  C   UNL     1     -12.631  13.188  63.538  1.00  0.00    -0.214 C  
HETATM   32  C   UNL     1     -12.773  13.514  65.988  1.00  0.00    -0.307 C  
HETATM   33  C   UNL     1     -10.826  14.434  64.648  1.00  0.00    -0.363 C  
ENDBRANCH  27  30
BRANCH  28  34
HETATM   34  C   UNL     1      -8.057   9.694  63.740  1.00  0.00    -0.148 C  
HETATM   35  C   UNL     1      -6.629   9.935  64.315  1.00  0.00    -0.126 C  
HETATM   36  C   UNL     1      -8.046  10.330  62.333  1.00  0.00    -0.180 C  
HETATM   37  C   UNL     1      -8.205   8.161  63.622  1.00  0.00    -0.057 C  
ENDBRANCH  28  34
ENDBRANCH  21  22
ENDBRANCH   2  21
TORSDOF 8
ENDMDL
MODEL      287
REMARK 921   NORMALIZED FREE ENERGY PREDICTED BY IDOCK:   -2.70 KCAL/MOL
REMARK 922        TOTAL FREE ENERGY PREDICTED BY IDOCK:   -4.56 KCAL/MOL
REMARK 923 INTER-LIGAND FREE ENERGY PREDICTED BY IDOCK:   -5.12 KCAL/MOL
REMARK 924 INTRA-LIGAND FREE ENERGY PREDICTED BY IDOCK:    0.56 KCAL/MOL
REMARK 927      BINDING AFFINITY PREDICTED BY RF-SCORE:    0.00 PKD
ROOT
HETATM    1  C   UNL     1      -6.840  10.111  67.059  1.00  0.00    -0.083 C  
HETATM    2  C   UNL     1      -6.978   8.805  67.862  1.00  0.00    -0.078 C  
HETATM    3  C   UNL     1      -5.740   7.937  67.585  1.00  0.00    -0.038 C  
ENDROOT
BRANCH   2   4
HETATM    4  S   UNL     1      -8.469   7.897  67.262  1.00  0.00    -0.122 SA 
BRANCH   4   5
HETATM    5  C   UNL     1      -7.832   6.360  66.602  1.00  0.00    -0.104 A  
HETATM    6  C   UNL     1      -7.089   3.832  65.663  1.00  0.00    -0.066 A  
HETATM    7  O   UNL     1      -6.815   2.595  65.153  1.00  0.00    -0.042 OA 
HETATM    8  H   UNL     1      -6.902   2.411  64.225  1.00  0.00     0.000 HD 
HETATM    9  C   UNL     1      -7.371   5.390  67.485  1.00  0.00    -0.076 A  
HETATM   10  C   UNL     1      -7.553   4.786  64.732  1.00  0.00    -0.077 A  
HETATM   11  C   UNL     1      -7.886   6.040  65.250  1.00  0.00    -0.107 A  
HETATM   12  C   UNL     1      -6.957   4.108  67.054  1.00  0.00    -0.063 A  
BRANCH  12  13
HETATM   13  C   UNL     1      -6.437   3.095  68.104  1.00  0.00    -0.036 C  
HETATM   14  C   UNL     1      -7.539   2.089  68.507  1.00  0.00    -0.050 C  
HETATM   15  C   UNL     1      -5.897   3.829  69.349  1.00  0.00    -0.022 C  
HETATM   16  C   UNL     1      -5.265   2.211  67.586  1.00  0.00    -0.012 C  
ENDBRANCH  12  13
BRANCH  10  17
HETATM   17  C   UNL     1      -7.696   4.529  63.208  1.00  0.00    -0.067 C  
HETATM   18  C   UNL     1      -8.173   5.798  62.469  1.00  0.00    -0.102 C  
HETATM   19  C   UNL     1      -6.370   4.118  62.501  1.00  0.00    -0.022 C  
HETATM   20  C   UNL     1      -8.676   3.364  62.963  1.00  0.00    -0.093 C  
ENDBRANCH  10  17
ENDBRANCH   4   5
ENDBRANCH   2   4
BRANCH   2  21
HETATM   21  S   UNL     1      -6.980   9.239  69.656  1.00  0.00    -0.060 SA 
BRANCH  21  22
HETATM   22  C   UNL     1      -8.679   9.679  70.020  1.00  0.00    -0.231 A  
HETATM   23  C   UNL     1      -9.551   8.874  70.756  1.00  0.00    -0.283 A  
HETATM   24  C   UNL     1      -9.188  10.810  69.402  1.00  0.00    -0.003 A  
HETATM   25  H   UNL     1     -13.294   9.964  70.820  1.00  0.00     0.000 HD 
HETATM   26  O   UNL     1     -12.733  10.541  70.316  1.00  0.00    -0.310 OA 
HETATM   27  C   UNL     1     -10.546  11.173  69.482  1.00  0.00    -0.137 A  
HETATM   28  C   UNL     1     -10.916   9.156  70.902  1.00  0.00    -0.349 A  
HETATM   29  C   UNL     1     -11.389  10.307  70.239  1.00  0.00    -0.323 A  
BRANCH  27  30
HETATM   30  C   UNL     1     -11.033  12.419  68.700  1.00  0.00    -0.283 C  
HETATM   31  C   UNL     1      -9.868  13.290  68.144  1.00  0.00    -0.231 C  
HETATM   32  C   UNL     1     -11.865  11.990  67.475  1.00  0.00    -0.275 C  
HETATM   33  C   UNL     1     -11.847  13.374  69.601  1.00  0.00    -0.394 C  
ENDBRANCH  27  30
BRANCH  28  34
HETATM   34  C   UNL     1     -11.809   8.232  71.780  1.00  0.00    -0.357 C  
HETATM   35  C   UNL     1     -12.717   8.997  72.789  1.00  0.00    -0.119 C  
HETATM   36  C   UNL     1     -10.965   7.264  72.638  1.00  0.00    -0.341 C  
HETATM   37  C   UNL     1     -12.772   7.431  70.878  1.00  0.00    -0.162 C  
ENDBRANCH  28  34
ENDBRANCH  21  22
ENDBRANCH   2  21
TORSDOF 8
ENDMDL
MODEL      288
REMARK 921   NORMALIZED FREE ENERGY PREDICTED BY IDOCK:   -2.70 KCAL/MOL
REMARK 922        TOTAL FREE ENERGY PREDICTED BY IDOCK:   -4.55 KCAL/MOL
REMARK 923 INTER-LIGAND FREE ENERGY PREDICTED BY IDOCK:   -4.72 KCAL/MOL
REMARK 924 INTRA-LIGAND FREE ENERGY PREDICTED BY IDOCK:    0.17 KCAL/MOL
REMARK 927      BINDING AFFINITY PREDICTED BY RF-SCORE:    0.00 PKD
ROOT
HETATM    1  C   UNL     1      -7.487   8.727  72.232  1.00  0.00     0.039 C  
HETATM    2  C   UNL     1      -7.331   8.791  70.702  1.00  0.00    -0.072 C  
HETATM    3  C   UNL     1      -6.831  10.195  70.326  1.00  0.00    -0.150 C  
ENDROOT
BRANCH   2   4
HETATM    4  S   UNL     1      -8.989   8.540  69.928  1.00  0.00    -0.147 SA 
BRANCH   4   5
HETATM    5  C   UNL     1      -8.982   9.597  68.484  1.00  0.00    -0.124 A  
HETATM    6  C   UNL     1      -9.145  11.045  66.096  1.00  0.00    -0.192 A  
HETATM    7  O   UNL     1      -9.326  11.745  64.937  1.00  0.00    -0.417 OA 
HETATM    8  H   UNL     1      -9.924  12.483  64.892  1.00  0.00     0.000 HD 
HETATM    9  C   UNL     1      -8.221   9.223  67.381  1.00  0.00    -0.117 A  
HETATM   10  C   UNL     1      -9.936  11.458  67.189  1.00  0.00    -0.217 A  
HETATM   11  C   UNL     1      -9.797  10.717  68.364  1.00  0.00    -0.170 A  
HETATM   12  C   UNL     1      -8.248   9.940  66.163  1.00  0.00    -0.118 A  
BRANCH  12  13
HETATM   13  C   UNL     1      -7.351   9.465  64.992  1.00  0.00    -0.105 C  
HETATM   14  C   UNL     1      -6.757  10.665  64.218  1.00  0.00     0.215 C  
HETATM   15  C   UNL     1      -8.143   8.548  64.037  1.00  0.00    -0.156 C  
HETATM   16  C   UNL     1      -6.115   8.640  65.452  1.00  0.00    -0.049 C  
ENDBRANCH  12  13
BRANCH  10  17
HETATM   17  C   UNL     1     -10.912  12.665  67.160  1.00  0.00    -0.296 C  
HETATM   18  C   UNL     1     -10.147  14.001  67.050  1.00  0.00    -0.255 C  
HETATM   19  C   UNL     1     -11.902  12.659  65.957  1.00  0.00    -0.492 C  
HETATM   20  C   UNL     1     -11.795  12.654  68.424  1.00  0.00    -0.347 C  
ENDBRANCH  10  17
ENDBRANCH   4   5
ENDBRANCH   2   4
BRANCH   2  21
HETATM   21  S   UNL     1      -6.033   7.573  70.213  1.00  0.00    -0.023 SA 
BRANCH  21  22
HETATM   22  C   UNL     1      -6.940   6.111  69.713  1.00  0.00    -0.070 A  
HETATM   23  C   UNL     1      -7.287   5.823  68.391  1.00  0.00    -0.080 A  
HETATM   24  C   UNL     1      -7.454   5.307  70.719  1.00  0.00    -0.075 A  
HETATM   25  H   UNL     1      -9.735   2.838  67.839  1.00  0.00     0.000 HD 
HETATM   26  O   UNL     1      -9.518   2.997  68.751  1.00  0.00    -0.175 OA 
HETATM   27  C   UNL     1      -8.312   4.222  70.460  1.00  0.00    -0.084 A  
HETATM   28  C   UNL     1      -8.127   4.761  68.032  1.00  0.00    -0.089 A  
HETATM   29  C   UNL     1      -8.638   3.984  69.092  1.00  0.00    -0.079 A  
BRANCH  27  30
HETATM   30  C   UNL     1      -8.888   3.424  71.657  1.00  0.00    -0.136 C  
HETATM   31  C   UNL     1      -9.938   2.354  71.236  1.00  0.00    -0.028 C  
HETATM   32  C   UNL     1      -7.763   2.654  72.377  1.00  0.00    -0.053 C  
HETATM   33  C   UNL     1      -9.634   4.343  72.648  1.00  0.00    -0.179 C  
ENDBRANCH  27  30
BRANCH  28  34
HETATM   34  C   UNL     1      -8.425   4.481  66.530  1.00  0.00    -0.109 C  
HETATM   35  C   UNL     1      -9.710   5.181  65.994  1.00  0.00    -0.182 C  
HETATM   36  C   UNL     1      -8.634   2.975  66.258  1.00  0.00    -0.121 C  
HETATM   37  C   UNL     1      -7.267   5.015  65.661  1.00  0.00    -0.068 C  
ENDBRANCH  28  34
ENDBRANCH  21  22
ENDBRANCH   2  21
TORSDOF 8
ENDMDL
MODEL      289
REMARK 921   NORMALIZED FREE ENERGY PREDICTED BY IDOCK:   -2.67 KCAL/MOL
REMARK 922        TOTAL FREE ENERGY PREDICTED BY IDOCK:   -4.52 KCAL/MOL
REMARK 923 INTER-LIGAND FREE ENERGY PREDICTED BY IDOCK:   -5.34 KCAL/MOL
REMARK 924 INTRA-LIGAND FREE ENERGY PREDICTED BY IDOCK:    0.82 KCAL/MOL
REMARK 927      BINDING AFFINITY PREDICTED BY RF-SCORE:    0.00 PKD
ROOT
HETATM    1  C   UNL     1      -8.169  10.539  68.944  1.00  0.00    -0.141 C  
HETATM    2  C   UNL     1      -8.566   9.157  69.493  1.00  0.00    -0.138 C  
HETATM    3  C   UNL     1      -8.808   9.292  71.006  1.00  0.00    -0.205 C  
ENDROOT
BRANCH   2   4
HETATM    4  S   UNL     1      -7.158   7.992  69.233  1.00  0.00    -0.069 SA 
BRANCH   4   5
HETATM    5  C   UNL     1      -7.714   6.441  69.932  1.00  0.00    -0.109 A  
HETATM    6  C   UNL     1      -8.332   3.898  70.920  1.00  0.00    -0.071 A  
HETATM    7  O   UNL     1      -8.543   2.657  71.449  1.00  0.00    -0.062 OA 
HETATM    8  H   UNL     1      -8.405   2.482  72.373  1.00  0.00     0.000 HD 
HETATM    9  C   UNL     1      -8.188   5.451  69.078  1.00  0.00    -0.094 A  
HETATM   10  C   UNL     1      -7.853   4.872  71.822  1.00  0.00    -0.107 A  
HETATM   11  C   UNL     1      -7.585   6.131  71.281  1.00  0.00    -0.094 A  
HETATM   12  C   UNL     1      -8.540   4.160  69.536  1.00  0.00    -0.105 A  
BRANCH  12  13
HETATM   13  C   UNL     1      -9.080   3.124  68.518  1.00  0.00    -0.210 C  
HETATM   14  C   UNL     1     -10.252   3.704  67.694  1.00  0.00     0.810 C  
HETATM   15  C   UNL     1      -9.516   1.830  69.237  1.00  0.00    -0.137 C  
HETATM   16  C   UNL     1      -8.027   2.690  67.457  1.00  0.00    -0.068 C  
ENDBRANCH  12  13
BRANCH  10  17
HETATM   17  C   UNL     1      -7.628   4.631  73.339  1.00  0.00    -0.084 C  
HETATM   18  C   UNL     1      -6.625   3.483  73.580  1.00  0.00    -0.034 C  
HETATM   19  C   UNL     1      -7.041   5.856  74.102  1.00  0.00    -0.081 C  
HETATM   20  C   UNL     1      -8.974   4.320  74.024  1.00  0.00    -0.094 C  
ENDBRANCH  10  17
ENDBRANCH   4   5
ENDBRANCH   2   4
BRANCH   2  21
HETATM   21  S   UNL     1     -10.159   8.667  68.702  1.00  0.00    -0.193 SA 
BRANCH  21  22
HETATM   22  C   UNL     1     -10.089   9.368  67.054  1.00  0.00    -0.240 A  
HETATM   23  C   UNL     1      -9.272   8.877  66.034  1.00  0.00    -0.287 A  
HETATM   24  C   UNL     1     -10.771  10.555  66.839  1.00  0.00    -0.281 A  
HETATM   25  H   UNL     1      -9.024  11.046  62.803  1.00  0.00     0.000 HD 
HETATM   26  O   UNL     1      -9.594  11.410  63.470  1.00  0.00    -0.277 OA 
HETATM   27  C   UNL     1     -10.667  11.284  65.640  1.00  0.00    -0.279 A  
HETATM   28  C   UNL     1      -9.110   9.525  64.802  1.00  0.00    -0.271 A  
HETATM   29  C   UNL     1      -9.811  10.738  64.639  1.00  0.00    -0.307 A  
BRANCH  27  30
HETATM   30  C   UNL     1     -11.416  12.635  65.521  1.00  0.00    -0.375 C  
HETATM   31  C   UNL     1     -10.536  13.777  64.930  1.00  0.00    -0.427 C  
HETATM   32  C   UNL     1     -12.623  12.496  64.571  1.00  0.00    -0.503 C  
HETATM   33  C   UNL     1     -11.871  13.158  66.901  1.00  0.00    -0.444 C  
ENDBRANCH  27  30
BRANCH  28  34
HETATM   34  C   UNL     1      -8.218   8.884  63.700  1.00  0.00    -0.172 C  
HETATM   35  C   UNL     1      -6.888   9.651  63.431  1.00  0.00    -0.108 C  
HETATM   36  C   UNL     1      -8.942   8.828  62.336  1.00  0.00     0.036 C  
HETATM   37  C   UNL     1      -7.799   7.462  64.131  1.00  0.00    -0.120 C  
ENDBRANCH  28  34
ENDBRANCH  21  22
ENDBRANCH   2  21
TORSDOF 8
ENDMDL
MODEL      290
REMARK 921   NORMALIZED FREE ENERGY PREDICTED BY IDOCK:   -2.66 KCAL/MOL
REMARK 922        TOTAL FREE ENERGY PREDICTED BY IDOCK:   -4.50 KCAL/MOL
REMARK 923 INTER-LIGAND FREE ENERGY PREDICTED BY IDOCK:   -6.19 KCAL/MOL
REMARK 924 INTRA-LIGAND FREE ENERGY PREDICTED BY IDOCK:    1.69 KCAL/MOL
REMARK 927      BINDING AFFINITY PREDICTED BY RF-SCORE:    0.00 PKD
ROOT
HETATM    1  C   UNL     1     -12.010  16.429  68.067  1.00  0.00     0.638 C  
HETATM    2  C   UNL     1     -10.568  16.931  67.870  1.00  0.00    -0.361 C  
HETATM    3  C   UNL     1     -10.571  18.463  67.993  1.00  0.00    -0.346 C  
ENDROOT
BRANCH   2   4
HETATM    4  S   UNL     1     -10.015  16.487  66.166  1.00  0.00    -0.349 SA 
BRANCH   4   5
HETATM    5  C   UNL     1      -9.364  14.827  66.316  1.00  0.00    -0.278 A  
HETATM    6  C   UNL     1      -8.212  12.278  66.288  1.00  0.00     0.353 A  
HETATM    7  O   UNL     1      -7.559  11.079  66.260  1.00  0.00    -0.151 OA 
HETATM    8  H   UNL     1      -6.783  10.925  66.785  1.00  0.00     0.000 HD 
HETATM    9  C   UNL     1      -9.906  13.819  65.525  1.00  0.00    -0.189 A  
HETATM   10  C   UNL     1      -7.628  13.271  67.103  1.00  0.00     0.014 A  
HETATM   11  C   UNL     1      -8.258  14.518  67.099  1.00  0.00    -0.214 A  
HETATM   12  C   UNL     1      -9.376  12.508  65.500  1.00  0.00     0.141 A  
BRANCH  12  13
HETATM   13  C   UNL     1     -10.056  11.440  64.606  1.00  0.00    -0.330 C  
HETATM   14  C   UNL     1     -11.513  11.834  64.271  1.00  0.00    -0.386 C  
HETATM   15  C   UNL     1     -10.017  10.056  65.286  1.00  0.00    -0.368 C  
HETATM   16  C   UNL     1      -9.367  11.259  63.223  1.00  0.00    -0.291 C  
ENDBRANCH  12  13
BRANCH  10  17
HETATM   17  C   UNL     1      -6.371  13.055  67.986  1.00  0.00    -0.115 C  
HETATM   18  C   UNL     1      -5.260  12.318  67.209  1.00  0.00    -0.087 C  
HETATM   19  C   UNL     1      -5.710  14.373  68.493  1.00  0.00    -0.096 C  
HETATM   20  C   UNL     1      -6.752  12.268  69.256  1.00  0.00    -0.075 C  
ENDBRANCH  10  17
ENDBRANCH   4   5
ENDBRANCH   2   4
BRANCH   2  21
HETATM   21  S   UNL     1      -9.538  16.250  69.242  1.00  0.00    -0.177 SA 
BRANCH  21  22
HETATM   22  C   UNL     1     -10.485  14.873  69.888  1.00  0.00    -0.084 A  
HETATM   23  C   UNL     1     -10.484  13.595  69.324  1.00  0.00     0.072 A  
HETATM   24  C   UNL     1     -11.382  15.142  70.910  1.00  0.00    -0.345 A  
HETATM   25  H   UNL     1     -13.113  11.073  70.715  1.00  0.00     0.000 HD 
HETATM   26  O   UNL     1     -13.141  11.928  71.129  1.00  0.00    -0.235 OA 
HETATM   27  C   UNL     1     -12.292  14.183  71.394  1.00  0.00    -0.425 A  
HETATM   28  C   UNL     1     -11.344  12.571  69.743  1.00  0.00    -0.111 A  
HETATM   29  C   UNL     1     -12.251  12.900  70.773  1.00  0.00    -0.260 A  
BRANCH  27  30
HETATM   30  C   UNL     1     -13.301  14.600  72.493  1.00  0.00    -0.542 C  
HETATM   31  C   UNL     1     -14.179  15.822  72.091  1.00  0.00    -0.385 C  
HETATM   32  C   UNL     1     -14.284  13.448  72.782  1.00  0.00     0.215 C  
HETATM   33  C   UNL     1     -12.584  15.037  73.789  1.00  0.00    -0.658 C  
ENDBRANCH  27  30
BRANCH  28  34
HETATM   34  C   UNL     1     -11.245  11.161  69.094  1.00  0.00    -0.328 C  
HETATM   35  C   UNL     1     -12.222  10.110  69.702  1.00  0.00     0.083 C  
HETATM   36  C   UNL     1      -9.835  10.551  69.256  1.00  0.00    -0.225 C  
HETATM   37  C   UNL     1     -11.609  11.250  67.596  1.00  0.00    -0.290 C  
ENDBRANCH  28  34
ENDBRANCH  21  22
ENDBRANCH   2  21
TORSDOF 8
ENDMDL
MODEL      291
REMARK 921   NORMALIZED FREE ENERGY PREDICTED BY IDOCK:   -2.58 KCAL/MOL
REMARK 922        TOTAL FREE ENERGY PREDICTED BY IDOCK:   -4.39 KCAL/MOL
REMARK 923 INTER-LIGAND FREE ENERGY PREDICTED BY IDOCK:   -4.96 KCAL/MOL
REMARK 924 INTRA-LIGAND FREE ENERGY PREDICTED BY IDOCK:    0.57 KCAL/MOL
REMARK 927      BINDING AFFINITY PREDICTED BY RF-SCORE:    0.00 PKD
ROOT
HETATM    1  C   UNL     1      -5.306  13.936  67.559  1.00  0.00     0.171 C  
HETATM    2  C   UNL     1      -6.527  13.607  68.437  1.00  0.00    -0.095 C  
HETATM    3  C   UNL     1      -6.261  12.272  69.151  1.00  0.00    -0.089 C  
ENDROOT
BRANCH   2   4
HETATM    4  S   UNL     1      -8.001  13.397  67.345  1.00  0.00    -0.133 SA 
BRANCH   4   5
HETATM    5  C   UNL     1      -8.124  11.631  67.081  1.00  0.00    -0.166 A  
HETATM    6  C   UNL     1      -8.066   8.845  66.827  1.00  0.00    -0.111 A  
HETATM    7  O   UNL     1      -8.031   7.480  66.805  1.00  0.00    -0.110 OA 
HETATM    8  H   UNL     1      -8.598   6.961  67.363  1.00  0.00     0.000 HD 
HETATM    9  C   UNL     1      -7.261  11.025  66.174  1.00  0.00    -0.054 A  
HETATM   10  C   UNL     1      -8.956   9.418  67.761  1.00  0.00    -0.127 A  
HETATM   11  C   UNL     1      -8.963  10.813  67.829  1.00  0.00    -0.137 A  
HETATM   12  C   UNL     1      -7.216   9.624  65.990  1.00  0.00    -0.098 A  
BRANCH  12  13
HETATM   13  C   UNL     1      -6.238   9.035  64.942  1.00  0.00    -0.065 C  
HETATM   14  C   UNL     1      -5.192   8.112  65.607  1.00  0.00    -0.028 C  
HETATM   15  C   UNL     1      -5.538  10.163  64.156  1.00  0.00    -0.126 C  
HETATM   16  C   UNL     1      -6.936   8.140  63.877  1.00  0.00    -0.075 C  
ENDBRANCH  12  13
BRANCH  10  17
HETATM   17  C   UNL     1      -9.908   8.606  68.679  1.00  0.00    -0.180 C  
HETATM   18  C   UNL     1     -10.996   7.882  67.857  1.00  0.00     0.069 C  
HETATM   19  C   UNL     1      -9.203   7.485  69.501  1.00  0.00    -0.146 C  
HETATM   20  C   UNL     1     -10.554   9.541  69.721  1.00  0.00    -0.257 C  
ENDBRANCH  10  17
ENDBRANCH   4   5
ENDBRANCH   2   4
BRANCH   2  21
HETATM   21  S   UNL     1      -6.673  14.922  69.723  1.00  0.00    -0.178 SA 
BRANCH  21  22
HETATM   22  C   UNL     1      -8.353  15.526  69.576  1.00  0.00    -0.206 A  
HETATM   23  C   UNL     1      -9.428  15.028  70.316  1.00  0.00     0.569 A  
HETATM   24  C   UNL     1      -8.617  16.429  68.558  1.00  0.00    -0.223 A  
HETATM   25  H   UNL     1     -12.981  16.242  69.266  1.00  0.00     0.000 HD 
HETATM   26  O   UNL     1     -12.278  16.609  68.743  1.00  0.00     0.391 OA 
HETATM   27  C   UNL     1      -9.919  16.856  68.240  1.00  0.00    -0.282 A  
HETATM   28  C   UNL     1     -10.758  15.398  70.081  1.00  0.00    -0.326 A  
HETATM   29  C   UNL     1     -10.976  16.306  69.023  1.00  0.00    -0.325 A  
BRANCH  27  30
HETATM   30  C   UNL     1     -10.118  17.818  67.040  1.00  0.00    -0.337 C  
HETATM   31  C   UNL     1      -8.777  18.312  66.420  1.00  0.00    -0.260 C  
HETATM   32  C   UNL     1     -10.875  17.104  65.903  1.00  0.00    -0.017 C  
HETATM   33  C   UNL     1     -10.859  19.106  67.459  1.00  0.00    -0.512 C  
ENDBRANCH  27  30
BRANCH  28  34
HETATM   34  C   UNL     1     -11.892  14.832  70.984  1.00  0.00    -0.383 C  
HETATM   35  C   UNL     1     -13.271  15.533  70.790  1.00  0.00    -0.391 C  
HETATM   36  C   UNL     1     -11.562  14.986  72.485  1.00  0.00    -0.348 C  
HETATM   37  C   UNL     1     -12.131  13.344  70.649  1.00  0.00    -0.374 C  
ENDBRANCH  28  34
ENDBRANCH  21  22
ENDBRANCH   2  21
TORSDOF 8
ENDMDL
MODEL      292
REMARK 921   NORMALIZED FREE ENERGY PREDICTED BY IDOCK:   -2.57 KCAL/MOL
REMARK 922        TOTAL FREE ENERGY PREDICTED BY IDOCK:   -4.37 KCAL/MOL
REMARK 923 INTER-LIGAND FREE ENERGY PREDICTED BY IDOCK:   -4.89 KCAL/MOL
REMARK 924 INTRA-LIGAND FREE ENERGY PREDICTED BY IDOCK:    0.52 KCAL/MOL
REMARK 927      BINDING AFFINITY PREDICTED BY RF-SCORE:    0.00 PKD
ROOT
HETATM    1  C   UNL     1     -13.138   8.734  71.613  1.00  0.00    -0.394 C  
HETATM    2  C   UNL     1     -11.771   9.116  71.019  1.00  0.00    -0.301 C  
HETATM    3  C   UNL     1     -11.508   8.218  69.799  1.00  0.00     0.254 C  
ENDROOT
BRANCH   2   4
HETATM    4  S   UNL     1     -10.464   8.778  72.278  1.00  0.00    -0.128 SA 
BRANCH   4   5
HETATM    5  C   UNL     1      -9.755   7.208  71.790  1.00  0.00    -0.157 A  
HETATM    6  C   UNL     1      -8.919   4.682  70.929  1.00  0.00    -0.120 A  
HETATM    7  O   UNL     1      -8.550   3.470  70.418  1.00  0.00    -0.059 OA 
HETATM    8  H   UNL     1      -8.088   3.401  69.590  1.00  0.00     0.000 HD 
HETATM    9  C   UNL     1     -10.038   6.078  72.549  1.00  0.00    -0.200 A  
HETATM   10  C   UNL     1      -8.612   5.801  70.126  1.00  0.00    -0.128 A  
HETATM   11  C   UNL     1      -9.030   7.041  70.615  1.00  0.00    -0.154 A  
HETATM   12  C   UNL     1      -9.611   4.784  72.170  1.00  0.00    -0.202 A  
BRANCH  12  13
HETATM   13  C   UNL     1      -9.952   3.582  73.087  1.00  0.00    -0.197 C  
HETATM   14  C   UNL     1     -10.828   4.019  74.283  1.00  0.00    -0.185 C  
HETATM   15  C   UNL     1      -8.663   2.896  73.586  1.00  0.00    -0.073 C  
HETATM   16  C   UNL     1     -10.779   2.473  72.374  1.00  0.00     0.071 C  
ENDBRANCH  12  13
BRANCH  10  17
HETATM   17  C   UNL     1      -7.847   5.733  68.778  1.00  0.00    -0.097 C  
HETATM   18  C   UNL     1      -8.776   5.286  67.629  1.00  0.00    -0.106 C  
HETATM   19  C   UNL     1      -7.245   7.093  68.313  1.00  0.00    -0.091 C  
HETATM   20  C   UNL     1      -6.649   4.771  68.905  1.00  0.00    -0.045 C  
ENDBRANCH  10  17
ENDBRANCH   4   5
ENDBRANCH   2   4
BRANCH   2  21
HETATM   21  S   UNL     1     -11.875  10.862  70.430  1.00  0.00    -0.376 SA 
BRANCH  21  22
HETATM   22  C   UNL     1     -10.561  11.019  69.223  1.00  0.00    -0.201 A  
HETATM   23  C   UNL     1      -9.211  10.795  69.506  1.00  0.00     0.103 A  
HETATM   24  C   UNL     1     -10.896  11.541  67.983  1.00  0.00    -0.259 A  
HETATM   25  H   UNL     1      -6.657  11.798  66.736  1.00  0.00     0.000 HD 
HETATM   26  O   UNL     1      -7.564  11.959  66.502  1.00  0.00    -0.022 OA 
HETATM   27  C   UNL     1      -9.933  11.859  67.008  1.00  0.00    -0.219 A  
HETATM   28  C   UNL     1      -8.181  11.071  68.598  1.00  0.00    -0.151 A  
HETATM   29  C   UNL     1      -8.572  11.618  67.358  1.00  0.00    -0.149 A  
BRANCH  27  30
HETATM   30  C   UNL     1     -10.402  12.501  65.678  1.00  0.00    -0.294 C  
HETATM   31  C   UNL     1      -9.622  13.800  65.313  1.00  0.00     0.117 C  
HETATM   32  C   UNL     1     -10.176  11.527  64.504  1.00  0.00    -0.338 C  
HETATM   33  C   UNL     1     -11.882  12.933  65.745  1.00  0.00    -0.469 C  
ENDBRANCH  27  30
BRANCH  28  34
HETATM   34  C   UNL     1      -6.707  10.747  68.976  1.00  0.00    -0.070 C  
HETATM   35  C   UNL     1      -6.546  10.000  70.335  1.00  0.00    -0.132 C  
HETATM   36  C   UNL     1      -5.853  12.027  69.109  1.00  0.00    -0.068 C  
HETATM   37  C   UNL     1      -6.090   9.812  67.913  1.00  0.00    -0.051 C  
ENDBRANCH  28  34
ENDBRANCH  21  22
ENDBRANCH   2  21
TORSDOF 8
ENDMDL
MODEL      293
REMARK 921   NORMALIZED FREE ENERGY PREDICTED BY IDOCK:   -2.54 KCAL/MOL
REMARK 922        TOTAL FREE ENERGY PREDICTED BY IDOCK:   -4.33 KCAL/MOL
REMARK 923 INTER-LIGAND FREE ENERGY PREDICTED BY IDOCK:   -4.73 KCAL/MOL
REMARK 924 INTRA-LIGAND FREE ENERGY PREDICTED BY IDOCK:    0.40 KCAL/MOL
REMARK 927      BINDING AFFINITY PREDICTED BY RF-SCORE:    0.00 PKD
ROOT
HETATM    1  C   UNL     1      -7.876  10.365  66.713  1.00  0.00    -0.117 C  
HETATM    2  C   UNL     1      -7.774   9.171  67.679  1.00  0.00    -0.089 C  
HETATM    3  C   UNL     1      -6.518   8.363  67.314  1.00  0.00    -0.058 C  
ENDROOT
BRANCH   2   4
HETATM    4  S   UNL     1      -9.250   8.088  67.437  1.00  0.00    -0.136 SA 
BRANCH   4   5
HETATM    5  C   UNL     1      -8.576   6.450  67.181  1.00  0.00    -0.111 A  
HETATM    6  C   UNL     1      -7.732   3.791  66.969  1.00  0.00    -0.080 A  
HETATM    7  O   UNL     1      -7.417   2.469  66.842  1.00  0.00    -0.067 OA 
HETATM    8  H   UNL     1      -7.678   1.968  66.078  1.00  0.00     0.000 HD 
HETATM    9  C   UNL     1      -7.813   5.872  68.189  1.00  0.00    -0.105 A  
HETATM   10  C   UNL     1      -8.507   4.337  65.923  1.00  0.00    -0.113 A  
HETATM   11  C   UNL     1      -8.879   5.675  66.067  1.00  0.00    -0.147 A  
HETATM   12  C   UNL     1      -7.340   4.542  68.114  1.00  0.00    -0.065 A  
BRANCH  12  13
HETATM   13  C   UNL     1      -6.477   3.985  69.275  1.00  0.00    -0.033 C  
HETATM   14  C   UNL     1      -5.129   3.433  68.757  1.00  0.00    -0.011 C  
HETATM   15  C   UNL     1      -7.244   2.892  70.048  1.00  0.00    -0.040 C  
HETATM   16  C   UNL     1      -6.085   5.061  70.329  1.00  0.00    -0.018 C  
ENDBRANCH  12  13
BRANCH  10  17
HETATM   17  C   UNL     1      -8.942   3.557  64.653  1.00  0.00    -0.127 C  
HETATM   18  C   UNL     1      -7.783   3.449  63.639  1.00  0.00    -0.072 C  
HETATM   19  C   UNL     1      -9.387   2.088  64.925  1.00  0.00    -0.083 C  
HETATM   20  C   UNL     1     -10.160   4.247  64.007  1.00  0.00    -0.022 C  
ENDBRANCH  10  17
ENDBRANCH   4   5
ENDBRANCH   2   4
BRANCH   2  21
HETATM   21  S   UNL     1      -7.548   9.837  69.385  1.00  0.00    -0.118 SA 
BRANCH  21  22
HETATM   22  C   UNL     1      -8.908   9.153  70.329  1.00  0.00    -0.213 A  
HETATM   23  C   UNL     1      -8.894   7.881  70.906  1.00  0.00    -0.141 A  
HETATM   24  C   UNL     1     -10.092   9.873  70.351  1.00  0.00    -0.258 A  
HETATM   25  H   UNL     1     -12.268   6.597  72.380  1.00  0.00     0.000 HD 
HETATM   26  O   UNL     1     -12.317   7.468  72.003  1.00  0.00    -0.298 OA 
HETATM   27  C   UNL     1     -11.276   9.372  70.923  1.00  0.00    -0.393 A  
HETATM   28  C   UNL     1     -10.018   7.299  71.507  1.00  0.00    -0.191 A  
HETATM   29  C   UNL     1     -11.203   8.064  71.487  1.00  0.00    -0.255 A  
BRANCH  27  30
HETATM   30  C   UNL     1     -12.566  10.226  70.838  1.00  0.00    -0.465 C  
HETATM   31  C   UNL     1     -12.570  11.435  71.819  1.00  0.00    -0.241 C  
HETATM   32  C   UNL     1     -12.718  10.825  69.425  1.00  0.00     0.368 C  
HETATM   33  C   UNL     1     -13.818   9.405  71.215  1.00  0.00    -0.183 C  
ENDBRANCH  27  30
BRANCH  28  34
HETATM   34  C   UNL     1      -9.904   5.896  72.170  1.00  0.00    -0.185 C  
HETATM   35  C   UNL     1     -10.904   5.661  73.341  1.00  0.00    -0.315 C  
HETATM   36  C   UNL     1      -8.502   5.657  72.773  1.00  0.00    -0.120 C  
HETATM   37  C   UNL     1     -10.220   4.801  71.128  1.00  0.00    -0.229 C  
ENDBRANCH  28  34
ENDBRANCH  21  22
ENDBRANCH   2  21
TORSDOF 8
ENDMDL
MODEL      294
REMARK 921   NORMALIZED FREE ENERGY PREDICTED BY IDOCK:   -2.54 KCAL/MOL
REMARK 922        TOTAL FREE ENERGY PREDICTED BY IDOCK:   -4.32 KCAL/MOL
REMARK 923 INTER-LIGAND FREE ENERGY PREDICTED BY IDOCK:   -5.64 KCAL/MOL
REMARK 924 INTRA-LIGAND FREE ENERGY PREDICTED BY IDOCK:    1.31 KCAL/MOL
REMARK 927      BINDING AFFINITY PREDICTED BY RF-SCORE:    0.00 PKD
ROOT
HETATM    1  C   UNL     1     -11.106  13.150  68.995  1.00  0.00    -0.282 C  
HETATM    2  C   UNL     1     -10.869  11.630  69.015  1.00  0.00    -0.203 C  
HETATM    3  C   UNL     1     -11.482  11.063  70.306  1.00  0.00    -0.363 C  
ENDROOT
BRANCH   2   4
HETATM    4  S   UNL     1      -9.051  11.315  69.050  1.00  0.00     0.122 SA 
BRANCH   4   5
HETATM    5  C   UNL     1      -8.863   9.839  70.045  1.00  0.00    -0.215 A  
HETATM    6  C   UNL     1      -8.677   7.381  71.367  1.00  0.00    -0.125 A  
HETATM    7  O   UNL     1      -8.534   6.146  71.932  1.00  0.00    -0.127 OA 
HETATM    8  H   UNL     1      -7.686   5.721  71.986  1.00  0.00     0.000 HD 
HETATM    9  C   UNL     1      -9.997   9.244  70.586  1.00  0.00    -0.336 A  
HETATM   10  C   UNL     1      -7.501   7.947  70.831  1.00  0.00    -0.073 A  
HETATM   11  C   UNL     1      -7.645   9.187  70.205  1.00  0.00    -0.108 A  
HETATM   12  C   UNL     1      -9.949   8.018  71.287  1.00  0.00    -0.211 A  
BRANCH  12  13
HETATM   13  C   UNL     1     -11.260   7.437  71.876  1.00  0.00    -0.282 C  
HETATM   14  C   UNL     1     -12.243   7.024  70.757  1.00  0.00    -0.343 C  
HETATM   15  C   UNL     1     -11.925   8.452  72.829  1.00  0.00    -0.214 C  
HETATM   16  C   UNL     1     -11.044   6.142  72.711  1.00  0.00    -0.294 C  
ENDBRANCH  12  13
BRANCH  10  17
HETATM   17  C   UNL     1      -6.096   7.293  70.911  1.00  0.00    -0.035 C  
HETATM   18  C   UNL     1      -5.411   7.600  72.260  1.00  0.00    -0.036 C  
HETATM   19  C   UNL     1      -6.106   5.738  70.802  1.00  0.00    -0.030 C  
HETATM   20  C   UNL     1      -5.222   7.786  69.741  1.00  0.00    -0.023 C  
ENDBRANCH  10  17
ENDBRANCH   4   5
ENDBRANCH   2   4
BRANCH   2  21
HETATM   21  S   UNL     1     -11.775  10.895  67.584  1.00  0.00     0.329 SA 
BRANCH  21  22
HETATM   22  C   UNL     1     -10.540   9.948  66.696  1.00  0.00    -0.115 A  
HETATM   23  C   UNL     1      -9.996  10.334  65.469  1.00  0.00    -0.364 A  
HETATM   24  C   UNL     1     -10.230   8.690  67.188  1.00  0.00    -0.353 A  
HETATM   25  H   UNL     1      -7.773   7.702  63.641  1.00  0.00     0.000 HD 
HETATM   26  O   UNL     1      -8.118   7.405  64.475  1.00  0.00    -0.133 OA 
HETATM   27  C   UNL     1      -9.397   7.789  66.498  1.00  0.00    -0.243 A  
HETATM   28  C   UNL     1      -9.150   9.513  64.712  1.00  0.00    -0.271 A  
HETATM   29  C   UNL     1      -8.880   8.235  65.247  1.00  0.00    -0.031 A  
BRANCH  27  30
HETATM   30  C   UNL     1      -9.163   6.379  67.099  1.00  0.00    -0.128 C  
HETATM   31  C   UNL     1      -7.726   6.182  67.665  1.00  0.00    -0.098 C  
HETATM   32  C   UNL     1     -10.123   6.136  68.281  1.00  0.00    -0.182 C  
HETATM   33  C   UNL     1      -9.326   5.273  66.034  1.00  0.00    -0.167 C  
ENDBRANCH  27  30
BRANCH  28  34
HETATM   34  C   UNL     1      -8.548  10.039  63.378  1.00  0.00    -0.204 C  
HETATM   35  C   UNL     1      -7.078  10.542  63.496  1.00  0.00     0.076 C  
HETATM   36  C   UNL     1      -9.348  11.236  62.819  1.00  0.00    -0.362 C  
HETATM   37  C   UNL     1      -8.515   8.899  62.337  1.00  0.00    -0.212 C  
ENDBRANCH  28  34
ENDBRANCH  21  22
ENDBRANCH   2  21
TORSDOF 8
ENDMDL
MODEL      295
REMARK 921   NORMALIZED FREE ENERGY PREDICTED BY IDOCK:   -2.33 KCAL/MOL
REMARK 922        TOTAL FREE ENERGY PREDICTED BY IDOCK:   -4.02 KCAL/MOL
REMARK 923 INTER-LIGAND FREE ENERGY PREDICTED BY IDOCK:   -7.43 KCAL/MOL
REMARK 924 INTRA-LIGAND FREE ENERGY PREDICTED BY IDOCK:    3.41 KCAL/MOL
REMARK 927      BINDING AFFINITY PREDICTED BY RF-SCORE:    0.00 PKD
ROOT
HETATM    1  C   UNL     1     -10.425  13.701  65.891  1.00  0.00    -0.297 C  
HETATM    2  C   UNL     1     -11.203  12.405  66.180  1.00  0.00    -0.322 C  
HETATM    3  C   UNL     1     -12.705  12.704  66.041  1.00  0.00     0.580 C  
ENDROOT
BRANCH   2   4
HETATM    4  S   UNL     1     -10.874  11.894  67.923  1.00  0.00    -0.226 SA 
BRANCH   4   5
HETATM    5  C   UNL     1     -10.985  13.408  68.871  1.00  0.00    -0.248 A  
HETATM    6  C   UNL     1     -11.368  15.862  70.159  1.00  0.00    -0.365 A  
HETATM    7  O   UNL     1     -11.654  17.037  70.792  1.00  0.00    -0.118 OA 
HETATM    8  H   UNL     1     -12.181  17.059  71.583  1.00  0.00     0.000 HD 
HETATM    9  C   UNL     1     -10.435  14.572  68.345  1.00  0.00    -0.246 A  
HETATM   10  C   UNL     1     -11.946  14.706  70.727  1.00  0.00    -0.380 A  
HETATM   11  C   UNL     1     -11.702  13.505  70.058  1.00  0.00    -0.311 A  
HETATM   12  C   UNL     1     -10.577  15.830  68.975  1.00  0.00    -0.232 A  
BRANCH  12  13
HETATM   13  C   UNL     1      -9.912  17.072  68.330  1.00  0.00    -0.285 C  
HETATM   14  C   UNL     1     -10.572  17.422  66.976  1.00  0.00    -0.238 C  
HETATM   15  C   UNL     1      -8.397  16.846  68.147  1.00  0.00    -0.212 C  
HETATM   16  C   UNL     1     -10.053  18.365  69.185  1.00  0.00    -0.174 C  
ENDBRANCH  12  13
BRANCH  10  17
HETATM   17  C   UNL     1     -12.799  14.697  72.023  1.00  0.00    -0.403 C  
HETATM   18  C   UNL     1     -13.295  13.274  72.357  1.00  0.00    -0.616 C  
HETATM   19  C   UNL     1     -12.037  15.174  73.296  1.00  0.00    -0.511 C  
HETATM   20  C   UNL     1     -13.994  15.661  71.869  1.00  0.00    -0.487 C  
ENDBRANCH  10  17
ENDBRANCH   4   5
ENDBRANCH   2   4
BRANCH   2  21
HETATM   21  S   UNL     1     -10.746  11.168  64.889  1.00  0.00    -0.199 SA 
BRANCH  21  22
HETATM   22  C   UNL     1      -9.839   9.898  65.770  1.00  0.00    -0.287 A  
HETATM   23  C   UNL     1      -9.863   9.745  67.158  1.00  0.00    -0.238 A  
HETATM   24  C   UNL     1      -8.948   9.129  65.037  1.00  0.00    -0.221 A  
HETATM   25  H   UNL     1      -7.310   7.220  68.678  1.00  0.00     0.000 HD 
HETATM   26  O   UNL     1      -7.267   7.291  67.732  1.00  0.00    -0.085 OA 
HETATM   27  C   UNL     1      -8.067   8.210  65.637  1.00  0.00    -0.119 A  
HETATM   28  C   UNL     1      -9.032   8.851  67.846  1.00  0.00    -0.142 A  
HETATM   29  C   UNL     1      -8.131   8.105  67.057  1.00  0.00    -0.108 A  
BRANCH  27  30
HETATM   30  C   UNL     1      -7.061   7.447  64.738  1.00  0.00    -0.061 C  
HETATM   31  C   UNL     1      -6.855   5.964  65.169  1.00  0.00    -0.051 C  
HETATM   32  C   UNL     1      -7.572   7.400  63.284  1.00  0.00    -0.114 C  
HETATM   33  C   UNL     1      -5.653   8.077  64.797  1.00  0.00    -0.044 C  
ENDBRANCH  27  30
BRANCH  28  34
HETATM   34  C   UNL     1      -9.156   8.707  69.390  1.00  0.00    -0.149 C  
HETATM   35  C   UNL     1      -9.249   7.233  69.887  1.00  0.00    -0.141 C  
HETATM   36  C   UNL     1     -10.424   9.404  69.932  1.00  0.00    -0.257 C  
HETATM   37  C   UNL     1      -7.902   9.297  70.070  1.00  0.00    -0.117 C  
ENDBRANCH  28  34
ENDBRANCH  21  22
ENDBRANCH   2  21
TORSDOF 8
ENDMDL
MODEL      296
REMARK 921   NORMALIZED FREE ENERGY PREDICTED BY IDOCK:   -2.32 KCAL/MOL
REMARK 922        TOTAL FREE ENERGY PREDICTED BY IDOCK:   -4.01 KCAL/MOL
REMARK 923 INTER-LIGAND FREE ENERGY PREDICTED BY IDOCK:   -5.00 KCAL/MOL
REMARK 924 INTRA-LIGAND FREE ENERGY PREDICTED BY IDOCK:    0.99 KCAL/MOL
REMARK 927      BINDING AFFINITY PREDICTED BY RF-SCORE:    0.00 PKD
ROOT
HETATM    1  C   UNL     1      -5.142  14.122  67.330  1.00  0.00     0.396 C  
HETATM    2  C   UNL     1      -6.061  13.427  68.351  1.00  0.00    -0.092 C  
HETATM    3  C   UNL     1      -5.380  12.125  68.803  1.00  0.00    -0.050 C  
ENDROOT
BRANCH   2   4
HETATM    4  S   UNL     1      -7.648  12.991  67.515  1.00  0.00    -0.153 SA 
BRANCH   4   5
HETATM    5  C   UNL     1      -7.622  11.206  67.390  1.00  0.00    -0.113 A  
HETATM    6  C   UNL     1      -7.868   8.433  67.118  1.00  0.00    -0.100 A  
HETATM    7  O   UNL     1      -8.025   7.095  66.891  1.00  0.00    -0.111 OA 
HETATM    8  H   UNL     1      -7.694   6.685  66.100  1.00  0.00     0.000 HD 
HETATM    9  C   UNL     1      -8.241  10.454  68.383  1.00  0.00    -0.114 A  
HETATM   10  C   UNL     1      -7.235   9.157  66.085  1.00  0.00    -0.090 A  
HETATM   11  C   UNL     1      -7.116  10.534  66.284  1.00  0.00    -0.132 A  
HETATM   12  C   UNL     1      -8.363   9.048  68.303  1.00  0.00    -0.121 A  
BRANCH  12  13
HETATM   13  C   UNL     1      -9.048   8.286  69.466  1.00  0.00    -0.154 C  
HETATM   14  C   UNL     1     -10.471   7.824  69.074  1.00  0.00    -0.215 C  
HETATM   15  C   UNL     1      -9.098   9.161  70.736  1.00  0.00    -0.313 C  
HETATM   16  C   UNL     1      -8.307   6.980  69.875  1.00  0.00    -0.139 C  
ENDBRANCH  12  13
BRANCH  10  17
HETATM   17  C   UNL     1      -6.669   8.522  64.787  1.00  0.00    -0.068 C  
HETATM   18  C   UNL     1      -5.914   9.566  63.937  1.00  0.00    -0.094 C  
HETATM   19  C   UNL     1      -5.645   7.373  65.029  1.00  0.00    -0.033 C  
HETATM   20  C   UNL     1      -7.815   7.892  63.970  1.00  0.00    -0.138 C  
ENDBRANCH  10  17
ENDBRANCH   4   5
ENDBRANCH   2   4
BRANCH   2  21
HETATM   21  S   UNL     1      -6.214  14.532  69.821  1.00  0.00    -0.151 SA 
BRANCH  21  22
HETATM   22  C   UNL     1      -7.784  15.368  69.607  1.00  0.00    -0.156 A  
HETATM   23  C   UNL     1      -9.002  14.869  70.074  1.00  0.00     0.507 A  
HETATM   24  C   UNL     1      -7.800  16.493  68.797  1.00  0.00    -0.235 A  
HETATM   25  H   UNL     1     -12.218  16.732  68.894  1.00  0.00     0.000 HD 
HETATM   26  O   UNL     1     -11.411  17.106  68.561  1.00  0.00    -0.089 OA 
HETATM   27  C   UNL     1      -8.991  17.144  68.425  1.00  0.00    -0.259 A  
HETATM   28  C   UNL     1     -10.239  15.452  69.767  1.00  0.00    -0.278 A  
HETATM   29  C   UNL     1     -10.203  16.583  68.924  1.00  0.00    -0.268 A  
BRANCH  27  30
HETATM   30  C   UNL     1      -8.909  18.354  67.461  1.00  0.00    -0.267 C  
HETATM   31  C   UNL     1      -9.201  19.717  68.157  1.00  0.00    -0.418 C  
HETATM   32  C   UNL     1      -7.489  18.474  66.872  1.00  0.00    -0.233 C  
HETATM   33  C   UNL     1      -9.957  18.254  66.331  1.00  0.00    -0.385 C  
ENDBRANCH  27  30
BRANCH  28  34
HETATM   34  C   UNL     1     -11.546  14.861  70.369  1.00  0.00    -0.330 C  
HETATM   35  C   UNL     1     -11.691  15.070  71.906  1.00  0.00    -0.454 C  
HETATM   36  C   UNL     1     -11.640  13.335  70.152  1.00  0.00    -0.155 C  
HETATM   37  C   UNL     1     -12.771  15.557  69.737  1.00  0.00     0.005 C  
ENDBRANCH  28  34
ENDBRANCH  21  22
ENDBRANCH   2  21
TORSDOF 8
ENDMDL
MODEL      297
REMARK 921   NORMALIZED FREE ENERGY PREDICTED BY IDOCK:   -2.25 KCAL/MOL
REMARK 922        TOTAL FREE ENERGY PREDICTED BY IDOCK:   -3.90 KCAL/MOL
REMARK 923 INTER-LIGAND FREE ENERGY PREDICTED BY IDOCK:   -4.42 KCAL/MOL
REMARK 924 INTRA-LIGAND FREE ENERGY PREDICTED BY IDOCK:    0.52 KCAL/MOL
REMARK 927      BINDING AFFINITY PREDICTED BY RF-SCORE:    0.00 PKD
ROOT
HETATM    1  C   UNL     1      -7.939   8.583  72.920  1.00  0.00    -0.079 C  
HETATM    2  C   UNL     1      -7.556   8.092  71.513  1.00  0.00    -0.083 C  
HETATM    3  C   UNL     1      -6.832   9.235  70.784  1.00  0.00    -0.100 C  
ENDROOT
BRANCH   2   4
HETATM    4  S   UNL     1      -9.102   7.698  70.584  1.00  0.00    -0.158 SA 
BRANCH   4   5
HETATM    5  C   UNL     1      -9.040   8.745  69.133  1.00  0.00    -0.141 A  
HETATM    6  C   UNL     1      -9.131  10.188  66.738  1.00  0.00    -0.139 A  
HETATM    7  O   UNL     1      -9.277  10.892  65.577  1.00  0.00    -0.195 OA 
HETATM    8  H   UNL     1      -9.826  11.667  65.533  1.00  0.00     0.000 HD 
HETATM    9  C   UNL     1      -8.316   8.316  68.025  1.00  0.00    -0.129 A  
HETATM   10  C   UNL     1      -9.883  10.658  67.836  1.00  0.00    -0.181 A  
HETATM   11  C   UNL     1      -9.781   9.915  69.014  1.00  0.00    -0.195 A  
HETATM   12  C   UNL     1      -8.308   9.027  66.803  1.00  0.00    -0.115 A  
BRANCH  12  13
HETATM   13  C   UNL     1      -7.456   8.488  65.626  1.00  0.00    -0.085 C  
HETATM   14  C   UNL     1      -6.971   7.046  65.899  1.00  0.00    -0.064 C  
HETATM   15  C   UNL     1      -6.255   9.417  65.354  1.00  0.00    -0.065 C  
HETATM   16  C   UNL     1      -8.239   8.396  64.285  1.00  0.00    -0.130 C  
ENDBRANCH  12  13
BRANCH  10  17
HETATM   17  C   UNL     1     -10.778  11.926  67.809  1.00  0.00    -0.243 C  
HETATM   18  C   UNL     1      -9.926  13.213  67.829  1.00  0.00    -0.227 C  
HETATM   19  C   UNL     1     -11.676  12.049  66.542  1.00  0.00    -0.330 C  
HETATM   20  C   UNL     1     -11.749  11.905  69.006  1.00  0.00    -0.391 C  
ENDBRANCH  10  17
ENDBRANCH   4   5
ENDBRANCH   2   4
BRANCH   2  21
HETATM   21  S   UNL     1      -6.366   6.694  71.704  1.00  0.00    -0.042 SA 
BRANCH  21  22
HETATM   22  C   UNL     1      -7.356   5.215  71.491  1.00  0.00    -0.086 A  
HETATM   23  C   UNL     1      -7.366   4.447  70.325  1.00  0.00    -0.049 A  
HETATM   24  C   UNL     1      -8.272   4.915  72.486  1.00  0.00    -0.115 A  
HETATM   25  H   UNL     1     -10.078   1.655  70.101  1.00  0.00     0.000 HD 
HETATM   26  O   UNL     1     -10.100   2.150  70.911  1.00  0.00     0.057 OA 
HETATM   27  C   UNL     1      -9.212   3.875  72.364  1.00  0.00    -0.152 A  
HETATM   28  C   UNL     1      -8.256   3.386  70.113  1.00  0.00    -0.066 A  
HETATM   29  C   UNL     1      -9.181   3.132  71.148  1.00  0.00    -0.126 A  
BRANCH  27  30
HETATM   30  C   UNL     1     -10.240   3.661  73.504  1.00  0.00    -0.216 C  
HETATM   31  C   UNL     1     -10.046   2.314  74.263  1.00  0.00    -0.163 C  
HETATM   32  C   UNL     1     -10.100   4.770  74.566  1.00  0.00    -0.267 C  
HETATM   33  C   UNL     1     -11.686   3.607  72.965  1.00  0.00     0.275 C  
ENDBRANCH  27  30
BRANCH  28  34
HETATM   34  C   UNL     1      -8.169   2.549  68.804  1.00  0.00    -0.074 C  
HETATM   35  C   UNL     1      -9.468   1.756  68.467  1.00  0.00    -0.231 C  
HETATM   36  C   UNL     1      -7.047   1.490  68.873  1.00  0.00    -0.036 C  
HETATM   37  C   UNL     1      -7.932   3.488  67.601  1.00  0.00    -0.081 C  
ENDBRANCH  28  34
ENDBRANCH  21  22
ENDBRANCH   2  21
TORSDOF 8
ENDMDL
MODEL      298
REMARK 921   NORMALIZED FREE ENERGY PREDICTED BY IDOCK:   -2.09 KCAL/MOL
REMARK 922        TOTAL FREE ENERGY PREDICTED BY IDOCK:   -3.66 KCAL/MOL
REMARK 923 INTER-LIGAND FREE ENERGY PREDICTED BY IDOCK:   -4.71 KCAL/MOL
REMARK 924 INTRA-LIGAND FREE ENERGY PREDICTED BY IDOCK:    1.05 KCAL/MOL
REMARK 927      BINDING AFFINITY PREDICTED BY RF-SCORE:    0.00 PKD
ROOT
HETATM    1  C   UNL     1      -9.355   4.233  65.830  1.00  0.00    -0.164 C  
HETATM    2  C   UNL     1      -8.577   3.603  66.998  1.00  0.00    -0.109 C  
HETATM    3  C   UNL     1      -8.059   2.228  66.547  1.00  0.00    -0.083 C  
ENDROOT
BRANCH   2   4
HETATM    4  S   UNL     1      -9.737   3.350  68.412  1.00  0.00     0.182 SA 
BRANCH   4   5
HETATM    5  C   UNL     1      -9.152   4.462  69.687  1.00  0.00    -0.114 A  
HETATM    6  C   UNL     1      -8.420   6.056  71.866  1.00  0.00    -0.133 A  
HETATM    7  O   UNL     1      -8.042   6.748  72.981  1.00  0.00    -0.108 OA 
HETATM    8  H   UNL     1      -7.222   6.564  73.425  1.00  0.00     0.000 HD 
HETATM    9  C   UNL     1      -9.988   5.484  70.123  1.00  0.00    -0.287 A  
HETATM   10  C   UNL     1      -7.542   5.029  71.459  1.00  0.00    -0.096 A  
HETATM   11  C   UNL     1      -7.944   4.280  70.351  1.00  0.00    -0.052 A  
HETATM   12  C   UNL     1      -9.648   6.334  71.200  1.00  0.00    -0.190 A  
BRANCH  12  13
HETATM   13  C   UNL     1     -10.630   7.462  71.605  1.00  0.00    -0.229 C  
HETATM   14  C   UNL     1     -10.048   8.857  71.279  1.00  0.00    -0.365 C  
HETATM   15  C   UNL     1     -10.984   7.364  73.104  1.00  0.00    -0.408 C  
HETATM   16  C   UNL     1     -11.985   7.410  70.841  1.00  0.00    -0.308 C  
ENDBRANCH  12  13
BRANCH  10  17
HETATM   17  C   UNL     1      -6.190   4.705  72.148  1.00  0.00    -0.021 C  
HETATM   18  C   UNL     1      -5.141   5.801  71.864  1.00  0.00    -0.016 C  
HETATM   19  C   UNL     1      -6.269   4.606  73.701  1.00  0.00    -0.045 C  
HETATM   20  C   UNL     1      -5.675   3.332  71.670  1.00  0.00    -0.009 C  
ENDBRANCH  10  17
ENDBRANCH   4   5
ENDBRANCH   2   4
BRANCH   2  21
HETATM   21  S   UNL     1      -7.116   4.675  67.351  1.00  0.00    -0.066 SA 
BRANCH  21  22
HETATM   22  C   UNL     1      -7.529   6.265  66.636  1.00  0.00    -0.090 A  
HETATM   23  C   UNL     1      -8.167   7.291  67.336  1.00  0.00    -0.116 A  
HETATM   24  C   UNL     1      -7.339   6.416  65.271  1.00  0.00    -0.077 A  
HETATM   25  H   UNL     1      -9.369  10.349  65.235  1.00  0.00     0.000 HD 
HETATM   26  O   UNL     1      -8.934   9.676  64.724  1.00  0.00    -0.198 OA 
HETATM   27  C   UNL     1      -7.768   7.556  64.567  1.00  0.00    -0.123 A  
HETATM   28  C   UNL     1      -8.623   8.468  66.726  1.00  0.00    -0.119 A  
HETATM   29  C   UNL     1      -8.422   8.566  65.333  1.00  0.00    -0.173 A  
BRANCH  27  30
HETATM   30  C   UNL     1      -7.570   7.603  63.031  1.00  0.00    -0.119 C  
HETATM   31  C   UNL     1      -8.438   8.690  62.330  1.00  0.00    -0.194 C  
HETATM   32  C   UNL     1      -6.106   7.945  62.690  1.00  0.00    -0.073 C  
HETATM   33  C   UNL     1      -7.985   6.274  62.363  1.00  0.00    -0.104 C  
ENDBRANCH  27  30
BRANCH  28  34
HETATM   34  C   UNL     1      -9.281   9.584  67.587  1.00  0.00    -0.138 C  
HETATM   35  C   UNL     1      -9.258  10.995  66.927  1.00  0.00    -0.168 C  
HETATM   36  C   UNL     1      -8.570   9.755  68.947  1.00  0.00    -0.134 C  
HETATM   37  C   UNL     1     -10.773   9.255  67.813  1.00  0.00    -0.270 C  
ENDBRANCH  28  34
ENDBRANCH  21  22
ENDBRANCH   2  21
TORSDOF 8
ENDMDL
MODEL      299
REMARK 921   NORMALIZED FREE ENERGY PREDICTED BY IDOCK:   -2.06 KCAL/MOL
REMARK 922        TOTAL FREE ENERGY PREDICTED BY IDOCK:   -3.62 KCAL/MOL
REMARK 923 INTER-LIGAND FREE ENERGY PREDICTED BY IDOCK:   -5.22 KCAL/MOL
REMARK 924 INTRA-LIGAND FREE ENERGY PREDICTED BY IDOCK:    1.59 KCAL/MOL
REMARK 927      BINDING AFFINITY PREDICTED BY RF-SCORE:    0.00 PKD
ROOT
HETATM    1  C   UNL     1     -11.015  10.743  66.450  1.00  0.00    -0.108 C  
HETATM    2  C   UNL     1     -11.203  12.003  65.587  1.00  0.00    -0.327 C  
HETATM    3  C   UNL     1     -12.084  11.635  64.382  1.00  0.00    -0.085 C  
ENDROOT
BRANCH   2   4
HETATM    4  S   UNL     1      -9.552  12.538  64.956  1.00  0.00     0.226 SA 
BRANCH   4   5
HETATM    5  C   UNL     1      -8.733  13.257  66.376  1.00  0.00     0.220 A  
HETATM    6  C   UNL     1      -7.197  14.339  68.448  1.00  0.00    -0.113 A  
HETATM    7  O   UNL     1      -6.405  14.930  69.391  1.00  0.00    -0.108 OA 
HETATM    8  H   UNL     1      -6.359  15.875  69.478  1.00  0.00     0.000 HD 
HETATM    9  C   UNL     1      -8.031  12.423  67.240  1.00  0.00    -0.178 A  
HETATM   10  C   UNL     1      -7.890  15.222  67.593  1.00  0.00    -0.177 A  
HETATM   11  C   UNL     1      -8.662  14.629  66.592  1.00  0.00    -0.197 A  
HETATM   12  C   UNL     1      -7.265  12.922  68.318  1.00  0.00    -0.112 A  
BRANCH  12  13
HETATM   13  C   UNL     1      -6.532  11.920  69.246  1.00  0.00    -0.111 C  
HETATM   14  C   UNL     1      -7.511  10.874  69.827  1.00  0.00     0.042 C  
HETATM   15  C   UNL     1      -5.803  12.664  70.384  1.00  0.00    -0.155 C  
HETATM   16  C   UNL     1      -5.444  11.081  68.516  1.00  0.00    -0.043 C  
ENDBRANCH  12  13
BRANCH  10  17
HETATM   17  C   UNL     1      -7.854  16.769  67.711  1.00  0.00    -0.187 C  
HETATM   18  C   UNL     1      -8.722  17.434  66.623  1.00  0.00    -0.286 C  
HETATM   19  C   UNL     1      -8.397  17.321  69.063  1.00  0.00    -0.090 C  
HETATM   20  C   UNL     1      -6.397  17.267  67.615  1.00  0.00    -0.166 C  
ENDBRANCH  10  17
ENDBRANCH   4   5
ENDBRANCH   2   4
BRANCH   2  21
HETATM   21  S   UNL     1     -12.111  13.253  66.596  1.00  0.00    -0.317 SA 
BRANCH  21  22
HETATM   22  C   UNL     1     -11.990  12.658  68.282  1.00  0.00    -0.222 A  
HETATM   23  C   UNL     1     -11.642  11.349  68.623  1.00  0.00    -0.384 A  
HETATM   24  C   UNL     1     -12.417  13.510  69.289  1.00  0.00     0.061 A  
HETATM   25  H   UNL     1     -12.052  10.354  72.371  1.00  0.00     0.000 HD 
HETATM   26  O   UNL     1     -12.292  11.254  72.181  1.00  0.00     0.310 OA 
HETATM   27  C   UNL     1     -12.519  13.105  70.633  1.00  0.00    -0.363 A  
HETATM   28  C   UNL     1     -11.701  10.855  69.933  1.00  0.00    -0.418 A  
HETATM   29  C   UNL     1     -12.160  11.755  70.918  1.00  0.00    -0.167 A  
BRANCH  27  30
HETATM   30  C   UNL     1     -13.072  14.111  71.675  1.00  0.00    -0.425 C  
HETATM   31  C   UNL     1     -12.014  14.545  72.732  1.00  0.00    -0.027 C  
HETATM   32  C   UNL     1     -13.531  15.406  70.976  1.00  0.00    -0.510 C  
HETATM   33  C   UNL     1     -14.227  13.501  72.498  1.00  0.00    -0.342 C  
ENDBRANCH  27  30
BRANCH  28  34
HETATM   34  C   UNL     1     -11.249   9.397  70.234  1.00  0.00    -0.286 C  
HETATM   35  C   UNL     1     -12.423   8.411  70.513  1.00  0.00     0.413 C  
HETATM   36  C   UNL     1     -10.346   9.323  71.485  1.00  0.00    -0.364 C  
HETATM   37  C   UNL     1     -10.503   8.821  69.012  1.00  0.00    -0.220 C  
ENDBRANCH  28  34
ENDBRANCH  21  22
ENDBRANCH   2  21
TORSDOF 8
ENDMDL
MODEL      300
REMARK 921   NORMALIZED FREE ENERGY PREDICTED BY IDOCK:   -1.90 KCAL/MOL
REMARK 922        TOTAL FREE ENERGY PREDICTED BY IDOCK:   -3.39 KCAL/MOL
REMARK 923 INTER-LIGAND FREE ENERGY PREDICTED BY IDOCK:   -5.07 KCAL/MOL
REMARK 924 INTRA-LIGAND FREE ENERGY PREDICTED BY IDOCK:    1.68 KCAL/MOL
REMARK 927      BINDING AFFINITY PREDICTED BY RF-SCORE:    0.00 PKD
ROOT
HETATM    1  C   UNL     1     -11.951  13.226  66.369  1.00  0.00    -0.465 C  
HETATM    2  C   UNL     1     -11.370  13.500  64.971  1.00  0.00    -0.320 C  
HETATM    3  C   UNL     1     -12.250  14.555  64.281  1.00  0.00    -0.441 C  
ENDROOT
BRANCH   2   4
HETATM    4  S   UNL     1     -11.449  11.943  63.982  1.00  0.00    -0.393 SA 
BRANCH   4   5
HETATM    5  C   UNL     1     -10.505  10.753  64.929  1.00  0.00    -0.254 A  
HETATM    6  C   UNL     1      -8.801   9.085  66.392  1.00  0.00    -0.146 A  
HETATM    7  O   UNL     1      -7.951   8.350  67.168  1.00  0.00    -0.102 OA 
HETATM    8  H   UNL     1      -8.038   8.328  68.114  1.00  0.00     0.000 HD 
HETATM    9  C   UNL     1      -9.535   9.996  64.281  1.00  0.00    -0.336 A  
HETATM   10  C   UNL     1      -9.768   9.838  67.091  1.00  0.00    -0.223 A  
HETATM   11  C   UNL     1     -10.610  10.634  66.310  1.00  0.00    -0.229 A  
HETATM   12  C   UNL     1      -8.671   9.118  64.974  1.00  0.00    -0.222 A  
BRANCH  12  13
HETATM   13  C   UNL     1      -7.634   8.295  64.169  1.00  0.00    -0.127 C  
HETATM   14  C   UNL     1      -6.193   8.779  64.450  1.00  0.00    -0.067 C  
HETATM   15  C   UNL     1      -7.939   8.362  62.658  1.00  0.00    -0.154 C  
HETATM   16  C   UNL     1      -7.622   6.782  64.536  1.00  0.00    -0.103 C  
ENDBRANCH  12  13
BRANCH  10  17
HETATM   17  C   UNL     1      -9.952   9.818  68.632  1.00  0.00    -0.181 C  
HETATM   18  C   UNL     1     -11.171  10.662  69.061  1.00  0.00    -0.324 C  
HETATM   19  C   UNL     1     -10.204   8.401  69.229  1.00  0.00    -0.211 C  
HETATM   20  C   UNL     1      -8.671  10.336  69.318  1.00  0.00    -0.182 C  
ENDBRANCH  10  17
ENDBRANCH   4   5
ENDBRANCH   2   4
BRANCH   2  21
HETATM   21  S   UNL     1      -9.683  14.219  65.187  1.00  0.00     0.256 SA 
BRANCH  21  22
HETATM   22  C   UNL     1      -9.518  14.480  66.952  1.00  0.00    -0.252 A  
HETATM   23  C   UNL     1     -10.598  14.525  67.837  1.00  0.00    -0.243 A  
HETATM   24  C   UNL     1      -8.260  14.809  67.430  1.00  0.00    -0.216 A  
HETATM   25  H   UNL     1      -9.819  15.674  71.481  1.00  0.00     0.000 HD 
HETATM   26  O   UNL     1      -9.058  15.651  70.912  1.00  0.00     1.573 OA 
HETATM   27  C   UNL     1      -8.031  15.190  68.766  1.00  0.00    -0.162 A  
HETATM   28  C   UNL     1     -10.470  14.883  69.185  1.00  0.00    -0.246 A  
HETATM   29  C   UNL     1      -9.172  15.227  69.619  1.00  0.00    -0.134 A  
BRANCH  27  30
HETATM   30  C   UNL     1      -6.598  15.604  69.188  1.00  0.00    -0.140 C  
HETATM   31  C   UNL     1      -6.070  14.819  70.425  1.00  0.00    -0.160 C  
HETATM   32  C   UNL     1      -5.601  15.319  68.047  1.00  0.00    -0.146 C  
HETATM   33  C   UNL     1      -6.534  17.090  69.605  1.00  0.00    -0.175 C  
ENDBRANCH  27  30
BRANCH  28  34
HETATM   34  C   UNL     1     -11.717  14.861  70.116  1.00  0.00    -0.340 C  
HETATM   35  C   UNL     1     -11.590  15.772  71.373  1.00  0.00    -0.511 C  
HETATM   36  C   UNL     1     -12.000  13.444  70.663  1.00  0.00    -0.290 C  
HETATM   37  C   UNL     1     -12.950  15.383  69.347  1.00  0.00     0.595 C  
ENDBRANCH  28  34
ENDBRANCH  21  22
ENDBRANCH   2  21
TORSDOF 8
ENDMDL
MODEL      301
REMARK 921   NORMALIZED FREE ENERGY PREDICTED BY IDOCK:   -1.83 KCAL/MOL
REMARK 922        TOTAL FREE ENERGY PREDICTED BY IDOCK:   -3.28 KCAL/MOL
REMARK 923 INTER-LIGAND FREE ENERGY PREDICTED BY IDOCK:   -4.45 KCAL/MOL
REMARK 924 INTRA-LIGAND FREE ENERGY PREDICTED BY IDOCK:    1.17 KCAL/MOL
REMARK 927      BINDING AFFINITY PREDICTED BY RF-SCORE:    0.00 PKD
ROOT
HETATM    1  C   UNL     1      -6.941  13.054  69.732  1.00  0.00     0.370 C  
HETATM    2  C   UNL     1      -7.229  11.802  68.885  1.00  0.00    -0.107 C  
HETATM    3  C   UNL     1      -6.753  10.569  69.670  1.00  0.00    -0.108 C  
ENDROOT
BRANCH   2   4
HETATM    4  S   UNL     1      -6.250  11.907  67.323  1.00  0.00    -0.151 SA 
BRANCH   4   5
HETATM    5  C   UNL     1      -7.393  11.417  66.036  1.00  0.00     0.225 A  
HETATM    6  C   UNL     1      -9.277  10.443  64.212  1.00  0.00    -0.255 A  
HETATM    7  O   UNL     1     -10.268   9.979  63.394  1.00  0.00    -0.385 OA 
HETATM    8  H   UNL     1     -11.082  10.456  63.283  1.00  0.00     0.000 HD 
HETATM    9  C   UNL     1      -7.148  10.244  65.330  1.00  0.00    -0.139 A  
HETATM   10  C   UNL     1      -9.569  11.635  64.907  1.00  0.00    -0.173 A  
HETATM   11  C   UNL     1      -8.583  12.091  65.786  1.00  0.00     0.388 A  
HETATM   12  C   UNL     1      -8.056   9.728  64.378  1.00  0.00    -0.150 A  
BRANCH  12  13
HETATM   13  C   UNL     1      -7.692   8.425  63.622  1.00  0.00    -0.144 C  
HETATM   14  C   UNL     1      -6.192   8.392  63.250  1.00  0.00    -0.081 C  
HETATM   15  C   UNL     1      -8.563   8.268  62.358  1.00  0.00    -0.065 C  
HETATM   16  C   UNL     1      -7.920   7.135  64.463  1.00  0.00    -0.104 C  
ENDBRANCH  12  13
BRANCH  10  17
HETATM   17  C   UNL     1     -10.879  12.450  64.743  1.00  0.00    -0.340 C  
HETATM   18  C   UNL     1     -11.815  12.256  65.954  1.00  0.00    -0.420 C  
HETATM   19  C   UNL     1     -10.666  13.990  64.634  1.00  0.00    -0.416 C  
HETATM   20  C   UNL     1     -11.592  12.037  63.440  1.00  0.00    -0.495 C  
ENDBRANCH  10  17
ENDBRANCH   4   5
ENDBRANCH   2   4
BRANCH   2  21
HETATM   21  S   UNL     1      -9.057  11.670  68.670  1.00  0.00    -0.037 SA 
BRANCH  21  22
HETATM   22  C   UNL     1      -9.687  13.297  69.080  1.00  0.00     0.305 A  
HETATM   23  C   UNL     1     -10.697  13.528  70.015  1.00  0.00     0.752 A  
HETATM   24  C   UNL     1      -9.248  14.361  68.307  1.00  0.00    -0.201 A  
HETATM   25  H   UNL     1     -12.135  17.149  70.171  1.00  0.00     0.000 HD 
HETATM   26  O   UNL     1     -11.445  17.035  69.528  1.00  0.00     0.351 OA 
HETATM   27  C   UNL     1      -9.783  15.657  68.425  1.00  0.00    -0.202 A  
HETATM   28  C   UNL     1     -11.287  14.783  70.213  1.00  0.00    -0.277 A  
HETATM   29  C   UNL     1     -10.819  15.829  69.390  1.00  0.00    -0.269 A  
BRANCH  27  30
HETATM   30  C   UNL     1      -9.273  16.765  67.470  1.00  0.00    -0.215 C  
HETATM   31  C   UNL     1     -10.392  17.361  66.565  1.00  0.00    -0.312 C  
HETATM   32  C   UNL     1      -8.705  17.949  68.279  1.00  0.00    -0.277 C  
HETATM   33  C   UNL     1      -8.213  16.224  66.486  1.00  0.00    -0.344 C  
ENDBRANCH  27  30
BRANCH  28  34
HETATM   34  C   UNL     1     -12.374  14.966  71.311  1.00  0.00    -0.385 C  
HETATM   35  C   UNL     1     -12.126  16.178  72.259  1.00  0.00    -0.616 C  
HETATM   36  C   UNL     1     -12.467  13.733  72.238  1.00  0.00    -0.059 C  
HETATM   37  C   UNL     1     -13.744  15.229  70.649  1.00  0.00    -0.109 C  
ENDBRANCH  28  34
ENDBRANCH  21  22
ENDBRANCH   2  21
TORSDOF 8
ENDMDL
MODEL      302
REMARK 921   NORMALIZED FREE ENERGY PREDICTED BY IDOCK:   -1.75 KCAL/MOL
REMARK 922        TOTAL FREE ENERGY PREDICTED BY IDOCK:   -3.16 KCAL/MOL
REMARK 923 INTER-LIGAND FREE ENERGY PREDICTED BY IDOCK:   -4.26 KCAL/MOL
REMARK 924 INTRA-LIGAND FREE ENERGY PREDICTED BY IDOCK:    1.10 KCAL/MOL
REMARK 927      BINDING AFFINITY PREDICTED BY RF-SCORE:    0.00 PKD
ROOT
HETATM    1  C   UNL     1     -13.190   9.956  71.496  1.00  0.00    -0.501 C  
HETATM    2  C   UNL     1     -12.032   9.132  70.907  1.00  0.00    -0.242 C  
HETATM    3  C   UNL     1     -11.407   9.934  69.754  1.00  0.00    -0.241 C  
ENDROOT
BRANCH   2   4
HETATM    4  S   UNL     1     -12.717   7.563  70.215  1.00  0.00     0.955 SA 
BRANCH   4   5
HETATM    5  C   UNL     1     -11.411   6.359  70.437  1.00  0.00    -0.389 A  
HETATM    6  C   UNL     1      -9.581   4.268  70.761  1.00  0.00    -0.186 A  
HETATM    7  O   UNL     1      -8.724   3.207  70.834  1.00  0.00    -0.068 OA 
HETATM    8  H   UNL     1      -8.196   2.945  70.088  1.00  0.00     0.000 HD 
HETATM    9  C   UNL     1     -11.301   5.704  71.659  1.00  0.00    -0.150 A  
HETATM   10  C   UNL     1      -9.661   4.903  69.504  1.00  0.00    -0.240 A  
HETATM   11  C   UNL     1     -10.571   5.957  69.404  1.00  0.00    -0.379 A  
HETATM   12  C   UNL     1     -10.371   4.662  71.879  1.00  0.00    -0.220 A  
BRANCH  12  13
HETATM   13  C   UNL     1     -10.301   4.001  73.279  1.00  0.00    -0.233 C  
HETATM   14  C   UNL     1      -8.938   3.309  73.506  1.00  0.00    -0.084 C  
HETATM   15  C   UNL     1     -11.454   2.992  73.464  1.00  0.00    -0.176 C  
HETATM   16  C   UNL     1     -10.429   5.017  74.451  1.00  0.00    -0.313 C  
ENDBRANCH  12  13
BRANCH  10  17
HETATM   17  C   UNL     1      -8.806   4.515  68.268  1.00  0.00    -0.126 C  
HETATM   18  C   UNL     1      -7.299   4.545  68.597  1.00  0.00    -0.060 C  
HETATM   19  C   UNL     1      -9.078   3.078  67.727  1.00  0.00    -0.223 C  
HETATM   20  C   UNL     1      -9.120   5.466  67.095  1.00  0.00    -0.111 C  
ENDBRANCH  10  17
ENDBRANCH   4   5
ENDBRANCH   2   4
BRANCH   2  21
HETATM   21  S   UNL     1     -10.752   8.929  72.221  1.00  0.00     0.019 SA 
BRANCH  21  22
HETATM   22  C   UNL     1      -9.244   8.536  71.336  1.00  0.00    -0.210 A  
HETATM   23  C   UNL     1      -8.277   7.643  71.805  1.00  0.00    -0.118 A  
HETATM   24  C   UNL     1      -8.960   9.280  70.202  1.00  0.00    -0.239 A  
HETATM   25  H   UNL     1      -4.914   7.523  69.834  1.00  0.00     0.000 HD 
HETATM   26  O   UNL     1      -5.548   8.137  69.480  1.00  0.00    -0.026 OA 
HETATM   27  C   UNL     1      -7.738   9.176  69.512  1.00  0.00    -0.080 A  
HETATM   28  C   UNL     1      -7.035   7.462  71.182  1.00  0.00    -0.058 A  
HETATM   29  C   UNL     1      -6.787   8.256  70.043  1.00  0.00    -0.043 A  
BRANCH  27  30
HETATM   30  C   UNL     1      -7.488  10.099  68.293  1.00  0.00    -0.082 C  
HETATM   31  C   UNL     1      -6.082  10.768  68.305  1.00  0.00    -0.046 C  
HETATM   32  C   UNL     1      -7.562   9.289  66.983  1.00  0.00    -0.091 C  
HETATM   33  C   UNL     1      -8.486  11.277  68.257  1.00  0.00    -0.152 C  
ENDBRANCH  27  30
BRANCH  28  34
HETATM   34  C   UNL     1      -6.033   6.411  71.741  1.00  0.00    -0.037 C  
HETATM   35  C   UNL     1      -6.710   5.166  72.389  1.00  0.00    -0.057 C  
HETATM   36  C   UNL     1      -5.131   7.007  72.844  1.00  0.00    -0.037 C  
HETATM   37  C   UNL     1      -5.162   5.860  70.592  1.00  0.00    -0.013 C  
ENDBRANCH  28  34
ENDBRANCH  21  22
ENDBRANCH   2  21
TORSDOF 8
ENDMDL
MODEL      303
REMARK 921   NORMALIZED FREE ENERGY PREDICTED BY IDOCK:   -1.59 KCAL/MOL
REMARK 922        TOTAL FREE ENERGY PREDICTED BY IDOCK:   -2.93 KCAL/MOL
REMARK 923 INTER-LIGAND FREE ENERGY PREDICTED BY IDOCK:   -3.84 KCAL/MOL
REMARK 924 INTRA-LIGAND FREE ENERGY PREDICTED BY IDOCK:    0.91 KCAL/MOL
REMARK 927      BINDING AFFINITY PREDICTED BY RF-SCORE:    0.00 PKD
ROOT
HETATM    1  C   UNL     1      -7.768   5.315  70.731  1.00  0.00    -0.088 C  
HETATM    2  C   UNL     1      -8.389   6.683  70.399  1.00  0.00    -0.127 C  
HETATM    3  C   UNL     1      -8.929   7.296  71.701  1.00  0.00    -0.131 C  
ENDROOT
BRANCH   2   4
HETATM    4  S   UNL     1      -9.810   6.423  69.249  1.00  0.00    -0.151 SA 
BRANCH   4   5
HETATM    5  C   UNL     1      -9.077   6.403  67.616  1.00  0.00    -0.114 A  
HETATM    6  C   UNL     1      -8.205   6.319  64.959  1.00  0.00    -0.132 A  
HETATM    7  O   UNL     1      -7.851   6.347  63.641  1.00  0.00    -0.109 OA 
HETATM    8  H   UNL     1      -7.690   7.167  63.189  1.00  0.00     0.000 HD 
HETATM    9  C   UNL     1      -8.912   5.183  66.968  1.00  0.00    -0.112 A  
HETATM   10  C   UNL     1      -8.361   7.578  65.576  1.00  0.00    -0.137 A  
HETATM   11  C   UNL     1      -8.773   7.562  66.911  1.00  0.00    -0.131 A  
HETATM   12  C   UNL     1      -8.447   5.089  65.637  1.00  0.00    -0.127 A  
BRANCH  12  13
HETATM   13  C   UNL     1      -8.272   3.687  65.000  1.00  0.00    -0.097 C  
HETATM   14  C   UNL     1      -9.631   3.096  64.562  1.00  0.00    -0.151 C  
HETATM   15  C   UNL     1      -7.559   2.730  65.978  1.00  0.00    -0.076 C  
HETATM   16  C   UNL     1      -7.409   3.698  63.705  1.00  0.00    -0.051 C  
ENDBRANCH  12  13
BRANCH  10  17
HETATM   17  C   UNL     1      -8.093   8.938  64.878  1.00  0.00    -0.144 C  
HETATM   18  C   UNL     1      -8.714  10.107  65.672  1.00  0.00    -0.173 C  
HETATM   19  C   UNL     1      -6.584   9.297  64.733  1.00  0.00    -0.076 C  
HETATM   20  C   UNL     1      -8.653   8.907  63.442  1.00  0.00    -0.104 C  
ENDBRANCH  10  17
ENDBRANCH   4   5
ENDBRANCH   2   4
BRANCH   2  21
HETATM   21  S   UNL     1      -7.045   7.779  69.767  1.00  0.00    -0.067 SA 
BRANCH  21  22
HETATM   22  C   UNL     1      -7.827   9.373  69.527  1.00  0.00    -0.091 A  
HETATM   23  C   UNL     1      -9.210   9.569  69.519  1.00  0.00    -0.198 A  
HETATM   24  C   UNL     1      -7.009  10.436  69.176  1.00  0.00    -0.071 A  
HETATM   25  H   UNL     1     -10.466  13.089  68.405  1.00  0.00     0.000 HD 
HETATM   26  O   UNL     1      -9.521  12.997  68.403  1.00  0.00    -0.215 OA 
HETATM   27  C   UNL     1      -7.516  11.696  68.809  1.00  0.00    -0.114 A  
HETATM   28  C   UNL     1      -9.810  10.788  69.178  1.00  0.00    -0.194 A  
HETATM   29  C   UNL     1      -8.935  11.833  68.811  1.00  0.00     0.023 A  
BRANCH  27  30
HETATM   30  C   UNL     1      -6.523  12.801  68.369  1.00  0.00    -0.080 C  
HETATM   31  C   UNL     1      -7.223  14.129  67.954  1.00  0.00    -0.165 C  
HETATM   32  C   UNL     1      -5.577  13.164  69.531  1.00  0.00    -0.088 C  
HETATM   33  C   UNL     1      -5.712  12.375  67.125  1.00  0.00    -0.063 C  
ENDBRANCH  27  30
BRANCH  28  34
HETATM   34  C   UNL     1     -11.357  10.936  69.242  1.00  0.00    -0.345 C  
HETATM   35  C   UNL     1     -12.007  11.417  67.909  1.00  0.00    -0.120 C  
HETATM   36  C   UNL     1     -11.793  11.968  70.306  1.00  0.00    -0.356 C  
HETATM   37  C   UNL     1     -11.999   9.566  69.546  1.00  0.00     0.537 C  
ENDBRANCH  28  34
ENDBRANCH  21  22
ENDBRANCH   2  21
TORSDOF 8
ENDMDL
MODEL      304
REMARK 921   NORMALIZED FREE ENERGY PREDICTED BY IDOCK:   -1.58 KCAL/MOL
REMARK 922        TOTAL FREE ENERGY PREDICTED BY IDOCK:   -2.92 KCAL/MOL
REMARK 923 INTER-LIGAND FREE ENERGY PREDICTED BY IDOCK:   -5.43 KCAL/MOL
REMARK 924 INTRA-LIGAND FREE ENERGY PREDICTED BY IDOCK:    2.51 KCAL/MOL
REMARK 927      BINDING AFFINITY PREDICTED BY RF-SCORE:    0.00 PKD
ROOT
HETATM    1  C   UNL     1      -8.365   5.286  69.946  1.00  0.00    -0.094 C  
HETATM    2  C   UNL     1      -8.786   6.378  68.947  1.00  0.00    -0.126 C  
HETATM    3  C   UNL     1     -10.320   6.382  68.856  1.00  0.00    -0.237 C  
ENDROOT
BRANCH   2   4
HETATM    4  S   UNL     1      -8.108   5.950  67.284  1.00  0.00    -0.102 SA 
BRANCH   4   5
HETATM    5  C   UNL     1      -7.441   7.487  66.654  1.00  0.00    -0.092 A  
HETATM    6  C   UNL     1      -6.681   9.980  65.637  1.00  0.00    -0.105 A  
HETATM    7  O   UNL     1      -6.369  11.240  65.212  1.00  0.00    -0.292 OA 
HETATM    8  H   UNL     1      -6.079  11.910  65.820  1.00  0.00     0.000 HD 
HETATM    9  C   UNL     1      -7.514   7.742  65.288  1.00  0.00    -0.082 A  
HETATM   10  C   UNL     1      -6.593   9.766  67.029  1.00  0.00    -0.071 A  
HETATM   11  C   UNL     1      -6.960   8.496  67.480  1.00  0.00    -0.079 A  
HETATM   12  C   UNL     1      -7.115   8.975  64.725  1.00  0.00    -0.092 A  
BRANCH  12  13
HETATM   13  C   UNL     1      -7.210   9.166  63.190  1.00  0.00    -0.091 C  
HETATM   14  C   UNL     1      -5.902   9.757  62.616  1.00  0.00    -0.093 C  
HETATM   15  C   UNL     1      -8.411  10.062  62.826  1.00  0.00    -0.178 C  
HETATM   16  C   UNL     1      -7.417   7.834  62.411  1.00  0.00    -0.101 C  
ENDBRANCH  12  13
BRANCH  10  17
HETATM   17  C   UNL     1      -6.111  10.828  68.052  1.00  0.00    -0.050 C  
HETATM   18  C   UNL     1      -5.264  11.921  67.367  1.00  0.00    -0.090 C  
HETATM   19  C   UNL     1      -7.263  11.594  68.771  1.00  0.00    -0.116 C  
HETATM   20  C   UNL     1      -5.303  10.146  69.174  1.00  0.00    -0.035 C  
ENDBRANCH  10  17
ENDBRANCH   4   5
ENDBRANCH   2   4
BRANCH   2  21
HETATM   21  S   UNL     1      -8.251   8.008  69.627  1.00  0.00    -0.122 SA 
BRANCH  21  22
HETATM   22  C   UNL     1      -9.632   9.109  69.324  1.00  0.00    -0.159 A  
HETATM   23  C   UNL     1      -9.652  10.074  68.315  1.00  0.00    -0.151 A  
HETATM   24  C   UNL     1     -10.668   9.097  70.245  1.00  0.00    -0.268 A  
HETATM   25  H   UNL     1     -12.615  12.608  68.383  1.00  0.00     0.000 HD 
HETATM   26  O   UNL     1     -12.641  11.964  69.081  1.00  0.00     0.047 OA 
HETATM   27  C   UNL     1     -11.730  10.019  70.205  1.00  0.00    -0.327 A  
HETATM   28  C   UNL     1     -10.669  11.029  68.186  1.00  0.00    -0.246 A  
HETATM   29  C   UNL     1     -11.690  10.986  69.159  1.00  0.00    -0.333 A  
BRANCH  27  30
HETATM   30  C   UNL     1     -12.806   9.967  71.320  1.00  0.00    -0.486 C  
HETATM   31  C   UNL     1     -12.374   9.118  72.552  1.00  0.00    -0.216 C  
HETATM   32  C   UNL     1     -13.088  11.384  71.858  1.00  0.00    -0.505 C  
HETATM   33  C   UNL     1     -14.110   9.307  70.821  1.00  0.00     0.334 C  
ENDBRANCH  27  30
BRANCH  28  34
HETATM   34  C   UNL     1     -10.640  12.039  67.003  1.00  0.00    -0.258 C  
HETATM   35  C   UNL     1     -10.172  13.471  67.400  1.00  0.00    -0.237 C  
HETATM   36  C   UNL     1     -12.037  12.224  66.372  1.00  0.00    -0.123 C  
HETATM   37  C   UNL     1      -9.639  11.556  65.931  1.00  0.00    -0.254 C  
ENDBRANCH  28  34
ENDBRANCH  21  22
ENDBRANCH   2  21
TORSDOF 8
ENDMDL
MODEL      305
REMARK 921   NORMALIZED FREE ENERGY PREDICTED BY IDOCK:   -1.52 KCAL/MOL
REMARK 922        TOTAL FREE ENERGY PREDICTED BY IDOCK:   -2.83 KCAL/MOL
REMARK 923 INTER-LIGAND FREE ENERGY PREDICTED BY IDOCK:   -4.43 KCAL/MOL
REMARK 924 INTRA-LIGAND FREE ENERGY PREDICTED BY IDOCK:    1.60 KCAL/MOL
REMARK 927      BINDING AFFINITY PREDICTED BY RF-SCORE:    0.00 PKD
ROOT
HETATM    1  C   UNL     1     -10.167   4.071  65.745  1.00  0.00    -0.059 C  
HETATM    2  C   UNL     1      -9.760   4.876  66.992  1.00  0.00    -0.177 C  
HETATM    3  C   UNL     1      -9.797   3.935  68.207  1.00  0.00    -0.028 C  
ENDROOT
BRANCH   2   4
HETATM    4  S   UNL     1     -11.000   6.218  67.260  1.00  0.00    -0.314 SA 
BRANCH   4   5
HETATM    5  C   UNL     1     -10.157   7.721  66.776  1.00  0.00    -0.270 A  
HETATM    6  C   UNL     1      -9.017  10.073  65.780  1.00  0.00    -0.157 A  
HETATM    7  O   UNL     1      -8.555  11.261  65.289  1.00  0.00    -0.379 OA 
HETATM    8  H   UNL     1      -8.821  12.091  65.668  1.00  0.00     0.000 HD 
HETATM    9  C   UNL     1      -9.242   7.671  65.730  1.00  0.00     0.025 A  
HETATM   10  C   UNL     1      -9.943  10.171  66.841  1.00  0.00    -0.259 A  
HETATM   11  C   UNL     1     -10.462   8.965  67.317  1.00  0.00    -0.348 A  
HETATM   12  C   UNL     1      -8.618   8.829  65.213  1.00  0.00    -0.212 A  
BRANCH  12  13
HETATM   13  C   UNL     1      -7.593   8.679  64.060  1.00  0.00    -0.126 C  
HETATM   14  C   UNL     1      -6.142   8.732  64.589  1.00  0.00    -0.065 C  
HETATM   15  C   UNL     1      -7.815   9.768  62.989  1.00  0.00    -0.133 C  
HETATM   16  C   UNL     1      -7.694   7.318  63.314  1.00  0.00    -0.120 C  
ENDBRANCH  12  13
BRANCH  10  17
HETATM   17  C   UNL     1     -10.392  11.505  67.496  1.00  0.00    -0.220 C  
HETATM   18  C   UNL     1      -9.187  12.277  68.074  1.00  0.00    -0.195 C  
HETATM   19  C   UNL     1     -11.083  12.499  66.515  1.00  0.00    -0.330 C  
HETATM   20  C   UNL     1     -11.429  11.222  68.601  1.00  0.00    -0.362 C  
ENDBRANCH  10  17
ENDBRANCH   4   5
ENDBRANCH   2   4
BRANCH   2  21
HETATM   21  S   UNL     1      -8.017   5.439  66.761  1.00  0.00    -0.101 SA 
BRANCH  21  22
HETATM   22  C   UNL     1      -7.479   5.950  68.392  1.00  0.00    -0.086 A  
HETATM   23  C   UNL     1      -7.301   7.282  68.772  1.00  0.00    -0.096 A  
HETATM   24  C   UNL     1      -7.072   4.955  69.267  1.00  0.00    -0.055 A  
HETATM   25  H   UNL     1      -5.586   7.898  72.219  1.00  0.00     0.000 HD 
HETATM   26  O   UNL     1      -5.695   6.980  72.000  1.00  0.00    -0.037 OA 
HETATM   27  C   UNL     1      -6.483   5.235  70.514  1.00  0.00    -0.031 A  
HETATM   28  C   UNL     1      -6.734   7.662  69.995  1.00  0.00    -0.049 A  
HETATM   29  C   UNL     1      -6.318   6.613  70.842  1.00  0.00    -0.047 A  
BRANCH  27  30
HETATM   30  C   UNL     1      -5.999   4.054  71.393  1.00  0.00    -0.013 C  
HETATM   31  C   UNL     1      -7.166   3.198  71.971  1.00  0.00    -0.043 C  
HETATM   32  C   UNL     1      -5.135   3.086  70.559  1.00  0.00    -0.004 C  
HETATM   33  C   UNL     1      -5.219   4.547  72.630  1.00  0.00    -0.004 C  
ENDBRANCH  27  30
BRANCH  28  34
HETATM   34  C   UNL     1      -6.616   9.169  70.361  1.00  0.00    -0.054 C  
HETATM   35  C   UNL     1      -6.316   9.438  71.867  1.00  0.00     0.147 C  
HETATM   36  C   UNL     1      -7.921   9.938  70.059  1.00  0.00    -0.194 C  
HETATM   37  C   UNL     1      -5.442   9.803  69.584  1.00  0.00    -0.033 C  
ENDBRANCH  28  34
ENDBRANCH  21  22
ENDBRANCH   2  21
TORSDOF 8
ENDMDL
MODEL      306
REMARK 921   NORMALIZED FREE ENERGY PREDICTED BY IDOCK:   -1.52 KCAL/MOL
REMARK 922        TOTAL FREE ENERGY PREDICTED BY IDOCK:   -2.83 KCAL/MOL
REMARK 923 INTER-LIGAND FREE ENERGY PREDICTED BY IDOCK:   -4.25 KCAL/MOL
REMARK 924 INTRA-LIGAND FREE ENERGY PREDICTED BY IDOCK:    1.42 KCAL/MOL
REMARK 927      BINDING AFFINITY PREDICTED BY RF-SCORE:    0.00 PKD
ROOT
HETATM    1  C   UNL     1      -5.137  16.592  67.981  1.00  0.00    -0.114 C  
HETATM    2  C   UNL     1      -6.156  15.439  67.950  1.00  0.00    -0.150 C  
HETATM    3  C   UNL     1      -5.410  14.146  67.581  1.00  0.00     0.079 C  
ENDROOT
BRANCH   2   4
HETATM    4  S   UNL     1      -7.401  15.786  66.632  1.00  0.00     0.352 SA 
BRANCH   4   5
HETATM    5  C   UNL     1      -8.434  14.325  66.585  1.00  0.00     0.102 A  
HETATM    6  C   UNL     1      -9.933  11.987  66.244  1.00  0.00    -0.227 A  
HETATM    7  O   UNL     1     -10.577  10.798  66.058  1.00  0.00    -0.228 OA 
HETATM    8  H   UNL     1     -10.289  10.005  66.496  1.00  0.00     0.000 HD 
HETATM    9  C   UNL     1      -9.561  14.324  65.769  1.00  0.00    -0.188 A  
HETATM   10  C   UNL     1      -8.796  11.942  67.079  1.00  0.00    -0.190 A  
HETATM   11  C   UNL     1      -8.100  13.143  67.235  1.00  0.00    -0.151 A  
HETATM   12  C   UNL     1     -10.365  13.176  65.589  1.00  0.00    -0.291 A  
BRANCH  12  13
HETATM   13  C   UNL     1     -11.615  13.271  64.678  1.00  0.00    -0.385 C  
HETATM   14  C   UNL     1     -11.511  12.300  63.480  1.00  0.00    -0.558 C  
HETATM   15  C   UNL     1     -11.820  14.717  64.182  1.00  0.00    -0.235 C  
HETATM   16  C   UNL     1     -12.938  12.873  65.396  1.00  0.00     0.106 C  
ENDBRANCH  12  13
BRANCH  10  17
HETATM   17  C   UNL     1      -8.302  10.672  67.822  1.00  0.00    -0.115 C  
HETATM   18  C   UNL     1      -8.163   9.477  66.856  1.00  0.00    -0.113 C  
HETATM   19  C   UNL     1      -6.902  10.825  68.489  1.00  0.00    -0.062 C  
HETATM   20  C   UNL     1      -9.272  10.326  68.969  1.00  0.00    -0.188 C  
ENDBRANCH  10  17
ENDBRANCH   4   5
ENDBRANCH   2   4
BRANCH   2  21
HETATM   21  S   UNL     1      -6.837  15.237  69.653  1.00  0.00    -0.178 SA 
BRANCH  21  22
HETATM   22  C   UNL     1      -8.531  15.810  69.542  1.00  0.00    -0.138 A  
HETATM   23  C   UNL     1      -9.613  15.163  70.142  1.00  0.00     0.243 A  
HETATM   24  C   UNL     1      -8.789  16.866  68.682  1.00  0.00    -0.262 A  
HETATM   25  H   UNL     1     -13.167  16.439  69.169  1.00  0.00     0.000 HD 
HETATM   26  O   UNL     1     -12.458  16.909  68.746  1.00  0.00     1.135 OA 
HETATM   27  C   UNL     1     -10.094  17.305  68.388  1.00  0.00    -0.333 A  
HETATM   28  C   UNL     1     -10.947  15.531  69.920  1.00  0.00    -0.315 A  
HETATM   29  C   UNL     1     -11.158  16.599  69.023  1.00  0.00    -0.234 A  
BRANCH  27  30
HETATM   30  C   UNL     1     -10.282  18.451  67.362  1.00  0.00    -0.393 C  
HETATM   31  C   UNL     1      -8.970  19.236  67.068  1.00  0.00    -0.331 C  
HETATM   32  C   UNL     1     -10.750  17.884  66.007  1.00  0.00    -0.129 C  
HETATM   33  C   UNL     1     -11.275  19.517  67.875  1.00  0.00     0.266 C  
ENDBRANCH  27  30
BRANCH  28  34
HETATM   34  C   UNL     1     -12.092  14.788  70.667  1.00  0.00    -0.374 C  
HETATM   35  C   UNL     1     -13.521  15.292  70.305  1.00  0.00     0.167 C  
HETATM   36  C   UNL     1     -11.976  14.947  72.199  1.00  0.00    -0.412 C  
HETATM   37  C   UNL     1     -12.072  13.290  70.291  1.00  0.00    -0.405 C  
ENDBRANCH  28  34
ENDBRANCH  21  22
ENDBRANCH   2  21
TORSDOF 8
ENDMDL
MODEL      307
REMARK 921   NORMALIZED FREE ENERGY PREDICTED BY IDOCK:   -1.36 KCAL/MOL
REMARK 922        TOTAL FREE ENERGY PREDICTED BY IDOCK:   -2.60 KCAL/MOL
REMARK 923 INTER-LIGAND FREE ENERGY PREDICTED BY IDOCK:   -5.32 KCAL/MOL
REMARK 924 INTRA-LIGAND FREE ENERGY PREDICTED BY IDOCK:    2.72 KCAL/MOL
REMARK 927      BINDING AFFINITY PREDICTED BY RF-SCORE:    0.00 PKD
ROOT
HETATM    1  C   UNL     1      -5.670  10.900  67.034  1.00  0.00    -0.059 C  
HETATM    2  C   UNL     1      -6.875  11.321  67.894  1.00  0.00    -0.068 C  
HETATM    3  C   UNL     1      -6.513  11.101  69.372  1.00  0.00    -0.100 C  
ENDROOT
BRANCH   2   4
HETATM    4  S   UNL     1      -8.306  10.230  67.480  1.00  0.00    -0.114 SA 
BRANCH   4   5
HETATM    5  C   UNL     1      -8.354   9.021  68.799  1.00  0.00    -0.122 A  
HETATM    6  C   UNL     1      -8.500   7.356  71.041  1.00  0.00    -0.119 A  
HETATM    7  O   UNL     1      -8.664   6.580  72.154  1.00  0.00    -0.131 OA 
HETATM    8  H   UNL     1      -9.445   6.053  72.279  1.00  0.00     0.000 HD 
HETATM    9  C   UNL     1      -7.313   8.991  69.721  1.00  0.00    -0.058 A  
HETATM   10  C   UNL     1      -9.579   7.356  70.133  1.00  0.00    -0.165 A  
HETATM   11  C   UNL     1      -9.443   8.185  69.017  1.00  0.00    -0.155 A  
HETATM   12  C   UNL     1      -7.329   8.146  70.854  1.00  0.00    -0.059 A  
BRANCH  12  13
HETATM   13  C   UNL     1      -6.117   8.161  71.819  1.00  0.00    -0.040 C  
HETATM   14  C   UNL     1      -5.134   9.301  71.468  1.00  0.00    -0.045 C  
HETATM   15  C   UNL     1      -5.390   6.800  71.802  1.00  0.00    -0.028 C  
HETATM   16  C   UNL     1      -6.509   8.419  73.303  1.00  0.00    -0.122 C  
ENDBRANCH  12  13
BRANCH  10  17
HETATM   17  C   UNL     1     -10.863   6.499  70.293  1.00  0.00    -0.333 C  
HETATM   18  C   UNL     1     -10.548   5.135  70.943  1.00  0.00    -0.202 C  
HETATM   19  C   UNL     1     -11.953   7.144  71.202  1.00  0.00    -0.381 C  
HETATM   20  C   UNL     1     -11.533   6.298  68.919  1.00  0.00    -0.101 C  
ENDBRANCH  10  17
ENDBRANCH   4   5
ENDBRANCH   2   4
BRANCH   2  21
HETATM   21  S   UNL     1      -7.152  13.127  67.637  1.00  0.00    -0.157 SA 
BRANCH  21  22
HETATM   22  C   UNL     1      -8.923  13.294  67.415  1.00  0.00    -0.215 A  
HETATM   23  C   UNL     1      -9.567  13.182  66.181  1.00  0.00    -0.209 A  
HETATM   24  C   UNL     1      -9.664  13.708  68.511  1.00  0.00    -0.184 A  
HETATM   25  H   UNL     1     -13.337  14.172  66.085  1.00  0.00     0.000 HD 
HETATM   26  O   UNL     1     -12.938  14.254  66.943  1.00  0.00     0.373 OA 
HETATM   27  C   UNL     1     -11.033  14.026  68.425  1.00  0.00    -0.269 A  
HETATM   28  C   UNL     1     -10.926  13.467  65.996  1.00  0.00    -0.281 A  
HETATM   29  C   UNL     1     -11.632  13.903  67.137  1.00  0.00    -0.364 A  
BRANCH  27  30
HETATM   30  C   UNL     1     -11.759  14.545  69.692  1.00  0.00    -0.356 C  
HETATM   31  C   UNL     1     -12.517  13.428  70.468  1.00  0.00    -0.350 C  
HETATM   32  C   UNL     1     -10.741  15.138  70.687  1.00  0.00    -0.160 C  
HETATM   33  C   UNL     1     -12.842  15.588  69.340  1.00  0.00     0.443 C  
ENDBRANCH  27  30
BRANCH  28  34
HETATM   34  C   UNL     1     -11.577  13.271  64.597  1.00  0.00    -0.385 C  
HETATM   35  C   UNL     1     -10.615  12.678  63.524  1.00  0.00    -0.301 C  
HETATM   36  C   UNL     1     -12.079  14.606  64.004  1.00  0.00    -0.229 C  
HETATM   37  C   UNL     1     -12.748  12.270  64.703  1.00  0.00    -0.275 C  
ENDBRANCH  28  34
ENDBRANCH  21  22
ENDBRANCH   2  21
TORSDOF 8
ENDMDL
MODEL      308
REMARK 921   NORMALIZED FREE ENERGY PREDICTED BY IDOCK:   -1.28 KCAL/MOL
REMARK 922        TOTAL FREE ENERGY PREDICTED BY IDOCK:   -2.47 KCAL/MOL
REMARK 923 INTER-LIGAND FREE ENERGY PREDICTED BY IDOCK:   -4.34 KCAL/MOL
REMARK 924 INTRA-LIGAND FREE ENERGY PREDICTED BY IDOCK:    1.87 KCAL/MOL
REMARK 927      BINDING AFFINITY PREDICTED BY RF-SCORE:    0.00 PKD
ROOT
HETATM    1  C   UNL     1     -10.164   4.075  65.744  1.00  0.00    -0.059 C  
HETATM    2  C   UNL     1      -9.763   4.882  66.991  1.00  0.00    -0.177 C  
HETATM    3  C   UNL     1      -9.804   3.943  68.207  1.00  0.00    -0.028 C  
ENDROOT
BRANCH   2   4
HETATM    4  S   UNL     1     -11.005   6.223  67.252  1.00  0.00    -0.314 SA 
BRANCH   4   5
HETATM    5  C   UNL     1     -10.180   7.719  66.716  1.00  0.00    -0.276 A  
HETATM    6  C   UNL     1      -8.762  10.061  66.147  1.00  0.00    -0.140 A  
HETATM    7  O   UNL     1      -7.984  11.156  65.896  1.00  0.00    -0.313 OA 
HETATM    8  H   UNL     1      -7.198  11.094  65.366  1.00  0.00     0.000 HD 
HETATM    9  C   UNL     1     -10.607   8.941  67.225  1.00  0.00    -0.304 A  
HETATM   10  C   UNL     1      -8.291   8.843  65.612  1.00  0.00    -0.144 A  
HETATM   11  C   UNL     1      -9.051   7.709  65.905  1.00  0.00    -0.101 A  
HETATM   12  C   UNL     1      -9.940  10.154  66.941  1.00  0.00    -0.259 A  
BRANCH  12  13
HETATM   13  C   UNL     1     -10.498  11.474  67.532  1.00  0.00    -0.229 C  
HETATM   14  C   UNL     1     -11.335  11.209  68.804  1.00  0.00    -0.342 C  
HETATM   15  C   UNL     1     -11.340  12.228  66.482  1.00  0.00    -0.403 C  
HETATM   16  C   UNL     1      -9.390  12.467  67.987  1.00  0.00    -0.205 C  
ENDBRANCH  12  13
BRANCH  10  17
HETATM   17  C   UNL     1      -7.022   8.703  64.730  1.00  0.00    -0.073 C  
HETATM   18  C   UNL     1      -5.753   9.121  65.504  1.00  0.00    -0.053 C  
HETATM   19  C   UNL     1      -6.741   7.251  64.238  1.00  0.00    -0.047 C  
HETATM   20  C   UNL     1      -7.176   9.552  63.452  1.00  0.00    -0.107 C  
ENDBRANCH  10  17
ENDBRANCH   4   5
ENDBRANCH   2   4
BRANCH   2  21
HETATM   21  S   UNL     1      -8.020   5.446  66.766  1.00  0.00    -0.101 SA 
BRANCH  21  22
HETATM   22  C   UNL     1      -7.459   5.877  68.412  1.00  0.00    -0.086 A  
HETATM   23  C   UNL     1      -7.259   7.188  68.849  1.00  0.00    -0.090 A  
HETATM   24  C   UNL     1      -7.058   4.839  69.239  1.00  0.00    -0.052 A  
HETATM   25  H   UNL     1      -5.504   7.628  72.303  1.00  0.00     0.000 HD 
HETATM   26  O   UNL     1      -5.628   6.722  72.045  1.00  0.00    -0.036 OA 
HETATM   27  C   UNL     1      -6.455   5.055  70.491  1.00  0.00    -0.030 A  
HETATM   28  C   UNL     1      -6.675   7.506  70.082  1.00  0.00    -0.050 A  
HETATM   29  C   UNL     1      -6.267   6.415  70.878  1.00  0.00    -0.039 A  
BRANCH  27  30
HETATM   30  C   UNL     1      -5.980   3.830  71.313  1.00  0.00    -0.014 C  
HETATM   31  C   UNL     1      -7.153   2.982  71.887  1.00  0.00    -0.038 C  
HETATM   32  C   UNL     1      -5.161   2.874  70.422  1.00  0.00    -0.004 C  
HETATM   33  C   UNL     1      -5.158   4.256  72.548  1.00  0.00     0.000 C  
ENDBRANCH  27  30
BRANCH  28  34
HETATM   34  C   UNL     1      -6.532   8.994  70.513  1.00  0.00    -0.051 C  
HETATM   35  C   UNL     1      -6.315   9.196  72.042  1.00  0.00     0.050 C  
HETATM   36  C   UNL     1      -7.792   9.816  70.165  1.00  0.00    -0.196 C  
HETATM   37  C   UNL     1      -5.295   9.617  69.831  1.00  0.00    -0.033 C  
ENDBRANCH  28  34
ENDBRANCH  21  22
ENDBRANCH   2  21
TORSDOF 8
ENDMDL
MODEL      309
REMARK 921   NORMALIZED FREE ENERGY PREDICTED BY IDOCK:   -1.05 KCAL/MOL
REMARK 922        TOTAL FREE ENERGY PREDICTED BY IDOCK:   -2.14 KCAL/MOL
REMARK 923 INTER-LIGAND FREE ENERGY PREDICTED BY IDOCK:   -5.37 KCAL/MOL
REMARK 924 INTRA-LIGAND FREE ENERGY PREDICTED BY IDOCK:    3.23 KCAL/MOL
REMARK 927      BINDING AFFINITY PREDICTED BY RF-SCORE:    0.00 PKD
ROOT
HETATM    1  C   UNL     1     -11.243  11.420  65.932  1.00  0.00    -0.172 C  
HETATM    2  C   UNL     1     -11.298  12.734  65.132  1.00  0.00    -0.311 C  
HETATM    3  C   UNL     1     -12.156  12.499  63.878  1.00  0.00    -0.581 C  
ENDROOT
BRANCH   2   4
HETATM    4  S   UNL     1      -9.587  13.168  64.591  1.00  0.00     0.618 SA 
BRANCH   4   5
HETATM    5  C   UNL     1      -8.922  14.152  65.930  1.00  0.00     0.492 A  
HETATM    6  C   UNL     1      -7.633  15.710  67.863  1.00  0.00    -0.131 A  
HETATM    7  O   UNL     1      -6.983  16.539  68.733  1.00  0.00    -0.158 OA 
HETATM    8  H   UNL     1      -7.188  17.466  68.781  1.00  0.00     0.000 HD 
HETATM    9  C   UNL     1      -7.983  13.581  66.782  1.00  0.00     0.354 A  
HETATM   10  C   UNL     1      -8.577  16.332  67.018  1.00  0.00    -0.227 A  
HETATM   11  C   UNL     1      -9.210  15.503  66.089  1.00  0.00    -0.379 A  
HETATM   12  C   UNL     1      -7.327  14.321  67.792  1.00  0.00    -0.185 A  
BRANCH  12  13
HETATM   13  C   UNL     1      -6.310  13.599  68.712  1.00  0.00    -0.093 C  
HETATM   14  C   UNL     1      -7.019  12.615  69.670  1.00  0.00     0.272 C  
HETATM   15  C   UNL     1      -5.476  14.622  69.511  1.00  0.00    -0.091 C  
HETATM   16  C   UNL     1      -5.284  12.723  67.935  1.00  0.00    -0.100 C  
ENDBRANCH  12  13
BRANCH  10  17
HETATM   17  C   UNL     1      -8.949  17.837  67.074  1.00  0.00    -0.258 C  
HETATM   18  C   UNL     1      -9.013  18.345  68.531  1.00  0.00    -0.336 C  
HETATM   19  C   UNL     1      -7.931  18.776  66.358  1.00  0.00    -0.300 C  
HETATM   20  C   UNL     1     -10.298  18.070  66.365  1.00  0.00    -0.382 C  
ENDBRANCH  10  17
ENDBRANCH   4   5
ENDBRANCH   2   4
BRANCH   2  21
HETATM   21  S   UNL     1     -12.148  13.998  66.175  1.00  0.00    -0.457 SA 
BRANCH  21  22
HETATM   22  C   UNL     1     -12.217  13.272  67.812  1.00  0.00    -0.113 A  
HETATM   23  C   UNL     1     -12.619  13.967  68.955  1.00  0.00     0.408 A  
HETATM   24  C   UNL     1     -11.693  11.998  67.964  1.00  0.00    -0.398 A  
HETATM   25  H   UNL     1     -12.076  12.165  72.370  1.00  0.00     0.000 HD 
HETATM   26  O   UNL     1     -11.797  11.658  71.617  1.00  0.00     0.660 OA 
HETATM   27  C   UNL     1     -11.546  11.383  69.222  1.00  0.00    -0.384 A  
HETATM   28  C   UNL     1     -12.521  13.437  70.248  1.00  0.00    -0.285 A  
HETATM   29  C   UNL     1     -11.965  12.145  70.352  1.00  0.00    -0.272 A  
BRANCH  27  30
HETATM   30  C   UNL     1     -10.888   9.982  69.295  1.00  0.00    -0.261 C  
HETATM   31  C   UNL     1      -9.355  10.036  69.564  1.00  0.00    -0.247 C  
HETATM   32  C   UNL     1     -11.495   9.166  70.454  1.00  0.00    -0.228 C  
HETATM   33  C   UNL     1     -11.030   9.216  67.962  1.00  0.00    -0.032 C  
ENDBRANCH  27  30
BRANCH  28  34
HETATM   34  C   UNL     1     -13.037  14.259  71.464  1.00  0.00    -0.413 C  
HETATM   35  C   UNL     1     -11.906  14.877  72.341  1.00  0.00    -0.359 C  
HETATM   36  C   UNL     1     -13.876  13.393  72.429  1.00  0.00    -0.665 C  
HETATM   37  C   UNL     1     -13.877  15.454  70.966  1.00  0.00    -0.361 C  
ENDBRANCH  28  34
ENDBRANCH  21  22
ENDBRANCH   2  21
TORSDOF 8
ENDMDL
MODEL      310
REMARK 921   NORMALIZED FREE ENERGY PREDICTED BY IDOCK:   -0.98 KCAL/MOL
REMARK 922        TOTAL FREE ENERGY PREDICTED BY IDOCK:   -2.04 KCAL/MOL
REMARK 923 INTER-LIGAND FREE ENERGY PREDICTED BY IDOCK:   -4.47 KCAL/MOL
REMARK 924 INTRA-LIGAND FREE ENERGY PREDICTED BY IDOCK:    2.44 KCAL/MOL
REMARK 927      BINDING AFFINITY PREDICTED BY RF-SCORE:    0.00 PKD
ROOT
HETATM    1  C   UNL     1     -11.967  13.173  66.314  1.00  0.00    -0.473 C  
HETATM    2  C   UNL     1     -11.539  13.512  64.875  1.00  0.00    -0.335 C  
HETATM    3  C   UNL     1     -12.595  14.447  64.266  1.00  0.00    -0.144 C  
ENDROOT
BRANCH   2   4
HETATM    4  S   UNL     1     -11.504  11.954  63.886  1.00  0.00    -0.429 SA 
BRANCH   4   5
HETATM    5  C   UNL     1     -10.223  10.960  64.645  1.00  0.00    -0.345 A  
HETATM    6  C   UNL     1      -8.366   9.170  65.726  1.00  0.00    -0.126 A  
HETATM    7  O   UNL     1      -7.450   8.255  66.161  1.00  0.00    -0.079 OA 
HETATM    8  H   UNL     1      -6.626   8.124  65.706  1.00  0.00     0.000 HD 
HETATM    9  C   UNL     1     -10.517  10.260  65.810  1.00  0.00    -0.159 A  
HETATM   10  C   UNL     1      -8.026   9.858  64.542  1.00  0.00    -0.145 A  
HETATM   11  C   UNL     1      -8.978  10.759  64.060  1.00  0.00    -0.167 A  
HETATM   12  C   UNL     1      -9.600   9.366  66.409  1.00  0.00    -0.285 A  
BRANCH  12  13
HETATM   13  C   UNL     1     -10.003   8.643  67.719  1.00  0.00    -0.240 C  
HETATM   14  C   UNL     1      -8.896   7.670  68.186  1.00  0.00    -0.125 C  
HETATM   15  C   UNL     1     -11.338   7.892  67.538  1.00  0.00     0.826 C  
HETATM   16  C   UNL     1     -10.214   9.609  68.921  1.00  0.00    -0.214 C  
ENDBRANCH  12  13
BRANCH  10  17
HETATM   17  C   UNL     1      -6.687   9.683  63.778  1.00  0.00    -0.112 C  
HETATM   18  C   UNL     1      -5.512  10.312  64.557  1.00  0.00    -0.129 C  
HETATM   19  C   UNL     1      -6.273   8.200  63.541  1.00  0.00    -0.072 C  
HETATM   20  C   UNL     1      -6.799  10.312  62.375  1.00  0.00    -0.142 C  
ENDBRANCH  10  17
ENDBRANCH   4   5
ENDBRANCH   2   4
BRANCH   2  21
HETATM   21  S   UNL     1      -9.942  14.435  64.961  1.00  0.00    -0.019 SA 
BRANCH  21  22
HETATM   22  C   UNL     1      -9.657  14.698  66.710  1.00  0.00    -0.253 A  
HETATM   23  C   UNL     1     -10.651  14.596  67.686  1.00  0.00    -0.256 A  
HETATM   24  C   UNL     1      -8.413  15.180  67.086  1.00  0.00    -0.238 A  
HETATM   25  H   UNL     1      -9.707  15.799  71.272  1.00  0.00     0.000 HD 
HETATM   26  O   UNL     1      -9.002  15.878  70.640  1.00  0.00     1.391 OA 
HETATM   27  C   UNL     1      -8.117  15.574  68.404  1.00  0.00    -0.136 A  
HETATM   28  C   UNL     1     -10.452  14.954  69.025  1.00  0.00    -0.247 A  
HETATM   29  C   UNL     1      -9.175  15.456  69.353  1.00  0.00    -0.268 A  
BRANCH  27  30
HETATM   30  C   UNL     1      -6.717  16.164  68.710  1.00  0.00    -0.136 C  
HETATM   31  C   UNL     1      -6.180  15.774  70.119  1.00  0.00    -0.074 C  
HETATM   32  C   UNL     1      -5.681  15.634  67.699  1.00  0.00    -0.133 C  
HETATM   33  C   UNL     1      -6.736  17.708  68.707  1.00  0.00    -0.230 C  
ENDBRANCH  27  30
BRANCH  28  34
HETATM   34  C   UNL     1     -11.599  14.763  70.059  1.00  0.00    -0.332 C  
HETATM   35  C   UNL     1     -11.204  15.123  71.523  1.00  0.00    -0.323 C  
HETATM   36  C   UNL     1     -12.086  13.298  70.113  1.00  0.00    -0.403 C  
HETATM   37  C   UNL     1     -12.778  15.695  69.706  1.00  0.00     0.084 C  
ENDBRANCH  28  34
ENDBRANCH  21  22
ENDBRANCH   2  21
TORSDOF 8
ENDMDL
MODEL      311
REMARK 921   NORMALIZED FREE ENERGY PREDICTED BY IDOCK:   -0.85 KCAL/MOL
REMARK 922        TOTAL FREE ENERGY PREDICTED BY IDOCK:   -1.85 KCAL/MOL
REMARK 923 INTER-LIGAND FREE ENERGY PREDICTED BY IDOCK:   -3.35 KCAL/MOL
REMARK 924 INTRA-LIGAND FREE ENERGY PREDICTED BY IDOCK:    1.51 KCAL/MOL
REMARK 927      BINDING AFFINITY PREDICTED BY RF-SCORE:    0.00 PKD
ROOT
HETATM    1  C   UNL     1      -7.562  11.581  65.804  1.00  0.00     0.504 C  
HETATM    2  C   UNL     1      -8.751  11.853  66.743  1.00  0.00    -0.193 C  
HETATM    3  C   UNL     1      -9.464  13.127  66.261  1.00  0.00    -0.194 C  
ENDROOT
BRANCH   2   4
HETATM    4  S   UNL     1      -8.103  12.159  68.444  1.00  0.00    -0.125 SA 
BRANCH   4   5
HETATM    5  C   UNL     1      -8.814  13.730  68.926  1.00  0.00     0.148 A  
HETATM    6  C   UNL     1     -10.049  16.193  69.409  1.00  0.00    -0.256 A  
HETATM    7  O   UNL     1     -10.741  17.352  69.618  1.00  0.00    -0.351 OA 
HETATM    8  H   UNL     1     -11.538  17.367  70.135  1.00  0.00     0.000 HD 
HETATM    9  C   UNL     1      -8.282  14.900  68.394  1.00  0.00    -0.151 A  
HETATM   10  C   UNL     1     -10.624  15.031  69.967  1.00  0.00    -0.178 A  
HETATM   11  C   UNL     1      -9.953  13.832  69.717  1.00  0.00     1.045 A  
HETATM   12  C   UNL     1      -8.855  16.170  68.634  1.00  0.00    -0.218 A  
BRANCH  12  13
HETATM   13  C   UNL     1      -8.184  17.424  68.019  1.00  0.00    -0.229 C  
HETATM   14  C   UNL     1      -6.802  17.083  67.415  1.00  0.00    -0.174 C  
HETATM   15  C   UNL     1      -8.048  18.542  69.074  1.00  0.00    -0.126 C  
HETATM   16  C   UNL     1      -8.989  18.043  66.840  1.00  0.00    -0.268 C  
ENDBRANCH  12  13
BRANCH  10  17
HETATM   17  C   UNL     1     -11.915  15.016  70.829  1.00  0.00    -0.371 C  
HETATM   18  C   UNL     1     -11.631  15.491  72.270  1.00  0.00    -0.554 C  
HETATM   19  C   UNL     1     -13.046  15.951  70.305  1.00  0.00     0.557 C  
HETATM   20  C   UNL     1     -12.520  13.598  70.840  1.00  0.00    -0.448 C  
ENDBRANCH  10  17
ENDBRANCH   4   5
ENDBRANCH   2   4
BRANCH   2  21
HETATM   21  S   UNL     1      -9.933  10.444  66.585  1.00  0.00    -0.217 SA 
BRANCH  21  22
HETATM   22  C   UNL     1      -8.916   9.038  66.140  1.00  0.00    -0.177 A  
HETATM   23  C   UNL     1      -8.184   8.950  64.954  1.00  0.00    -0.161 A  
HETATM   24  C   UNL     1      -8.990   7.918  66.954  1.00  0.00    -0.157 A  
HETATM   25  H   UNL     1      -6.573   5.491  64.151  1.00  0.00     0.000 HD 
HETATM   26  O   UNL     1      -7.056   5.511  64.969  1.00  0.00    -0.058 OA 
HETATM   27  C   UNL     1      -8.363   6.700  66.628  1.00  0.00    -0.117 A  
HETATM   28  C   UNL     1      -7.518   7.786  64.548  1.00  0.00    -0.097 A  
HETATM   29  C   UNL     1      -7.639   6.668  65.400  1.00  0.00    -0.086 A  
BRANCH  27  30
HETATM   30  C   UNL     1      -8.560   5.485  67.569  1.00  0.00    -0.108 C  
HETATM   31  C   UNL     1      -7.336   5.217  68.494  1.00  0.00    -0.071 C  
HETATM   32  C   UNL     1      -9.759   5.725  68.510  1.00  0.00    -0.161 C  
HETATM   33  C   UNL     1      -8.750   4.174  66.775  1.00  0.00    -0.114 C  
ENDBRANCH  27  30
BRANCH  28  34
HETATM   34  C   UNL     1      -6.684   7.787  63.234  1.00  0.00    -0.070 C  
HETATM   35  C   UNL     1      -6.891   6.523  62.347  1.00  0.00    -0.039 C  
HETATM   36  C   UNL     1      -5.167   7.846  63.517  1.00  0.00    -0.042 C  
HETATM   37  C   UNL     1      -7.100   8.986  62.355  1.00  0.00    -0.098 C  
ENDBRANCH  28  34
ENDBRANCH  21  22
ENDBRANCH   2  21
TORSDOF 8
ENDMDL
MODEL      312
REMARK 921   NORMALIZED FREE ENERGY PREDICTED BY IDOCK:    0.08 KCAL/MOL
REMARK 922        TOTAL FREE ENERGY PREDICTED BY IDOCK:   -0.49 KCAL/MOL
REMARK 923 INTER-LIGAND FREE ENERGY PREDICTED BY IDOCK:   -0.99 KCAL/MOL
REMARK 924 INTRA-LIGAND FREE ENERGY PREDICTED BY IDOCK:    0.50 KCAL/MOL
REMARK 927      BINDING AFFINITY PREDICTED BY RF-SCORE:    0.00 PKD
ROOT
HETATM    1  C   UNL     1     -10.312   8.459  72.664  1.00  0.00    -0.314 C  
HETATM    2  C   UNL     1      -9.265   8.472  71.536  1.00  0.00    -0.221 C  
HETATM    3  C   UNL     1      -9.028   9.932  71.116  1.00  0.00     1.107 C  
ENDROOT
BRANCH   2   4
HETATM    4  S   UNL     1      -9.947   7.555  70.086  1.00  0.00    -0.194 SA 
BRANCH   4   5
HETATM    5  C   UNL     1      -9.303   8.419  68.657  1.00  0.00    -0.143 A  
HETATM    6  C   UNL     1      -8.411   9.548  66.258  1.00  0.00    -0.115 A  
HETATM    7  O   UNL     1      -8.071  10.092  65.053  1.00  0.00    -0.140 OA 
HETATM    8  H   UNL     1      -8.564  10.813  64.678  1.00  0.00     0.000 HD 
HETATM    9  C   UNL     1      -8.175   7.913  68.018  1.00  0.00    -0.127 A  
HETATM   10  C   UNL     1      -9.560  10.091  66.871  1.00  0.00    -0.219 A  
HETATM   11  C   UNL     1      -9.947   9.507  68.079  1.00  0.00    -0.198 A  
HETATM   12  C   UNL     1      -7.670   8.469  66.820  1.00  0.00    -0.091 A  
BRANCH  12  13
HETATM   13  C   UNL     1      -6.395   7.856  66.188  1.00  0.00    -0.046 C  
HETATM   14  C   UNL     1      -5.303   8.929  65.975  1.00  0.00    -0.037 C  
HETATM   15  C   UNL     1      -6.731   7.158  64.853  1.00  0.00    -0.047 C  
HETATM   16  C   UNL     1      -5.719   6.774  67.079  1.00  0.00    -0.014 C  
ENDBRANCH  12  13
BRANCH  10  17
HETATM   17  C   UNL     1     -10.384  11.275  66.298  1.00  0.00    -0.294 C  
HETATM   18  C   UNL     1     -11.517  11.686  67.263  1.00  0.00    -0.350 C  
HETATM   19  C   UNL     1      -9.557  12.575  66.060  1.00  0.00    -0.205 C  
HETATM   20  C   UNL     1     -10.962  10.893  64.921  1.00  0.00    -0.038 C  
ENDBRANCH  10  17
ENDBRANCH   4   5
ENDBRANCH   2   4
BRANCH   2  21
HETATM   21  S   UNL     1      -7.683   7.812  72.221  1.00  0.00    -0.107 SA 
BRANCH  21  22
HETATM   22  C   UNL     1      -7.874   6.031  72.184  1.00  0.00    -0.102 A  
HETATM   23  C   UNL     1      -7.053   5.175  71.447  1.00  0.00    -0.061 A  
HETATM   24  C   UNL     1      -8.996   5.499  72.801  1.00  0.00    -0.121 A  
HETATM   25  H   UNL     1      -8.180   1.449  71.215  1.00  0.00     0.000 HD 
HETATM   26  O   UNL     1      -8.760   1.997  71.730  1.00  0.00    -0.058 OA 
HETATM   27  C   UNL     1      -9.341   4.138  72.708  1.00  0.00    -0.148 A  
HETATM   28  C   UNL     1      -7.306   3.804  71.303  1.00  0.00    -0.040 A  
HETATM   29  C   UNL     1      -8.470   3.315  71.934  1.00  0.00    -0.073 A  
BRANCH  27  30
HETATM   30  C   UNL     1     -10.652   3.652  73.376  1.00  0.00    -0.281 C  
HETATM   31  C   UNL     1     -10.495   2.294  74.123  1.00  0.00    -0.200 C  
HETATM   32  C   UNL     1     -11.119   4.669  74.437  1.00  0.00     0.398 C  
HETATM   33  C   UNL     1     -11.765   3.406  72.335  1.00  0.00     1.565 C  
ENDBRANCH  27  30
BRANCH  28  34
HETATM   34  C   UNL     1      -6.314   2.911  70.504  1.00  0.00    -0.024 C  
HETATM   35  C   UNL     1      -5.534   3.668  69.387  1.00  0.00    -0.016 C  
HETATM   36  C   UNL     1      -7.036   1.750  69.786  1.00  0.00    -0.033 C  
HETATM   37  C   UNL     1      -5.236   2.350  71.457  1.00  0.00    -0.004 C  
ENDBRANCH  28  34
ENDBRANCH  21  22
ENDBRANCH   2  21
TORSDOF 8
ENDMDL
MODEL      313
REMARK 921   NORMALIZED FREE ENERGY PREDICTED BY IDOCK:    0.08 KCAL/MOL
REMARK 922        TOTAL FREE ENERGY PREDICTED BY IDOCK:   -0.47 KCAL/MOL
REMARK 923 INTER-LIGAND FREE ENERGY PREDICTED BY IDOCK:   -1.93 KCAL/MOL
REMARK 924 INTRA-LIGAND FREE ENERGY PREDICTED BY IDOCK:    1.45 KCAL/MOL
REMARK 927      BINDING AFFINITY PREDICTED BY RF-SCORE:    0.00 PKD
ROOT
HETATM    1  C   UNL     1      -7.477  12.193  65.899  1.00  0.00     1.407 C  
HETATM    2  C   UNL     1      -8.526  12.646  66.930  1.00  0.00    -0.116 C  
HETATM    3  C   UNL     1      -9.234  13.894  66.381  1.00  0.00    -0.174 C  
ENDROOT
BRANCH   2   4
HETATM    4  S   UNL     1      -7.658  13.112  68.491  1.00  0.00    -0.098 SA 
BRANCH   4   5
HETATM    5  C   UNL     1      -8.509  14.578  69.066  1.00  0.00    -0.048 A  
HETATM    6  C   UNL     1      -9.929  16.908  69.682  1.00  0.00     0.095 A  
HETATM    7  O   UNL     1     -10.705  18.002  69.939  1.00  0.00     0.006 OA 
HETATM    8  H   UNL     1     -11.560  17.920  70.345  1.00  0.00     0.000 HD 
HETATM    9  C   UNL     1      -7.980  15.827  68.756  1.00  0.00    -0.180 A  
HETATM   10  C   UNL     1     -10.505  15.662  70.012  1.00  0.00    -0.333 A  
HETATM   11  C   UNL     1      -9.742  14.533  69.706  1.00  0.00     0.426 A  
HETATM   12  C   UNL     1      -8.647  17.032  69.074  1.00  0.00    -0.126 A  
BRANCH  12  13
HETATM   13  C   UNL     1      -7.975  18.380  68.712  1.00  0.00    -0.278 C  
HETATM   14  C   UNL     1      -7.923  18.588  67.181  1.00  0.00    -0.247 C  
HETATM   15  C   UNL     1      -6.557  18.461  69.314  1.00  0.00    -0.257 C  
HETATM   16  C   UNL     1      -8.742  19.621  69.254  1.00  0.00     0.060 C  
ENDBRANCH  12  13
BRANCH  10  17
HETATM   17  C   UNL     1     -11.890  15.486  70.689  1.00  0.00    -0.400 C  
HETATM   18  C   UNL     1     -12.025  16.390  71.932  1.00  0.00    -0.392 C  
HETATM   19  C   UNL     1     -13.099  15.857  69.778  1.00  0.00     1.013 C  
HETATM   20  C   UNL     1     -12.100  14.007  71.074  1.00  0.00    -0.383 C  
ENDBRANCH  10  17
ENDBRANCH   4   5
ENDBRANCH   2   4
BRANCH   2  21
HETATM   21  S   UNL     1      -9.781  11.302  67.090  1.00  0.00    -0.183 SA 
BRANCH  21  22
HETATM   22  C   UNL     1      -8.842   9.848  67.555  1.00  0.00    -0.128 A  
HETATM   23  C   UNL     1      -8.178   9.026  66.643  1.00  0.00    -0.118 A  
HETATM   24  C   UNL     1      -8.915   9.441  68.878  1.00  0.00    -0.136 A  
HETATM   25  H   UNL     1      -6.743   5.678  68.036  1.00  0.00     0.000 HD 
HETATM   26  O   UNL     1      -7.181   6.212  68.688  1.00  0.00    -0.079 OA 
HETATM   27  C   UNL     1      -8.353   8.234  69.333  1.00  0.00    -0.122 A  
HETATM   28  C   UNL     1      -7.579   7.811  67.000  1.00  0.00    -0.100 A  
HETATM   29  C   UNL     1      -7.696   7.432  68.354  1.00  0.00    -0.120 A  
BRANCH  27  30
HETATM   30  C   UNL     1      -8.545   7.834  70.818  1.00  0.00    -0.133 C  
HETATM   31  C   UNL     1      -7.369   8.285  71.734  1.00  0.00    -0.105 C  
HETATM   32  C   UNL     1      -9.811   8.502  71.392  1.00  0.00    -0.296 C  
HETATM   33  C   UNL     1      -8.617   6.302  70.990  1.00  0.00    -0.132 C  
ENDBRANCH  27  30
BRANCH  28  34
HETATM   34  C   UNL     1      -6.816   6.977  65.930  1.00  0.00    -0.057 C  
HETATM   35  C   UNL     1      -6.739   5.453  66.246  1.00  0.00    -0.057 C  
HETATM   36  C   UNL     1      -5.350   7.439  65.780  1.00  0.00    -0.028 C  
HETATM   37  C   UNL     1      -7.542   7.085  64.572  1.00  0.00    -0.107 C  
ENDBRANCH  28  34
ENDBRANCH  21  22
ENDBRANCH   2  21
TORSDOF 8
ENDMDL
MODEL      314
REMARK 921   NORMALIZED FREE ENERGY PREDICTED BY IDOCK:    0.18 KCAL/MOL
REMARK 922        TOTAL FREE ENERGY PREDICTED BY IDOCK:   -0.34 KCAL/MOL
REMARK 923 INTER-LIGAND FREE ENERGY PREDICTED BY IDOCK:   -1.90 KCAL/MOL
REMARK 924 INTRA-LIGAND FREE ENERGY PREDICTED BY IDOCK:    1.56 KCAL/MOL
REMARK 927      BINDING AFFINITY PREDICTED BY RF-SCORE:    0.00 PKD
ROOT
HETATM    1  C   UNL     1      -5.456  11.717  67.877  1.00  0.00    -0.048 C  
HETATM    2  C   UNL     1      -6.970  11.986  67.939  1.00  0.00    -0.095 C  
HETATM    3  C   UNL     1      -7.445  11.739  69.380  1.00  0.00     0.200 C  
ENDROOT
BRANCH   2   4
HETATM    4  S   UNL     1      -7.831  10.786  66.832  1.00  0.00    -0.136 SA 
BRANCH   4   5
HETATM    5  C   UNL     1      -7.911   9.269  67.779  1.00  0.00    -0.100 A  
HETATM    6  C   UNL     1      -8.274   6.827  69.093  1.00  0.00    -0.121 A  
HETATM    7  O   UNL     1      -8.450   5.589  69.643  1.00  0.00    -0.100 OA 
HETATM    8  H   UNL     1      -7.891   4.858  69.407  1.00  0.00     0.000 HD 
HETATM    9  C   UNL     1      -8.910   9.128  68.737  1.00  0.00    -0.132 A  
HETATM   10  C   UNL     1      -7.251   6.925  68.126  1.00  0.00    -0.091 A  
HETATM   11  C   UNL     1      -7.096   8.173  67.520  1.00  0.00    -0.083 A  
HETATM   12  C   UNL     1      -9.113   7.923  69.447  1.00  0.00    -0.145 A  
BRANCH  12  13
HETATM   13  C   UNL     1     -10.235   7.859  70.514  1.00  0.00    -0.198 C  
HETATM   14  C   UNL     1     -11.161   9.094  70.428  1.00  0.00    -0.279 C  
HETATM   15  C   UNL     1      -9.635   7.735  71.930  1.00  0.00    -0.210 C  
HETATM   16  C   UNL     1     -11.186   6.639  70.343  1.00  0.00    -0.398 C  
ENDBRANCH  12  13
BRANCH  10  17
HETATM   17  C   UNL     1      -6.308   5.760  67.724  1.00  0.00    -0.042 C  
HETATM   18  C   UNL     1      -7.108   4.540  67.221  1.00  0.00    -0.068 C  
HETATM   19  C   UNL     1      -5.319   6.106  66.570  1.00  0.00    -0.012 C  
HETATM   20  C   UNL     1      -5.423   5.365  68.924  1.00  0.00    -0.004 C  
ENDBRANCH  10  17
ENDBRANCH   4   5
ENDBRANCH   2   4
BRANCH   2  21
HETATM   21  S   UNL     1      -7.246  13.769  67.547  1.00  0.00    -0.109 SA 
BRANCH  21  22
HETATM   22  C   UNL     1      -9.027  13.950  67.460  1.00  0.00    -0.197 A  
HETATM   23  C   UNL     1      -9.751  13.969  66.266  1.00  0.00    -0.311 A  
HETATM   24  C   UNL     1      -9.694  14.241  68.640  1.00  0.00    -0.213 A  
HETATM   25  H   UNL     1     -13.517  14.946  66.525  1.00  0.00     0.000 HD 
HETATM   26  O   UNL     1     -13.062  14.938  67.358  1.00  0.00     1.678 OA 
HETATM   27  C   UNL     1     -11.064  14.560  68.679  1.00  0.00    -0.272 A  
HETATM   28  C   UNL     1     -11.119  14.265  66.202  1.00  0.00    -0.324 A  
HETATM   29  C   UNL     1     -11.747  14.573  67.427  1.00  0.00    -0.400 A  
BRANCH  27  30
HETATM   30  C   UNL     1     -11.704  14.937  70.039  1.00  0.00    -0.338 C  
HETATM   31  C   UNL     1     -10.920  16.045  70.802  1.00  0.00    -0.232 C  
HETATM   32  C   UNL     1     -13.126  15.493  69.824  1.00  0.00     0.482 C  
HETATM   33  C   UNL     1     -11.734  13.734  71.007  1.00  0.00     0.126 C  
ENDBRANCH  27  30
BRANCH  28  34
HETATM   34  C   UNL     1     -11.860  14.217  64.836  1.00  0.00    -0.414 C  
HETATM   35  C   UNL     1     -11.659  12.888  64.048  1.00  0.00    -0.486 C  
HETATM   36  C   UNL     1     -11.382  15.335  63.883  1.00  0.00     0.567 C  
HETATM   37  C   UNL     1     -13.382  14.339  65.065  1.00  0.00     0.608 C  
ENDBRANCH  28  34
ENDBRANCH  21  22
ENDBRANCH   2  21
TORSDOF 8
ENDMDL
MODEL      315
REMARK 921   NORMALIZED FREE ENERGY PREDICTED BY IDOCK:    0.27 KCAL/MOL
REMARK 922        TOTAL FREE ENERGY PREDICTED BY IDOCK:   -0.20 KCAL/MOL
REMARK 923 INTER-LIGAND FREE ENERGY PREDICTED BY IDOCK:   -1.43 KCAL/MOL
REMARK 924 INTRA-LIGAND FREE ENERGY PREDICTED BY IDOCK:    1.24 KCAL/MOL
REMARK 927      BINDING AFFINITY PREDICTED BY RF-SCORE:    0.00 PKD
ROOT
HETATM    1  C   UNL     1     -10.287   8.449  72.653  1.00  0.00    -0.314 C  
HETATM    2  C   UNL     1      -9.221   8.483  71.544  1.00  0.00    -0.221 C  
HETATM    3  C   UNL     1      -9.000   9.948  71.133  1.00  0.00     1.107 C  
ENDROOT
BRANCH   2   4
HETATM    4  S   UNL     1      -9.864   7.562  70.079  1.00  0.00    -0.181 SA 
BRANCH   4   5
HETATM    5  C   UNL     1      -9.340   8.529  68.667  1.00  0.00    -0.142 A  
HETATM    6  C   UNL     1      -8.330  10.174  66.643  1.00  0.00    -0.123 A  
HETATM    7  O   UNL     1      -7.743  10.945  65.680  1.00  0.00    -0.305 OA 
HETATM    8  H   UNL     1      -7.112  10.581  65.070  1.00  0.00     0.000 HD 
HETATM    9  C   UNL     1      -9.736   9.859  68.578  1.00  0.00    -0.163 A  
HETATM   10  C   UNL     1      -7.898   8.832  66.696  1.00  0.00    -0.100 A  
HETATM   11  C   UNL     1      -8.453   8.048  67.710  1.00  0.00    -0.128 A  
HETATM   12  C   UNL     1      -9.275  10.721  67.557  1.00  0.00    -0.150 A  
BRANCH  12  13
HETATM   13  C   UNL     1      -9.786  12.184  67.522  1.00  0.00    -0.185 C  
HETATM   14  C   UNL     1     -10.418  12.525  66.153  1.00  0.00    -0.272 C  
HETATM   15  C   UNL     1      -8.643  13.167  67.847  1.00  0.00    -0.185 C  
HETATM   16  C   UNL     1     -10.909  12.474  68.560  1.00  0.00    -0.271 C  
ENDBRANCH  12  13
BRANCH  10  17
HETATM   17  C   UNL     1      -6.883   8.196  65.710  1.00  0.00    -0.063 C  
HETATM   18  C   UNL     1      -6.703   6.688  65.988  1.00  0.00    -0.048 C  
HETATM   19  C   UNL     1      -7.300   8.290  64.212  1.00  0.00    -0.093 C  
HETATM   20  C   UNL     1      -5.528   8.926  65.811  1.00  0.00    -0.041 C  
ENDBRANCH  10  17
ENDBRANCH   4   5
ENDBRANCH   2   4
BRANCH   2  21
HETATM   21  S   UNL     1      -7.642   7.845  72.254  1.00  0.00    -0.106 SA 
BRANCH  21  22
HETATM   22  C   UNL     1      -7.804   6.061  72.207  1.00  0.00    -0.102 A  
HETATM   23  C   UNL     1      -6.990   5.225  71.439  1.00  0.00    -0.054 A  
HETATM   24  C   UNL     1      -8.899   5.506  72.850  1.00  0.00    -0.117 A  
HETATM   25  H   UNL     1      -8.060   1.483  71.207  1.00  0.00     0.000 HD 
HETATM   26  O   UNL     1      -8.635   2.017  71.743  1.00  0.00    -0.058 OA 
HETATM   27  C   UNL     1      -9.223   4.140  72.755  1.00  0.00    -0.137 A  
HETATM   28  C   UNL     1      -7.224   3.852  71.290  1.00  0.00    -0.033 A  
HETATM   29  C   UNL     1      -8.361   3.338  71.950  1.00  0.00    -0.066 A  
BRANCH  27  30
HETATM   30  C   UNL     1     -10.506   3.626  73.457  1.00  0.00    -0.261 C  
HETATM   31  C   UNL     1     -10.305   2.265  74.186  1.00  0.00    -0.185 C  
HETATM   32  C   UNL     1     -10.959   4.626  74.540  1.00  0.00     0.316 C  
HETATM   33  C   UNL     1     -11.644   3.371  72.445  1.00  0.00     1.322 C  
ENDBRANCH  27  30
BRANCH  28  34
HETATM   34  C   UNL     1      -6.240   2.983  70.456  1.00  0.00    -0.023 C  
HETATM   35  C   UNL     1      -5.500   3.763  69.328  1.00  0.00    -0.016 C  
HETATM   36  C   UNL     1      -6.964   1.820  69.742  1.00  0.00    -0.033 C  
HETATM   37  C   UNL     1      -5.131   2.426  71.373  1.00  0.00     0.000 C  
ENDBRANCH  28  34
ENDBRANCH  21  22
ENDBRANCH   2  21
TORSDOF 8
ENDMDL
MODEL      316
REMARK 921   NORMALIZED FREE ENERGY PREDICTED BY IDOCK:    0.41 KCAL/MOL
REMARK 922        TOTAL FREE ENERGY PREDICTED BY IDOCK:    0.01 KCAL/MOL
REMARK 923 INTER-LIGAND FREE ENERGY PREDICTED BY IDOCK:   -3.06 KCAL/MOL
REMARK 924 INTRA-LIGAND FREE ENERGY PREDICTED BY IDOCK:    3.07 KCAL/MOL
REMARK 927      BINDING AFFINITY PREDICTED BY RF-SCORE:    0.00 PKD
ROOT
HETATM    1  C   UNL     1      -6.915   3.524  71.169  1.00  0.00    -0.032 C  
HETATM    2  C   UNL     1      -7.699   4.808  70.844  1.00  0.00    -0.073 C  
HETATM    3  C   UNL     1      -8.182   5.425  72.167  1.00  0.00    -0.115 C  
ENDROOT
BRANCH   2   4
HETATM    4  S   UNL     1      -9.181   4.359  69.839  1.00  0.00    -0.150 SA 
BRANCH   4   5
HETATM    5  C   UNL     1      -8.701   4.689  68.147  1.00  0.00    -0.103 A  
HETATM    6  C   UNL     1      -8.221   5.107  65.423  1.00  0.00    -0.124 A  
HETATM    7  O   UNL     1      -8.074   5.365  64.090  1.00  0.00    -0.112 OA 
HETATM    8  H   UNL     1      -8.145   6.248  63.746  1.00  0.00     0.000 HD 
HETATM    9  C   UNL     1      -8.391   3.618  67.315  1.00  0.00    -0.096 A  
HETATM   10  C   UNL     1      -8.535   6.222  66.230  1.00  0.00    -0.133 A  
HETATM   11  C   UNL     1      -8.739   5.960  67.586  1.00  0.00    -0.104 A  
HETATM   12  C   UNL     1      -8.113   3.784  65.939  1.00  0.00    -0.097 A  
BRANCH  12  13
HETATM   13  C   UNL     1      -7.755   2.537  65.090  1.00  0.00    -0.077 C  
HETATM   14  C   UNL     1      -9.011   1.693  64.775  1.00  0.00    -0.117 C  
HETATM   15  C   UNL     1      -6.695   1.676  65.808  1.00  0.00    -0.031 C  
HETATM   16  C   UNL     1      -7.153   2.887  63.698  1.00  0.00    -0.045 C  
ENDBRANCH  12  13
BRANCH  10  17
HETATM   17  C   UNL     1      -8.647   7.679  65.709  1.00  0.00    -0.156 C  
HETATM   18  C   UNL     1      -7.378   8.492  66.042  1.00  0.00    -0.081 C  
HETATM   19  C   UNL     1      -8.814   7.796  64.163  1.00  0.00     0.711 C  
HETATM   20  C   UNL     1      -9.894   8.356  66.313  1.00  0.00    -0.257 C  
ENDBRANCH  10  17
ENDBRANCH   4   5
ENDBRANCH   2   4
BRANCH   2  21
HETATM   21  S   UNL     1      -6.533   6.000  70.052  1.00  0.00    -0.040 SA 
BRANCH  21  22
HETATM   22  C   UNL     1      -7.521   7.458  69.722  1.00  0.00    -0.092 A  
HETATM   23  C   UNL     1      -7.003   8.651  69.213  1.00  0.00    -0.058 A  
HETATM   24  C   UNL     1      -8.841   7.441  70.144  1.00  0.00    -0.147 A  
HETATM   25  H   UNL     1      -9.402  11.725  69.186  1.00  0.00     0.000 HD 
HETATM   26  O   UNL     1      -9.794  10.932  69.533  1.00  0.00    -0.103 OA 
HETATM   27  C   UNL     1      -9.673   8.574  70.085  1.00  0.00    -0.175 A  
HETATM   28  C   UNL     1      -7.753   9.829  69.105  1.00  0.00    -0.092 A  
HETATM   29  C   UNL     1      -9.085   9.765  69.565  1.00  0.00    -0.216 A  
BRANCH  27  30
HETATM   30  C   UNL     1     -11.115   8.472  70.644  1.00  0.00    -0.280 C  
HETATM   31  C   UNL     1     -11.920   9.799  70.515  1.00  0.00    -0.282 C  
HETATM   32  C   UNL     1     -11.917   7.411  69.864  1.00  0.00     0.340 C  
HETATM   33  C   UNL     1     -11.118   8.151  72.155  1.00  0.00    -0.386 C  
ENDBRANCH  27  30
BRANCH  28  34
HETATM   34  C   UNL     1      -7.113  11.103  68.481  1.00  0.00    -0.080 C  
HETATM   35  C   UNL     1      -6.615  12.144  69.527  1.00  0.00    -0.065 C  
HETATM   36  C   UNL     1      -8.112  11.867  67.584  1.00  0.00    -0.148 C  
HETATM   37  C   UNL     1      -5.866  10.709  67.660  1.00  0.00    -0.044 C  
ENDBRANCH  28  34
ENDBRANCH  21  22
ENDBRANCH   2  21
TORSDOF 8
ENDMDL
MODEL      317
REMARK 921   NORMALIZED FREE ENERGY PREDICTED BY IDOCK:    0.88 KCAL/MOL
REMARK 922        TOTAL FREE ENERGY PREDICTED BY IDOCK:    0.70 KCAL/MOL
REMARK 923 INTER-LIGAND FREE ENERGY PREDICTED BY IDOCK:   -3.35 KCAL/MOL
REMARK 924 INTRA-LIGAND FREE ENERGY PREDICTED BY IDOCK:    4.05 KCAL/MOL
REMARK 927      BINDING AFFINITY PREDICTED BY RF-SCORE:    0.00 PKD
ROOT
HETATM    1  C   UNL     1      -7.181   4.169  69.736  1.00  0.00    -0.049 C  
HETATM    2  C   UNL     1      -8.334   5.143  69.435  1.00  0.00    -0.090 C  
HETATM    3  C   UNL     1      -9.650   4.482  69.876  1.00  0.00    -0.269 C  
ENDROOT
BRANCH   2   4
HETATM    4  S   UNL     1      -8.410   5.422  67.611  1.00  0.00    -0.098 SA 
BRANCH   4   5
HETATM    5  C   UNL     1      -7.395   6.870  67.330  1.00  0.00    -0.091 A  
HETATM    6  C   UNL     1      -6.057   9.268  66.799  1.00  0.00    -0.064 A  
HETATM    7  O   UNL     1      -5.472  10.486  66.600  1.00  0.00    -0.045 OA 
HETATM    8  H   UNL     1      -5.259  11.059  67.328  1.00  0.00     0.000 HD 
HETATM    9  C   UNL     1      -7.076   7.223  66.023  1.00  0.00    -0.066 A  
HETATM   10  C   UNL     1      -6.362   8.950  68.140  1.00  0.00    -0.055 A  
HETATM   11  C   UNL     1      -7.007   7.730  68.351  1.00  0.00    -0.072 A  
HETATM   12  C   UNL     1      -6.376   8.410  65.708  1.00  0.00    -0.052 A  
BRANCH  12  13
HETATM   13  C   UNL     1      -6.043   8.715  64.226  1.00  0.00    -0.067 C  
HETATM   14  C   UNL     1      -7.329   8.916  63.392  1.00  0.00    -0.098 C  
HETATM   15  C   UNL     1      -5.179   7.591  63.619  1.00  0.00    -0.034 C  
HETATM   16  C   UNL     1      -5.235  10.031  64.029  1.00  0.00    -0.097 C  
ENDBRANCH  12  13
BRANCH  10  17
HETATM   17  C   UNL     1      -6.018   9.850  69.357  1.00  0.00    -0.037 C  
HETATM   18  C   UNL     1      -5.155  11.058  68.933  1.00  0.00    -0.041 C  
HETATM   19  C   UNL     1      -7.259  10.464  70.071  1.00  0.00    -0.143 C  
HETATM   20  C   UNL     1      -5.289   9.020  70.432  1.00  0.00    -0.026 C  
ENDBRANCH  10  17
ENDBRANCH   4   5
ENDBRANCH   2   4
BRANCH   2  21
HETATM   21  S   UNL     1      -8.083   6.656  70.461  1.00  0.00    -0.118 SA 
BRANCH  21  22
HETATM   22  C   UNL     1      -9.477   7.712  70.072  1.00  0.00    -0.161 A  
HETATM   23  C   UNL     1      -9.436   8.741  69.128  1.00  0.00    -0.157 A  
HETATM   24  C   UNL     1     -10.606   7.592  70.867  1.00  0.00    -0.219 A  
HETATM   25  H   UNL     1     -12.514  11.131  69.016  1.00  0.00     0.000 HD 
HETATM   26  O   UNL     1     -12.584  10.441  69.666  1.00  0.00    -0.103 OA 
HETATM   27  C   UNL     1     -11.703   8.468  70.764  1.00  0.00    -0.228 A  
HETATM   28  C   UNL     1     -10.480   9.656  68.944  1.00  0.00    -0.234 A  
HETATM   29  C   UNL     1     -11.599   9.504  69.790  1.00  0.00     0.077 A  
BRANCH  27  30
HETATM   30  C   UNL     1     -12.891   8.293  71.744  1.00  0.00    -0.362 C  
HETATM   31  C   UNL     1     -14.272   8.620  71.102  1.00  0.00    -0.145 C  
HETATM   32  C   UNL     1     -12.980   6.830  72.222  1.00  0.00     0.073 C  
HETATM   33  C   UNL     1     -12.779   9.250  72.951  1.00  0.00     0.302 C  
ENDBRANCH  27  30
BRANCH  28  34
HETATM   34  C   UNL     1     -10.373  10.743  67.836  1.00  0.00    -0.216 C  
HETATM   35  C   UNL     1      -9.560  10.299  66.584  1.00  0.00    -0.220 C  
HETATM   36  C   UNL     1      -9.670  12.019  68.350  1.00  0.00    -0.199 C  
HETATM   37  C   UNL     1     -11.783  11.095  67.314  1.00  0.00     0.049 C  
ENDBRANCH  28  34
ENDBRANCH  21  22
ENDBRANCH   2  21
TORSDOF 8
ENDMDL
MODEL      318
REMARK 921   NORMALIZED FREE ENERGY PREDICTED BY IDOCK:    0.92 KCAL/MOL
REMARK 922        TOTAL FREE ENERGY PREDICTED BY IDOCK:    0.75 KCAL/MOL
REMARK 923 INTER-LIGAND FREE ENERGY PREDICTED BY IDOCK:   -2.38 KCAL/MOL
REMARK 924 INTRA-LIGAND FREE ENERGY PREDICTED BY IDOCK:    3.14 KCAL/MOL
REMARK 927      BINDING AFFINITY PREDICTED BY RF-SCORE:    0.00 PKD
ROOT
HETATM    1  C   UNL     1     -11.163  14.453  64.715  1.00  0.00    -0.391 C  
HETATM    2  C   UNL     1     -10.512  13.874  65.984  1.00  0.00    -0.298 C  
HETATM    3  C   UNL     1      -8.989  13.852  65.776  1.00  0.00     0.678 C  
ENDROOT
BRANCH   2   4
HETATM    4  S   UNL     1     -11.092  12.135  66.204  1.00  0.00    -0.325 SA 
BRANCH   4   5
HETATM    5  C   UNL     1      -9.993  11.441  67.435  1.00  0.00    -0.186 A  
HETATM    6  C   UNL     1      -8.203  10.151  69.155  1.00  0.00    -0.145 A  
HETATM    7  O   UNL     1      -7.258   9.531  69.921  1.00  0.00    -0.069 OA 
HETATM    8  H   UNL     1      -6.396   9.910  70.049  1.00  0.00     0.000 HD 
HETATM    9  C   UNL     1     -10.354  10.255  68.065  1.00  0.00    -0.215 A  
HETATM   10  C   UNL     1      -7.794  11.351  68.534  1.00  0.00    -0.140 A  
HETATM   11  C   UNL     1      -8.735  11.967  67.707  1.00  0.00    -0.158 A  
HETATM   12  C   UNL     1      -9.495   9.582  68.964  1.00  0.00    -0.158 A  
BRANCH  12  13
HETATM   13  C   UNL     1      -9.987   8.277  69.639  1.00  0.00    -0.193 C  
HETATM   14  C   UNL     1     -10.852   8.581  70.884  1.00  0.00    -0.275 C  
HETATM   15  C   UNL     1      -8.793   7.377  70.020  1.00  0.00    -0.141 C  
HETATM   16  C   UNL     1     -10.901   7.412  68.724  1.00  0.00    -0.077 C  
ENDBRANCH  12  13
BRANCH  10  17
HETATM   17  C   UNL     1      -6.403  12.010  68.728  1.00  0.00    -0.071 C  
HETATM   18  C   UNL     1      -6.073  12.973  67.568  1.00  0.00    -0.129 C  
HETATM   19  C   UNL     1      -6.275  12.868  70.022  1.00  0.00    -0.058 C  
HETATM   20  C   UNL     1      -5.319  10.919  68.845  1.00  0.00    -0.040 C  
ENDBRANCH  10  17
ENDBRANCH   4   5
ENDBRANCH   2   4
BRANCH   2  21
HETATM   21  S   UNL     1     -10.879  15.018  67.385  1.00  0.00    -0.312 SA 
BRANCH  21  22
HETATM   22  C   UNL     1      -9.715  16.366  67.195  1.00  0.00    -0.239 A  
HETATM   23  C   UNL     1      -8.328  16.209  67.236  1.00  0.00    -0.204 A  
HETATM   24  C   UNL     1     -10.231  17.652  67.160  1.00  0.00    -0.342 A  
HETATM   25  H   UNL     1      -6.204  19.477  67.343  1.00  0.00     0.000 HD 
HETATM   26  O   UNL     1      -7.141  19.626  67.308  1.00  0.00    -0.206 OA 
HETATM   27  C   UNL     1      -9.415  18.799  67.172  1.00  0.00    -0.328 A  
HETATM   28  C   UNL     1      -7.433  17.287  67.242  1.00  0.00    -0.201 A  
HETATM   29  C   UNL     1      -8.008  18.575  67.225  1.00  0.00    -0.236 A  
BRANCH  27  30
HETATM   30  C   UNL     1     -10.090  20.194  67.199  1.00  0.00    -0.590 C  
HETATM   31  C   UNL     1     -10.834  20.491  68.535  1.00  0.00     0.540 C  
HETATM   32  C   UNL     1      -9.029  21.303  67.048  1.00  0.00     0.456 C  
HETATM   33  C   UNL     1     -11.171  20.325  66.105  1.00  0.00     0.767 C  
ENDBRANCH  27  30
BRANCH  28  34
HETATM   34  C   UNL     1      -5.900  17.023  67.240  1.00  0.00    -0.188 C  
HETATM   35  C   UNL     1      -5.261  16.969  68.660  1.00  0.00    -0.132 C  
HETATM   36  C   UNL     1      -5.127  18.126  66.484  1.00  0.00    -0.173 C  
HETATM   37  C   UNL     1      -5.609  15.647  66.601  1.00  0.00     1.399 C  
ENDBRANCH  28  34
ENDBRANCH  21  22
ENDBRANCH   2  21
TORSDOF 8
ENDMDL
MODEL      319
REMARK 921   NORMALIZED FREE ENERGY PREDICTED BY IDOCK:    0.99 KCAL/MOL
REMARK 922        TOTAL FREE ENERGY PREDICTED BY IDOCK:    0.85 KCAL/MOL
REMARK 923 INTER-LIGAND FREE ENERGY PREDICTED BY IDOCK:   -3.09 KCAL/MOL
REMARK 924 INTRA-LIGAND FREE ENERGY PREDICTED BY IDOCK:    3.94 KCAL/MOL
REMARK 927      BINDING AFFINITY PREDICTED BY RF-SCORE:    0.00 PKD
ROOT
HETATM    1  C   UNL     1     -10.153   5.120  70.262  1.00  0.00    -0.338 C  
HETATM    2  C   UNL     1     -10.232   6.581  69.784  1.00  0.00    -0.187 C  
HETATM    3  C   UNL     1     -10.855   7.422  70.910  1.00  0.00    -0.255 C  
ENDROOT
BRANCH   2   4
HETATM    4  S   UNL     1     -11.347   6.662  68.315  1.00  0.00     0.197 SA 
BRANCH   4   5
HETATM    5  C   UNL     1     -10.321   7.311  67.000  1.00  0.00    -0.306 A  
HETATM    6  C   UNL     1      -8.567   8.472  65.156  1.00  0.00    -0.152 A  
HETATM    7  O   UNL     1      -7.633   9.002  64.312  1.00  0.00    -0.109 OA 
HETATM    8  H   UNL     1      -6.917   8.478  63.972  1.00  0.00     0.000 HD 
HETATM    9  C   UNL     1     -10.484   8.637  66.613  1.00  0.00    -0.239 A  
HETATM   10  C   UNL     1      -8.363   7.124  65.521  1.00  0.00    -0.132 A  
HETATM   11  C   UNL     1      -9.283   6.587  66.425  1.00  0.00    -0.178 A  
HETATM   12  C   UNL     1      -9.641   9.259  65.664  1.00  0.00    -0.324 A  
BRANCH  12  13
HETATM   13  C   UNL     1      -9.907  10.735  65.275  1.00  0.00    -0.329 C  
HETATM   14  C   UNL     1     -11.220  10.875  64.470  1.00  0.00     0.302 C  
HETATM   15  C   UNL     1      -8.721  11.310  64.473  1.00  0.00     0.266 C  
HETATM   16  C   UNL     1     -10.092  11.676  66.501  1.00  0.00    -0.239 C  
ENDBRANCH  12  13
BRANCH  10  17
HETATM   17  C   UNL     1      -7.216   6.231  64.979  1.00  0.00    -0.070 C  
HETATM   18  C   UNL     1      -6.377   6.978  63.922  1.00  0.00    -0.043 C  
HETATM   19  C   UNL     1      -6.195   5.771  66.063  1.00  0.00    -0.034 C  
HETATM   20  C   UNL     1      -7.801   4.934  64.383  1.00  0.00    -0.088 C  
ENDBRANCH  10  17
ENDBRANCH   4   5
ENDBRANCH   2   4
BRANCH   2  21
HETATM   21  S   UNL     1      -8.509   7.183  69.509  1.00  0.00    -0.134 SA 
BRANCH  21  22
HETATM   22  C   UNL     1      -8.652   8.968  69.442  1.00  0.00    -0.137 A  
HETATM   23  C   UNL     1      -9.855   9.659  69.596  1.00  0.00    -0.233 A  
HETATM   24  C   UNL     1      -7.525   9.681  69.062  1.00  0.00    -0.075 A  
HETATM   25  H   UNL     1      -9.783  13.479  68.816  1.00  0.00     0.000 HD 
HETATM   26  O   UNL     1      -8.945  13.047  68.707  1.00  0.00    -0.002 OA 
HETATM   27  C   UNL     1      -7.550  11.067  68.821  1.00  0.00    -0.127 A  
HETATM   28  C   UNL     1      -9.979  11.039  69.388  1.00  0.00    -0.019 A  
HETATM   29  C   UNL     1      -8.809  11.717  68.985  1.00  0.00     0.209 A  
BRANCH  27  30
HETATM   30  C   UNL     1      -6.254  11.763  68.335  1.00  0.00    -0.050 C  
HETATM   31  C   UNL     1      -6.514  12.895  67.297  1.00  0.00    -0.035 C  
HETATM   32  C   UNL     1      -5.530  12.433  69.521  1.00  0.00    -0.079 C  
HETATM   33  C   UNL     1      -5.312  10.774  67.616  1.00  0.00    -0.040 C  
ENDBRANCH  27  30
BRANCH  28  34
HETATM   34  C   UNL     1     -11.347  11.741  69.628  1.00  0.00    -0.287 C  
HETATM   35  C   UNL     1     -12.298  10.969  70.592  1.00  0.00    -0.480 C  
HETATM   36  C   UNL     1     -12.143  11.911  68.315  1.00  0.00    -0.061 C  
HETATM   37  C   UNL     1     -11.117  13.119  70.285  1.00  0.00     0.720 C  
ENDBRANCH  28  34
ENDBRANCH  21  22
ENDBRANCH   2  21
TORSDOF 8
ENDMDL
MODEL      320
REMARK 921   NORMALIZED FREE ENERGY PREDICTED BY IDOCK:    1.11 KCAL/MOL
REMARK 922        TOTAL FREE ENERGY PREDICTED BY IDOCK:    1.03 KCAL/MOL
REMARK 923 INTER-LIGAND FREE ENERGY PREDICTED BY IDOCK:   -2.16 KCAL/MOL
REMARK 924 INTRA-LIGAND FREE ENERGY PREDICTED BY IDOCK:    3.18 KCAL/MOL
REMARK 927      BINDING AFFINITY PREDICTED BY RF-SCORE:    0.00 PKD
ROOT
HETATM    1  C   UNL     1     -11.163  14.457  64.713  1.00  0.00    -0.391 C  
HETATM    2  C   UNL     1     -10.481  13.866  65.960  1.00  0.00    -0.298 C  
HETATM    3  C   UNL     1      -8.962  13.865  65.723  1.00  0.00     0.678 C  
ENDROOT
BRANCH   2   4
HETATM    4  S   UNL     1     -11.036  12.118  66.165  1.00  0.00    -0.325 SA 
BRANCH   4   5
HETATM    5  C   UNL     1      -9.895  11.413  67.350  1.00  0.00    -0.182 A  
HETATM    6  C   UNL     1      -8.163  10.552  69.371  1.00  0.00    -0.119 A  
HETATM    7  O   UNL     1      -7.394  10.145  70.424  1.00  0.00    -0.242 OA 
HETATM    8  H   UNL     1      -7.700   9.483  71.034  1.00  0.00     0.000 HD 
HETATM    9  C   UNL     1      -8.624  11.966  67.470  1.00  0.00    -0.160 A  
HETATM   10  C   UNL     1      -9.444   9.966  69.288  1.00  0.00    -0.218 A  
HETATM   11  C   UNL     1     -10.258  10.413  68.245  1.00  0.00    -0.184 A  
HETATM   12  C   UNL     1      -7.704  11.543  68.456  1.00  0.00    -0.134 A  
BRANCH  12  13
HETATM   13  C   UNL     1      -6.300  12.198  68.504  1.00  0.00    -0.056 C  
HETATM   14  C   UNL     1      -5.474  11.668  69.697  1.00  0.00    -0.069 C  
HETATM   15  C   UNL     1      -6.419  13.735  68.572  1.00  0.00    -0.093 C  
HETATM   16  C   UNL     1      -5.429  11.891  67.251  1.00  0.00    -0.121 C  
ENDBRANCH  12  13
BRANCH  10  17
HETATM   17  C   UNL     1      -9.974   8.874  70.255  1.00  0.00    -0.214 C  
HETATM   18  C   UNL     1     -10.572   9.500  71.532  1.00  0.00    -0.219 C  
HETATM   19  C   UNL     1     -11.113   7.991  69.660  1.00  0.00    -0.021 C  
HETATM   20  C   UNL     1      -8.837   7.898  70.616  1.00  0.00    -0.140 C  
ENDBRANCH  10  17
ENDBRANCH   4   5
ENDBRANCH   2   4
BRANCH   2  21
HETATM   21  S   UNL     1     -10.835  14.985  67.384  1.00  0.00    -0.312 SA 
BRANCH  21  22
HETATM   22  C   UNL     1      -9.684  16.346  67.196  1.00  0.00    -0.239 A  
HETATM   23  C   UNL     1      -8.296  16.197  67.191  1.00  0.00    -0.225 A  
HETATM   24  C   UNL     1     -10.209  17.629  67.213  1.00  0.00    -0.343 A  
HETATM   25  H   UNL     1      -6.189  19.476  67.324  1.00  0.00     0.000 HD 
HETATM   26  O   UNL     1      -7.128  19.620  67.322  1.00  0.00    -0.206 OA 
HETATM   27  C   UNL     1      -9.401  18.780  67.231  1.00  0.00    -0.310 A  
HETATM   28  C   UNL     1      -7.408  17.281  67.200  1.00  0.00    -0.200 A  
HETATM   29  C   UNL     1      -7.991  18.565  67.236  1.00  0.00    -0.236 A  
BRANCH  27  30
HETATM   30  C   UNL     1     -10.082  20.170  67.317  1.00  0.00    -0.572 C  
HETATM   31  C   UNL     1      -9.208  21.240  68.036  1.00  0.00     0.495 C  
HETATM   32  C   UNL     1     -10.352  20.721  65.903  1.00  0.00     0.653 C  
HETATM   33  C   UNL     1     -11.391  20.112  68.135  1.00  0.00     1.198 C  
ENDBRANCH  27  30
BRANCH  28  34
HETATM   34  C   UNL     1      -5.874  17.027  67.145  1.00  0.00    -0.195 C  
HETATM   35  C   UNL     1      -5.126  17.877  66.074  1.00  0.00    -0.226 C  
HETATM   36  C   UNL     1      -5.546  15.557  66.804  1.00  0.00     1.209 C  
HETATM   37  C   UNL     1      -5.234  17.408  68.498  1.00  0.00    -0.139 C  
ENDBRANCH  28  34
ENDBRANCH  21  22
ENDBRANCH   2  21
TORSDOF 8
ENDMDL
MODEL      321
REMARK 921   NORMALIZED FREE ENERGY PREDICTED BY IDOCK:    1.82 KCAL/MOL
REMARK 922        TOTAL FREE ENERGY PREDICTED BY IDOCK:    2.08 KCAL/MOL
REMARK 923 INTER-LIGAND FREE ENERGY PREDICTED BY IDOCK:   -0.09 KCAL/MOL
REMARK 924 INTRA-LIGAND FREE ENERGY PREDICTED BY IDOCK:    2.16 KCAL/MOL
REMARK 927      BINDING AFFINITY PREDICTED BY RF-SCORE:    0.00 PKD
ROOT
HETATM    1  C   UNL     1      -8.801  10.744  67.455  1.00  0.00    -0.129 C  
HETATM    2  C   UNL     1      -9.447  11.848  68.311  1.00  0.00    -0.197 C  
HETATM    3  C   UNL     1     -10.144  12.843  67.369  1.00  0.00    -0.223 C  
ENDROOT
BRANCH   2   4
HETATM    4  S   UNL     1      -8.115  12.746  69.220  1.00  0.00     0.910 SA 
BRANCH   4   5
HETATM    5  C   UNL     1      -8.233  14.438  68.646  1.00  0.00    -0.148 A  
HETATM    6  C   UNL     1      -8.338  17.163  68.025  1.00  0.00    -0.218 A  
HETATM    7  O   UNL     1      -8.293  18.502  67.757  1.00  0.00    -0.253 OA 
HETATM    8  H   UNL     1      -7.567  18.888  67.281  1.00  0.00     0.000 HD 
HETATM    9  C   UNL     1      -9.316  15.211  69.053  1.00  0.00    -0.219 A  
HETATM   10  C   UNL     1      -7.220  16.418  67.595  1.00  0.00    -0.156 A  
HETATM   11  C   UNL     1      -7.230  15.057  67.909  1.00  0.00    -0.162 A  
HETATM   12  C   UNL     1      -9.426  16.585  68.738  1.00  0.00    -0.246 A  
BRANCH  12  13
HETATM   13  C   UNL     1     -10.678  17.365  69.213  1.00  0.00     0.039 C  
HETATM   14  C   UNL     1     -11.761  17.413  68.111  1.00  0.00     1.143 C  
HETATM   15  C   UNL     1     -10.295  18.794  69.653  1.00  0.00     0.643 C  
HETATM   16  C   UNL     1     -11.387  16.716  70.437  1.00  0.00     0.096 C  
ENDBRANCH  12  13
BRANCH  10  17
HETATM   17  C   UNL     1      -6.022  17.007  66.803  1.00  0.00    -0.227 C  
HETATM   18  C   UNL     1      -5.153  15.890  66.188  1.00  0.00     2.491 C  
HETATM   19  C   UNL     1      -6.432  17.915  65.604  1.00  0.00    -0.209 C  
HETATM   20  C   UNL     1      -5.172  17.901  67.728  1.00  0.00    -0.137 C  
ENDBRANCH  10  17
ENDBRANCH   4   5
ENDBRANCH   2   4
BRANCH   2  21
HETATM   21  S   UNL     1     -10.740  11.062  69.369  1.00  0.00    -0.167 SA 
BRANCH  21  22
HETATM   22  C   UNL     1     -10.296   9.327  69.424  1.00  0.00    -0.215 A  
HETATM   23  C   UNL     1     -10.166   8.520  68.292  1.00  0.00    -0.244 A  
HETATM   24  C   UNL     1     -10.234   8.727  70.672  1.00  0.00    -0.247 A  
HETATM   25  H   UNL     1      -9.744   4.694  68.916  1.00  0.00     0.000 HD 
HETATM   26  O   UNL     1      -9.823   5.209  69.710  1.00  0.00    -0.172 OA 
HETATM   27  C   UNL     1     -10.051   7.342  70.840  1.00  0.00    -0.192 A  
HETATM   28  C   UNL     1      -9.972   7.134  68.355  1.00  0.00    -0.166 A  
HETATM   29  C   UNL     1      -9.934   6.569  69.648  1.00  0.00    -0.164 A  
BRANCH  27  30
HETATM   30  C   UNL     1     -10.062   6.756  72.275  1.00  0.00    -0.191 C  
HETATM   31  C   UNL     1      -8.923   5.725  72.528  1.00  0.00    -0.133 C  
HETATM   32  C   UNL     1      -9.858   7.878  73.312  1.00  0.00    -0.345 C  
HETATM   33  C   UNL     1     -11.367   5.983  72.564  1.00  0.00    -0.344 C  
ENDBRANCH  27  30
BRANCH  28  34
HETATM   34  C   UNL     1      -9.787   6.315  67.045  1.00  0.00    -0.185 C  
HETATM   35  C   UNL     1      -8.879   7.006  65.985  1.00  0.00    -0.155 C  
HETATM   36  C   UNL     1     -11.133   6.063  66.331  1.00  0.00     0.159 C  
HETATM   37  C   UNL     1      -9.103   4.969  67.365  1.00  0.00    -0.120 C  
ENDBRANCH  28  34
ENDBRANCH  21  22
ENDBRANCH   2  21
TORSDOF 8
ENDMDL
MODEL      322
REMARK 921   NORMALIZED FREE ENERGY PREDICTED BY IDOCK:    2.77 KCAL/MOL
REMARK 922        TOTAL FREE ENERGY PREDICTED BY IDOCK:    3.47 KCAL/MOL
REMARK 923 INTER-LIGAND FREE ENERGY PREDICTED BY IDOCK:    0.07 KCAL/MOL
REMARK 924 INTRA-LIGAND FREE ENERGY PREDICTED BY IDOCK:    3.40 KCAL/MOL
REMARK 927      BINDING AFFINITY PREDICTED BY RF-SCORE:    0.00 PKD
ROOT
HETATM    1  C   UNL     1      -9.302  10.171  69.086  1.00  0.00    -0.205 C  
HETATM    2  C   UNL     1     -10.712  10.318  69.685  1.00  0.00    -0.264 C  
HETATM    3  C   UNL     1     -10.731  11.576  70.569  1.00  0.00     1.608 C  
ENDROOT
BRANCH   2   4
HETATM    4  S   UNL     1     -11.055   8.853  70.755  1.00  0.00    -0.274 SA 
BRANCH   4   5
HETATM    5  C   UNL     1     -10.177   7.503  69.974  1.00  0.00    -0.215 A  
HETATM    6  C   UNL     1      -8.558   5.498  68.885  1.00  0.00    -0.100 A  
HETATM    7  O   UNL     1      -7.736   4.499  68.448  1.00  0.00    -0.078 OA 
HETATM    8  H   UNL     1      -7.746   3.637  68.850  1.00  0.00     0.000 HD 
HETATM    9  C   UNL     1      -9.357   7.775  68.884  1.00  0.00    -0.146 A  
HETATM   10  C   UNL     1      -9.373   5.178  69.992  1.00  0.00    -0.201 A  
HETATM   11  C   UNL     1     -10.180   6.208  70.480  1.00  0.00    -0.251 A  
HETATM   12  C   UNL     1      -8.544   6.788  68.282  1.00  0.00    -0.124 A  
BRANCH  12  13
HETATM   13  C   UNL     1      -7.677   7.174  67.056  1.00  0.00    -0.107 C  
HETATM   14  C   UNL     1      -8.393   6.827  65.731  1.00  0.00    -0.143 C  
HETATM   15  C   UNL     1      -6.301   6.480  67.122  1.00  0.00    -0.041 C  
HETATM   16  C   UNL     1      -7.383   8.700  66.960  1.00  0.00    -0.080 C  
ENDBRANCH  12  13
BRANCH  10  17
HETATM   17  C   UNL     1      -9.428   3.781  70.667  1.00  0.00    -0.240 C  
HETATM   18  C   UNL     1     -10.495   3.740  71.781  1.00  0.00     0.139 C  
HETATM   19  C   UNL     1      -9.801   2.617  69.700  1.00  0.00     0.280 C  
HETATM   20  C   UNL     1      -8.042   3.420  71.236  1.00  0.00    -0.062 C  
ENDBRANCH  10  17
ENDBRANCH   4   5
ENDBRANCH   2   4
BRANCH   2  21
HETATM   21  S   UNL     1     -11.895  10.580  68.293  1.00  0.00     0.470 SA 
BRANCH  21  22
HETATM   22  C   UNL     1     -11.108  11.802  67.245  1.00  0.00    -0.287 A  
HETATM   23  C   UNL     1     -10.151  12.714  67.695  1.00  0.00    -0.218 A  
HETATM   24  C   UNL     1     -11.597  11.941  65.955  1.00  0.00    -0.291 A  
HETATM   25  H   UNL     1      -9.132  15.541  65.210  1.00  0.00     0.000 HD 
HETATM   26  O   UNL     1      -9.779  14.937  64.864  1.00  0.00    -0.076 OA 
HETATM   27  C   UNL     1     -11.171  12.966  65.089  1.00  0.00    -0.319 A  
HETATM   28  C   UNL     1      -9.658  13.761  66.905  1.00  0.00    -0.263 A  
HETATM   29  C   UNL     1     -10.200  13.872  65.607  1.00  0.00    -0.328 A  
BRANCH  27  30
HETATM   30  C   UNL     1     -11.826  13.079  63.689  1.00  0.00    -0.580 C  
HETATM   31  C   UNL     1     -11.961  14.548  63.189  1.00  0.00     1.439 C  
HETATM   32  C   UNL     1     -10.968  12.349  62.636  1.00  0.00     1.535 C  
HETATM   33  C   UNL     1     -13.268  12.527  63.688  1.00  0.00     0.319 C  
ENDBRANCH  27  30
BRANCH  28  34
HETATM   34  C   UNL     1      -8.556  14.704  67.467  1.00  0.00    -0.196 C  
HETATM   35  C   UNL     1      -7.113  14.122  67.379  1.00  0.00    -0.101 C  
HETATM   36  C   UNL     1      -8.779  15.022  68.962  1.00  0.00    -0.203 C  
HETATM   37  C   UNL     1      -8.527  16.015  66.651  1.00  0.00    -0.323 C  
ENDBRANCH  28  34
ENDBRANCH  21  22
ENDBRANCH   2  21
TORSDOF 8
ENDMDL
MODEL      323
REMARK 921   NORMALIZED FREE ENERGY PREDICTED BY IDOCK:    3.53 KCAL/MOL
REMARK 922        TOTAL FREE ENERGY PREDICTED BY IDOCK:    4.59 KCAL/MOL
REMARK 923 INTER-LIGAND FREE ENERGY PREDICTED BY IDOCK:    2.59 KCAL/MOL
REMARK 924 INTRA-LIGAND FREE ENERGY PREDICTED BY IDOCK:    2.00 KCAL/MOL
REMARK 927      BINDING AFFINITY PREDICTED BY RF-SCORE:    0.00 PKD
ROOT
HETATM    1  C   UNL     1      -8.461  11.146  67.635  1.00  0.00    -0.122 C  
HETATM    2  C   UNL     1      -9.136  12.169  68.566  1.00  0.00    -0.090 C  
HETATM    3  C   UNL     1      -9.949  13.145  67.700  1.00  0.00    -0.219 C  
ENDROOT
BRANCH   2   4
HETATM    4  S   UNL     1      -7.823  13.128  69.441  1.00  0.00     0.891 SA 
BRANCH   4   5
HETATM    5  C   UNL     1      -8.143  14.836  69.012  1.00  0.00    -0.145 A  
HETATM    6  C   UNL     1      -8.730  17.405  68.075  1.00  0.00    -0.241 A  
HETATM    7  O   UNL     1      -9.110  18.625  67.593  1.00  0.00    -0.275 OA 
HETATM    8  H   UNL     1      -9.927  19.031  67.860  1.00  0.00     0.000 HD 
HETATM    9  C   UNL     1      -7.266  15.488  68.151  1.00  0.00    -0.123 A  
HETATM   10  C   UNL     1      -9.649  16.780  68.945  1.00  0.00    -0.249 A  
HETATM   11  C   UNL     1      -9.294  15.509  69.403  1.00  0.00    -0.279 A  
HETATM   12  C   UNL     1      -7.506  16.797  67.675  1.00  0.00    -0.170 A  
BRANCH  12  13
HETATM   13  C   UNL     1      -6.464  17.457  66.736  1.00  0.00    -0.239 C  
HETATM   14  C   UNL     1      -5.902  18.760  67.349  1.00  0.00    -0.159 C  
HETATM   15  C   UNL     1      -7.081  17.737  65.349  1.00  0.00     0.482 C  
HETATM   16  C   UNL     1      -5.213  16.569  66.476  1.00  0.00     0.377 C  
ENDBRANCH  12  13
BRANCH  10  17
HETATM   17  C   UNL     1     -10.984  17.414  69.416  1.00  0.00     0.445 C  
HETATM   18  C   UNL     1     -11.568  16.656  70.627  1.00  0.00     0.267 C  
HETATM   19  C   UNL     1     -10.860  18.896  69.881  1.00  0.00     2.044 C  
HETATM   20  C   UNL     1     -11.996  17.429  68.252  1.00  0.00     1.883 C  
ENDBRANCH  10  17
ENDBRANCH   4   5
ENDBRANCH   2   4
BRANCH   2  21
HETATM   21  S   UNL     1     -10.313  11.256  69.656  1.00  0.00     0.384 SA 
BRANCH  21  22
HETATM   22  C   UNL     1      -9.796   9.543  69.558  1.00  0.00    -0.193 A  
HETATM   23  C   UNL     1      -9.706   8.824  68.364  1.00  0.00    -0.175 A  
HETATM   24  C   UNL     1      -9.627   8.861  70.752  1.00  0.00    -0.283 A  
HETATM   25  H   UNL     1      -9.088   4.987  68.682  1.00  0.00     0.000 HD 
HETATM   26  O   UNL     1      -9.135   5.441  69.515  1.00  0.00    -0.110 OA 
HETATM   27  C   UNL     1      -9.376   7.477  70.808  1.00  0.00    -0.162 A  
HETATM   28  C   UNL     1      -9.452   7.447  68.315  1.00  0.00    -0.143 A  
HETATM   29  C   UNL     1      -9.306   6.795  69.558  1.00  0.00    -0.146 A  
BRANCH  27  30
HETATM   30  C   UNL     1      -9.269   6.794  72.195  1.00  0.00    -0.141 C  
HETATM   31  C   UNL     1      -9.976   5.407  72.253  1.00  0.00    -0.219 C  
HETATM   32  C   UNL     1      -7.791   6.532  72.549  1.00  0.00    -0.103 C  
HETATM   33  C   UNL     1      -9.950   7.633  73.297  1.00  0.00    -0.379 C  
ENDBRANCH  27  30
BRANCH  28  34
HETATM   34  C   UNL     1      -9.320   6.731  66.940  1.00  0.00    -0.176 C  
HETATM   35  C   UNL     1     -10.674   6.523  66.197  1.00  0.00     0.622 C  
HETATM   36  C   UNL     1      -8.711   5.318  67.084  1.00  0.00    -0.107 C  
HETATM   37  C   UNL     1      -8.451   7.583  65.990  1.00  0.00    -0.152 C  
ENDBRANCH  28  34
ENDBRANCH  21  22
ENDBRANCH   2  21
TORSDOF 8
ENDMDL
MODEL      324
REMARK 921   NORMALIZED FREE ENERGY PREDICTED BY IDOCK:    8.80 KCAL/MOL
REMARK 922        TOTAL FREE ENERGY PREDICTED BY IDOCK:   12.32 KCAL/MOL
REMARK 923 INTER-LIGAND FREE ENERGY PREDICTED BY IDOCK:   11.50 KCAL/MOL
REMARK 924 INTRA-LIGAND FREE ENERGY PREDICTED BY IDOCK:    0.82 KCAL/MOL
REMARK 927      BINDING AFFINITY PREDICTED BY RF-SCORE:    0.00 PKD
ROOT
HETATM    1  C   UNL     1      -6.126  12.017  67.826  1.00  0.00    -0.081 C  
HETATM    2  C   UNL     1      -7.618  12.320  68.054  1.00  0.00    -0.126 C  
HETATM    3  C   UNL     1      -7.830  12.592  69.552  1.00  0.00     0.967 C  
ENDROOT
BRANCH   2   4
HETATM    4  S   UNL     1      -8.601  10.828  67.592  1.00  0.00    -0.123 SA 
BRANCH   4   5
HETATM    5  C   UNL     1      -8.633   9.825  69.074  1.00  0.00    -0.146 A  
HETATM    6  C   UNL     1      -8.581   8.035  71.223  1.00  0.00    -0.126 A  
HETATM    7  O   UNL     1      -8.458   7.142  72.249  1.00  0.00    -0.115 OA 
HETATM    8  H   UNL     1      -7.735   7.190  72.864  1.00  0.00     0.000 HD 
HETATM    9  C   UNL     1      -9.634   8.870  69.218  1.00  0.00    -0.162 A  
HETATM   10  C   UNL     1      -7.545   8.987  71.115  1.00  0.00    -0.130 A  
HETATM   11  C   UNL     1      -7.633   9.872  70.039  1.00  0.00    -0.179 A  
HETATM   12  C   UNL     1      -9.665   7.963  70.302  1.00  0.00    -0.183 A  
BRANCH  12  13
HETATM   13  C   UNL     1     -10.830   6.945  70.396  1.00  0.00    -0.297 C  
HETATM   14  C   UNL     1     -10.302   5.494  70.467  1.00  0.00    -0.342 C  
HETATM   15  C   UNL     1     -11.794   7.108  69.202  1.00  0.00     0.682 C  
HETATM   16  C   UNL     1     -11.700   7.113  71.675  1.00  0.00    -0.324 C  
ENDBRANCH  12  13
BRANCH  10  17
HETATM   17  C   UNL     1      -6.356   9.107  72.105  1.00  0.00     0.080 C  
HETATM   18  C   UNL     1      -5.580   7.777  72.213  1.00  0.00    -0.036 C  
HETATM   19  C   UNL     1      -5.291  10.171  71.701  1.00  0.00    -0.026 C  
HETATM   20  C   UNL     1      -6.872   9.542  73.491  1.00  0.00     1.108 C  
ENDBRANCH  10  17
ENDBRANCH   4   5
ENDBRANCH   2   4
BRANCH   2  21
HETATM   21  S   UNL     1      -8.032  13.863  67.130  1.00  0.00     0.048 SA 
BRANCH  21  22
HETATM   22  C   UNL     1      -9.821  13.955  67.168  1.00  0.00    -0.241 A  
HETATM   23  C   UNL     1     -10.626  13.931  66.027  1.00  0.00    -0.293 A  
HETATM   24  C   UNL     1     -10.418  14.220  68.390  1.00  0.00    -0.249 A  
HETATM   25  H   UNL     1     -14.409  14.721  66.545  1.00  0.00     0.000 HD 
HETATM   26  O   UNL     1     -13.897  14.740  67.345  1.00  0.00     5.058 OA 
HETATM   27  C   UNL     1     -11.797  14.470  68.524  1.00  0.00    -0.355 A  
HETATM   28  C   UNL     1     -12.008  14.158  66.058  1.00  0.00    -0.427 A  
HETATM   29  C   UNL     1     -12.565  14.442  67.323  1.00  0.00     0.425 A  
BRANCH  27  30
HETATM   30  C   UNL     1     -12.359  14.823  69.924  1.00  0.00    -0.328 C  
HETATM   31  C   UNL     1     -13.163  16.156  69.946  1.00  0.00     1.925 C  
HETATM   32  C   UNL     1     -13.336  13.729  70.399  1.00  0.00     0.414 C  
HETATM   33  C   UNL     1     -11.229  15.024  70.957  1.00  0.00    -0.268 C  
ENDBRANCH  27  30
BRANCH  28  34
HETATM   34  C   UNL     1     -12.840  14.065  64.746  1.00  0.00    -0.114 C  
HETATM   35  C   UNL     1     -13.375  15.436  64.233  1.00  0.00     2.005 C  
HETATM   36  C   UNL     1     -14.090  13.176  64.920  1.00  0.00     3.895 C  
HETATM   37  C   UNL     1     -11.956  13.512  63.608  1.00  0.00    -0.439 C  
ENDBRANCH  28  34
ENDBRANCH  21  22
ENDBRANCH   2  21
TORSDOF 8
ENDMDL
MODEL      325
REMARK 921   NORMALIZED FREE ENERGY PREDICTED BY IDOCK:   14.70 KCAL/MOL
REMARK 922        TOTAL FREE ENERGY PREDICTED BY IDOCK:   20.98 KCAL/MOL
REMARK 923 INTER-LIGAND FREE ENERGY PREDICTED BY IDOCK:   18.24 KCAL/MOL
REMARK 924 INTRA-LIGAND FREE ENERGY PREDICTED BY IDOCK:    2.74 KCAL/MOL
REMARK 927      BINDING AFFINITY PREDICTED BY RF-SCORE:    0.00 PKD
ROOT
HETATM    1  C   UNL     1     -11.250  16.331  65.745  1.00  0.00     0.199 C  
HETATM    2  C   UNL     1     -10.385  15.448  66.662  1.00  0.00    -0.280 C  
HETATM    3  C   UNL     1      -8.916  15.866  66.487  1.00  0.00    -0.331 C  
ENDROOT
BRANCH   2   4
HETATM    4  S   UNL     1     -10.556  13.691  66.122  1.00  0.00    -0.295 SA 
BRANCH   4   5
HETATM    5  C   UNL     1      -9.309  12.806  67.052  1.00  0.00    -0.229 A  
HETATM    6  C   UNL     1      -7.496  11.520  68.752  1.00  0.00    -0.119 A  
HETATM    7  O   UNL     1      -6.692  10.850  69.628  1.00  0.00    -0.102 OA 
HETATM    8  H   UNL     1      -6.795   9.918  69.782  1.00  0.00     0.000 HD 
HETATM    9  C   UNL     1      -8.298  13.528  67.677  1.00  0.00    -0.179 A  
HETATM   10  C   UNL     1      -8.508  10.750  68.141  1.00  0.00    -0.125 A  
HETATM   11  C   UNL     1      -9.370  11.436  67.282  1.00  0.00    -0.173 A  
HETATM   12  C   UNL     1      -7.342  12.918  68.521  1.00  0.00    -0.115 A  
BRANCH  12  13
HETATM   13  C   UNL     1      -6.235  13.795  69.159  1.00  0.00    -0.100 C  
HETATM   14  C   UNL     1      -5.375  12.979  70.152  1.00  0.00    -0.110 C  
HETATM   15  C   UNL     1      -6.851  15.022  69.863  1.00  0.00    -0.162 C  
HETATM   16  C   UNL     1      -5.217  14.359  68.126  1.00  0.00    -0.118 C  
ENDBRANCH  12  13
BRANCH  10  17
HETATM   17  C   UNL     1      -8.700   9.225  68.354  1.00  0.00    -0.129 C  
HETATM   18  C   UNL     1      -9.320   8.926  69.736  1.00  0.00    -0.169 C  
HETATM   19  C   UNL     1      -9.654   8.549  67.323  1.00  0.00    -0.220 C  
HETATM   20  C   UNL     1      -7.347   8.501  68.204  1.00  0.00    -0.092 C  
ENDBRANCH  10  17
ENDBRANCH   4   5
ENDBRANCH   2   4
BRANCH   2  21
HETATM   21  S   UNL     1     -10.872  15.794  68.408  1.00  0.00    -0.314 SA 
BRANCH  21  22
HETATM   22  C   UNL     1      -9.920  17.240  68.873  1.00  0.00    -0.307 A  
HETATM   23  C   UNL     1      -8.800  17.693  68.172  1.00  0.00    -0.269 A  
HETATM   24  C   UNL     1     -10.229  17.842  70.083  1.00  0.00     1.122 A  
HETATM   25  H   UNL     1      -6.718  20.527  69.858  1.00  0.00     0.000 HD 
HETATM   26  O   UNL     1      -7.475  20.251  70.361  1.00  0.00     0.299 OA 
HETATM   27  C   UNL     1      -9.458  18.883  70.631  1.00  0.00     2.586 A  
HETATM   28  C   UNL     1      -7.975  18.728  68.631  1.00  0.00    -0.369 A  
HETATM   29  C   UNL     1      -8.321  19.296  69.876  1.00  0.00     0.866 A  
BRANCH  27  30
HETATM   30  C   UNL     1      -9.846  19.446  72.022  1.00  0.00     3.753 C  
HETATM   31  C   UNL     1     -10.890  20.599  71.950  1.00  0.00     7.349 C  
HETATM   32  C   UNL     1     -10.490  18.342  72.885  1.00  0.00     4.062 C  
HETATM   33  C   UNL     1      -8.629  20.059  72.748  1.00  0.00     3.382 C  
ENDBRANCH  27  30
BRANCH  28  34
HETATM   34  C   UNL     1      -6.774  19.205  67.765  1.00  0.00    -0.229 C  
HETATM   35  C   UNL     1      -6.767  20.736  67.473  1.00  0.00    -0.405 C  
HETATM   36  C   UNL     1      -6.758  18.523  66.380  1.00  0.00    -0.239 C  
HETATM   37  C   UNL     1      -5.451  18.917  68.507  1.00  0.00    -0.197 C  
ENDBRANCH  28  34
ENDBRANCH  21  22
ENDBRANCH   2  21
TORSDOF 8
ENDMDL
