MODEL        1
REMARK 921   NORMALIZED FREE ENERGY PREDICTED BY IDOCK:   -5.61 KCAL/MOL
REMARK 922        TOTAL FREE ENERGY PREDICTED BY IDOCK:   -8.37 KCAL/MOL
REMARK 923 INTER-LIGAND FREE ENERGY PREDICTED BY IDOCK:   -7.58 KCAL/MOL
REMARK 924 INTRA-LIGAND FREE ENERGY PREDICTED BY IDOCK:   -0.78 KCAL/MOL
REMARK 927      BINDING AFFINITY PREDICTED BY RF-SCORE:    0.00 PKD
ROOT
HETATM    1  C   UNL     1      -9.983  19.781  66.074  1.00  0.00    -0.541 C  
HETATM    2  C   UNL     1     -10.740  19.506  67.360  1.00  0.00    -0.589 C  
ENDROOT
BRANCH   2   3
HETATM    3  C   UNL     1      -9.875  18.951  68.496  1.00  0.00    -0.399 C  
BRANCH   3   4
HETATM    4  N   UNL     1      -9.022  17.736  68.167  1.00  0.00    -0.264 N  
BRANCH   4   5
HETATM    5  C   UNL     1      -7.564  17.985  68.472  1.00  0.00    -0.291 C  
BRANCH   5   6
HETATM    6  C   UNL     1      -7.221  19.393  68.969  1.00  0.00    -0.397 C  
HETATM    7  C   UNL     1      -6.181  20.117  68.130  1.00  0.00    -0.295 C  
ENDBRANCH   5   6
ENDBRANCH   4   5
BRANCH   4   8
HETATM    8  S   UNL     1      -9.675  16.314  68.964  1.00  0.00    -0.256 S  
HETATM    9  O   UNL     1      -8.608  15.493  69.488  1.00  0.00    -0.260 OA 
HETATM   10  O   UNL     1     -10.760  16.751  69.818  1.00  0.00    -0.322 OA 
BRANCH   8  11
HETATM   11  C   UNL     1     -10.373  15.337  67.639  1.00  0.00    -0.250 A  
HETATM   12  C   UNL     1     -11.540  14.599  67.884  1.00  0.00    -0.373 A  
HETATM   13  C   UNL     1     -12.234  14.014  66.819  1.00  0.00    -0.439 A  
HETATM   14  C   UNL     1     -11.760  14.167  65.509  1.00  0.00    -0.344 A  
HETATM   15  C   UNL     1     -12.488  13.623  64.331  1.00  0.00    -0.264 C  
HETATM   16  C   UNL     1     -10.603  14.924  65.271  1.00  0.00    -0.421 A  
HETATM   17  O   UNL     1     -13.099  12.445  64.567  1.00  0.00    -0.823 OA 
HETATM   18  C   UNL     1      -9.908  15.508  66.333  1.00  0.00    -0.298 A  
HETATM   19  O   UNL     1     -12.491  14.168  63.241  1.00  0.00    -0.758 OA 
ENDBRANCH   8  11
ENDBRANCH   4   8
ENDBRANCH   3   4
ENDBRANCH   2   3
TORSDOF 6
ENDMDL
MODEL        2
REMARK 921   NORMALIZED FREE ENERGY PREDICTED BY IDOCK:   -5.58 KCAL/MOL
REMARK 922        TOTAL FREE ENERGY PREDICTED BY IDOCK:   -8.33 KCAL/MOL
REMARK 923 INTER-LIGAND FREE ENERGY PREDICTED BY IDOCK:   -7.62 KCAL/MOL
REMARK 924 INTRA-LIGAND FREE ENERGY PREDICTED BY IDOCK:   -0.71 KCAL/MOL
REMARK 927      BINDING AFFINITY PREDICTED BY RF-SCORE:    0.00 PKD
ROOT
HETATM    1  C   UNL     1     -10.443  17.050  66.100  1.00  0.00    -0.274 C  
HETATM    2  C   UNL     1      -9.527  15.869  65.834  1.00  0.00    -0.372 C  
ENDROOT
BRANCH   2   3
HETATM    3  C   UNL     1     -10.246  14.608  65.348  1.00  0.00    -0.387 C  
BRANCH   3   4
HETATM    4  N   UNL     1     -11.538  14.246  66.064  1.00  0.00    -0.351 N  
BRANCH   4   5
HETATM    5  C   UNL     1     -12.615  13.835  65.088  1.00  0.00    -0.433 C  
BRANCH   5   6
HETATM    6  C   UNL     1     -12.135  13.497  63.673  1.00  0.00    -0.459 C  
HETATM    7  C   UNL     1     -12.011  12.008  63.393  1.00  0.00    -0.571 C  
ENDBRANCH   5   6
ENDBRANCH   4   5
BRANCH   4   8
HETATM    8  S   UNL     1     -11.217  13.047  67.306  1.00  0.00    -0.304 S  
HETATM    9  O   UNL     1     -12.045  11.880  67.108  1.00  0.00    -0.590 OA 
HETATM   10  O   UNL     1      -9.780  12.922  67.432  1.00  0.00    -0.195 OA 
BRANCH   8  11
HETATM   11  C   UNL     1     -11.842  13.781  68.812  1.00  0.00    -0.363 A  
HETATM   12  C   UNL     1     -12.152  12.947  69.895  1.00  0.00    -0.335 A  
HETATM   13  C   UNL     1     -12.422  13.502  71.151  1.00  0.00    -0.424 A  
HETATM   14  C   UNL     1     -12.381  14.892  71.323  1.00  0.00    -0.385 A  
HETATM   15  C   UNL     1     -12.595  15.536  72.647  1.00  0.00    -0.406 C  
HETATM   16  C   UNL     1     -12.050  15.719  70.239  1.00  0.00    -0.371 A  
HETATM   17  O   UNL     1     -13.506  14.908  73.415  1.00  0.00    -0.506 OA 
HETATM   18  C   UNL     1     -11.782  15.166  68.983  1.00  0.00    -0.358 A  
HETATM   19  O   UNL     1     -12.035  16.565  72.985  1.00  0.00    -0.530 OA 
ENDBRANCH   8  11
ENDBRANCH   4   8
ENDBRANCH   3   4
ENDBRANCH   2   3
TORSDOF 6
ENDMDL
MODEL        3
REMARK 921   NORMALIZED FREE ENERGY PREDICTED BY IDOCK:   -5.44 KCAL/MOL
REMARK 922        TOTAL FREE ENERGY PREDICTED BY IDOCK:   -8.14 KCAL/MOL
REMARK 923 INTER-LIGAND FREE ENERGY PREDICTED BY IDOCK:   -7.16 KCAL/MOL
REMARK 924 INTRA-LIGAND FREE ENERGY PREDICTED BY IDOCK:   -0.98 KCAL/MOL
REMARK 927      BINDING AFFINITY PREDICTED BY RF-SCORE:    0.00 PKD
ROOT
HETATM    1  C   UNL     1     -13.651   9.722  72.211  1.00  0.00    -0.397 C  
HETATM    2  C   UNL     1     -13.090  11.014  71.647  1.00  0.00    -0.543 C  
ENDROOT
BRANCH   2   3
HETATM    3  C   UNL     1     -12.019  10.819  70.569  1.00  0.00    -0.361 C  
BRANCH   3   4
HETATM    4  N   UNL     1     -11.923  11.902  69.505  1.00  0.00    -0.306 N  
BRANCH   4   5
HETATM    5  C   UNL     1     -11.548  13.236  70.105  1.00  0.00    -0.084 C  
BRANCH   5   6
HETATM    6  C   UNL     1     -12.525  14.384  69.835  1.00  0.00    -0.311 C  
HETATM    7  C   UNL     1     -11.868  15.660  69.335  1.00  0.00    -0.391 C  
ENDBRANCH   5   6
ENDBRANCH   4   5
BRANCH   4   8
HETATM    8  S   UNL     1     -10.849  11.381  68.218  1.00  0.00    -0.228 S  
HETATM    9  O   UNL     1      -9.492  11.281  68.701  1.00  0.00    -0.186 OA 
HETATM   10  O   UNL     1     -11.480  10.263  67.547  1.00  0.00    -0.323 OA 
BRANCH   8  11
HETATM   11  C   UNL     1     -10.811  12.759  67.079  1.00  0.00    -0.257 A  
HETATM   12  C   UNL     1     -11.997  13.136  66.432  1.00  0.00    -0.462 A  
HETATM   13  C   UNL     1     -12.052  14.339  65.719  1.00  0.00    -0.414 A  
HETATM   14  C   UNL     1     -10.921  15.163  65.652  1.00  0.00    -0.359 A  
HETATM   15  C   UNL     1     -10.938  16.482  64.963  1.00  0.00    -0.210 C  
HETATM   16  C   UNL     1      -9.745  14.788  66.318  1.00  0.00    -0.326 A  
HETATM   17  O   UNL     1     -11.711  16.508  63.860  1.00  0.00    -1.148 OA 
HETATM   18  C   UNL     1      -9.687  13.586  67.030  1.00  0.00    -0.251 A  
HETATM   19  O   UNL     1     -10.276  17.435  65.335  1.00  0.00    -0.603 OA 
ENDBRANCH   8  11
ENDBRANCH   4   8
ENDBRANCH   3   4
ENDBRANCH   2   3
TORSDOF 6
ENDMDL
MODEL        4
REMARK 921   NORMALIZED FREE ENERGY PREDICTED BY IDOCK:   -5.41 KCAL/MOL
REMARK 922        TOTAL FREE ENERGY PREDICTED BY IDOCK:   -8.09 KCAL/MOL
REMARK 923 INTER-LIGAND FREE ENERGY PREDICTED BY IDOCK:   -7.22 KCAL/MOL
REMARK 924 INTRA-LIGAND FREE ENERGY PREDICTED BY IDOCK:   -0.87 KCAL/MOL
REMARK 927      BINDING AFFINITY PREDICTED BY RF-SCORE:    0.00 PKD
ROOT
HETATM    1  C   UNL     1     -11.909  12.666  63.603  1.00  0.00    -0.606 C  
HETATM    2  C   UNL     1     -12.181  13.874  64.480  1.00  0.00    -0.451 C  
ENDROOT
BRANCH   2   3
HETATM    3  C   UNL     1     -10.928  14.496  65.104  1.00  0.00    -0.379 C  
BRANCH   3   4
HETATM    4  N   UNL     1     -10.550  14.010  66.494  1.00  0.00    -0.277 N  
BRANCH   4   5
HETATM    5  C   UNL     1      -9.432  12.997  66.441  1.00  0.00    -0.224 C  
BRANCH   5   6
HETATM    6  C   UNL     1      -9.676  11.697  67.213  1.00  0.00    -0.192 C  
HETATM    7  C   UNL     1     -11.057  11.097  67.008  1.00  0.00    -0.339 C  
ENDBRANCH   5   6
ENDBRANCH   4   5
BRANCH   4   8
HETATM    8  S   UNL     1     -10.209  15.382  67.535  1.00  0.00    -0.247 S  
HETATM    9  O   UNL     1      -8.872  15.291  68.071  1.00  0.00    -0.166 OA 
HETATM   10  O   UNL     1     -10.650  16.576  66.843  1.00  0.00    -0.302 OA 
BRANCH   8  11
HETATM   11  C   UNL     1     -11.271  15.145  68.954  1.00  0.00    -0.283 A  
HETATM   12  C   UNL     1     -11.884  13.898  69.141  1.00  0.00    -0.401 A  
HETATM   13  C   UNL     1     -12.529  13.609  70.349  1.00  0.00    -0.364 A  
HETATM   14  C   UNL     1     -12.561  14.569  71.370  1.00  0.00    -0.411 A  
HETATM   15  C   UNL     1     -13.174  14.298  72.698  1.00  0.00    -0.510 C  
HETATM   16  C   UNL     1     -11.928  15.807  71.182  1.00  0.00    -0.469 A  
HETATM   17  O   UNL     1     -14.267  13.511  72.640  1.00  0.00    -0.751 OA 
HETATM   18  C   UNL     1     -11.284  16.098  69.976  1.00  0.00    -0.359 A  
HETATM   19  O   UNL     1     -12.757  14.782  73.735  1.00  0.00    -0.491 OA 
ENDBRANCH   8  11
ENDBRANCH   4   8
ENDBRANCH   3   4
ENDBRANCH   2   3
TORSDOF 6
ENDMDL
MODEL        5
REMARK 921   NORMALIZED FREE ENERGY PREDICTED BY IDOCK:   -5.32 KCAL/MOL
REMARK 922        TOTAL FREE ENERGY PREDICTED BY IDOCK:   -7.97 KCAL/MOL
REMARK 923 INTER-LIGAND FREE ENERGY PREDICTED BY IDOCK:   -7.19 KCAL/MOL
REMARK 924 INTRA-LIGAND FREE ENERGY PREDICTED BY IDOCK:   -0.77 KCAL/MOL
REMARK 927      BINDING AFFINITY PREDICTED BY RF-SCORE:    0.00 PKD
ROOT
HETATM    1  C   UNL     1     -12.558  11.954  63.364  1.00  0.00    -0.555 C  
HETATM    2  C   UNL     1     -11.762  13.092  63.976  1.00  0.00    -0.497 C  
ENDROOT
BRANCH   2   3
HETATM    3  C   UNL     1     -12.090  13.374  65.445  1.00  0.00    -0.421 C  
BRANCH   3   4
HETATM    4  N   UNL     1     -10.982  13.106  66.451  1.00  0.00    -0.286 N  
BRANCH   4   5
HETATM    5  C   UNL     1      -9.812  12.398  65.811  1.00  0.00    -0.240 C  
BRANCH   5   6
HETATM    6  C   UNL     1      -9.412  11.064  66.449  1.00  0.00    -0.218 C  
HETATM    7  C   UNL     1     -10.553  10.334  67.140  1.00  0.00    -0.320 C  
ENDBRANCH   5   6
ENDBRANCH   4   5
BRANCH   4   8
HETATM    8  S   UNL     1     -10.543  14.597  67.268  1.00  0.00    -0.289 S  
HETATM    9  O   UNL     1      -9.118  14.646  67.499  1.00  0.00    -0.180 OA 
HETATM   10  O   UNL     1     -11.220  15.683  66.589  1.00  0.00    -0.221 OA 
BRANCH   8  11
HETATM   11  C   UNL     1     -11.251  14.440  68.902  1.00  0.00    -0.262 A  
HETATM   12  C   UNL     1     -11.676  15.597  69.571  1.00  0.00    -0.382 A  
HETATM   13  C   UNL     1     -12.436  15.490  70.740  1.00  0.00    -0.491 A  
HETATM   14  C   UNL     1     -12.771  14.225  71.242  1.00  0.00    -0.427 A  
HETATM   15  C   UNL     1     -13.629  14.047  72.444  1.00  0.00    -0.557 C  
HETATM   16  C   UNL     1     -12.358  13.072  70.556  1.00  0.00    -0.365 A  
HETATM   17  O   UNL     1     -13.439  14.988  73.390  1.00  0.00    -0.487 OA 
HETATM   18  C   UNL     1     -11.597  13.177  69.388  1.00  0.00    -0.360 A  
HETATM   19  O   UNL     1     -14.396  13.111  72.581  1.00  0.00    -0.636 OA 
ENDBRANCH   8  11
ENDBRANCH   4   8
ENDBRANCH   3   4
ENDBRANCH   2   3
TORSDOF 6
ENDMDL
MODEL        6
REMARK 921   NORMALIZED FREE ENERGY PREDICTED BY IDOCK:   -5.29 KCAL/MOL
REMARK 922        TOTAL FREE ENERGY PREDICTED BY IDOCK:   -7.92 KCAL/MOL
REMARK 923 INTER-LIGAND FREE ENERGY PREDICTED BY IDOCK:   -7.00 KCAL/MOL
REMARK 924 INTRA-LIGAND FREE ENERGY PREDICTED BY IDOCK:   -0.93 KCAL/MOL
REMARK 927      BINDING AFFINITY PREDICTED BY RF-SCORE:    0.00 PKD
ROOT
HETATM    1  C   UNL     1     -11.156  15.111  69.849  1.00  0.00    -0.302 C  
HETATM    2  C   UNL     1     -11.062  16.615  69.673  1.00  0.00    -0.146 C  
ENDROOT
BRANCH   2   3
HETATM    3  C   UNL     1     -10.148  17.061  68.527  1.00  0.00    -0.303 C  
BRANCH   3   4
HETATM    4  N   UNL     1     -10.836  17.546  67.261  1.00  0.00    -0.210 N  
BRANCH   4   5
HETATM    5  C   UNL     1     -10.772  19.049  67.138  1.00  0.00    -0.456 C  
BRANCH   5   6
HETATM    6  C   UNL     1      -9.777  19.750  68.068  1.00  0.00    -0.505 C  
HETATM    7  C   UNL     1      -8.710  20.558  67.347  1.00  0.00    -0.373 C  
ENDBRANCH   5   6
ENDBRANCH   4   5
BRANCH   4   8
HETATM    8  S   UNL     1     -10.188  16.697  65.867  1.00  0.00    -0.306 S  
HETATM    9  O   UNL     1     -10.957  17.006  64.684  1.00  0.00    -0.968 OA 
HETATM   10  O   UNL     1      -8.750  16.867  65.881  1.00  0.00    -0.516 OA 
BRANCH   8  11
HETATM   11  C   UNL     1     -10.543  14.973  66.186  1.00  0.00    -0.310 A  
HETATM   12  C   UNL     1      -9.476  14.093  66.416  1.00  0.00    -0.289 A  
HETATM   13  C   UNL     1      -9.726  12.800  66.891  1.00  0.00    -0.234 A  
HETATM   14  C   UNL     1     -11.042  12.388  67.135  1.00  0.00    -0.328 A  
HETATM   15  C   UNL     1     -11.366  11.051  67.700  1.00  0.00    -0.281 C  
HETATM   16  C   UNL     1     -12.103  13.282  66.921  1.00  0.00    -0.389 A  
HETATM   17  O   UNL     1     -10.546  10.070  67.273  1.00  0.00    -0.244 OA 
HETATM   18  C   UNL     1     -11.856  14.573  66.446  1.00  0.00    -0.361 A  
HETATM   19  O   UNL     1     -12.313  10.852  68.440  1.00  0.00    -0.477 OA 
ENDBRANCH   8  11
ENDBRANCH   4   8
ENDBRANCH   3   4
ENDBRANCH   2   3
TORSDOF 6
ENDMDL
MODEL        7
REMARK 921   NORMALIZED FREE ENERGY PREDICTED BY IDOCK:   -5.27 KCAL/MOL
REMARK 922        TOTAL FREE ENERGY PREDICTED BY IDOCK:   -7.91 KCAL/MOL
REMARK 923 INTER-LIGAND FREE ENERGY PREDICTED BY IDOCK:   -6.87 KCAL/MOL
REMARK 924 INTRA-LIGAND FREE ENERGY PREDICTED BY IDOCK:   -1.03 KCAL/MOL
REMARK 927      BINDING AFFINITY PREDICTED BY RF-SCORE:    0.00 PKD
ROOT
HETATM    1  C   UNL     1     -11.812  13.963  69.588  1.00  0.00    -0.385 C  
HETATM    2  C   UNL     1     -12.015  15.350  69.006  1.00  0.00    -0.313 C  
ENDROOT
BRANCH   2   3
HETATM    3  C   UNL     1     -11.010  16.395  69.498  1.00  0.00    -0.317 C  
BRANCH   3   4
HETATM    4  N   UNL     1     -10.271  17.183  68.427  1.00  0.00    -0.317 N  
BRANCH   4   5
HETATM    5  C   UNL     1      -9.925  18.573  68.903  1.00  0.00    -0.347 C  
BRANCH   5   6
HETATM    6  C   UNL     1     -10.395  19.720  68.003  1.00  0.00    -0.567 C  
HETATM    7  C   UNL     1     -10.699  19.307  66.572  1.00  0.00    -0.487 C  
ENDBRANCH   5   6
ENDBRANCH   4   5
BRANCH   4   8
HETATM    8  S   UNL     1      -8.885  16.266  67.861  1.00  0.00    -0.184 S  
HETATM    9  O   UNL     1      -7.929  17.139  67.220  1.00  0.00    -0.172 OA 
HETATM   10  O   UNL     1      -8.476  15.383  68.935  1.00  0.00    -0.173 OA 
BRANCH   8  11
HETATM   11  C   UNL     1      -9.525  15.258  66.531  1.00  0.00    -0.283 A  
HETATM   12  C   UNL     1      -9.387  13.865  66.609  1.00  0.00    -0.282 A  
HETATM   13  C   UNL     1     -10.072  13.043  65.707  1.00  0.00    -0.294 A  
HETATM   14  C   UNL     1     -10.895  13.614  64.727  1.00  0.00    -0.402 A  
HETATM   15  C   UNL     1     -11.697  12.791  63.783  1.00  0.00    -0.493 C  
HETATM   16  C   UNL     1     -11.043  15.008  64.669  1.00  0.00    -0.335 A  
HETATM   17  O   UNL     1     -11.085  11.653  63.400  1.00  0.00    -0.396 OA 
HETATM   18  C   UNL     1     -10.358  15.832  65.567  1.00  0.00    -0.430 A  
HETATM   19  O   UNL     1     -12.785  13.137  63.358  1.00  0.00    -0.697 OA 
ENDBRANCH   8  11
ENDBRANCH   4   8
ENDBRANCH   3   4
ENDBRANCH   2   3
TORSDOF 6
ENDMDL
MODEL        8
REMARK 921   NORMALIZED FREE ENERGY PREDICTED BY IDOCK:   -5.17 KCAL/MOL
REMARK 922        TOTAL FREE ENERGY PREDICTED BY IDOCK:   -7.77 KCAL/MOL
REMARK 923 INTER-LIGAND FREE ENERGY PREDICTED BY IDOCK:   -7.23 KCAL/MOL
REMARK 924 INTRA-LIGAND FREE ENERGY PREDICTED BY IDOCK:   -0.54 KCAL/MOL
REMARK 927      BINDING AFFINITY PREDICTED BY RF-SCORE:    0.00 PKD
ROOT
HETATM    1  C   UNL     1     -10.133  11.028  63.674  1.00  0.00    -0.428 C  
HETATM    2  C   UNL     1     -10.131  10.958  65.190  1.00  0.00    -0.352 C  
ENDROOT
BRANCH   2   3
HETATM    3  C   UNL     1      -9.687  12.251  65.882  1.00  0.00    -0.235 C  
BRANCH   3   4
HETATM    4  N   UNL     1     -10.735  12.965  66.721  1.00  0.00    -0.260 N  
BRANCH   4   5
HETATM    5  C   UNL     1     -11.979  13.261  65.917  1.00  0.00    -0.419 C  
BRANCH   5   6
HETATM    6  C   UNL     1     -11.781  14.164  64.696  1.00  0.00    -0.427 C  
HETATM    7  C   UNL     1     -11.005  15.440  64.980  1.00  0.00    -0.450 C  
ENDBRANCH   5   6
ENDBRANCH   4   5
BRANCH   4   8
HETATM    8  S   UNL     1     -11.046  12.055  68.190  1.00  0.00    -0.267 S  
HETATM    9  O   UNL     1     -12.136  11.130  67.991  1.00  0.00    -0.635 OA 
HETATM   10  O   UNL     1      -9.769  11.597  68.699  1.00  0.00    -0.192 OA 
BRANCH   8  11
HETATM   11  C   UNL     1     -11.695  13.263  69.338  1.00  0.00    -0.325 A  
HETATM   12  C   UNL     1     -12.520  12.828  70.385  1.00  0.00    -0.231 A  
HETATM   13  C   UNL     1     -12.854  13.706  71.423  1.00  0.00    -0.442 A  
HETATM   14  C   UNL     1     -12.363  15.018  71.413  1.00  0.00    -0.395 A  
HETATM   15  C   UNL     1     -12.631  15.976  72.519  1.00  0.00    -0.451 C  
HETATM   16  C   UNL     1     -11.523  15.439  70.371  1.00  0.00    -0.355 A  
HETATM   17  O   UNL     1     -13.856  15.845  73.065  1.00  0.00    -0.592 OA 
HETATM   18  C   UNL     1     -11.189  14.565  69.333  1.00  0.00    -0.312 A  
HETATM   19  O   UNL     1     -11.836  16.832  72.865  1.00  0.00    -0.460 OA 
ENDBRANCH   8  11
ENDBRANCH   4   8
ENDBRANCH   3   4
ENDBRANCH   2   3
TORSDOF 6
ENDMDL
MODEL        9
REMARK 921   NORMALIZED FREE ENERGY PREDICTED BY IDOCK:   -5.17 KCAL/MOL
REMARK 922        TOTAL FREE ENERGY PREDICTED BY IDOCK:   -7.77 KCAL/MOL
REMARK 923 INTER-LIGAND FREE ENERGY PREDICTED BY IDOCK:   -7.08 KCAL/MOL
REMARK 924 INTRA-LIGAND FREE ENERGY PREDICTED BY IDOCK:   -0.69 KCAL/MOL
REMARK 927      BINDING AFFINITY PREDICTED BY RF-SCORE:    0.00 PKD
ROOT
HETATM    1  C   UNL     1     -11.863  12.364  63.496  1.00  0.00    -0.605 C  
HETATM    2  C   UNL     1     -12.630  12.630  64.778  1.00  0.00    -0.530 C  
ENDROOT
BRANCH   2   3
HETATM    3  C   UNL     1     -11.799  12.474  66.055  1.00  0.00    -0.418 C  
BRANCH   3   4
HETATM    4  N   UNL     1     -10.733  13.530  66.304  1.00  0.00    -0.286 N  
BRANCH   4   5
HETATM    5  C   UNL     1     -11.298  14.925  66.184  1.00  0.00    -0.307 C  
BRANCH   5   6
HETATM    6  C   UNL     1     -10.428  15.930  65.422  1.00  0.00    -0.429 C  
HETATM    7  C   UNL     1     -10.079  17.181  66.212  1.00  0.00    -0.329 C  
ENDBRANCH   5   6
ENDBRANCH   4   5
BRANCH   4   8
HETATM    8  S   UNL     1      -9.934  13.222  67.837  1.00  0.00    -0.239 S  
HETATM    9  O   UNL     1     -10.043  11.827  68.193  1.00  0.00    -0.180 OA 
HETATM   10  O   UNL     1      -8.642  13.877  67.796  1.00  0.00    -0.159 OA 
BRANCH   8  11
HETATM   11  C   UNL     1     -10.943  14.068  69.047  1.00  0.00    -0.259 A  
HETATM   12  C   UNL     1     -12.035  13.393  69.610  1.00  0.00    -0.386 A  
HETATM   13  C   UNL     1     -12.700  13.936  70.715  1.00  0.00    -0.383 A  
HETATM   14  C   UNL     1     -12.272  15.155  71.257  1.00  0.00    -0.395 A  
HETATM   15  C   UNL     1     -12.897  15.750  72.468  1.00  0.00    -0.458 C  
HETATM   16  C   UNL     1     -11.165  15.815  70.700  1.00  0.00    -0.395 A  
HETATM   17  O   UNL     1     -14.225  15.541  72.552  1.00  0.00    -0.548 OA 
HETATM   18  C   UNL     1     -10.501  15.274  69.595  1.00  0.00    -0.279 A  
HETATM   19  O   UNL     1     -12.274  16.407  73.284  1.00  0.00    -0.496 OA 
ENDBRANCH   8  11
ENDBRANCH   4   8
ENDBRANCH   3   4
ENDBRANCH   2   3
TORSDOF 6
ENDMDL
MODEL       10
REMARK 921   NORMALIZED FREE ENERGY PREDICTED BY IDOCK:   -5.14 KCAL/MOL
REMARK 922        TOTAL FREE ENERGY PREDICTED BY IDOCK:   -7.73 KCAL/MOL
REMARK 923 INTER-LIGAND FREE ENERGY PREDICTED BY IDOCK:   -7.20 KCAL/MOL
REMARK 924 INTRA-LIGAND FREE ENERGY PREDICTED BY IDOCK:   -0.53 KCAL/MOL
REMARK 927      BINDING AFFINITY PREDICTED BY RF-SCORE:    0.00 PKD
ROOT
HETATM    1  C   UNL     1      -7.050  18.994  69.204  1.00  0.00    -0.330 C  
HETATM    2  C   UNL     1      -7.661  18.035  68.200  1.00  0.00    -0.260 C  
ENDROOT
BRANCH   2   3
HETATM    3  C   UNL     1      -8.909  17.303  68.703  1.00  0.00    -0.261 C  
BRANCH   3   4
HETATM    4  N   UNL     1     -10.053  17.155  67.713  1.00  0.00    -0.294 N  
BRANCH   4   5
HETATM    5  C   UNL     1      -9.793  17.933  66.445  1.00  0.00    -0.337 C  
BRANCH   5   6
HETATM    6  C   UNL     1     -10.603  19.223  66.280  1.00  0.00    -0.545 C  
HETATM    7  C   UNL     1      -9.988  20.439  66.953  1.00  0.00    -0.549 C  
ENDBRANCH   5   6
ENDBRANCH   4   5
BRANCH   4   8
HETATM    8  S   UNL     1     -10.389  15.453  67.438  1.00  0.00    -0.267 S  
HETATM    9  O   UNL     1     -11.216  15.283  66.267  1.00  0.00    -0.316 OA 
HETATM   10  O   UNL     1      -9.139  14.734  67.573  1.00  0.00    -0.179 OA 
BRANCH   8  11
HETATM   11  C   UNL     1     -11.447  14.979  68.799  1.00  0.00    -0.319 A  
HETATM   12  C   UNL     1     -11.491  13.632  69.187  1.00  0.00    -0.346 A  
HETATM   13  C   UNL     1     -12.124  13.267  70.380  1.00  0.00    -0.401 A  
HETATM   14  C   UNL     1     -12.715  14.250  71.185  1.00  0.00    -0.430 A  
HETATM   15  C   UNL     1     -13.346  13.932  72.494  1.00  0.00    -0.554 C  
HETATM   16  C   UNL     1     -12.650  15.598  70.800  1.00  0.00    -0.482 A  
HETATM   17  O   UNL     1     -13.977  12.742  72.517  1.00  0.00    -0.499 OA 
HETATM   18  C   UNL     1     -12.019  15.964  69.608  1.00  0.00    -0.272 A  
HETATM   19  O   UNL     1     -13.336  14.699  73.442  1.00  0.00    -0.563 OA 
ENDBRANCH   8  11
ENDBRANCH   4   8
ENDBRANCH   3   4
ENDBRANCH   2   3
TORSDOF 6
ENDMDL
MODEL       11
REMARK 921   NORMALIZED FREE ENERGY PREDICTED BY IDOCK:   -5.12 KCAL/MOL
REMARK 922        TOTAL FREE ENERGY PREDICTED BY IDOCK:   -7.70 KCAL/MOL
REMARK 923 INTER-LIGAND FREE ENERGY PREDICTED BY IDOCK:   -6.94 KCAL/MOL
REMARK 924 INTRA-LIGAND FREE ENERGY PREDICTED BY IDOCK:   -0.76 KCAL/MOL
REMARK 927      BINDING AFFINITY PREDICTED BY RF-SCORE:    0.00 PKD
ROOT
HETATM    1  C   UNL     1     -12.252  12.274  63.479  1.00  0.00    -0.669 C  
HETATM    2  C   UNL     1     -12.482  12.473  64.966  1.00  0.00    -0.494 C  
ENDROOT
BRANCH   2   3
HETATM    3  C   UNL     1     -13.012  13.860  65.343  1.00  0.00    -0.326 C  
BRANCH   3   4
HETATM    4  N   UNL     1     -12.059  14.764  66.109  1.00  0.00    -0.174 N  
BRANCH   4   5
HETATM    5  C   UNL     1     -11.341  14.011  67.204  1.00  0.00    -0.331 C  
BRANCH   5   6
HETATM    6  C   UNL     1     -11.863  14.247  68.625  1.00  0.00    -0.379 C  
HETATM    7  C   UNL     1     -11.468  15.589  69.221  1.00  0.00    -0.349 C  
ENDBRANCH   5   6
ENDBRANCH   4   5
BRANCH   4   8
HETATM    8  S   UNL     1     -10.979  15.579  64.990  1.00  0.00    -0.415 S  
HETATM    9  O   UNL     1      -9.909  14.697  64.586  1.00  0.00    -0.088 OA 
HETATM   10  O   UNL     1     -11.799  16.249  64.001  1.00  0.00    -0.958 OA 
BRANCH   8  11
HETATM   11  C   UNL     1     -10.171  16.832  65.977  1.00  0.00    -0.346 A  
HETATM   12  C   UNL     1      -8.944  16.529  66.585  1.00  0.00    -0.285 A  
HETATM   13  C   UNL     1      -8.182  17.548  67.167  1.00  0.00    -0.229 A  
HETATM   14  C   UNL     1      -8.646  18.869  67.141  1.00  0.00    -0.295 A  
HETATM   15  C   UNL     1      -7.852  20.003  67.686  1.00  0.00    -0.306 C  
HETATM   16  C   UNL     1      -9.866  19.167  66.514  1.00  0.00    -0.429 A  
HETATM   17  O   UNL     1      -7.138  19.686  68.784  1.00  0.00    -0.322 OA 
HETATM   18  C   UNL     1     -10.630  18.150  65.932  1.00  0.00    -0.247 A  
HETATM   19  O   UNL     1      -7.883  21.125  67.213  1.00  0.00    -0.299 OA 
ENDBRANCH   8  11
ENDBRANCH   4   8
ENDBRANCH   3   4
ENDBRANCH   2   3
TORSDOF 6
ENDMDL
MODEL       12
REMARK 921   NORMALIZED FREE ENERGY PREDICTED BY IDOCK:   -5.08 KCAL/MOL
REMARK 922        TOTAL FREE ENERGY PREDICTED BY IDOCK:   -7.65 KCAL/MOL
REMARK 923 INTER-LIGAND FREE ENERGY PREDICTED BY IDOCK:   -7.04 KCAL/MOL
REMARK 924 INTRA-LIGAND FREE ENERGY PREDICTED BY IDOCK:   -0.61 KCAL/MOL
REMARK 927      BINDING AFFINITY PREDICTED BY RF-SCORE:    0.00 PKD
ROOT
HETATM    1  C   UNL     1     -11.385  11.488  63.528  1.00  0.00    -0.375 C  
HETATM    2  C   UNL     1     -10.551  12.718  63.837  1.00  0.00    -0.427 C  
ENDROOT
BRANCH   2   3
HETATM    3  C   UNL     1      -9.827  12.669  65.185  1.00  0.00    -0.092 C  
BRANCH   3   4
HETATM    4  N   UNL     1     -10.240  13.708  66.216  1.00  0.00    -0.289 N  
BRANCH   4   5
HETATM    5  C   UNL     1     -10.122  15.109  65.666  1.00  0.00    -0.363 C  
BRANCH   5   6
HETATM    6  C   UNL     1      -8.853  15.872  66.060  1.00  0.00    -0.298 C  
HETATM    7  C   UNL     1      -8.445  15.700  67.514  1.00  0.00    -0.182 C  
ENDBRANCH   5   6
ENDBRANCH   4   5
BRANCH   4   8
HETATM    8  S   UNL     1     -11.837  13.328  66.839  1.00  0.00    -0.383 S  
HETATM    9  O   UNL     1     -12.842  14.128  66.179  1.00  0.00    -0.377 OA 
HETATM   10  O   UNL     1     -11.955  11.885  66.889  1.00  0.00    -0.614 OA 
BRANCH   8  11
HETATM   11  C   UNL     1     -11.820  13.939  68.520  1.00  0.00    -0.366 A  
HETATM   12  C   UNL     1     -11.776  15.323  68.738  1.00  0.00    -0.374 A  
HETATM   13  C   UNL     1     -11.991  15.836  70.022  1.00  0.00    -0.352 A  
HETATM   14  C   UNL     1     -12.250  14.965  71.088  1.00  0.00    -0.380 A  
HETATM   15  C   UNL     1     -12.550  15.454  72.460  1.00  0.00    -0.385 C  
HETATM   16  C   UNL     1     -12.312  13.582  70.857  1.00  0.00    -0.437 A  
HETATM   17  O   UNL     1     -11.865  16.562  72.803  1.00  0.00    -0.539 OA 
HETATM   18  C   UNL     1     -12.096  13.067  69.576  1.00  0.00    -0.289 A  
HETATM   19  O   UNL     1     -13.307  14.877  73.221  1.00  0.00    -0.517 OA 
ENDBRANCH   8  11
ENDBRANCH   4   8
ENDBRANCH   3   4
ENDBRANCH   2   3
TORSDOF 6
ENDMDL
MODEL       13
REMARK 921   NORMALIZED FREE ENERGY PREDICTED BY IDOCK:   -5.08 KCAL/MOL
REMARK 922        TOTAL FREE ENERGY PREDICTED BY IDOCK:   -7.64 KCAL/MOL
REMARK 923 INTER-LIGAND FREE ENERGY PREDICTED BY IDOCK:   -6.94 KCAL/MOL
REMARK 924 INTRA-LIGAND FREE ENERGY PREDICTED BY IDOCK:   -0.70 KCAL/MOL
REMARK 927      BINDING AFFINITY PREDICTED BY RF-SCORE:    0.00 PKD
ROOT
HETATM    1  C   UNL     1      -6.996  19.757  69.102  1.00  0.00    -0.364 C  
HETATM    2  C   UNL     1      -8.196  19.066  68.480  1.00  0.00    -0.390 C  
ENDROOT
BRANCH   2   3
HETATM    3  C   UNL     1      -8.145  17.537  68.538  1.00  0.00    -0.275 C  
BRANCH   3   4
HETATM    4  N   UNL     1      -9.368  16.797  68.020  1.00  0.00    -0.225 N  
BRANCH   4   5
HETATM    5  C   UNL     1     -10.603  17.145  68.815  1.00  0.00    -0.336 C  
BRANCH   5   6
HETATM    6  C   UNL     1     -11.522  15.969  69.162  1.00  0.00    -0.347 C  
HETATM    7  C   UNL     1     -10.792  14.665  69.441  1.00  0.00    -0.261 C  
ENDBRANCH   5   6
ENDBRANCH   4   5
BRANCH   4   8
HETATM    8  S   UNL     1      -9.542  17.068  66.293  1.00  0.00    -0.246 S  
HETATM    9  O   UNL     1     -10.494  18.123  66.040  1.00  0.00    -0.440 OA 
HETATM   10  O   UNL     1      -8.212  17.118  65.722  1.00  0.00    -0.515 OA 
BRANCH   8  11
HETATM   11  C   UNL     1     -10.347  15.591  65.686  1.00  0.00    -0.384 A  
HETATM   12  C   UNL     1     -11.419  15.723  64.792  1.00  0.00    -0.256 A  
HETATM   13  C   UNL     1     -11.917  14.597  64.126  1.00  0.00    -0.316 A  
HETATM   14  C   UNL     1     -11.343  13.339  64.356  1.00  0.00    -0.415 A  
HETATM   15  C   UNL     1     -11.786  12.118  63.631  1.00  0.00    -0.516 C  
HETATM   16  C   UNL     1     -10.258  13.220  65.237  1.00  0.00    -0.303 A  
HETATM   17  O   UNL     1     -13.110  12.088  63.379  1.00  0.00    -0.747 OA 
HETATM   18  C   UNL     1      -9.760  14.343  65.904  1.00  0.00    -0.305 A  
HETATM   19  O   UNL     1     -11.031  11.208  63.336  1.00  0.00    -0.303 OA 
ENDBRANCH   8  11
ENDBRANCH   4   8
ENDBRANCH   3   4
ENDBRANCH   2   3
TORSDOF 6
ENDMDL
MODEL       14
REMARK 921   NORMALIZED FREE ENERGY PREDICTED BY IDOCK:   -5.05 KCAL/MOL
REMARK 922        TOTAL FREE ENERGY PREDICTED BY IDOCK:   -7.61 KCAL/MOL
REMARK 923 INTER-LIGAND FREE ENERGY PREDICTED BY IDOCK:   -7.13 KCAL/MOL
REMARK 924 INTRA-LIGAND FREE ENERGY PREDICTED BY IDOCK:   -0.48 KCAL/MOL
REMARK 927      BINDING AFFINITY PREDICTED BY RF-SCORE:    0.00 PKD
ROOT
HETATM    1  C   UNL     1      -5.424  20.796  69.560  1.00  0.00    -0.408 C  
HETATM    2  C   UNL     1      -6.538  19.767  69.511  1.00  0.00    -0.388 C  
ENDROOT
BRANCH   2   3
HETATM    3  C   UNL     1      -6.578  18.940  68.223  1.00  0.00    -0.235 C  
BRANCH   3   4
HETATM    4  N   UNL     1      -7.691  17.909  68.113  1.00  0.00    -0.247 N  
BRANCH   4   5
HETATM    5  C   UNL     1      -9.053  18.556  68.186  1.00  0.00    -0.309 C  
BRANCH   5   6
HETATM    6  C   UNL     1      -9.265  19.764  67.268  1.00  0.00    -0.437 C  
HETATM    7  C   UNL     1     -10.622  19.800  66.585  1.00  0.00    -0.578 C  
ENDBRANCH   5   6
ENDBRANCH   4   5
BRANCH   4   8
HETATM    8  S   UNL     1      -7.454  16.925  66.678  1.00  0.00    -0.295 S  
HETATM    9  O   UNL     1      -7.458  17.750  65.493  1.00  0.00    -0.491 OA 
HETATM   10  O   UNL     1      -6.356  16.019  66.945  1.00  0.00    -0.306 OA 
BRANCH   8  11
HETATM   11  C   UNL     1      -8.950  15.955  66.546  1.00  0.00    -0.296 A  
HETATM   12  C   UNL     1      -9.912  16.318  65.592  1.00  0.00    -0.306 A  
HETATM   13  C   UNL     1     -10.976  15.455  65.309  1.00  0.00    -0.397 A  
HETATM   14  C   UNL     1     -11.079  14.229  65.980  1.00  0.00    -0.319 A  
HETATM   15  C   UNL     1     -12.151  13.244  65.676  1.00  0.00    -0.441 C  
HETATM   16  C   UNL     1     -10.102  13.865  66.919  1.00  0.00    -0.260 A  
HETATM   17  O   UNL     1     -13.334  13.808  65.365  1.00  0.00    -0.669 OA 
HETATM   18  C   UNL     1      -9.038  14.726  67.205  1.00  0.00    -0.231 A  
HETATM   19  O   UNL     1     -11.987  12.038  65.750  1.00  0.00    -0.514 OA 
ENDBRANCH   8  11
ENDBRANCH   4   8
ENDBRANCH   3   4
ENDBRANCH   2   3
TORSDOF 6
ENDMDL
MODEL       15
REMARK 921   NORMALIZED FREE ENERGY PREDICTED BY IDOCK:   -5.05 KCAL/MOL
REMARK 922        TOTAL FREE ENERGY PREDICTED BY IDOCK:   -7.60 KCAL/MOL
REMARK 923 INTER-LIGAND FREE ENERGY PREDICTED BY IDOCK:   -7.00 KCAL/MOL
REMARK 924 INTRA-LIGAND FREE ENERGY PREDICTED BY IDOCK:   -0.61 KCAL/MOL
REMARK 927      BINDING AFFINITY PREDICTED BY RF-SCORE:    0.00 PKD
ROOT
HETATM    1  C   UNL     1     -10.415  12.119  63.417  1.00  0.00    -0.450 C  
HETATM    2  C   UNL     1     -10.107  10.782  64.065  1.00  0.00    -0.410 C  
ENDROOT
BRANCH   2   3
HETATM    3  C   UNL     1      -9.634  10.877  65.518  1.00  0.00    -0.221 C  
BRANCH   3   4
HETATM    4  N   UNL     1     -10.461  10.128  66.551  1.00  0.00    -0.199 N  
BRANCH   4   5
HETATM    5  C   UNL     1      -9.816   8.816  66.930  1.00  0.00    -0.229 C  
BRANCH   5   6
HETATM    6  C   UNL     1     -10.777   7.648  67.171  1.00  0.00    -0.361 C  
HETATM    7  C   UNL     1     -10.237   6.574  68.101  1.00  0.00    -0.194 C  
ENDBRANCH   5   6
ENDBRANCH   4   5
BRANCH   4   8
HETATM    8  S   UNL     1     -10.793  11.172  67.923  1.00  0.00    -0.257 S  
HETATM    9  O   UNL     1     -12.096  10.885  68.474  1.00  0.00    -0.545 OA 
HETATM   10  O   UNL     1      -9.615  11.173  68.767  1.00  0.00    -0.192 OA 
BRANCH   8  11
HETATM   11  C   UNL     1     -10.964  12.805  67.213  1.00  0.00    -0.262 A  
HETATM   12  C   UNL     1      -9.849  13.655  67.192  1.00  0.00    -0.242 A  
HETATM   13  C   UNL     1      -9.887  14.839  66.446  1.00  0.00    -0.297 A  
HETATM   14  C   UNL     1     -11.039  15.172  65.722  1.00  0.00    -0.330 A  
HETATM   15  C   UNL     1     -11.116  16.383  64.862  1.00  0.00    -0.239 C  
HETATM   16  C   UNL     1     -12.143  14.306  65.734  1.00  0.00    -0.414 A  
HETATM   17  O   UNL     1     -10.443  17.441  65.353  1.00  0.00    -0.648 OA 
HETATM   18  C   UNL     1     -12.109  13.124  66.479  1.00  0.00    -0.423 A  
HETATM   19  O   UNL     1     -11.767  16.427  63.832  1.00  0.00    -1.085 OA 
ENDBRANCH   8  11
ENDBRANCH   4   8
ENDBRANCH   3   4
ENDBRANCH   2   3
TORSDOF 6
ENDMDL
MODEL       16
REMARK 921   NORMALIZED FREE ENERGY PREDICTED BY IDOCK:   -5.03 KCAL/MOL
REMARK 922        TOTAL FREE ENERGY PREDICTED BY IDOCK:   -7.58 KCAL/MOL
REMARK 923 INTER-LIGAND FREE ENERGY PREDICTED BY IDOCK:   -7.51 KCAL/MOL
REMARK 924 INTRA-LIGAND FREE ENERGY PREDICTED BY IDOCK:   -0.06 KCAL/MOL
REMARK 927      BINDING AFFINITY PREDICTED BY RF-SCORE:    0.00 PKD
ROOT
HETATM    1  C   UNL     1     -13.396  15.247  70.989  1.00  0.00    -0.537 C  
HETATM    2  C   UNL     1     -12.064  14.556  70.760  1.00  0.00    -0.398 C  
ENDROOT
BRANCH   2   3
HETATM    3  C   UNL     1     -12.057  13.571  69.587  1.00  0.00    -0.306 C  
BRANCH   3   4
HETATM    4  N   UNL     1     -11.423  12.213  69.846  1.00  0.00    -0.194 N  
BRANCH   4   5
HETATM    5  C   UNL     1     -12.329  11.328  70.669  1.00  0.00    -0.383 C  
BRANCH   5   6
HETATM    6  C   UNL     1     -11.671  10.082  71.270  1.00  0.00    -0.452 C  
HETATM    7  C   UNL     1     -12.612   9.211  72.087  1.00  0.00    -0.451 C  
ENDBRANCH   5   6
ENDBRANCH   4   5
BRANCH   4   8
HETATM    8  S   UNL     1     -10.921  11.489  68.327  1.00  0.00    -0.245 S  
HETATM    9  O   UNL     1      -9.566  10.999  68.424  1.00  0.00    -0.167 OA 
HETATM   10  O   UNL     1     -11.992  10.620  67.882  1.00  0.00    -0.420 OA 
BRANCH   8  11
HETATM   11  C   UNL     1     -10.815  12.862  67.187  1.00  0.00    -0.256 A  
HETATM   12  C   UNL     1     -11.946  13.207  66.433  1.00  0.00    -0.462 A  
HETATM   13  C   UNL     1     -11.967  14.405  65.711  1.00  0.00    -0.362 A  
HETATM   14  C   UNL     1     -10.856  15.258  65.742  1.00  0.00    -0.363 A  
HETATM   15  C   UNL     1     -10.843  16.573  65.046  1.00  0.00    -0.229 C  
HETATM   16  C   UNL     1      -9.736  14.915  66.514  1.00  0.00    -0.294 A  
HETATM   17  O   UNL     1     -11.513  16.575  63.877  1.00  0.00    -1.145 OA 
HETATM   18  C   UNL     1      -9.713  13.718  67.236  1.00  0.00    -0.242 A  
HETATM   19  O   UNL     1     -10.242  17.544  65.471  1.00  0.00    -0.608 OA 
ENDBRANCH   8  11
ENDBRANCH   4   8
ENDBRANCH   3   4
ENDBRANCH   2   3
TORSDOF 6
ENDMDL
MODEL       17
REMARK 921   NORMALIZED FREE ENERGY PREDICTED BY IDOCK:   -5.03 KCAL/MOL
REMARK 922        TOTAL FREE ENERGY PREDICTED BY IDOCK:   -7.58 KCAL/MOL
REMARK 923 INTER-LIGAND FREE ENERGY PREDICTED BY IDOCK:   -6.93 KCAL/MOL
REMARK 924 INTRA-LIGAND FREE ENERGY PREDICTED BY IDOCK:   -0.65 KCAL/MOL
REMARK 927      BINDING AFFINITY PREDICTED BY RF-SCORE:    0.00 PKD
ROOT
HETATM    1  C   UNL     1      -7.846  11.328  68.569  1.00  0.00    -0.138 C  
HETATM    2  C   UNL     1      -8.399  12.606  67.966  1.00  0.00    -0.175 C  
ENDROOT
BRANCH   2   3
HETATM    3  C   UNL     1      -9.193  12.401  66.672  1.00  0.00    -0.218 C  
BRANCH   3   4
HETATM    4  N   UNL     1     -10.200  13.484  66.315  1.00  0.00    -0.292 N  
BRANCH   4   5
HETATM    5  C   UNL     1     -10.230  13.742  64.828  1.00  0.00    -0.335 C  
BRANCH   5   6
HETATM    6  C   UNL     1     -10.326  12.498  63.939  1.00  0.00    -0.436 C  
HETATM    7  C   UNL     1     -11.717  12.227  63.389  1.00  0.00    -0.542 C  
ENDBRANCH   5   6
ENDBRANCH   4   5
BRANCH   4   8
HETATM    8  S   UNL     1     -11.769  13.087  66.994  1.00  0.00    -0.382 S  
HETATM    9  O   UNL     1     -12.818  13.781  66.284  1.00  0.00    -0.297 OA 
HETATM   10  O   UNL     1     -11.820  11.650  67.169  1.00  0.00    -0.608 OA 
BRANCH   8  11
HETATM   11  C   UNL     1     -11.761  13.840  68.616  1.00  0.00    -0.356 A  
HETATM   12  C   UNL     1     -11.531  15.219  68.722  1.00  0.00    -0.345 A  
HETATM   13  C   UNL     1     -11.743  15.873  69.941  1.00  0.00    -0.327 A  
HETATM   14  C   UNL     1     -12.186  15.146  71.054  1.00  0.00    -0.393 A  
HETATM   15  C   UNL     1     -12.490  15.795  72.358  1.00  0.00    -0.453 C  
HETATM   16  C   UNL     1     -12.433  13.770  70.935  1.00  0.00    -0.451 A  
HETATM   17  O   UNL     1     -11.673  16.825  72.655  1.00  0.00    -0.429 OA 
HETATM   18  C   UNL     1     -12.220  13.115  69.718  1.00  0.00    -0.266 A  
HETATM   19  O   UNL     1     -13.365  15.401  73.109  1.00  0.00    -0.484 OA 
ENDBRANCH   8  11
ENDBRANCH   4   8
ENDBRANCH   3   4
ENDBRANCH   2   3
TORSDOF 6
ENDMDL
MODEL       18
REMARK 921   NORMALIZED FREE ENERGY PREDICTED BY IDOCK:   -5.02 KCAL/MOL
REMARK 922        TOTAL FREE ENERGY PREDICTED BY IDOCK:   -7.57 KCAL/MOL
REMARK 923 INTER-LIGAND FREE ENERGY PREDICTED BY IDOCK:   -6.54 KCAL/MOL
REMARK 924 INTRA-LIGAND FREE ENERGY PREDICTED BY IDOCK:   -1.02 KCAL/MOL
REMARK 927      BINDING AFFINITY PREDICTED BY RF-SCORE:    0.00 PKD
ROOT
HETATM    1  C   UNL     1      -7.907  13.835  68.496  1.00  0.00    -0.132 C  
HETATM    2  C   UNL     1      -8.054  13.069  67.194  1.00  0.00    -0.114 C  
ENDROOT
BRANCH   2   3
HETATM    3  C   UNL     1      -9.137  11.986  67.217  1.00  0.00    -0.178 C  
BRANCH   3   4
HETATM    4  N   UNL     1      -9.995  11.858  65.967  1.00  0.00    -0.225 N  
BRANCH   4   5
HETATM    5  C   UNL     1     -10.021  10.438  65.457  1.00  0.00    -0.282 C  
BRANCH   5   6
HETATM    6  C   UNL     1      -9.577  10.246  64.003  1.00  0.00    -0.365 C  
HETATM    7  C   UNL     1      -9.719  11.487  63.137  1.00  0.00    -0.412 C  
ENDBRANCH   5   6
ENDBRANCH   4   5
BRANCH   4   8
HETATM    8  S   UNL     1     -11.590  12.529  66.267  1.00  0.00    -0.400 S  
HETATM    9  O   UNL     1     -12.439  12.350  65.113  1.00  0.00    -0.583 OA 
HETATM   10  O   UNL     1     -12.016  12.077  67.576  1.00  0.00    -0.572 OA 
BRANCH   8  11
HETATM   11  C   UNL     1     -11.326  14.295  66.352  1.00  0.00    -0.343 A  
HETATM   12  C   UNL     1     -11.333  14.922  67.606  1.00  0.00    -0.348 A  
HETATM   13  C   UNL     1     -10.906  16.249  67.727  1.00  0.00    -0.315 A  
HETATM   14  C   UNL     1     -10.474  16.950  66.593  1.00  0.00    -0.257 A  
HETATM   15  C   UNL     1      -9.950  18.340  66.668  1.00  0.00    -0.364 C  
HETATM   16  C   UNL     1     -10.452  16.309  65.345  1.00  0.00    -0.365 A  
HETATM   17  O   UNL     1     -10.567  19.103  67.591  1.00  0.00    -0.434 OA 
HETATM   18  C   UNL     1     -10.879  14.983  65.222  1.00  0.00    -0.399 A  
HETATM   19  O   UNL     1      -9.077  18.763  65.931  1.00  0.00    -0.456 OA 
ENDBRANCH   8  11
ENDBRANCH   4   8
ENDBRANCH   3   4
ENDBRANCH   2   3
TORSDOF 6
ENDMDL
MODEL       19
REMARK 921   NORMALIZED FREE ENERGY PREDICTED BY IDOCK:   -5.01 KCAL/MOL
REMARK 922        TOTAL FREE ENERGY PREDICTED BY IDOCK:   -7.56 KCAL/MOL
REMARK 923 INTER-LIGAND FREE ENERGY PREDICTED BY IDOCK:   -7.09 KCAL/MOL
REMARK 924 INTRA-LIGAND FREE ENERGY PREDICTED BY IDOCK:   -0.46 KCAL/MOL
REMARK 927      BINDING AFFINITY PREDICTED BY RF-SCORE:    0.00 PKD
ROOT
HETATM    1  C   UNL     1     -11.613  15.657  70.929  1.00  0.00    -0.424 C  
HETATM    2  C   UNL     1     -12.155  14.284  71.279  1.00  0.00    -0.391 C  
ENDROOT
BRANCH   2   3
HETATM    3  C   UNL     1     -12.410  13.378  70.070  1.00  0.00    -0.226 C  
BRANCH   3   4
HETATM    4  N   UNL     1     -11.752  12.007  70.100  1.00  0.00    -0.282 N  
BRANCH   4   5
HETATM    5  C   UNL     1     -12.707  10.946  70.594  1.00  0.00    -0.309 C  
BRANCH   5   6
HETATM    6  C   UNL     1     -12.104   9.897  71.534  1.00  0.00    -0.496 C  
HETATM    7  C   UNL     1     -11.532   8.679  70.827  1.00  0.00    -0.293 C  
ENDBRANCH   5   6
ENDBRANCH   4   5
BRANCH   4   8
HETATM    8  S   UNL     1     -11.050  11.647  68.531  1.00  0.00    -0.259 S  
HETATM    9  O   UNL     1      -9.628  11.426  68.652  1.00  0.00    -0.195 OA 
HETATM   10  O   UNL     1     -11.900  10.667  67.886  1.00  0.00    -0.485 OA 
BRANCH   8  11
HETATM   11  C   UNL     1     -11.182  13.179  67.618  1.00  0.00    -0.282 A  
HETATM   12  C   UNL     1     -10.110  14.082  67.650  1.00  0.00    -0.241 A  
HETATM   13  C   UNL     1     -10.087  15.172  66.772  1.00  0.00    -0.261 A  
HETATM   14  C   UNL     1     -11.136  15.358  65.862  1.00  0.00    -0.247 A  
HETATM   15  C   UNL     1     -11.136  16.459  64.863  1.00  0.00    -0.239 C  
HETATM   16  C   UNL     1     -12.196  14.438  65.823  1.00  0.00    -0.353 A  
HETATM   17  O   UNL     1     -10.583  17.602  65.315  1.00  0.00    -0.663 OA 
HETATM   18  C   UNL     1     -12.221  13.350  66.700  1.00  0.00    -0.391 A  
HETATM   19  O   UNL     1     -11.634  16.353  63.755  1.00  0.00    -1.055 OA 
ENDBRANCH   8  11
ENDBRANCH   4   8
ENDBRANCH   3   4
ENDBRANCH   2   3
TORSDOF 6
ENDMDL
MODEL       20
REMARK 921   NORMALIZED FREE ENERGY PREDICTED BY IDOCK:   -5.01 KCAL/MOL
REMARK 922        TOTAL FREE ENERGY PREDICTED BY IDOCK:   -7.55 KCAL/MOL
REMARK 923 INTER-LIGAND FREE ENERGY PREDICTED BY IDOCK:   -7.20 KCAL/MOL
REMARK 924 INTRA-LIGAND FREE ENERGY PREDICTED BY IDOCK:   -0.34 KCAL/MOL
REMARK 927      BINDING AFFINITY PREDICTED BY RF-SCORE:    0.00 PKD
ROOT
HETATM    1  C   UNL     1     -13.735  12.789  72.177  1.00  0.00    -0.454 C  
HETATM    2  C   UNL     1     -12.547  12.850  71.235  1.00  0.00    -0.352 C  
ENDROOT
BRANCH   2   3
HETATM    3  C   UNL     1     -12.694  13.867  70.099  1.00  0.00    -0.123 C  
BRANCH   3   4
HETATM    4  N   UNL     1     -12.000  15.206  70.293  1.00  0.00    -0.295 N  
BRANCH   4   5
HETATM    5  C   UNL     1     -11.415  15.330  71.679  1.00  0.00    -0.405 C  
BRANCH   5   6
HETATM    6  C   UNL     1     -12.214  16.190  72.663  1.00  0.00    -0.625 C  
HETATM    7  C   UNL     1     -12.410  15.557  74.031  1.00  0.00    -0.791 C  
ENDBRANCH   5   6
ENDBRANCH   4   5
BRANCH   4   8
HETATM    8  S   UNL     1     -10.830  15.464  69.009  1.00  0.00    -0.261 S  
HETATM    9  O   UNL     1     -10.987  16.782  68.439  1.00  0.00    -0.355 OA 
HETATM   10  O   UNL     1      -9.541  15.017  69.495  1.00  0.00    -0.175 OA 
BRANCH   8  11
HETATM   11  C   UNL     1     -11.343  14.354  67.704  1.00  0.00    -0.329 A  
HETATM   12  C   UNL     1     -12.228  14.824  66.723  1.00  0.00     0.000 A  
HETATM   13  C   UNL     1     -12.467  14.063  65.573  1.00  0.00    -0.533 A  
HETATM   14  C   UNL     1     -11.820  12.832  65.405  1.00  0.00    -0.456 A  
HETATM   15  C   UNL     1     -11.984  12.009  64.177  1.00  0.00    -0.369 C  
HETATM   16  C   UNL     1     -10.921  12.378  66.382  1.00  0.00    -0.315 A  
HETATM   17  O   UNL     1     -13.223  12.063  63.649  1.00  0.00    -0.737 OA 
HETATM   18  C   UNL     1     -10.682  13.136  67.532  1.00  0.00    -0.248 A  
HETATM   19  O   UNL     1     -11.095  11.312  63.719  1.00  0.00    -0.380 OA 
ENDBRANCH   8  11
ENDBRANCH   4   8
ENDBRANCH   3   4
ENDBRANCH   2   3
TORSDOF 6
ENDMDL
MODEL       21
REMARK 921   NORMALIZED FREE ENERGY PREDICTED BY IDOCK:   -4.98 KCAL/MOL
REMARK 922        TOTAL FREE ENERGY PREDICTED BY IDOCK:   -7.51 KCAL/MOL
REMARK 923 INTER-LIGAND FREE ENERGY PREDICTED BY IDOCK:   -6.49 KCAL/MOL
REMARK 924 INTRA-LIGAND FREE ENERGY PREDICTED BY IDOCK:   -1.02 KCAL/MOL
REMARK 927      BINDING AFFINITY PREDICTED BY RF-SCORE:    0.00 PKD
ROOT
HETATM    1  C   UNL     1      -7.751  14.739  68.687  1.00  0.00    -0.130 C  
HETATM    2  C   UNL     1      -7.180  15.162  67.346  1.00  0.00    -0.231 C  
ENDROOT
BRANCH   2   3
HETATM    3  C   UNL     1      -7.322  16.656  67.042  1.00  0.00    -0.206 C  
BRANCH   3   4
HETATM    4  N   UNL     1      -8.203  17.460  67.986  1.00  0.00    -0.223 N  
BRANCH   4   5
HETATM    5  C   UNL     1      -7.415  18.532  68.699  1.00  0.00    -0.301 C  
BRANCH   5   6
HETATM    6  C   UNL     1      -5.917  18.256  68.864  1.00  0.00    -0.212 C  
HETATM    7  C   UNL     1      -5.465  18.099  70.307  1.00  0.00    -0.250 C  
ENDBRANCH   5   6
ENDBRANCH   4   5
BRANCH   4   8
HETATM    8  S   UNL     1      -9.603  18.072  67.120  1.00  0.00    -0.290 S  
HETATM    9  O   UNL     1     -10.441  18.851  68.001  1.00  0.00    -0.385 OA 
HETATM   10  O   UNL     1      -9.135  18.623  65.865  1.00  0.00    -0.467 OA 
BRANCH   8  11
HETATM   11  C   UNL     1     -10.577  16.618  66.756  1.00  0.00    -0.214 A  
HETATM   12  C   UNL     1     -10.655  16.168  65.430  1.00  0.00    -0.399 A  
HETATM   13  C   UNL     1     -11.213  14.917  65.147  1.00  0.00    -0.389 A  
HETATM   14  C   UNL     1     -11.695  14.115  66.190  1.00  0.00    -0.402 A  
HETATM   15  C   UNL     1     -12.240  12.751  65.959  1.00  0.00    -0.314 C  
HETATM   16  C   UNL     1     -11.596  14.564  67.516  1.00  0.00    -0.403 A  
HETATM   17  O   UNL     1     -12.923  12.628  64.803  1.00  0.00    -0.816 OA 
HETATM   18  C   UNL     1     -11.039  15.814  67.801  1.00  0.00    -0.313 A  
HETATM   19  O   UNL     1     -12.122  11.842  66.762  1.00  0.00    -0.547 OA 
ENDBRANCH   8  11
ENDBRANCH   4   8
ENDBRANCH   3   4
ENDBRANCH   2   3
TORSDOF 6
ENDMDL
MODEL       22
REMARK 921   NORMALIZED FREE ENERGY PREDICTED BY IDOCK:   -4.90 KCAL/MOL
REMARK 922        TOTAL FREE ENERGY PREDICTED BY IDOCK:   -7.40 KCAL/MOL
REMARK 923 INTER-LIGAND FREE ENERGY PREDICTED BY IDOCK:   -6.64 KCAL/MOL
REMARK 924 INTRA-LIGAND FREE ENERGY PREDICTED BY IDOCK:   -0.76 KCAL/MOL
REMARK 927      BINDING AFFINITY PREDICTED BY RF-SCORE:    0.00 PKD
ROOT
HETATM    1  C   UNL     1     -12.520  15.872  73.209  1.00  0.00    -0.636 C  
HETATM    2  C   UNL     1     -11.841  16.149  71.881  1.00  0.00    -0.605 C  
ENDROOT
BRANCH   2   3
HETATM    3  C   UNL     1     -12.640  15.695  70.656  1.00  0.00    -0.414 C  
BRANCH   3   4
HETATM    4  N   UNL     1     -11.851  15.485  69.372  1.00  0.00    -0.364 N  
BRANCH   4   5
HETATM    5  C   UNL     1     -10.793  16.546  69.193  1.00  0.00    -0.334 C  
BRANCH   5   6
HETATM    6  C   UNL     1     -10.886  17.365  67.901  1.00  0.00    -0.270 C  
HETATM    7  C   UNL     1      -9.941  16.908  66.801  1.00  0.00    -0.291 C  
ENDBRANCH   5   6
ENDBRANCH   4   5
BRANCH   4   8
HETATM    8  S   UNL     1     -11.223  13.846  69.320  1.00  0.00    -0.228 S  
HETATM    9  O   UNL     1      -9.779  13.858  69.322  1.00  0.00     0.127 OA 
HETATM   10  O   UNL     1     -11.958  13.064  70.293  1.00  0.00    -0.337 OA 
BRANCH   8  11
HETATM   11  C   UNL     1     -11.658  13.249  67.691  1.00  0.00    -0.346 A  
HETATM   12  C   UNL     1     -12.387  14.086  66.835  1.00  0.00    -0.321 A  
HETATM   13  C   UNL     1     -12.544  13.744  65.488  1.00  0.00    -0.551 A  
HETATM   14  C   UNL     1     -11.971  12.563  64.997  1.00  0.00    -0.478 A  
HETATM   15  C   UNL     1     -12.049  12.178  63.562  1.00  0.00    -0.550 C  
HETATM   16  C   UNL     1     -11.226  11.741  65.855  1.00  0.00    -0.345 A  
HETATM   17  O   UNL     1     -13.210  12.520  62.971  1.00  0.00    -0.214 OA 
HETATM   18  C   UNL     1     -11.069  12.081  67.203  1.00  0.00    -0.344 A  
HETATM   19  O   UNL     1     -11.164  11.567  62.988  1.00  0.00    -0.141 OA 
ENDBRANCH   8  11
ENDBRANCH   4   8
ENDBRANCH   3   4
ENDBRANCH   2   3
TORSDOF 6
ENDMDL
MODEL       23
REMARK 921   NORMALIZED FREE ENERGY PREDICTED BY IDOCK:   -4.87 KCAL/MOL
REMARK 922        TOTAL FREE ENERGY PREDICTED BY IDOCK:   -7.36 KCAL/MOL
REMARK 923 INTER-LIGAND FREE ENERGY PREDICTED BY IDOCK:   -6.22 KCAL/MOL
REMARK 924 INTRA-LIGAND FREE ENERGY PREDICTED BY IDOCK:   -1.13 KCAL/MOL
REMARK 927      BINDING AFFINITY PREDICTED BY RF-SCORE:    0.00 PKD
ROOT
HETATM    1  C   UNL     1     -10.440  10.361  67.356  1.00  0.00    -0.299 C  
HETATM    2  C   UNL     1      -9.887  10.659  65.974  1.00  0.00    -0.280 C  
ENDROOT
BRANCH   2   3
HETATM    3  C   UNL     1      -9.754  12.151  65.655  1.00  0.00    -0.207 C  
BRANCH   3   4
HETATM    4  N   UNL     1      -9.871  13.109  66.829  1.00  0.00    -0.245 N  
BRANCH   4   5
HETATM    5  C   UNL     1      -8.617  13.933  66.998  1.00  0.00    -0.172 C  
BRANCH   5   6
HETATM    6  C   UNL     1      -8.006  13.931  68.403  1.00  0.00    -0.144 C  
HETATM    7  C   UNL     1      -8.297  15.184  69.214  1.00  0.00    -0.211 C  
ENDBRANCH   5   6
ENDBRANCH   4   5
BRANCH   4   8
HETATM    8  S   UNL     1     -11.331  14.072  66.672  1.00  0.00    -0.349 S  
HETATM    9  O   UNL     1     -11.014  15.396  66.190  1.00  0.00    -0.323 OA 
HETATM   10  O   UNL     1     -12.322  13.257  65.999  1.00  0.00    -0.420 OA 
BRANCH   8  11
HETATM   11  C   UNL     1     -11.881  14.334  68.353  1.00  0.00    -0.338 A  
HETATM   12  C   UNL     1     -12.043  13.224  69.194  1.00  0.00    -0.283 A  
HETATM   13  C   UNL     1     -12.247  13.409  70.566  1.00  0.00    -0.425 A  
HETATM   14  C   UNL     1     -12.290  14.706  71.096  1.00  0.00    -0.403 A  
HETATM   15  C   UNL     1     -12.440  14.964  72.553  1.00  0.00    -0.346 C  
HETATM   16  C   UNL     1     -12.108  15.811  70.251  1.00  0.00    -0.371 A  
HETATM   17  O   UNL     1     -13.240  14.080  73.182  1.00  0.00    -0.589 OA 
HETATM   18  C   UNL     1     -11.904  15.628  68.880  1.00  0.00    -0.368 A  
HETATM   19  O   UNL     1     -11.928  15.916  73.117  1.00  0.00    -0.449 OA 
ENDBRANCH   8  11
ENDBRANCH   4   8
ENDBRANCH   3   4
ENDBRANCH   2   3
TORSDOF 6
ENDMDL
MODEL       24
REMARK 921   NORMALIZED FREE ENERGY PREDICTED BY IDOCK:   -4.86 KCAL/MOL
REMARK 922        TOTAL FREE ENERGY PREDICTED BY IDOCK:   -7.35 KCAL/MOL
REMARK 923 INTER-LIGAND FREE ENERGY PREDICTED BY IDOCK:   -7.17 KCAL/MOL
REMARK 924 INTRA-LIGAND FREE ENERGY PREDICTED BY IDOCK:   -0.17 KCAL/MOL
REMARK 927      BINDING AFFINITY PREDICTED BY RF-SCORE:    0.00 PKD
ROOT
HETATM    1  C   UNL     1      -9.936   9.935  65.449  1.00  0.00    -0.349 C  
HETATM    2  C   UNL     1      -9.398  11.291  65.864  1.00  0.00    -0.240 C  
ENDROOT
BRANCH   2   3
HETATM    3  C   UNL     1     -10.373  12.132  66.694  1.00  0.00    -0.208 C  
BRANCH   3   4
HETATM    4  N   UNL     1     -10.718  13.508  66.147  1.00  0.00    -0.286 N  
BRANCH   4   5
HETATM    5  C   UNL     1     -12.177  13.605  65.771  1.00  0.00    -0.464 C  
BRANCH   5   6
HETATM    6  C   UNL     1     -12.710  12.475  64.884  1.00  0.00    -0.371 C  
HETATM    7  C   UNL     1     -12.145  12.468  63.472  1.00  0.00    -0.653 C  
ENDBRANCH   5   6
ENDBRANCH   4   5
BRANCH   4   8
HETATM    8  S   UNL     1     -10.198  14.747  67.277  1.00  0.00    -0.241 S  
HETATM    9  O   UNL     1      -8.897  14.426  67.817  1.00  0.00    -0.171 OA 
HETATM   10  O   UNL     1     -10.447  16.034  66.660  1.00  0.00    -0.300 OA 
BRANCH   8  11
HETATM   11  C   UNL     1     -11.307  14.579  68.670  1.00  0.00    -0.276 A  
HETATM   12  C   UNL     1     -11.467  13.318  69.261  1.00  0.00    -0.345 A  
HETATM   13  C   UNL     1     -12.142  13.197  70.481  1.00  0.00    -0.385 A  
HETATM   14  C   UNL     1     -12.657  14.339  71.109  1.00  0.00    -0.432 A  
HETATM   15  C   UNL     1     -13.327  14.283  72.436  1.00  0.00    -0.474 C  
HETATM   16  C   UNL     1     -12.476  15.600  70.520  1.00  0.00    -0.440 A  
HETATM   17  O   UNL     1     -14.055  13.165  72.629  1.00  0.00    -0.701 OA 
HETATM   18  C   UNL     1     -11.803  15.722  69.301  1.00  0.00    -0.358 A  
HETATM   19  O   UNL     1     -13.263  15.185  73.253  1.00  0.00    -0.478 OA 
ENDBRANCH   8  11
ENDBRANCH   4   8
ENDBRANCH   3   4
ENDBRANCH   2   3
TORSDOF 6
ENDMDL
MODEL       25
REMARK 921   NORMALIZED FREE ENERGY PREDICTED BY IDOCK:   -4.85 KCAL/MOL
REMARK 922        TOTAL FREE ENERGY PREDICTED BY IDOCK:   -7.33 KCAL/MOL
REMARK 923 INTER-LIGAND FREE ENERGY PREDICTED BY IDOCK:   -6.77 KCAL/MOL
REMARK 924 INTRA-LIGAND FREE ENERGY PREDICTED BY IDOCK:   -0.56 KCAL/MOL
REMARK 927      BINDING AFFINITY PREDICTED BY RF-SCORE:    0.00 PKD
ROOT
HETATM    1  C   UNL     1     -12.004  12.219  63.463  1.00  0.00    -0.625 C  
HETATM    2  C   UNL     1     -10.628  12.672  63.914  1.00  0.00    -0.460 C  
ENDROOT
BRANCH   2   3
HETATM    3  C   UNL     1     -10.629  13.948  64.761  1.00  0.00    -0.426 C  
BRANCH   3   4
HETATM    4  N   UNL     1     -10.275  13.787  66.231  1.00  0.00    -0.290 N  
BRANCH   4   5
HETATM    5  C   UNL     1      -9.176  14.736  66.643  1.00  0.00    -0.275 C  
BRANCH   5   6
HETATM    6  C   UNL     1      -9.199  16.112  65.969  1.00  0.00    -0.363 C  
HETATM    7  C   UNL     1      -8.077  17.040  66.403  1.00  0.00    -0.335 C  
ENDBRANCH   5   6
ENDBRANCH   4   5
BRANCH   4   8
HETATM    8  S   UNL     1     -11.725  13.920  67.213  1.00  0.00    -0.407 S  
HETATM    9  O   UNL     1     -11.585  14.981  68.182  1.00  0.00    -0.326 OA 
HETATM   10  O   UNL     1     -12.864  13.881  66.318  1.00  0.00    -0.320 OA 
BRANCH   8  11
HETATM   11  C   UNL     1     -11.743  12.425  68.194  1.00  0.00    -0.353 A  
HETATM   12  C   UNL     1     -11.230  11.244  67.639  1.00  0.00    -0.357 A  
HETATM   13  C   UNL     1     -11.019  10.124  68.451  1.00  0.00    -0.293 A  
HETATM   14  C   UNL     1     -11.323  10.185  69.818  1.00  0.00    -0.312 A  
HETATM   15  C   UNL     1     -11.061   9.049  70.742  1.00  0.00    -0.272 C  
HETATM   16  C   UNL     1     -11.817  11.377  70.369  1.00  0.00    -0.428 A  
HETATM   17  O   UNL     1     -11.257   7.839  70.183  1.00  0.00    -0.243 OA 
HETATM   18  C   UNL     1     -12.029  12.497  69.559  1.00  0.00    -0.329 A  
HETATM   19  O   UNL     1     -10.747   9.200  71.910  1.00  0.00    -0.357 OA 
ENDBRANCH   8  11
ENDBRANCH   4   8
ENDBRANCH   3   4
ENDBRANCH   2   3
TORSDOF 6
ENDMDL
MODEL       26
REMARK 921   NORMALIZED FREE ENERGY PREDICTED BY IDOCK:   -4.84 KCAL/MOL
REMARK 922        TOTAL FREE ENERGY PREDICTED BY IDOCK:   -7.33 KCAL/MOL
REMARK 923 INTER-LIGAND FREE ENERGY PREDICTED BY IDOCK:   -6.84 KCAL/MOL
REMARK 924 INTRA-LIGAND FREE ENERGY PREDICTED BY IDOCK:   -0.48 KCAL/MOL
REMARK 927      BINDING AFFINITY PREDICTED BY RF-SCORE:    0.00 PKD
ROOT
HETATM    1  C   UNL     1      -9.563  10.054  68.545  1.00  0.00    -0.157 C  
HETATM    2  C   UNL     1      -9.178  10.431  67.126  1.00  0.00    -0.159 C  
ENDROOT
BRANCH   2   3
HETATM    3  C   UNL     1     -10.334  10.378  66.122  1.00  0.00    -0.200 C  
BRANCH   3   4
HETATM    4  N   UNL     1     -10.571  11.632  65.295  1.00  0.00    -0.273 N  
BRANCH   4   5
HETATM    5  C   UNL     1     -10.775  11.301  63.836  1.00  0.00    -0.384 C  
BRANCH   5   6
HETATM    6  C   UNL     1      -9.503  11.245  62.984  1.00  0.00    -0.385 C  
HETATM    7  C   UNL     1      -9.234   9.889  62.351  1.00  0.00    -0.308 C  
ENDBRANCH   5   6
ENDBRANCH   4   5
BRANCH   4   8
HETATM    8  S   UNL     1     -11.881  12.570  65.995  1.00  0.00    -0.386 S  
HETATM    9  O   UNL     1     -12.940  12.756  65.032  1.00  0.00    -0.811 OA 
HETATM   10  O   UNL     1     -12.160  12.020  67.306  1.00  0.00    -0.572 OA 
BRANCH   8  11
HETATM   11  C   UNL     1     -11.193  14.205  66.218  1.00  0.00    -0.329 A  
HETATM   12  C   UNL     1     -10.902  14.978  65.085  1.00  0.00    -0.422 A  
HETATM   13  C   UNL     1     -10.582  16.333  65.226  1.00  0.00    -0.357 A  
HETATM   14  C   UNL     1     -10.553  16.915  66.500  1.00  0.00    -0.185 A  
HETATM   15  C   UNL     1     -10.283  18.363  66.708  1.00  0.00    -0.388 C  
HETATM   16  C   UNL     1     -10.864  16.139  67.627  1.00  0.00    -0.297 A  
HETATM   17  O   UNL     1      -9.388  18.878  65.842  1.00  0.00    -0.454 OA 
HETATM   18  C   UNL     1     -11.183  14.785  67.489  1.00  0.00    -0.339 A  
HETATM   19  O   UNL     1     -10.786  19.011  67.609  1.00  0.00    -0.438 OA 
ENDBRANCH   8  11
ENDBRANCH   4   8
ENDBRANCH   3   4
ENDBRANCH   2   3
TORSDOF 6
ENDMDL
MODEL       27
REMARK 921   NORMALIZED FREE ENERGY PREDICTED BY IDOCK:   -4.80 KCAL/MOL
REMARK 922        TOTAL FREE ENERGY PREDICTED BY IDOCK:   -7.27 KCAL/MOL
REMARK 923 INTER-LIGAND FREE ENERGY PREDICTED BY IDOCK:   -6.38 KCAL/MOL
REMARK 924 INTRA-LIGAND FREE ENERGY PREDICTED BY IDOCK:   -0.90 KCAL/MOL
REMARK 927      BINDING AFFINITY PREDICTED BY RF-SCORE:    0.00 PKD
ROOT
HETATM    1  C   UNL     1      -8.408   9.224  70.301  1.00  0.00    -0.204 C  
HETATM    2  C   UNL     1      -8.732   8.379  71.519  1.00  0.00    -0.227 C  
ENDROOT
BRANCH   2   3
HETATM    3  C   UNL     1      -9.660   7.193  71.237  1.00  0.00    -0.163 C  
BRANCH   3   4
HETATM    4  N   UNL     1     -10.920   7.493  70.439  1.00  0.00    -0.249 N  
BRANCH   4   5
HETATM    5  C   UNL     1     -11.301   6.333  69.551  1.00  0.00    -0.404 C  
BRANCH   5   6
HETATM    6  C   UNL     1     -10.666   6.327  68.157  1.00  0.00    -0.364 C  
HETATM    7  C   UNL     1     -10.545   7.701  67.518  1.00  0.00    -0.323 C  
ENDBRANCH   5   6
ENDBRANCH   4   5
BRANCH   4   8
HETATM    8  S   UNL     1     -12.204   8.004  71.521  1.00  0.00    -0.305 S  
HETATM    9  O   UNL     1     -13.455   7.387  71.149  1.00  0.00    -0.305 OA 
HETATM   10  O   UNL     1     -11.702   7.900  72.876  1.00  0.00    -0.350 OA 
BRANCH   8  11
HETATM   11  C   UNL     1     -12.440   9.738  71.152  1.00  0.00    -0.350 A  
HETATM   12  C   UNL     1     -13.118  10.542  72.079  1.00  0.00    -0.511 A  
HETATM   13  C   UNL     1     -13.118  11.934  71.929  1.00  0.00    -0.474 A  
HETATM   14  C   UNL     1     -12.440  12.520  70.853  1.00  0.00    -0.361 A  
HETATM   15  C   UNL     1     -12.351  13.995  70.677  1.00  0.00    -0.375 C  
HETATM   16  C   UNL     1     -11.747  11.710  69.941  1.00  0.00    -0.414 A  
HETATM   17  O   UNL     1     -13.461  14.655  71.060  1.00  0.00    -0.380 OA 
HETATM   18  C   UNL     1     -11.747  10.319  70.088  1.00  0.00    -0.364 A  
HETATM   19  O   UNL     1     -11.383  14.549  70.186  1.00  0.00    -0.252 OA 
ENDBRANCH   8  11
ENDBRANCH   4   8
ENDBRANCH   3   4
ENDBRANCH   2   3
TORSDOF 6
ENDMDL
MODEL       28
REMARK 921   NORMALIZED FREE ENERGY PREDICTED BY IDOCK:   -4.79 KCAL/MOL
REMARK 922        TOTAL FREE ENERGY PREDICTED BY IDOCK:   -7.26 KCAL/MOL
REMARK 923 INTER-LIGAND FREE ENERGY PREDICTED BY IDOCK:   -6.48 KCAL/MOL
REMARK 924 INTRA-LIGAND FREE ENERGY PREDICTED BY IDOCK:   -0.78 KCAL/MOL
REMARK 927      BINDING AFFINITY PREDICTED BY RF-SCORE:    0.00 PKD
ROOT
HETATM    1  C   UNL     1      -8.222   7.991  71.178  1.00  0.00    -0.111 C  
HETATM    2  C   UNL     1      -9.277   9.044  71.461  1.00  0.00    -0.260 C  
ENDROOT
BRANCH   2   3
HETATM    3  C   UNL     1     -10.571   8.494  72.069  1.00  0.00    -0.338 C  
BRANCH   3   4
HETATM    4  N   UNL     1     -11.747   8.325  71.121  1.00  0.00    -0.279 N  
BRANCH   4   5
HETATM    5  C   UNL     1     -12.010   6.870  70.819  1.00  0.00    -0.373 C  
BRANCH   5   6
HETATM    6  C   UNL     1     -11.398   6.340  69.519  1.00  0.00    -0.475 C  
HETATM    7  C   UNL     1     -10.368   5.239  69.714  1.00  0.00    -0.369 C  
ENDBRANCH   5   6
ENDBRANCH   4   5
BRANCH   4   8
HETATM    8  S   UNL     1     -13.147   9.179  71.748  1.00  0.00    -0.421 S  
HETATM    9  O   UNL     1     -14.354   8.715  71.104  1.00  0.00    -0.277 OA 
HETATM   10  O   UNL     1     -13.039   9.196  73.192  1.00  0.00    -0.128 OA 
BRANCH   8  11
HETATM   11  C   UNL     1     -12.951  10.857  71.161  1.00  0.00    -0.352 A  
HETATM   12  C   UNL     1     -13.396  11.914  71.968  1.00  0.00    -0.425 A  
HETATM   13  C   UNL     1     -13.053  13.232  71.646  1.00  0.00    -0.453 A  
HETATM   14  C   UNL     1     -12.266  13.493  70.516  1.00  0.00    -0.433 A  
HETATM   15  C   UNL     1     -11.817  14.865  70.159  1.00  0.00    -0.308 C  
HETATM   16  C   UNL     1     -11.808  12.428  69.725  1.00  0.00    -0.387 A  
HETATM   17  O   UNL     1     -12.723  15.822  70.437  1.00  0.00    -0.393 OA 
HETATM   18  C   UNL     1     -12.151  11.110  70.044  1.00  0.00    -0.437 A  
HETATM   19  O   UNL     1     -10.748  15.097  69.620  1.00  0.00    -0.256 OA 
ENDBRANCH   8  11
ENDBRANCH   4   8
ENDBRANCH   3   4
ENDBRANCH   2   3
TORSDOF 6
ENDMDL
MODEL       29
REMARK 921   NORMALIZED FREE ENERGY PREDICTED BY IDOCK:   -4.79 KCAL/MOL
REMARK 922        TOTAL FREE ENERGY PREDICTED BY IDOCK:   -7.25 KCAL/MOL
REMARK 923 INTER-LIGAND FREE ENERGY PREDICTED BY IDOCK:   -6.44 KCAL/MOL
REMARK 924 INTRA-LIGAND FREE ENERGY PREDICTED BY IDOCK:   -0.81 KCAL/MOL
REMARK 927      BINDING AFFINITY PREDICTED BY RF-SCORE:    0.00 PKD
ROOT
HETATM    1  C   UNL     1     -12.623  12.219  63.490  1.00  0.00    -0.589 C  
HETATM    2  C   UNL     1     -12.063  13.366  64.311  1.00  0.00    -0.479 C  
ENDROOT
BRANCH   2   3
HETATM    3  C   UNL     1     -12.267  13.220  65.822  1.00  0.00    -0.456 C  
BRANCH   3   4
HETATM    4  N   UNL     1     -11.209  12.430  66.576  1.00  0.00    -0.301 N  
BRANCH   4   5
HETATM    5  C   UNL     1      -9.868  12.503  65.887  1.00  0.00    -0.247 C  
BRANCH   5   6
HETATM    6  C   UNL     1      -9.128  11.170  65.730  1.00  0.00    -0.222 C  
HETATM    7  C   UNL     1      -9.925  10.093  65.013  1.00  0.00    -0.375 C  
ENDBRANCH   5   6
ENDBRANCH   4   5
BRANCH   4   8
HETATM    8  S   UNL     1     -11.166  12.941  68.256  1.00  0.00    -0.292 S  
HETATM    9  O   UNL     1      -9.825  13.315  68.637  1.00  0.00    -0.191 OA 
HETATM   10  O   UNL     1     -12.276  13.848  68.465  1.00  0.00    -0.342 OA 
BRANCH   8  11
HETATM   11  C   UNL     1     -11.490  11.449  69.187  1.00  0.00    -0.299 A  
HETATM   12  C   UNL     1     -10.769  10.287  68.879  1.00  0.00    -0.256 A  
HETATM   13  C   UNL     1     -10.832   9.178  69.731  1.00  0.00    -0.224 A  
HETATM   14  C   UNL     1     -11.618   9.232  70.890  1.00  0.00    -0.364 A  
HETATM   15  C   UNL     1     -11.675   8.110  71.865  1.00  0.00    -0.310 C  
HETATM   16  C   UNL     1     -12.321  10.405  71.201  1.00  0.00    -0.505 A  
HETATM   17  O   UNL     1     -11.609   6.891  71.294  1.00  0.00    -0.276 OA 
HETATM   18  C   UNL     1     -12.260  11.514  70.351  1.00  0.00    -0.442 A  
HETATM   19  O   UNL     1     -11.817   8.276  73.063  1.00  0.00    -0.269 OA 
ENDBRANCH   8  11
ENDBRANCH   4   8
ENDBRANCH   3   4
ENDBRANCH   2   3
TORSDOF 6
ENDMDL
MODEL       30
REMARK 921   NORMALIZED FREE ENERGY PREDICTED BY IDOCK:   -4.78 KCAL/MOL
REMARK 922        TOTAL FREE ENERGY PREDICTED BY IDOCK:   -7.24 KCAL/MOL
REMARK 923 INTER-LIGAND FREE ENERGY PREDICTED BY IDOCK:   -6.63 KCAL/MOL
REMARK 924 INTRA-LIGAND FREE ENERGY PREDICTED BY IDOCK:   -0.62 KCAL/MOL
REMARK 927      BINDING AFFINITY PREDICTED BY RF-SCORE:    0.00 PKD
ROOT
HETATM    1  C   UNL     1     -12.191  10.915  70.011  1.00  0.00    -0.422 C  
HETATM    2  C   UNL     1     -11.755  12.236  69.406  1.00  0.00    -0.392 C  
ENDROOT
BRANCH   2   3
HETATM    3  C   UNL     1     -11.777  12.269  67.875  1.00  0.00    -0.347 C  
BRANCH   3   4
HETATM    4  N   UNL     1     -10.610  12.967  67.194  1.00  0.00    -0.237 N  
BRANCH   4   5
HETATM    5  C   UNL     1      -9.606  11.973  66.661  1.00  0.00    -0.216 C  
BRANCH   5   6
HETATM    6  C   UNL     1     -10.184  10.639  66.180  1.00  0.00    -0.308 C  
HETATM    7  C   UNL     1      -9.980  10.367  64.698  1.00  0.00    -0.408 C  
ENDBRANCH   5   6
ENDBRANCH   4   5
BRANCH   4   8
HETATM    8  S   UNL     1     -11.209  14.085  65.980  1.00  0.00    -0.316 S  
HETATM    9  O   UNL     1     -10.531  13.876  64.722  1.00  0.00    -0.408 OA 
HETATM   10  O   UNL     1     -12.656  14.075  66.052  1.00  0.00    -0.481 OA 
BRANCH   8  11
HETATM   11  C   UNL     1     -10.640  15.689  66.527  1.00  0.00    -0.307 A  
HETATM   12  C   UNL     1     -10.485  16.712  65.580  1.00  0.00    -0.313 A  
HETATM   13  C   UNL     1     -10.265  18.028  66.002  1.00  0.00    -0.304 A  
HETATM   14  C   UNL     1     -10.201  18.321  67.371  1.00  0.00    -0.385 A  
HETATM   15  C   UNL     1     -10.033  19.708  67.881  1.00  0.00    -0.411 C  
HETATM   16  C   UNL     1     -10.377  17.295  68.312  1.00  0.00    -0.361 A  
HETATM   17  O   UNL     1      -9.240  20.477  67.110  1.00  0.00    -0.380 OA 
HETATM   18  C   UNL     1     -10.595  15.979  67.892  1.00  0.00    -0.301 A  
HETATM   19  O   UNL     1     -10.528  20.098  68.924  1.00  0.00    -0.329 OA 
ENDBRANCH   8  11
ENDBRANCH   4   8
ENDBRANCH   3   4
ENDBRANCH   2   3
TORSDOF 6
ENDMDL
MODEL       31
REMARK 921   NORMALIZED FREE ENERGY PREDICTED BY IDOCK:   -4.77 KCAL/MOL
REMARK 922        TOTAL FREE ENERGY PREDICTED BY IDOCK:   -7.23 KCAL/MOL
REMARK 923 INTER-LIGAND FREE ENERGY PREDICTED BY IDOCK:   -6.48 KCAL/MOL
REMARK 924 INTRA-LIGAND FREE ENERGY PREDICTED BY IDOCK:   -0.75 KCAL/MOL
REMARK 927      BINDING AFFINITY PREDICTED BY RF-SCORE:    0.00 PKD
ROOT
HETATM    1  C   UNL     1      -9.913  10.326  64.750  1.00  0.00    -0.392 C  
HETATM    2  C   UNL     1      -9.911  10.762  66.204  1.00  0.00    -0.283 C  
ENDROOT
BRANCH   2   3
HETATM    3  C   UNL     1     -11.176  11.506  66.642  1.00  0.00    -0.271 C  
BRANCH   3   4
HETATM    4  N   UNL     1     -11.162  13.018  66.483  1.00  0.00    -0.292 N  
BRANCH   4   5
HETATM    5  C   UNL     1     -12.367  13.505  65.715  1.00  0.00    -0.468 C  
BRANCH   5   6
HETATM    6  C   UNL     1     -12.081  14.072  64.320  1.00  0.00    -0.476 C  
HETATM    7  C   UNL     1     -12.037  13.026  63.217  1.00  0.00    -0.499 C  
ENDBRANCH   5   6
ENDBRANCH   4   5
BRANCH   4   8
HETATM    8  S   UNL     1     -10.972  13.782  68.053  1.00  0.00    -0.259 S  
HETATM    9  O   UNL     1     -12.259  14.003  68.668  1.00  0.00    -0.332 OA 
HETATM   10  O   UNL     1      -9.925  13.072  68.760  1.00  0.00    -0.144 OA 
BRANCH   8  11
HETATM   11  C   UNL     1     -10.371  15.425  67.683  1.00  0.00    -0.262 A  
HETATM   12  C   UNL     1      -9.516  15.604  66.586  1.00  0.00    -0.282 A  
HETATM   13  C   UNL     1      -9.215  16.894  66.137  1.00  0.00    -0.270 A  
HETATM   14  C   UNL     1      -9.769  18.006  66.785  1.00  0.00    -0.323 A  
HETATM   15  C   UNL     1      -9.538  19.398  66.315  1.00  0.00    -0.375 C  
HETATM   16  C   UNL     1     -10.639  17.818  67.870  1.00  0.00    -0.389 A  
HETATM   17  O   UNL     1      -8.303  19.604  65.815  1.00  0.00    -0.408 OA 
HETATM   18  C   UNL     1     -10.940  16.530  68.322  1.00  0.00    -0.346 A  
HETATM   19  O   UNL     1     -10.371  20.282  66.417  1.00  0.00    -0.409 OA 
ENDBRANCH   8  11
ENDBRANCH   4   8
ENDBRANCH   3   4
ENDBRANCH   2   3
TORSDOF 6
ENDMDL
MODEL       32
REMARK 921   NORMALIZED FREE ENERGY PREDICTED BY IDOCK:   -4.77 KCAL/MOL
REMARK 922        TOTAL FREE ENERGY PREDICTED BY IDOCK:   -7.23 KCAL/MOL
REMARK 923 INTER-LIGAND FREE ENERGY PREDICTED BY IDOCK:   -6.28 KCAL/MOL
REMARK 924 INTRA-LIGAND FREE ENERGY PREDICTED BY IDOCK:   -0.96 KCAL/MOL
REMARK 927      BINDING AFFINITY PREDICTED BY RF-SCORE:    0.00 PKD
ROOT
HETATM    1  C   UNL     1      -7.478  15.530  68.792  1.00  0.00    -0.141 C  
HETATM    2  C   UNL     1      -6.880  16.076  67.509  1.00  0.00    -0.205 C  
ENDROOT
BRANCH   2   3
HETATM    3  C   UNL     1      -7.571  17.334  66.974  1.00  0.00    -0.197 C  
BRANCH   3   4
HETATM    4  N   UNL     1      -8.639  17.950  67.864  1.00  0.00    -0.247 N  
BRANCH   4   5
HETATM    5  C   UNL     1      -8.239  19.327  68.336  1.00  0.00    -0.347 C  
BRANCH   5   6
HETATM    6  C   UNL     1      -7.951  20.350  67.233  1.00  0.00    -0.376 C  
HETATM    7  C   UNL     1      -6.581  21.002  67.325  1.00  0.00    -0.431 C  
ENDBRANCH   5   6
ENDBRANCH   4   5
BRANCH   4   8
HETATM    8  S   UNL     1     -10.193  17.910  67.047  1.00  0.00    -0.368 S  
HETATM    9  O   UNL     1     -11.110  18.844  67.657  1.00  0.00    -0.328 OA 
HETATM   10  O   UNL     1      -9.939  17.946  65.621  1.00  0.00    -0.539 OA 
BRANCH   8  11
HETATM   11  C   UNL     1     -10.869  16.303  67.446  1.00  0.00    -0.242 A  
HETATM   12  C   UNL     1     -10.599  15.224  66.594  1.00  0.00    -0.304 A  
HETATM   13  C   UNL     1     -10.917  13.921  66.993  1.00  0.00    -0.301 A  
HETATM   14  C   UNL     1     -11.505  13.698  68.246  1.00  0.00    -0.348 A  
HETATM   15  C   UNL     1     -11.806  12.332  68.751  1.00  0.00    -0.306 C  
HETATM   16  C   UNL     1     -11.753  14.782  69.101  1.00  0.00    -0.344 A  
HETATM   17  O   UNL     1     -12.201  11.473  67.791  1.00  0.00    -0.560 OA 
HETATM   18  C   UNL     1     -11.438  16.085  68.703  1.00  0.00    -0.377 A  
HETATM   19  O   UNL     1     -11.747  12.031  69.931  1.00  0.00    -0.314 OA 
ENDBRANCH   8  11
ENDBRANCH   4   8
ENDBRANCH   3   4
ENDBRANCH   2   3
TORSDOF 6
ENDMDL
MODEL       33
REMARK 921   NORMALIZED FREE ENERGY PREDICTED BY IDOCK:   -4.75 KCAL/MOL
REMARK 922        TOTAL FREE ENERGY PREDICTED BY IDOCK:   -7.20 KCAL/MOL
REMARK 923 INTER-LIGAND FREE ENERGY PREDICTED BY IDOCK:   -6.42 KCAL/MOL
REMARK 924 INTRA-LIGAND FREE ENERGY PREDICTED BY IDOCK:   -0.78 KCAL/MOL
REMARK 927      BINDING AFFINITY PREDICTED BY RF-SCORE:    0.00 PKD
ROOT
HETATM    1  C   UNL     1     -10.877   6.879  67.822  1.00  0.00    -0.312 C  
HETATM    2  C   UNL     1     -10.035   7.691  66.856  1.00  0.00    -0.325 C  
ENDROOT
BRANCH   2   3
HETATM    3  C   UNL     1     -10.275   9.202  66.924  1.00  0.00    -0.266 C  
BRANCH   3   4
HETATM    4  N   UNL     1      -9.037  10.085  66.937  1.00  0.00    -0.138 N  
BRANCH   4   5
HETATM    5  C   UNL     1      -8.681  10.561  65.549  1.00  0.00    -0.185 C  
BRANCH   5   6
HETATM    6  C   UNL     1      -9.690  10.211  64.449  1.00  0.00    -0.345 C  
HETATM    7  C   UNL     1      -9.904  11.313  63.424  1.00  0.00    -0.416 C  
ENDBRANCH   5   6
ENDBRANCH   4   5
BRANCH   4   8
HETATM    8  S   UNL     1      -9.245  11.388  68.096  1.00  0.00    -0.183 S  
HETATM    9  O   UNL     1     -10.212  11.020  69.103  1.00  0.00    -0.210 OA 
HETATM   10  O   UNL     1      -7.925  11.854  68.472  1.00  0.00    -0.144 OA 
BRANCH   8  11
HETATM   11  C   UNL     1     -10.046  12.691  67.169  1.00  0.00    -0.223 A  
HETATM   12  C   UNL     1      -9.258  13.698  66.595  1.00  0.00    -0.225 A  
HETATM   13  C   UNL     1      -9.823  14.594  65.681  1.00  0.00    -0.354 A  
HETATM   14  C   UNL     1     -11.179  14.482  65.342  1.00  0.00    -0.342 A  
HETATM   15  C   UNL     1     -11.821  15.364  64.331  1.00  0.00    -0.256 C  
HETATM   16  C   UNL     1     -11.956  13.460  65.907  1.00  0.00    -0.452 A  
HETATM   17  O   UNL     1     -11.351  16.627  64.335  1.00  0.00    -1.023 OA 
HETATM   18  C   UNL     1     -11.393  12.564  66.821  1.00  0.00    -0.390 A  
HETATM   19  O   UNL     1     -12.722  14.992  63.599  1.00  0.00    -0.627 OA 
ENDBRANCH   8  11
ENDBRANCH   4   8
ENDBRANCH   3   4
ENDBRANCH   2   3
TORSDOF 6
ENDMDL
MODEL       34
REMARK 921   NORMALIZED FREE ENERGY PREDICTED BY IDOCK:   -4.74 KCAL/MOL
REMARK 922        TOTAL FREE ENERGY PREDICTED BY IDOCK:   -7.19 KCAL/MOL
REMARK 923 INTER-LIGAND FREE ENERGY PREDICTED BY IDOCK:   -6.58 KCAL/MOL
REMARK 924 INTRA-LIGAND FREE ENERGY PREDICTED BY IDOCK:   -0.61 KCAL/MOL
REMARK 927      BINDING AFFINITY PREDICTED BY RF-SCORE:    0.00 PKD
ROOT
HETATM    1  C   UNL     1     -12.035  11.292  70.157  1.00  0.00    -0.452 C  
HETATM    2  C   UNL     1     -11.813  12.565  69.362  1.00  0.00    -0.368 C  
ENDROOT
BRANCH   2   3
HETATM    3  C   UNL     1     -11.780  12.365  67.844  1.00  0.00    -0.360 C  
BRANCH   3   4
HETATM    4  N   UNL     1     -10.610  12.992  67.102  1.00  0.00    -0.245 N  
BRANCH   4   5
HETATM    5  C   UNL     1      -9.646  11.944  66.602  1.00  0.00    -0.209 C  
BRANCH   5   6
HETATM    6  C   UNL     1     -10.283  10.654  66.074  1.00  0.00    -0.309 C  
HETATM    7  C   UNL     1      -9.777  10.219  64.709  1.00  0.00    -0.397 C  
ENDBRANCH   5   6
ENDBRANCH   4   5
BRANCH   4   8
HETATM    8  S   UNL     1     -11.205  14.061  65.842  1.00  0.00    -0.314 S  
HETATM    9  O   UNL     1     -10.339  14.014  64.688  1.00  0.00    -0.440 OA 
HETATM   10  O   UNL     1     -12.629  13.829  65.708  1.00  0.00    -0.484 OA 
BRANCH   8  11
HETATM   11  C   UNL     1     -10.974  15.707  66.502  1.00  0.00    -0.206 A  
HETATM   12  C   UNL     1     -10.927  15.879  67.893  1.00  0.00    -0.327 A  
HETATM   13  C   UNL     1     -10.522  17.105  68.432  1.00  0.00    -0.376 A  
HETATM   14  C   UNL     1     -10.165  18.159  67.581  1.00  0.00    -0.385 A  
HETATM   15  C   UNL     1      -9.667  19.463  68.095  1.00  0.00    -0.383 C  
HETATM   16  C   UNL     1     -10.197  17.972  66.191  1.00  0.00    -0.364 A  
HETATM   17  O   UNL     1     -10.250  19.851  69.245  1.00  0.00    -0.374 OA 
HETATM   18  C   UNL     1     -10.602  16.748  65.649  1.00  0.00    -0.258 A  
HETATM   19  O   UNL     1      -8.843  20.139  67.504  1.00  0.00    -0.334 OA 
ENDBRANCH   8  11
ENDBRANCH   4   8
ENDBRANCH   3   4
ENDBRANCH   2   3
TORSDOF 6
ENDMDL
MODEL       35
REMARK 921   NORMALIZED FREE ENERGY PREDICTED BY IDOCK:   -4.74 KCAL/MOL
REMARK 922        TOTAL FREE ENERGY PREDICTED BY IDOCK:   -7.18 KCAL/MOL
REMARK 923 INTER-LIGAND FREE ENERGY PREDICTED BY IDOCK:   -6.37 KCAL/MOL
REMARK 924 INTRA-LIGAND FREE ENERGY PREDICTED BY IDOCK:   -0.81 KCAL/MOL
REMARK 927      BINDING AFFINITY PREDICTED BY RF-SCORE:    0.00 PKD
ROOT
HETATM    1  C   UNL     1      -9.767  10.151  65.209  1.00  0.00    -0.365 C  
HETATM    2  C   UNL     1     -10.220   9.940  66.641  1.00  0.00    -0.293 C  
ENDROOT
BRANCH   2   3
HETATM    3  C   UNL     1     -11.208  10.993  67.154  1.00  0.00    -0.217 C  
BRANCH   3   4
HETATM    4  N   UNL     1     -10.971  12.424  66.697  1.00  0.00    -0.257 N  
BRANCH   4   5
HETATM    5  C   UNL     1     -12.210  13.018  66.073  1.00  0.00    -0.399 C  
BRANCH   5   6
HETATM    6  C   UNL     1     -12.118  13.326  64.576  1.00  0.00    -0.461 C  
HETATM    7  C   UNL     1     -12.501  12.165  63.673  1.00  0.00    -0.658 C  
ENDBRANCH   5   6
ENDBRANCH   4   5
BRANCH   4   8
HETATM    8  S   UNL     1     -10.324  13.374  68.024  1.00  0.00    -0.247 S  
HETATM    9  O   UNL     1     -11.294  13.482  69.089  1.00  0.00    -0.260 OA 
HETATM   10  O   UNL     1      -8.982  12.898  68.291  1.00  0.00    -0.194 OA 
BRANCH   8  11
HETATM   11  C   UNL     1     -10.201  15.034  67.370  1.00  0.00    -0.234 A  
HETATM   12  C   UNL     1     -10.961  16.054  67.961  1.00  0.00    -0.341 A  
HETATM   13  C   UNL     1     -10.718  17.391  67.626  1.00  0.00    -0.310 A  
HETATM   14  C   UNL     1      -9.715  17.707  66.700  1.00  0.00    -0.304 A  
HETATM   15  C   UNL     1      -9.367  19.111  66.353  1.00  0.00    -0.348 C  
HETATM   16  C   UNL     1      -8.946  16.682  66.128  1.00  0.00    -0.321 A  
HETATM   17  O   UNL     1     -10.427  19.943  66.330  1.00  0.00    -0.462 OA 
HETATM   18  C   UNL     1      -9.188  15.346  66.460  1.00  0.00    -0.323 A  
HETATM   19  O   UNL     1      -8.237  19.466  66.068  1.00  0.00    -0.373 OA 
ENDBRANCH   8  11
ENDBRANCH   4   8
ENDBRANCH   3   4
ENDBRANCH   2   3
TORSDOF 6
ENDMDL
MODEL       36
REMARK 921   NORMALIZED FREE ENERGY PREDICTED BY IDOCK:   -4.72 KCAL/MOL
REMARK 922        TOTAL FREE ENERGY PREDICTED BY IDOCK:   -7.16 KCAL/MOL
REMARK 923 INTER-LIGAND FREE ENERGY PREDICTED BY IDOCK:   -6.26 KCAL/MOL
REMARK 924 INTRA-LIGAND FREE ENERGY PREDICTED BY IDOCK:   -0.91 KCAL/MOL
REMARK 927      BINDING AFFINITY PREDICTED BY RF-SCORE:    0.00 PKD
ROOT
HETATM    1  C   UNL     1      -6.466  21.321  66.986  1.00  0.00    -0.395 C  
HETATM    2  C   UNL     1      -7.134  20.079  67.547  1.00  0.00    -0.300 C  
ENDROOT
BRANCH   2   3
HETATM    3  C   UNL     1      -7.691  19.127  66.484  1.00  0.00    -0.264 C  
BRANCH   3   4
HETATM    4  N   UNL     1      -8.428  17.899  66.993  1.00  0.00    -0.230 N  
BRANCH   4   5
HETATM    5  C   UNL     1      -7.947  17.494  68.366  1.00  0.00    -0.261 C  
BRANCH   5   6
HETATM    6  C   UNL     1      -7.836  15.986  68.613  1.00  0.00    -0.179 C  
HETATM    7  C   UNL     1      -7.271  15.200  67.441  1.00  0.00    -0.231 C  
ENDBRANCH   5   6
ENDBRANCH   4   5
BRANCH   4   8
HETATM    8  S   UNL     1     -10.162  18.163  66.903  1.00  0.00    -0.386 S  
HETATM    9  O   UNL     1     -10.688  18.516  68.201  1.00  0.00    -0.315 OA 
HETATM   10  O   UNL     1     -10.418  19.000  65.749  1.00  0.00    -0.530 OA 
BRANCH   8  11
HETATM   11  C   UNL     1     -10.847  16.544  66.574  1.00  0.00    -0.046 A  
HETATM   12  C   UNL     1     -10.713  16.000  65.289  1.00  0.00    -0.417 A  
HETATM   13  C   UNL     1     -11.030  14.656  65.062  1.00  0.00    -0.415 A  
HETATM   14  C   UNL     1     -11.483  13.857  66.121  1.00  0.00    -0.351 A  
HETATM   15  C   UNL     1     -11.775  12.408  65.955  1.00  0.00    -0.419 C  
HETATM   16  C   UNL     1     -11.596  14.405  67.408  1.00  0.00    -0.398 A  
HETATM   17  O   UNL     1     -12.305  12.095  64.756  1.00  0.00    -0.373 OA 
HETATM   18  C   UNL     1     -11.280  15.747  67.636  1.00  0.00    -0.246 A  
HETATM   19  O   UNL     1     -11.597  11.588  66.839  1.00  0.00    -0.503 OA 
ENDBRANCH   8  11
ENDBRANCH   4   8
ENDBRANCH   3   4
ENDBRANCH   2   3
TORSDOF 6
ENDMDL
MODEL       37
REMARK 921   NORMALIZED FREE ENERGY PREDICTED BY IDOCK:   -4.71 KCAL/MOL
REMARK 922        TOTAL FREE ENERGY PREDICTED BY IDOCK:   -7.15 KCAL/MOL
REMARK 923 INTER-LIGAND FREE ENERGY PREDICTED BY IDOCK:   -6.55 KCAL/MOL
REMARK 924 INTRA-LIGAND FREE ENERGY PREDICTED BY IDOCK:   -0.60 KCAL/MOL
REMARK 927      BINDING AFFINITY PREDICTED BY RF-SCORE:    0.00 PKD
ROOT
HETATM    1  C   UNL     1     -12.267  12.996  63.333  1.00  0.00    -0.552 C  
HETATM    2  C   UNL     1     -11.749  13.852  64.474  1.00  0.00    -0.430 C  
ENDROOT
BRANCH   2   3
HETATM    3  C   UNL     1     -12.262  13.439  65.857  1.00  0.00    -0.450 C  
BRANCH   3   4
HETATM    4  N   UNL     1     -11.350  12.541  66.678  1.00  0.00    -0.314 N  
BRANCH   4   5
HETATM    5  C   UNL     1     -10.104  12.169  65.912  1.00  0.00    -0.245 C  
BRANCH   5   6
HETATM    6  C   UNL     1     -10.014  10.708  65.459  1.00  0.00    -0.333 C  
HETATM    7  C   UNL     1      -9.626  10.527  64.001  1.00  0.00    -0.367 C  
ENDBRANCH   5   6
ENDBRANCH   4   5
BRANCH   4   8
HETATM    8  S   UNL     1     -11.024  13.285  68.235  1.00  0.00    -0.268 S  
HETATM    9  O   UNL     1      -9.615  13.568  68.375  1.00  0.00    -0.217 OA 
HETATM   10  O   UNL     1     -12.012  14.325  68.438  1.00  0.00    -0.337 OA 
BRANCH   8  11
HETATM   11  C   UNL     1     -11.335  11.988  69.426  1.00  0.00    -0.251 A  
HETATM   12  C   UNL     1     -12.322  12.187  70.402  1.00  0.00    -0.315 A  
HETATM   13  C   UNL     1     -12.746  11.115  71.197  1.00  0.00    -0.510 A  
HETATM   14  C   UNL     1     -12.180   9.846  71.016  1.00  0.00    -0.446 A  
HETATM   15  C   UNL     1     -12.633   8.657  71.786  1.00  0.00    -0.349 C  
HETATM   16  C   UNL     1     -11.206   9.652  70.025  1.00  0.00    -0.271 A  
HETATM   17  O   UNL     1     -12.982   8.934  73.057  1.00  0.00    -0.297 OA 
HETATM   18  C   UNL     1     -10.781  10.721  69.230  1.00  0.00    -0.268 A  
HETATM   19  O   UNL     1     -12.642   7.529  71.324  1.00  0.00    -0.333 OA 
ENDBRANCH   8  11
ENDBRANCH   4   8
ENDBRANCH   3   4
ENDBRANCH   2   3
TORSDOF 6
ENDMDL
MODEL       38
REMARK 921   NORMALIZED FREE ENERGY PREDICTED BY IDOCK:   -4.71 KCAL/MOL
REMARK 922        TOTAL FREE ENERGY PREDICTED BY IDOCK:   -7.15 KCAL/MOL
REMARK 923 INTER-LIGAND FREE ENERGY PREDICTED BY IDOCK:   -6.49 KCAL/MOL
REMARK 924 INTRA-LIGAND FREE ENERGY PREDICTED BY IDOCK:   -0.66 KCAL/MOL
REMARK 927      BINDING AFFINITY PREDICTED BY RF-SCORE:    0.00 PKD
ROOT
HETATM    1  C   UNL     1     -10.363  18.889  66.286  1.00  0.00    -0.512 C  
HETATM    2  C   UNL     1     -10.367  17.457  66.786  1.00  0.00    -0.305 C  
ENDROOT
BRANCH   2   3
HETATM    3  C   UNL     1     -10.651  16.410  65.704  1.00  0.00    -0.323 C  
BRANCH   3   4
HETATM    4  N   UNL     1     -10.982  15.007  66.187  1.00  0.00    -0.332 N  
BRANCH   4   5
HETATM    5  C   UNL     1     -11.447  15.012  67.624  1.00  0.00    -0.333 C  
BRANCH   5   6
HETATM    6  C   UNL     1     -10.714  14.050  68.563  1.00  0.00    -0.266 C  
HETATM    7  C   UNL     1     -11.558  12.883  69.048  1.00  0.00    -0.372 C  
ENDBRANCH   5   6
ENDBRANCH   4   5
BRANCH   4   8
HETATM    8  S   UNL     1     -12.115  14.247  65.082  1.00  0.00    -0.415 S  
HETATM    9  O   UNL     1     -13.317  13.856  65.780  1.00  0.00    -0.534 OA 
HETATM   10  O   UNL     1     -12.184  15.070  63.892  1.00  0.00    -0.576 OA 
BRANCH   8  11
HETATM   11  C   UNL     1     -11.338  12.698  64.638  1.00  0.00    -0.318 A  
HETATM   12  C   UNL     1     -10.802  12.554  63.350  1.00  0.00    -0.351 A  
HETATM   13  C   UNL     1      -9.994  11.452  63.049  1.00  0.00    -0.354 A  
HETATM   14  C   UNL     1      -9.723  10.494  64.035  1.00  0.00    -0.383 A  
HETATM   15  C   UNL     1      -8.820   9.337  63.793  1.00  0.00    -0.118 C  
HETATM   16  C   UNL     1     -10.247  10.657  65.326  1.00  0.00    -0.351 A  
HETATM   17  O   UNL     1      -8.898   8.840  62.543  1.00  0.00    -0.175 OA 
HETATM   18  C   UNL     1     -11.056  11.756  65.629  1.00  0.00    -0.340 A  
HETATM   19  O   UNL     1      -8.112   8.853  64.659  1.00  0.00    -0.133 OA 
ENDBRANCH   8  11
ENDBRANCH   4   8
ENDBRANCH   3   4
ENDBRANCH   2   3
TORSDOF 6
ENDMDL
MODEL       39
REMARK 921   NORMALIZED FREE ENERGY PREDICTED BY IDOCK:   -4.67 KCAL/MOL
REMARK 922        TOTAL FREE ENERGY PREDICTED BY IDOCK:   -7.09 KCAL/MOL
REMARK 923 INTER-LIGAND FREE ENERGY PREDICTED BY IDOCK:   -6.37 KCAL/MOL
REMARK 924 INTRA-LIGAND FREE ENERGY PREDICTED BY IDOCK:   -0.72 KCAL/MOL
REMARK 927      BINDING AFFINITY PREDICTED BY RF-SCORE:    0.00 PKD
ROOT
HETATM    1  C   UNL     1     -11.086   6.729  67.354  1.00  0.00    -0.366 C  
HETATM    2  C   UNL     1     -11.143   6.460  68.846  1.00  0.00    -0.420 C  
ENDROOT
BRANCH   2   3
HETATM    3  C   UNL     1     -10.191   7.323  69.681  1.00  0.00    -0.211 C  
BRANCH   3   4
HETATM    4  N   UNL     1     -10.403   8.828  69.612  1.00  0.00    -0.208 N  
BRANCH   4   5
HETATM    5  C   UNL     1     -10.717   9.405  70.971  1.00  0.00    -0.337 C  
BRANCH   5   6
HETATM    6  C   UNL     1     -11.916  10.357  71.027  1.00  0.00    -0.481 C  
HETATM    7  C   UNL     1     -13.064   9.867  71.893  1.00  0.00    -0.559 C  
ENDBRANCH   5   6
ENDBRANCH   4   5
BRANCH   4   8
HETATM    8  S   UNL     1      -9.031   9.588  68.822  1.00  0.00    -0.135 S  
HETATM    9  O   UNL     1      -8.411  10.551  69.702  1.00  0.00    -0.119 OA 
HETATM   10  O   UNL     1      -8.247   8.539  68.202  1.00  0.00    -0.117 OA 
BRANCH   8  11
HETATM   11  C   UNL     1      -9.753  10.579  67.521  1.00  0.00    -0.166 A  
HETATM   12  C   UNL     1      -9.506  10.230  66.186  1.00  0.00    -0.229 A  
HETATM   13  C   UNL     1     -10.234  10.839  65.158  1.00  0.00    -0.365 A  
HETATM   14  C   UNL     1     -11.209  11.797  65.465  1.00  0.00    -0.316 A  
HETATM   15  C   UNL     1     -12.058  12.432  64.421  1.00  0.00    -0.426 C  
HETATM   16  C   UNL     1     -11.463  12.127  66.805  1.00  0.00    -0.418 A  
HETATM   17  O   UNL     1     -11.416  12.645  63.256  1.00  0.00    -0.483 OA 
HETATM   18  C   UNL     1     -10.736  11.521  67.834  1.00  0.00    -0.241 A  
HETATM   19  O   UNL     1     -13.212  12.771  64.617  1.00  0.00    -0.776 OA 
ENDBRANCH   8  11
ENDBRANCH   4   8
ENDBRANCH   3   4
ENDBRANCH   2   3
TORSDOF 6
ENDMDL
MODEL       40
REMARK 921   NORMALIZED FREE ENERGY PREDICTED BY IDOCK:   -4.66 KCAL/MOL
REMARK 922        TOTAL FREE ENERGY PREDICTED BY IDOCK:   -7.08 KCAL/MOL
REMARK 923 INTER-LIGAND FREE ENERGY PREDICTED BY IDOCK:   -6.44 KCAL/MOL
REMARK 924 INTRA-LIGAND FREE ENERGY PREDICTED BY IDOCK:   -0.65 KCAL/MOL
REMARK 927      BINDING AFFINITY PREDICTED BY RF-SCORE:    0.00 PKD
ROOT
HETATM    1  C   UNL     1     -12.536  10.334  71.239  1.00  0.00    -0.514 C  
HETATM    2  C   UNL     1     -12.051  11.520  70.426  1.00  0.00    -0.471 C  
ENDROOT
BRANCH   2   3
HETATM    3  C   UNL     1     -11.886  11.236  68.930  1.00  0.00    -0.345 C  
BRANCH   3   4
HETATM    4  N   UNL     1     -10.572  11.669  68.299  1.00  0.00    -0.197 N  
BRANCH   4   5
HETATM    5  C   UNL     1      -9.534  10.575  68.376  1.00  0.00    -0.157 C  
BRANCH   5   6
HETATM    6  C   UNL     1     -10.079   9.151  68.526  1.00  0.00    -0.212 C  
HETATM    7  C   UNL     1     -10.118   8.356  67.231  1.00  0.00    -0.321 C  
ENDBRANCH   5   6
ENDBRANCH   4   5
BRANCH   4   8
HETATM    8  S   UNL     1     -10.857  12.254  66.668  1.00  0.00    -0.270 S  
HETATM    9  O   UNL     1      -9.871  11.721  65.759  1.00  0.00    -0.228 OA 
HETATM   10  O   UNL     1     -12.272  12.110  66.393  1.00  0.00    -0.592 OA 
BRANCH   8  11
HETATM   11  C   UNL     1     -10.486  14.002  66.747  1.00  0.00    -0.277 A  
HETATM   12  C   UNL     1     -10.249  14.699  65.554  1.00  0.00    -0.395 A  
HETATM   13  C   UNL     1     -10.183  16.097  65.561  1.00  0.00    -0.360 A  
HETATM   14  C   UNL     1     -10.354  16.797  66.763  1.00  0.00    -0.293 A  
HETATM   15  C   UNL     1     -10.358  18.283  66.823  1.00  0.00    -0.384 C  
HETATM   16  C   UNL     1     -10.610  16.093  67.949  1.00  0.00    -0.309 A  
HETATM   17  O   UNL     1      -9.504  18.864  65.958  1.00  0.00    -0.471 OA 
HETATM   18  C   UNL     1     -10.675  14.696  67.944  1.00  0.00    -0.250 A  
HETATM   19  O   UNL     1     -11.035  18.915  67.616  1.00  0.00    -0.392 OA 
ENDBRANCH   8  11
ENDBRANCH   4   8
ENDBRANCH   3   4
ENDBRANCH   2   3
TORSDOF 6
ENDMDL
MODEL       41
REMARK 921   NORMALIZED FREE ENERGY PREDICTED BY IDOCK:   -4.66 KCAL/MOL
REMARK 922        TOTAL FREE ENERGY PREDICTED BY IDOCK:   -7.08 KCAL/MOL
REMARK 923 INTER-LIGAND FREE ENERGY PREDICTED BY IDOCK:   -6.15 KCAL/MOL
REMARK 924 INTRA-LIGAND FREE ENERGY PREDICTED BY IDOCK:   -0.93 KCAL/MOL
REMARK 927      BINDING AFFINITY PREDICTED BY RF-SCORE:    0.00 PKD
ROOT
HETATM    1  C   UNL     1     -12.265  14.613  64.150  1.00  0.00    -0.343 C  
HETATM    2  C   UNL     1     -12.290  13.143  64.526  1.00  0.00    -0.447 C  
ENDROOT
BRANCH   2   3
HETATM    3  C   UNL     1     -12.234  12.874  66.033  1.00  0.00    -0.366 C  
BRANCH   3   4
HETATM    4  N   UNL     1     -11.044  12.071  66.535  1.00  0.00    -0.299 N  
BRANCH   4   5
HETATM    5  C   UNL     1     -10.134  11.663  65.401  1.00  0.00    -0.259 C  
BRANCH   5   6
HETATM    6  C   UNL     1      -9.878  10.159  65.265  1.00  0.00    -0.388 C  
HETATM    7  C   UNL     1     -10.021   9.379  66.562  1.00  0.00    -0.339 C  
ENDBRANCH   5   6
ENDBRANCH   4   5
BRANCH   4   8
HETATM    8  S   UNL     1     -10.225  12.953  67.813  1.00  0.00    -0.229 S  
HETATM    9  O   UNL     1     -11.033  12.977  69.010  1.00  0.00    -0.244 OA 
HETATM   10  O   UNL     1      -8.853  12.489  67.855  1.00  0.00    -0.168 OA 
BRANCH   8  11
HETATM   11  C   UNL     1     -10.215  14.652  67.253  1.00  0.00    -0.241 A  
HETATM   12  C   UNL     1     -10.936  15.609  67.980  1.00  0.00    -0.318 A  
HETATM   13  C   UNL     1     -10.765  16.971  67.705  1.00  0.00    -0.318 A  
HETATM   14  C   UNL     1      -9.874  17.374  66.702  1.00  0.00    -0.300 A  
HETATM   15  C   UNL     1      -9.603  18.807  66.408  1.00  0.00    -0.335 C  
HETATM   16  C   UNL     1      -9.142  16.410  65.992  1.00  0.00    -0.317 A  
HETATM   17  O   UNL     1     -10.681  19.602  66.546  1.00  0.00    -0.463 OA 
HETATM   18  C   UNL     1      -9.312  15.049  66.265  1.00  0.00    -0.341 A  
HETATM   19  O   UNL     1      -8.518  19.215  66.030  1.00  0.00    -0.438 OA 
ENDBRANCH   8  11
ENDBRANCH   4   8
ENDBRANCH   3   4
ENDBRANCH   2   3
TORSDOF 6
ENDMDL
MODEL       42
REMARK 921   NORMALIZED FREE ENERGY PREDICTED BY IDOCK:   -4.66 KCAL/MOL
REMARK 922        TOTAL FREE ENERGY PREDICTED BY IDOCK:   -7.07 KCAL/MOL
REMARK 923 INTER-LIGAND FREE ENERGY PREDICTED BY IDOCK:   -6.25 KCAL/MOL
REMARK 924 INTRA-LIGAND FREE ENERGY PREDICTED BY IDOCK:   -0.83 KCAL/MOL
REMARK 927      BINDING AFFINITY PREDICTED BY RF-SCORE:    0.00 PKD
ROOT
HETATM    1  C   UNL     1     -10.446  17.066  69.201  1.00  0.00    -0.323 C  
HETATM    2  C   UNL     1     -10.652  17.260  67.710  1.00  0.00    -0.367 C  
ENDROOT
BRANCH   2   3
HETATM    3  C   UNL     1      -9.809  16.331  66.830  1.00  0.00    -0.245 C  
BRANCH   3   4
HETATM    4  N   UNL     1     -10.462  15.027  66.401  1.00  0.00    -0.285 N  
BRANCH   4   5
HETATM    5  C   UNL     1     -10.798  15.034  64.929  1.00  0.00    -0.411 C  
BRANCH   5   6
HETATM    6  C   UNL     1     -12.236  14.644  64.574  1.00  0.00    -0.473 C  
HETATM    7  C   UNL     1     -12.928  13.786  65.621  1.00  0.00    -0.346 C  
ENDBRANCH   5   6
ENDBRANCH   4   5
BRANCH   4   8
HETATM    8  S   UNL     1      -9.461  13.669  66.889  1.00  0.00    -0.268 S  
HETATM    9  O   UNL     1      -9.491  12.631  65.886  1.00  0.00    -0.202 OA 
HETATM   10  O   UNL     1      -8.200  14.204  67.363  1.00  0.00    -0.173 OA 
BRANCH   8  11
HETATM   11  C   UNL     1     -10.318  12.958  68.287  1.00  0.00    -0.244 A  
HETATM   12  C   UNL     1     -11.288  13.724  68.950  1.00  0.00    -0.328 A  
HETATM   13  C   UNL     1     -12.131  13.123  69.891  1.00  0.00    -0.357 A  
HETATM   14  C   UNL     1     -12.003  11.756  70.171  1.00  0.00    -0.421 A  
HETATM   15  C   UNL     1     -12.911  11.049  71.114  1.00  0.00    -0.392 C  
HETATM   16  C   UNL     1     -11.043  10.993  69.490  1.00  0.00    -0.322 A  
HETATM   17  O   UNL     1     -13.290  11.799  72.168  1.00  0.00    -0.497 OA 
HETATM   18  C   UNL     1     -10.199  11.591  68.550  1.00  0.00    -0.219 A  
HETATM   19  O   UNL     1     -13.241   9.885  70.973  1.00  0.00    -0.373 OA 
ENDBRANCH   8  11
ENDBRANCH   4   8
ENDBRANCH   3   4
ENDBRANCH   2   3
TORSDOF 6
ENDMDL
MODEL       43
REMARK 921   NORMALIZED FREE ENERGY PREDICTED BY IDOCK:   -4.65 KCAL/MOL
REMARK 922        TOTAL FREE ENERGY PREDICTED BY IDOCK:   -7.07 KCAL/MOL
REMARK 923 INTER-LIGAND FREE ENERGY PREDICTED BY IDOCK:   -7.25 KCAL/MOL
REMARK 924 INTRA-LIGAND FREE ENERGY PREDICTED BY IDOCK:    0.18 KCAL/MOL
REMARK 927      BINDING AFFINITY PREDICTED BY RF-SCORE:    0.00 PKD
ROOT
HETATM    1  C   UNL     1     -10.395  19.592  65.918  1.00  0.00    -0.562 C  
HETATM    2  C   UNL     1     -10.718  19.376  67.384  1.00  0.00    -0.594 C  
ENDROOT
BRANCH   2   3
HETATM    3  C   UNL     1     -10.785  17.906  67.808  1.00  0.00    -0.326 C  
BRANCH   3   4
HETATM    4  N   UNL     1      -9.504  17.099  67.663  1.00  0.00    -0.239 N  
BRANCH   4   5
HETATM    5  C   UNL     1      -8.461  17.533  68.664  1.00  0.00    -0.258 C  
BRANCH   5   6
HETATM    6  C   UNL     1      -7.327  18.400  68.108  1.00  0.00    -0.271 C  
HETATM    7  C   UNL     1      -7.153  19.734  68.816  1.00  0.00    -0.365 C  
ENDBRANCH   5   6
ENDBRANCH   4   5
BRANCH   4   8
HETATM    8  S   UNL     1      -9.869  15.383  67.725  1.00  0.00    -0.220 S  
HETATM    9  O   UNL     1     -10.647  14.989  66.574  1.00  0.00    -0.292 OA 
HETATM   10  O   UNL     1      -8.644  14.687  68.063  1.00  0.00    -0.150 OA 
BRANCH   8  11
HETATM   11  C   UNL     1     -10.998  15.212  69.101  1.00  0.00    -0.259 A  
HETATM   12  C   UNL     1     -11.777  14.051  69.199  1.00  0.00    -0.375 A  
HETATM   13  C   UNL     1     -12.494  13.786  70.371  1.00  0.00    -0.384 A  
HETATM   14  C   UNL     1     -12.431  14.683  71.446  1.00  0.00    -0.410 A  
HETATM   15  C   UNL     1     -13.118  14.424  72.739  1.00  0.00    -0.505 C  
HETATM   16  C   UNL     1     -11.632  15.833  71.347  1.00  0.00    -0.511 A  
HETATM   17  O   UNL     1     -14.303  13.797  72.608  1.00  0.00    -0.678 OA 
HETATM   18  C   UNL     1     -10.917  16.100  70.176  1.00  0.00    -0.359 A  
HETATM   19  O   UNL     1     -12.673  14.789  73.814  1.00  0.00    -0.491 OA 
ENDBRANCH   8  11
ENDBRANCH   4   8
ENDBRANCH   3   4
ENDBRANCH   2   3
TORSDOF 6
ENDMDL
MODEL       44
REMARK 921   NORMALIZED FREE ENERGY PREDICTED BY IDOCK:   -4.64 KCAL/MOL
REMARK 922        TOTAL FREE ENERGY PREDICTED BY IDOCK:   -7.06 KCAL/MOL
REMARK 923 INTER-LIGAND FREE ENERGY PREDICTED BY IDOCK:   -6.60 KCAL/MOL
REMARK 924 INTRA-LIGAND FREE ENERGY PREDICTED BY IDOCK:   -0.45 KCAL/MOL
REMARK 927      BINDING AFFINITY PREDICTED BY RF-SCORE:    0.00 PKD
ROOT
HETATM    1  C   UNL     1     -13.106  10.303  71.853  1.00  0.00    -0.568 C  
HETATM    2  C   UNL     1     -13.073  11.790  71.552  1.00  0.00    -0.389 C  
ENDROOT
BRANCH   2   3
HETATM    3  C   UNL     1     -12.141  12.181  70.400  1.00  0.00    -0.309 C  
BRANCH   3   4
HETATM    4  N   UNL     1     -12.191  13.633  69.952  1.00  0.00    -0.322 N  
BRANCH   4   5
HETATM    5  C   UNL     1     -11.741  14.567  71.050  1.00  0.00    -0.237 C  
BRANCH   5   6
HETATM    6  C   UNL     1     -12.707  15.707  71.389  1.00  0.00    -0.535 C  
HETATM    7  C   UNL     1     -13.859  15.301  72.293  1.00  0.00    -0.632 C  
ENDBRANCH   5   6
ENDBRANCH   4   5
BRANCH   4   8
HETATM    8  S   UNL     1     -11.297  13.826  68.453  1.00  0.00    -0.316 S  
HETATM    9  O   UNL     1     -10.215  12.872  68.383  1.00  0.00    -0.235 OA 
HETATM   10  O   UNL     1     -12.263  13.929  67.378  1.00  0.00    -0.378 OA 
BRANCH   8  11
HETATM   11  C   UNL     1     -10.481  15.409  68.616  1.00  0.00    -0.237 A  
HETATM   12  C   UNL     1      -9.106  15.438  68.885  1.00  0.00    -0.218 A  
HETATM   13  C   UNL     1      -8.400  16.643  68.792  1.00  0.00    -0.252 A  
HETATM   14  C   UNL     1      -9.070  17.818  68.429  1.00  0.00    -0.278 A  
HETATM   15  C   UNL     1      -8.363  19.115  68.252  1.00  0.00    -0.335 C  
HETATM   16  C   UNL     1     -10.443  17.777  68.142  1.00  0.00    -0.382 A  
HETATM   17  O   UNL     1      -7.344  19.300  69.114  1.00  0.00    -0.346 OA 
HETATM   18  C   UNL     1     -11.151  16.575  68.236  1.00  0.00    -0.321 A  
HETATM   19  O   UNL     1      -8.705  19.953  67.435  1.00  0.00    -0.313 OA 
ENDBRANCH   8  11
ENDBRANCH   4   8
ENDBRANCH   3   4
ENDBRANCH   2   3
TORSDOF 6
ENDMDL
MODEL       45
REMARK 921   NORMALIZED FREE ENERGY PREDICTED BY IDOCK:   -4.64 KCAL/MOL
REMARK 922        TOTAL FREE ENERGY PREDICTED BY IDOCK:   -7.05 KCAL/MOL
REMARK 923 INTER-LIGAND FREE ENERGY PREDICTED BY IDOCK:   -6.45 KCAL/MOL
REMARK 924 INTRA-LIGAND FREE ENERGY PREDICTED BY IDOCK:   -0.60 KCAL/MOL
REMARK 927      BINDING AFFINITY PREDICTED BY RF-SCORE:    0.00 PKD
ROOT
HETATM    1  C   UNL     1     -10.690   9.846  67.928  1.00  0.00    -0.316 C  
HETATM    2  C   UNL     1      -9.812  10.492  66.873  1.00  0.00    -0.235 C  
ENDROOT
BRANCH   2   3
HETATM    3  C   UNL     1      -9.795  12.023  66.915  1.00  0.00    -0.204 C  
BRANCH   3   4
HETATM    4  N   UNL     1     -10.622  12.740  65.860  1.00  0.00    -0.270 N  
BRANCH   4   5
HETATM    5  C   UNL     1     -11.156  11.777  64.827  1.00  0.00    -0.296 C  
BRANCH   5   6
HETATM    6  C   UNL     1     -10.768  12.078  63.375  1.00  0.00    -0.475 C  
HETATM    7  C   UNL     1      -9.508  11.371  62.904  1.00  0.00    -0.372 C  
ENDBRANCH   5   6
ENDBRANCH   4   5
BRANCH   4   8
HETATM    8  S   UNL     1     -11.868  13.706  66.632  1.00  0.00    -0.425 S  
HETATM    9  O   UNL     1     -12.897  14.059  65.682  1.00  0.00    -0.545 OA 
HETATM   10  O   UNL     1     -12.207  13.062  67.885  1.00  0.00    -0.249 OA 
BRANCH   8  11
HETATM   11  C   UNL     1     -11.064  15.258  67.010  1.00  0.00    -0.305 A  
HETATM   12  C   UNL     1     -10.681  16.097  65.955  1.00  0.00    -0.261 A  
HETATM   13  C   UNL     1     -10.263  17.407  66.218  1.00  0.00    -0.344 A  
HETATM   14  C   UNL     1     -10.227  17.875  67.538  1.00  0.00    -0.366 A  
HETATM   15  C   UNL     1      -9.854  19.275  67.875  1.00  0.00    -0.350 C  
HETATM   16  C   UNL     1     -10.631  17.035  68.587  1.00  0.00    -0.362 A  
HETATM   17  O   UNL     1      -8.897  19.788  67.077  1.00  0.00    -0.300 OA 
HETATM   18  C   UNL     1     -11.048  15.727  68.326  1.00  0.00    -0.342 A  
HETATM   19  O   UNL     1     -10.333  19.884  68.816  1.00  0.00    -0.433 OA 
ENDBRANCH   8  11
ENDBRANCH   4   8
ENDBRANCH   3   4
ENDBRANCH   2   3
TORSDOF 6
ENDMDL
MODEL       46
REMARK 921   NORMALIZED FREE ENERGY PREDICTED BY IDOCK:   -4.63 KCAL/MOL
REMARK 922        TOTAL FREE ENERGY PREDICTED BY IDOCK:   -7.04 KCAL/MOL
REMARK 923 INTER-LIGAND FREE ENERGY PREDICTED BY IDOCK:   -6.43 KCAL/MOL
REMARK 924 INTRA-LIGAND FREE ENERGY PREDICTED BY IDOCK:   -0.62 KCAL/MOL
REMARK 927      BINDING AFFINITY PREDICTED BY RF-SCORE:    0.00 PKD
ROOT
HETATM    1  C   UNL     1     -10.475  17.081  67.773  1.00  0.00    -0.349 C  
HETATM    2  C   UNL     1     -10.912  15.643  67.561  1.00  0.00    -0.309 C  
ENDROOT
BRANCH   2   3
HETATM    3  C   UNL     1      -9.900  14.780  66.802  1.00  0.00    -0.255 C  
BRANCH   3   4
HETATM    4  N   UNL     1     -10.437  13.508  66.165  1.00  0.00    -0.291 N  
BRANCH   4   5
HETATM    5  C   UNL     1     -10.638  13.676  64.678  1.00  0.00    -0.430 C  
BRANCH   5   6
HETATM    6  C   UNL     1     -12.068  13.460  64.172  1.00  0.00    -0.491 C  
HETATM    7  C   UNL     1     -12.304  12.106  63.523  1.00  0.00    -0.682 C  
ENDBRANCH   5   6
ENDBRANCH   4   5
BRANCH   4   8
HETATM    8  S   UNL     1      -9.409  12.148  66.587  1.00  0.00    -0.228 S  
HETATM    9  O   UNL     1      -9.390  11.177  65.519  1.00  0.00    -0.213 OA 
HETATM   10  O   UNL     1      -8.174  12.684  67.123  1.00  0.00    -0.182 OA 
BRANCH   8  11
HETATM   11  C   UNL     1     -10.277  11.326  67.917  1.00  0.00    -0.181 A  
HETATM   12  C   UNL     1      -9.544  10.549  68.826  1.00  0.00    -0.181 A  
HETATM   13  C   UNL     1     -10.152  10.084  69.998  1.00  0.00    -0.289 A  
HETATM   14  C   UNL     1     -11.492  10.396  70.260  1.00  0.00    -0.406 A  
HETATM   15  C   UNL     1     -12.173   9.985  71.517  1.00  0.00    -0.405 C  
HETATM   16  C   UNL     1     -12.213  11.190  69.355  1.00  0.00    -0.329 A  
HETATM   17  O   UNL     1     -11.783   8.781  71.977  1.00  0.00    -0.336 OA 
HETATM   18  C   UNL     1     -11.608  11.654  68.183  1.00  0.00    -0.389 A  
HETATM   19  O   UNL     1     -13.039  10.654  72.054  1.00  0.00    -0.481 OA 
ENDBRANCH   8  11
ENDBRANCH   4   8
ENDBRANCH   3   4
ENDBRANCH   2   3
TORSDOF 6
ENDMDL
MODEL       47
REMARK 921   NORMALIZED FREE ENERGY PREDICTED BY IDOCK:   -4.62 KCAL/MOL
REMARK 922        TOTAL FREE ENERGY PREDICTED BY IDOCK:   -7.03 KCAL/MOL
REMARK 923 INTER-LIGAND FREE ENERGY PREDICTED BY IDOCK:   -6.08 KCAL/MOL
REMARK 924 INTRA-LIGAND FREE ENERGY PREDICTED BY IDOCK:   -0.95 KCAL/MOL
REMARK 927      BINDING AFFINITY PREDICTED BY RF-SCORE:    0.00 PKD
ROOT
HETATM    1  C   UNL     1     -10.139   7.956  67.360  1.00  0.00    -0.292 C  
HETATM    2  C   UNL     1      -9.740   8.701  66.099  1.00  0.00    -0.292 C  
ENDROOT
BRANCH   2   3
HETATM    3  C   UNL     1      -8.939   9.983  66.348  1.00  0.00    -0.144 C  
BRANCH   3   4
HETATM    4  N   UNL     1      -9.609  11.289  65.952  1.00  0.00    -0.213 N  
BRANCH   4   5
HETATM    5  C   UNL     1     -10.431  11.130  64.696  1.00  0.00    -0.335 C  
BRANCH   5   6
HETATM    6  C   UNL     1     -10.575  12.388  63.833  1.00  0.00    -0.470 C  
HETATM    7  C   UNL     1     -12.009  12.850  63.635  1.00  0.00    -0.613 C  
ENDBRANCH   5   6
ENDBRANCH   4   5
BRANCH   4   8
HETATM    8  S   UNL     1     -10.516  11.931  67.312  1.00  0.00    -0.228 S  
HETATM    9  O   UNL     1     -11.935  11.771  67.094  1.00  0.00    -0.617 OA 
HETATM   10  O   UNL     1      -9.893  11.441  68.524  1.00  0.00    -0.189 OA 
BRANCH   8  11
HETATM   11  C   UNL     1     -10.254  13.698  67.232  1.00  0.00    -0.246 A  
HETATM   12  C   UNL     1      -8.962  14.182  66.982  1.00  0.00    -0.251 A  
HETATM   13  C   UNL     1      -8.767  15.536  66.688  1.00  0.00    -0.326 A  
HETATM   14  C   UNL     1      -9.864  16.407  66.645  1.00  0.00    -0.272 A  
HETATM   15  C   UNL     1      -9.727  17.841  66.276  1.00  0.00    -0.267 C  
HETATM   16  C   UNL     1     -11.156  15.911  66.878  1.00  0.00    -0.082 A  
HETATM   17  O   UNL     1      -8.585  18.407  66.714  1.00  0.00    -0.260 OA 
HETATM   18  C   UNL     1     -11.353  14.559  67.173  1.00  0.00    -0.361 A  
HETATM   19  O   UNL     1     -10.589  18.459  65.677  1.00  0.00    -0.622 OA 
ENDBRANCH   8  11
ENDBRANCH   4   8
ENDBRANCH   3   4
ENDBRANCH   2   3
TORSDOF 6
ENDMDL
MODEL       48
REMARK 921   NORMALIZED FREE ENERGY PREDICTED BY IDOCK:   -4.62 KCAL/MOL
REMARK 922        TOTAL FREE ENERGY PREDICTED BY IDOCK:   -7.03 KCAL/MOL
REMARK 923 INTER-LIGAND FREE ENERGY PREDICTED BY IDOCK:   -6.34 KCAL/MOL
REMARK 924 INTRA-LIGAND FREE ENERGY PREDICTED BY IDOCK:   -0.69 KCAL/MOL
REMARK 927      BINDING AFFINITY PREDICTED BY RF-SCORE:    0.00 PKD
ROOT
HETATM    1  C   UNL     1      -9.282   6.482  66.233  1.00  0.00    -0.160 C  
HETATM    2  C   UNL     1     -10.155   7.636  66.691  1.00  0.00    -0.278 C  
ENDROOT
BRANCH   2   3
HETATM    3  C   UNL     1      -9.396   8.757  67.407  1.00  0.00    -0.137 C  
BRANCH   3   4
HETATM    4  N   UNL     1      -9.410  10.122  66.737  1.00  0.00    -0.157 N  
BRANCH   4   5
HETATM    5  C   UNL     1      -9.879  10.030  65.305  1.00  0.00    -0.318 C  
BRANCH   5   6
HETATM    6  C   UNL     1      -8.837  10.391  64.241  1.00  0.00    -0.224 C  
HETATM    7  C   UNL     1      -8.569   9.289  63.229  1.00  0.00    -0.207 C  
ENDBRANCH   5   6
ENDBRANCH   4   5
BRANCH   4   8
HETATM    8  S   UNL     1     -10.335  11.254  67.710  1.00  0.00    -0.189 S  
HETATM    9  O   UNL     1     -11.714  10.837  67.798  1.00  0.00    -0.547 OA 
HETATM   10  O   UNL     1      -9.567  11.531  68.907  1.00  0.00    -0.146 OA 
BRANCH   8  11
HETATM   11  C   UNL     1     -10.386  12.750  66.730  1.00  0.00    -0.240 A  
HETATM   12  C   UNL     1     -11.554  13.052  66.016  1.00  0.00    -0.409 A  
HETATM   13  C   UNL     1     -11.710  14.313  65.431  1.00  0.00    -0.354 A  
HETATM   14  C   UNL     1     -10.697  15.273  65.560  1.00  0.00    -0.385 A  
HETATM   15  C   UNL     1     -10.831  16.650  65.015  1.00  0.00    -0.176 C  
HETATM   16  C   UNL     1      -9.540  14.969  66.293  1.00  0.00    -0.335 A  
HETATM   17  O   UNL     1     -11.508  16.710  63.852  1.00  0.00    -1.186 OA 
HETATM   18  C   UNL     1      -9.382  13.709  66.878  1.00  0.00    -0.261 A  
HETATM   19  O   UNL     1     -10.334  17.628  65.547  1.00  0.00    -0.627 OA 
ENDBRANCH   8  11
ENDBRANCH   4   8
ENDBRANCH   3   4
ENDBRANCH   2   3
TORSDOF 6
ENDMDL
MODEL       49
REMARK 921   NORMALIZED FREE ENERGY PREDICTED BY IDOCK:   -4.60 KCAL/MOL
REMARK 922        TOTAL FREE ENERGY PREDICTED BY IDOCK:   -7.00 KCAL/MOL
REMARK 923 INTER-LIGAND FREE ENERGY PREDICTED BY IDOCK:   -6.33 KCAL/MOL
REMARK 924 INTRA-LIGAND FREE ENERGY PREDICTED BY IDOCK:   -0.68 KCAL/MOL
REMARK 927      BINDING AFFINITY PREDICTED BY RF-SCORE:    0.00 PKD
ROOT
HETATM    1  C   UNL     1     -11.782  10.557  70.274  1.00  0.00    -0.420 C  
HETATM    2  C   UNL     1     -11.186  10.612  68.880  1.00  0.00    -0.333 C  
ENDROOT
BRANCH   2   3
HETATM    3  C   UNL     1     -10.439  11.911  68.562  1.00  0.00    -0.224 C  
BRANCH   3   4
HETATM    4  N   UNL     1     -10.745  12.559  67.221  1.00  0.00    -0.230 N  
BRANCH   4   5
HETATM    5  C   UNL     1     -11.267  11.550  66.226  1.00  0.00    -0.222 C  
BRANCH   5   6
HETATM    6  C   UNL     1     -10.425  11.373  64.957  1.00  0.00    -0.361 C  
HETATM    7  C   UNL     1     -10.633  12.457  63.912  1.00  0.00    -0.470 C  
ENDBRANCH   5   6
ENDBRANCH   4   5
BRANCH   4   8
HETATM    8  S   UNL     1     -11.810  13.936  67.452  1.00  0.00    -0.403 S  
HETATM    9  O   UNL     1     -12.750  14.037  66.361  1.00  0.00    -0.369 OA 
HETATM   10  O   UNL     1     -12.270  13.908  68.825  1.00  0.00    -0.348 OA 
BRANCH   8  11
HETATM   11  C   UNL     1     -10.749  15.362  67.255  1.00  0.00    -0.307 A  
HETATM   12  C   UNL     1      -9.889  15.420  66.149  1.00  0.00    -0.337 A  
HETATM   13  C   UNL     1      -9.221  16.611  65.844  1.00  0.00    -0.175 A  
HETATM   14  C   UNL     1      -9.412  17.744  66.645  1.00  0.00    -0.299 A  
HETATM   15  C   UNL     1      -8.780  19.054  66.335  1.00  0.00    -0.317 C  
HETATM   16  C   UNL     1     -10.290  17.684  67.739  1.00  0.00    -0.365 A  
HETATM   17  O   UNL     1      -7.544  18.949  65.808  1.00  0.00    -0.456 OA 
HETATM   18  C   UNL     1     -10.958  16.494  68.046  1.00  0.00    -0.320 A  
HETATM   19  O   UNL     1      -9.310  20.124  66.580  1.00  0.00    -0.371 OA 
ENDBRANCH   8  11
ENDBRANCH   4   8
ENDBRANCH   3   4
ENDBRANCH   2   3
TORSDOF 6
ENDMDL
MODEL       50
REMARK 921   NORMALIZED FREE ENERGY PREDICTED BY IDOCK:   -4.60 KCAL/MOL
REMARK 922        TOTAL FREE ENERGY PREDICTED BY IDOCK:   -7.00 KCAL/MOL
REMARK 923 INTER-LIGAND FREE ENERGY PREDICTED BY IDOCK:   -6.40 KCAL/MOL
REMARK 924 INTRA-LIGAND FREE ENERGY PREDICTED BY IDOCK:   -0.60 KCAL/MOL
REMARK 927      BINDING AFFINITY PREDICTED BY RF-SCORE:    0.00 PKD
ROOT
HETATM    1  C   UNL     1     -10.797  16.040  65.170  1.00  0.00    -0.411 C  
HETATM    2  C   UNL     1     -11.078  14.670  65.760  1.00  0.00    -0.331 C  
ENDROOT
BRANCH   2   3
HETATM    3  C   UNL     1     -10.044  13.600  65.395  1.00  0.00    -0.271 C  
BRANCH   3   4
HETATM    4  N   UNL     1     -10.353  12.179  65.837  1.00  0.00    -0.247 N  
BRANCH   4   5
HETATM    5  C   UNL     1     -10.410  11.233  64.662  1.00  0.00    -0.315 C  
BRANCH   5   6
HETATM    6  C   UNL     1     -11.021  11.806  63.378  1.00  0.00    -0.458 C  
HETATM    7  C   UNL     1     -12.530  11.985  63.429  1.00  0.00    -0.625 C  
ENDBRANCH   5   6
ENDBRANCH   4   5
BRANCH   4   8
HETATM    8  S   UNL     1      -9.223  11.683  67.086  1.00  0.00    -0.180 S  
HETATM    9  O   UNL     1      -8.774  10.330  66.854  1.00  0.00    -0.126 OA 
HETATM   10  O   UNL     1      -8.270  12.759  67.266  1.00  0.00    -0.178 OA 
BRANCH   8  11
HETATM   11  C   UNL     1     -10.215  11.571  68.571  1.00  0.00    -0.213 A  
HETATM   12  C   UNL     1     -11.202  12.540  68.801  1.00  0.00    -0.318 A  
HETATM   13  C   UNL     1     -12.138  12.354  69.824  1.00  0.00    -0.292 A  
HETATM   14  C   UNL     1     -12.087  11.200  70.617  1.00  0.00    -0.477 A  
HETATM   15  C   UNL     1     -13.092  10.917  71.677  1.00  0.00    -0.433 C  
HETATM   16  C   UNL     1     -11.108  10.226  70.367  1.00  0.00    -0.391 A  
HETATM   17  O   UNL     1     -13.521  12.018  72.324  1.00  0.00    -0.465 OA 
HETATM   18  C   UNL     1     -10.170  10.410  69.346  1.00  0.00    -0.257 A  
HETATM   19  O   UNL     1     -13.456   9.790  71.964  1.00  0.00    -0.413 OA 
ENDBRANCH   8  11
ENDBRANCH   4   8
ENDBRANCH   3   4
ENDBRANCH   2   3
TORSDOF 6
ENDMDL
MODEL       51
REMARK 921   NORMALIZED FREE ENERGY PREDICTED BY IDOCK:   -4.60 KCAL/MOL
REMARK 922        TOTAL FREE ENERGY PREDICTED BY IDOCK:   -7.00 KCAL/MOL
REMARK 923 INTER-LIGAND FREE ENERGY PREDICTED BY IDOCK:   -6.30 KCAL/MOL
REMARK 924 INTRA-LIGAND FREE ENERGY PREDICTED BY IDOCK:   -0.70 KCAL/MOL
REMARK 927      BINDING AFFINITY PREDICTED BY RF-SCORE:    0.00 PKD
ROOT
HETATM    1  C   UNL     1     -11.201  15.811  70.303  1.00  0.00    -0.377 C  
HETATM    2  C   UNL     1     -11.910  15.674  68.969  1.00  0.00    -0.379 C  
ENDROOT
BRANCH   2   3
HETATM    3  C   UNL     1     -11.004  15.241  67.812  1.00  0.00    -0.312 C  
BRANCH   3   4
HETATM    4  N   UNL     1     -11.244  13.850  67.247  1.00  0.00    -0.302 N  
BRANCH   4   5
HETATM    5  C   UNL     1     -11.504  13.894  65.760  1.00  0.00    -0.321 C  
BRANCH   5   6
HETATM    6  C   UNL     1     -12.593  12.946  65.248  1.00  0.00    -0.502 C  
HETATM    7  C   UNL     1     -12.433  12.540  63.792  1.00  0.00    -0.552 C  
ENDBRANCH   5   6
ENDBRANCH   4   5
BRANCH   4   8
HETATM    8  S   UNL     1      -9.924  12.786  67.701  1.00  0.00    -0.222 S  
HETATM    9  O   UNL     1      -9.646  11.844  66.641  1.00  0.00    -0.199 OA 
HETATM   10  O   UNL     1      -8.868  13.609  68.254  1.00  0.00    -0.176 OA 
BRANCH   8  11
HETATM   11  C   UNL     1     -10.590  11.781  69.021  1.00  0.00    -0.136 A  
HETATM   12  C   UNL     1     -11.895  12.028  69.469  1.00  0.00    -0.390 A  
HETATM   13  C   UNL     1     -12.522  11.123  70.332  1.00  0.00    -0.382 A  
HETATM   14  C   UNL     1     -11.843   9.970  70.748  1.00  0.00    -0.435 A  
HETATM   15  C   UNL     1     -12.479   8.940  71.613  1.00  0.00    -0.344 C  
HETATM   16  C   UNL     1     -10.544   9.720  70.280  1.00  0.00    -0.348 A  
HETATM   17  O   UNL     1     -13.323   9.449  72.531  1.00  0.00    -0.440 OA 
HETATM   18  C   UNL     1      -9.915  10.624  69.418  1.00  0.00    -0.183 A  
HETATM   19  O   UNL     1     -12.223   7.751  71.530  1.00  0.00    -0.299 OA 
ENDBRANCH   8  11
ENDBRANCH   4   8
ENDBRANCH   3   4
ENDBRANCH   2   3
TORSDOF 6
ENDMDL
MODEL       52
REMARK 921   NORMALIZED FREE ENERGY PREDICTED BY IDOCK:   -4.56 KCAL/MOL
REMARK 922        TOTAL FREE ENERGY PREDICTED BY IDOCK:   -6.95 KCAL/MOL
REMARK 923 INTER-LIGAND FREE ENERGY PREDICTED BY IDOCK:   -6.29 KCAL/MOL
REMARK 924 INTRA-LIGAND FREE ENERGY PREDICTED BY IDOCK:   -0.66 KCAL/MOL
REMARK 927      BINDING AFFINITY PREDICTED BY RF-SCORE:    0.00 PKD
ROOT
HETATM    1  C   UNL     1      -9.549   8.975  66.317  1.00  0.00    -0.327 C  
HETATM    2  C   UNL     1      -9.820  10.166  65.416  1.00  0.00    -0.375 C  
ENDROOT
BRANCH   2   3
HETATM    3  C   UNL     1      -9.223  11.485  65.916  1.00  0.00    -0.210 C  
BRANCH   3   4
HETATM    4  N   UNL     1     -10.208  12.525  66.425  1.00  0.00    -0.240 N  
BRANCH   4   5
HETATM    5  C   UNL     1     -11.635  12.121  66.144  1.00  0.00    -0.354 C  
BRANCH   5   6
HETATM    6  C   UNL     1     -12.373  12.969  65.102  1.00  0.00    -0.536 C  
HETATM    7  C   UNL     1     -12.224  12.474  63.673  1.00  0.00    -0.642 C  
ENDBRANCH   5   6
ENDBRANCH   4   5
BRANCH   4   8
HETATM    8  S   UNL     1      -9.893  12.868  68.118  1.00  0.00    -0.227 S  
HETATM    9  O   UNL     1      -8.486  12.723  68.410  1.00  0.00    -0.164 OA 
HETATM   10  O   UNL     1     -10.597  14.089  68.455  1.00  0.00    -0.241 OA 
BRANCH   8  11
HETATM   11  C   UNL     1     -10.670  11.521  69.001  1.00  0.00    -0.193 A  
HETATM   12  C   UNL     1      -9.908  10.386  69.311  1.00  0.00    -0.243 A  
HETATM   13  C   UNL     1     -10.414   9.423  70.192  1.00  0.00    -0.280 A  
HETATM   14  C   UNL     1     -11.683   9.597  70.762  1.00  0.00    -0.390 A  
HETATM   15  C   UNL     1     -12.247   8.641  71.752  1.00  0.00    -0.343 C  
HETATM   16  C   UNL     1     -12.430  10.745  70.461  1.00  0.00    -0.447 A  
HETATM   17  O   UNL     1     -11.914   7.357  71.518  1.00  0.00    -0.280 OA 
HETATM   18  C   UNL     1     -11.927  11.708  69.581  1.00  0.00    -0.390 A  
HETATM   19  O   UNL     1     -12.982   8.983  72.663  1.00  0.00    -0.405 OA 
ENDBRANCH   8  11
ENDBRANCH   4   8
ENDBRANCH   3   4
ENDBRANCH   2   3
TORSDOF 6
ENDMDL
MODEL       53
REMARK 921   NORMALIZED FREE ENERGY PREDICTED BY IDOCK:   -4.56 KCAL/MOL
REMARK 922        TOTAL FREE ENERGY PREDICTED BY IDOCK:   -6.94 KCAL/MOL
REMARK 923 INTER-LIGAND FREE ENERGY PREDICTED BY IDOCK:   -6.47 KCAL/MOL
REMARK 924 INTRA-LIGAND FREE ENERGY PREDICTED BY IDOCK:   -0.47 KCAL/MOL
REMARK 927      BINDING AFFINITY PREDICTED BY RF-SCORE:    0.00 PKD
ROOT
HETATM    1  C   UNL     1     -10.401   5.130  69.629  1.00  0.00    -0.316 C  
HETATM    2  C   UNL     1     -11.246   6.353  69.931  1.00  0.00    -0.485 C  
ENDROOT
BRANCH   2   3
HETATM    3  C   UNL     1     -10.466   7.527  70.532  1.00  0.00    -0.219 C  
BRANCH   3   4
HETATM    4  N   UNL     1     -10.887   8.919  70.086  1.00  0.00    -0.230 N  
BRANCH   4   5
HETATM    5  C   UNL     1     -11.205   9.805  71.267  1.00  0.00    -0.347 C  
BRANCH   5   6
HETATM    6  C   UNL     1     -12.665  10.253  71.387  1.00  0.00    -0.547 C  
HETATM    7  C   UNL     1     -13.637   9.134  71.728  1.00  0.00    -0.476 C  
ENDBRANCH   5   6
ENDBRANCH   4   5
BRANCH   4   8
HETATM    8  S   UNL     1      -9.677   9.592  69.007  1.00  0.00    -0.177 S  
HETATM    9  O   UNL     1      -8.838  10.533  69.710  1.00  0.00    -0.049 OA 
HETATM   10  O   UNL     1      -9.094   8.493  68.263  1.00  0.00    -0.138 OA 
BRANCH   8  11
HETATM   11  C   UNL     1     -10.608  10.601  67.861  1.00  0.00    -0.228 A  
HETATM   12  C   UNL     1     -11.346  11.685  68.357  1.00  0.00    -0.339 A  
HETATM   13  C   UNL     1     -11.893  12.621  67.473  1.00  0.00    -0.396 A  
HETATM   14  C   UNL     1     -11.703  12.473  66.093  1.00  0.00    -0.466 A  
HETATM   15  C   UNL     1     -12.206  13.469  65.109  1.00  0.00    -0.428 C  
HETATM   16  C   UNL     1     -10.946  11.396  65.606  1.00  0.00    -0.254 A  
HETATM   17  O   UNL     1     -13.386  14.021  65.451  1.00  0.00    -0.721 OA 
HETATM   18  C   UNL     1     -10.399  10.459  66.487  1.00  0.00    -0.287 A  
HETATM   19  O   UNL     1     -11.628  13.726  64.067  1.00  0.00    -0.361 OA 
ENDBRANCH   8  11
ENDBRANCH   4   8
ENDBRANCH   3   4
ENDBRANCH   2   3
TORSDOF 6
ENDMDL
MODEL       54
REMARK 921   NORMALIZED FREE ENERGY PREDICTED BY IDOCK:   -4.54 KCAL/MOL
REMARK 922        TOTAL FREE ENERGY PREDICTED BY IDOCK:   -6.92 KCAL/MOL
REMARK 923 INTER-LIGAND FREE ENERGY PREDICTED BY IDOCK:   -6.01 KCAL/MOL
REMARK 924 INTRA-LIGAND FREE ENERGY PREDICTED BY IDOCK:   -0.92 KCAL/MOL
REMARK 927      BINDING AFFINITY PREDICTED BY RF-SCORE:    0.00 PKD
ROOT
HETATM    1  C   UNL     1     -11.954  14.143  68.778  1.00  0.00    -0.367 C  
HETATM    2  C   UNL     1     -11.265  12.792  68.736  1.00  0.00    -0.327 C  
ENDROOT
BRANCH   2   3
HETATM    3  C   UNL     1     -11.572  11.965  67.484  1.00  0.00    -0.304 C  
BRANCH   3   4
HETATM    4  N   UNL     1     -10.509  11.961  66.397  1.00  0.00    -0.217 N  
BRANCH   4   5
HETATM    5  C   UNL     1     -10.156  10.555  65.973  1.00  0.00    -0.256 C  
BRANCH   5   6
HETATM    6  C   UNL     1     -10.392   9.466  67.024  1.00  0.00    -0.322 C  
HETATM    7  C   UNL     1      -9.570   8.205  66.814  1.00  0.00    -0.281 C  
ENDBRANCH   5   6
ENDBRANCH   4   5
BRANCH   4   8
HETATM    8  S   UNL     1     -11.010  12.993  65.067  1.00  0.00    -0.311 S  
HETATM    9  O   UNL     1     -10.354  12.595  63.843  1.00  0.00    -0.417 OA 
HETATM   10  O   UNL     1     -12.452  13.116  65.128  1.00  0.00    -0.448 OA 
BRANCH   8  11
HETATM   11  C   UNL     1     -10.303  14.591  65.448  1.00  0.00    -0.382 A  
HETATM   12  C   UNL     1     -11.001  15.748  65.072  1.00  0.00    -0.431 A  
HETATM   13  C   UNL     1     -10.594  16.997  65.552  1.00  0.00    -0.184 A  
HETATM   14  C   UNL     1      -9.488  17.090  66.408  1.00  0.00    -0.294 A  
HETATM   15  C   UNL     1      -9.047  18.381  67.001  1.00  0.00    -0.274 C  
HETATM   16  C   UNL     1      -8.807  15.926  66.794  1.00  0.00    -0.294 A  
HETATM   17  O   UNL     1      -9.203  19.437  66.178  1.00  0.00    -0.352 OA 
HETATM   18  C   UNL     1      -9.211  14.676  66.315  1.00  0.00    -0.257 A  
HETATM   19  O   UNL     1      -8.545  18.468  68.108  1.00  0.00    -0.286 OA 
ENDBRANCH   8  11
ENDBRANCH   4   8
ENDBRANCH   3   4
ENDBRANCH   2   3
TORSDOF 6
ENDMDL
MODEL       55
REMARK 921   NORMALIZED FREE ENERGY PREDICTED BY IDOCK:   -4.54 KCAL/MOL
REMARK 922        TOTAL FREE ENERGY PREDICTED BY IDOCK:   -6.92 KCAL/MOL
REMARK 923 INTER-LIGAND FREE ENERGY PREDICTED BY IDOCK:   -6.41 KCAL/MOL
REMARK 924 INTRA-LIGAND FREE ENERGY PREDICTED BY IDOCK:   -0.51 KCAL/MOL
REMARK 927      BINDING AFFINITY PREDICTED BY RF-SCORE:    0.00 PKD
ROOT
HETATM    1  C   UNL     1     -13.000  10.010  71.379  1.00  0.00    -0.517 C  
HETATM    2  C   UNL     1     -12.347  11.275  70.852  1.00  0.00    -0.490 C  
ENDROOT
BRANCH   2   3
HETATM    3  C   UNL     1     -11.849  11.174  69.407  1.00  0.00    -0.345 C  
BRANCH   3   4
HETATM    4  N   UNL     1     -11.860  12.459  68.594  1.00  0.00    -0.317 N  
BRANCH   4   5
HETATM    5  C   UNL     1     -11.172  13.584  69.330  1.00  0.00    -0.231 C  
BRANCH   5   6
HETATM    6  C   UNL     1     -12.032  14.821  69.606  1.00  0.00    -0.360 C  
HETATM    7  C   UNL     1     -11.245  16.115  69.734  1.00  0.00    -0.343 C  
ENDBRANCH   5   6
ENDBRANCH   4   5
BRANCH   4   8
HETATM    8  S   UNL     1     -11.204  12.159  66.993  1.00  0.00    -0.334 S  
HETATM    9  O   UNL     1     -10.337  11.005  67.010  1.00  0.00    -0.209 OA 
HETATM   10  O   UNL     1     -12.299  12.249  66.049  1.00  0.00    -0.609 OA 
BRANCH   8  11
HETATM   11  C   UNL     1     -10.103  13.536  66.693  1.00  0.00    -0.277 A  
HETATM   12  C   UNL     1     -10.620  14.706  66.121  1.00  0.00    -0.314 A  
HETATM   13  C   UNL     1      -9.844  15.870  66.086  1.00  0.00    -0.343 A  
HETATM   14  C   UNL     1      -8.550  15.862  66.622  1.00  0.00    -0.320 A  
HETATM   15  C   UNL     1      -7.702  17.084  66.670  1.00  0.00    -0.267 C  
HETATM   16  C   UNL     1      -8.046  14.692  67.210  1.00  0.00    -0.230 A  
HETATM   17  O   UNL     1      -7.858  17.895  65.606  1.00  0.00    -0.534 OA 
HETATM   18  C   UNL     1      -8.820  13.528  67.246  1.00  0.00    -0.225 A  
HETATM   19  O   UNL     1      -6.904  17.305  67.565  1.00  0.00    -0.144 OA 
ENDBRANCH   8  11
ENDBRANCH   4   8
ENDBRANCH   3   4
ENDBRANCH   2   3
TORSDOF 6
ENDMDL
MODEL       56
REMARK 921   NORMALIZED FREE ENERGY PREDICTED BY IDOCK:   -4.54 KCAL/MOL
REMARK 922        TOTAL FREE ENERGY PREDICTED BY IDOCK:   -6.92 KCAL/MOL
REMARK 923 INTER-LIGAND FREE ENERGY PREDICTED BY IDOCK:   -6.28 KCAL/MOL
REMARK 924 INTRA-LIGAND FREE ENERGY PREDICTED BY IDOCK:   -0.64 KCAL/MOL
REMARK 927      BINDING AFFINITY PREDICTED BY RF-SCORE:    0.00 PKD
ROOT
HETATM    1  C   UNL     1      -8.877  16.003  66.562  1.00  0.00    -0.340 C  
HETATM    2  C   UNL     1     -10.077  16.469  65.760  1.00  0.00    -0.328 C  
ENDROOT
BRANCH   2   3
HETATM    3  C   UNL     1     -10.848  15.343  65.064  1.00  0.00    -0.444 C  
BRANCH   3   4
HETATM    4  N   UNL     1     -11.155  14.112  65.903  1.00  0.00    -0.302 N  
BRANCH   4   5
HETATM    5  C   UNL     1     -12.241  14.389  66.914  1.00  0.00    -0.267 C  
BRANCH   5   6
HETATM    6  C   UNL     1     -11.827  14.265  68.384  1.00  0.00    -0.373 C  
HETATM    7  C   UNL     1     -11.590  15.594  69.082  1.00  0.00    -0.393 C  
ENDBRANCH   5   6
ENDBRANCH   4   5
BRANCH   4   8
HETATM    8  S   UNL     1     -11.500  12.746  64.854  1.00  0.00    -0.336 S  
HETATM    9  O   UNL     1     -12.914  12.454  64.853  1.00  0.00    -0.762 OA 
HETATM   10  O   UNL     1     -10.787  12.958  63.611  1.00  0.00    -0.379 OA 
BRANCH   8  11
HETATM   11  C   UNL     1     -10.760  11.345  65.683  1.00  0.00    -0.242 A  
HETATM   12  C   UNL     1     -11.149  11.052  66.998  1.00  0.00    -0.311 A  
HETATM   13  C   UNL     1     -10.765   9.842  67.588  1.00  0.00    -0.339 A  
HETATM   14  C   UNL     1      -9.991   8.927  66.863  1.00  0.00    -0.315 A  
HETATM   15  C   UNL     1      -9.607   7.599  67.413  1.00  0.00    -0.147 C  
HETATM   16  C   UNL     1      -9.623   9.219  65.541  1.00  0.00    -0.291 A  
HETATM   17  O   UNL     1      -9.357   7.612  68.737  1.00  0.00    -0.149 OA 
HETATM   18  C   UNL     1     -10.004  10.428  64.950  1.00  0.00    -0.409 A  
HETATM   19  O   UNL     1      -9.482   6.603  66.721  1.00  0.00    -0.150 OA 
ENDBRANCH   8  11
ENDBRANCH   4   8
ENDBRANCH   3   4
ENDBRANCH   2   3
TORSDOF 6
ENDMDL
MODEL       57
REMARK 921   NORMALIZED FREE ENERGY PREDICTED BY IDOCK:   -4.52 KCAL/MOL
REMARK 922        TOTAL FREE ENERGY PREDICTED BY IDOCK:   -6.89 KCAL/MOL
REMARK 923 INTER-LIGAND FREE ENERGY PREDICTED BY IDOCK:   -6.24 KCAL/MOL
REMARK 924 INTRA-LIGAND FREE ENERGY PREDICTED BY IDOCK:   -0.65 KCAL/MOL
REMARK 927      BINDING AFFINITY PREDICTED BY RF-SCORE:    0.00 PKD
ROOT
HETATM    1  C   UNL     1      -8.252   9.521  66.040  1.00  0.00    -0.115 C  
HETATM    2  C   UNL     1      -8.595  10.998  66.106  1.00  0.00    -0.175 C  
ENDROOT
BRANCH   2   3
HETATM    3  C   UNL     1      -9.308  11.424  67.393  1.00  0.00    -0.167 C  
BRANCH   3   4
HETATM    4  N   UNL     1      -9.950  12.802  67.389  1.00  0.00    -0.210 N  
BRANCH   4   5
HETATM    5  C   UNL     1      -9.484  13.625  66.212  1.00  0.00    -0.191 C  
BRANCH   5   6
HETATM    6  C   UNL     1      -9.308  15.124  66.477  1.00  0.00    -0.308 C  
HETATM    7  C   UNL     1     -10.192  16.018  65.623  1.00  0.00    -0.412 C  
ENDBRANCH   5   6
ENDBRANCH   4   5
BRANCH   4   8
HETATM    8  S   UNL     1     -11.696  12.648  67.494  1.00  0.00    -0.340 S  
HETATM    9  O   UNL     1     -12.333  13.377  66.423  1.00  0.00    -0.387 OA 
HETATM   10  O   UNL     1     -11.999  11.250  67.722  1.00  0.00    -0.637 OA 
BRANCH   8  11
HETATM   11  C   UNL     1     -12.138  13.556  68.970  1.00  0.00    -0.291 A  
HETATM   12  C   UNL     1     -12.458  12.843  70.134  1.00  0.00    -0.144 A  
HETATM   13  C   UNL     1     -12.584  13.515  71.355  1.00  0.00    -0.398 A  
HETATM   14  C   UNL     1     -12.389  14.902  71.411  1.00  0.00    -0.397 A  
HETATM   15  C   UNL     1     -12.446  15.662  72.688  1.00  0.00    -0.428 C  
HETATM   16  C   UNL     1     -12.050  15.605  70.245  1.00  0.00    -0.413 A  
HETATM   17  O   UNL     1     -13.363  15.194  73.558  1.00  0.00    -0.467 OA 
HETATM   18  C   UNL     1     -11.925  14.935  69.025  1.00  0.00    -0.307 A  
HETATM   19  O   UNL     1     -11.762  16.646  72.908  1.00  0.00    -0.452 OA 
ENDBRANCH   8  11
ENDBRANCH   4   8
ENDBRANCH   3   4
ENDBRANCH   2   3
TORSDOF 6
ENDMDL
MODEL       58
REMARK 921   NORMALIZED FREE ENERGY PREDICTED BY IDOCK:   -4.51 KCAL/MOL
REMARK 922        TOTAL FREE ENERGY PREDICTED BY IDOCK:   -6.87 KCAL/MOL
REMARK 923 INTER-LIGAND FREE ENERGY PREDICTED BY IDOCK:   -6.18 KCAL/MOL
REMARK 924 INTRA-LIGAND FREE ENERGY PREDICTED BY IDOCK:   -0.70 KCAL/MOL
REMARK 927      BINDING AFFINITY PREDICTED BY RF-SCORE:    0.00 PKD
ROOT
HETATM    1  C   UNL     1     -10.506  19.607  66.857  1.00  0.00    -0.606 C  
HETATM    2  C   UNL     1     -10.331  18.358  67.700  1.00  0.00    -0.427 C  
ENDROOT
BRANCH   2   3
HETATM    3  C   UNL     1     -10.242  17.058  66.893  1.00  0.00    -0.305 C  
BRANCH   3   4
HETATM    4  N   UNL     1     -10.524  15.770  67.649  1.00  0.00    -0.276 N  
BRANCH   4   5
HETATM    5  C   UNL     1     -11.491  15.996  68.786  1.00  0.00    -0.375 C  
BRANCH   5   6
HETATM    6  C   UNL     1     -11.067  15.426  70.143  1.00  0.00    -0.324 C  
HETATM    7  C   UNL     1     -11.745  16.079  71.336  1.00  0.00    -0.536 C  
ENDBRANCH   5   6
ENDBRANCH   4   5
BRANCH   4   8
HETATM    8  S   UNL     1     -11.035  14.519  66.528  1.00  0.00    -0.327 S  
HETATM    9  O   UNL     1     -12.462  14.581  66.317  1.00  0.00    -0.316 OA 
HETATM   10  O   UNL     1     -10.119  14.537  65.405  1.00  0.00    -0.345 OA 
BRANCH   8  11
HETATM   11  C   UNL     1     -10.785  12.988  67.418  1.00  0.00    -0.245 A  
HETATM   12  C   UNL     1      -9.476  12.564  67.684  1.00  0.00    -0.188 A  
HETATM   13  C   UNL     1      -9.250  11.503  68.567  1.00  0.00    -0.167 A  
HETATM   14  C   UNL     1     -10.334  10.865  69.184  1.00  0.00    -0.228 A  
HETATM   15  C   UNL     1     -10.154   9.775  70.180  1.00  0.00    -0.265 C  
HETATM   16  C   UNL     1     -11.641  11.308  68.928  1.00  0.00    -0.386 A  
HETATM   17  O   UNL     1      -9.111   8.964  69.915  1.00  0.00    -0.149 OA 
HETATM   18  C   UNL     1     -11.869  12.368  68.045  1.00  0.00    -0.376 A  
HETATM   19  O   UNL     1     -10.910   9.601  71.121  1.00  0.00    -0.337 OA 
ENDBRANCH   8  11
ENDBRANCH   4   8
ENDBRANCH   3   4
ENDBRANCH   2   3
TORSDOF 6
ENDMDL
MODEL       59
REMARK 921   NORMALIZED FREE ENERGY PREDICTED BY IDOCK:   -4.50 KCAL/MOL
REMARK 922        TOTAL FREE ENERGY PREDICTED BY IDOCK:   -6.87 KCAL/MOL
REMARK 923 INTER-LIGAND FREE ENERGY PREDICTED BY IDOCK:   -6.14 KCAL/MOL
REMARK 924 INTRA-LIGAND FREE ENERGY PREDICTED BY IDOCK:   -0.73 KCAL/MOL
REMARK 927      BINDING AFFINITY PREDICTED BY RF-SCORE:    0.00 PKD
ROOT
HETATM    1  C   UNL     1     -10.831   7.105  71.529  1.00  0.00    -0.250 C  
HETATM    2  C   UNL     1     -10.097   8.114  70.666  1.00  0.00    -0.209 C  
ENDROOT
BRANCH   2   3
HETATM    3  C   UNL     1     -10.726   8.345  69.289  1.00  0.00    -0.126 C  
BRANCH   3   4
HETATM    4  N   UNL     1     -10.944   9.793  68.877  1.00  0.00    -0.188 N  
BRANCH   4   5
HETATM    5  C   UNL     1     -11.081  10.696  70.079  1.00  0.00    -0.289 C  
BRANCH   5   6
HETATM    6  C   UNL     1     -12.517  11.033  70.495  1.00  0.00    -0.432 C  
HETATM    7  C   UNL     1     -13.026  10.237  71.686  1.00  0.00    -0.570 C  
ENDBRANCH   5   6
ENDBRANCH   4   5
BRANCH   4   8
HETATM    8  S   UNL     1      -9.683  10.291  67.761  1.00  0.00    -0.159 S  
HETATM    9  O   UNL     1      -8.512  10.728  68.484  1.00  0.00    -0.128 OA 
HETATM   10  O   UNL     1      -9.582   9.276  66.732  1.00  0.00    -0.158 OA 
BRANCH   8  11
HETATM   11  C   UNL     1     -10.316  11.783  67.004  1.00  0.00    -0.214 A  
HETATM   12  C   UNL     1      -9.411  12.767  66.584  1.00  0.00    -0.242 A  
HETATM   13  C   UNL     1      -9.853  13.830  65.789  1.00  0.00    -0.242 A  
HETATM   14  C   UNL     1     -11.201  13.910  65.416  1.00  0.00    -0.306 A  
HETATM   15  C   UNL     1     -11.717  14.980  64.521  1.00  0.00    -0.368 C  
HETATM   16  C   UNL     1     -12.097  12.910  65.825  1.00  0.00    -0.513 A  
HETATM   17  O   UNL     1     -11.119  16.174  64.703  1.00  0.00    -0.598 OA 
HETATM   18  C   UNL     1     -11.658  11.847  66.620  1.00  0.00    -0.337 A  
HETATM   19  O   UNL     1     -12.628  14.806  63.731  1.00  0.00    -0.806 OA 
ENDBRANCH   8  11
ENDBRANCH   4   8
ENDBRANCH   3   4
ENDBRANCH   2   3
TORSDOF 6
ENDMDL
MODEL       60
REMARK 921   NORMALIZED FREE ENERGY PREDICTED BY IDOCK:   -4.50 KCAL/MOL
REMARK 922        TOTAL FREE ENERGY PREDICTED BY IDOCK:   -6.86 KCAL/MOL
REMARK 923 INTER-LIGAND FREE ENERGY PREDICTED BY IDOCK:   -5.99 KCAL/MOL
REMARK 924 INTRA-LIGAND FREE ENERGY PREDICTED BY IDOCK:   -0.86 KCAL/MOL
REMARK 927      BINDING AFFINITY PREDICTED BY RF-SCORE:    0.00 PKD
ROOT
HETATM    1  C   UNL     1      -9.284  10.012  64.004  1.00  0.00    -0.318 C  
HETATM    2  C   UNL     1      -9.209   9.256  65.317  1.00  0.00    -0.275 C  
ENDROOT
BRANCH   2   3
HETATM    3  C   UNL     1     -10.377   9.528  66.270  1.00  0.00    -0.156 C  
BRANCH   3   4
HETATM    4  N   UNL     1     -10.133  10.554  67.366  1.00  0.00    -0.188 N  
BRANCH   4   5
HETATM    5  C   UNL     1      -8.673  10.624  67.743  1.00  0.00    -0.129 C  
BRANCH   5   6
HETATM    6  C   UNL     1      -8.368  10.510  69.241  1.00  0.00    -0.144 C  
HETATM    7  C   UNL     1      -8.996   9.303  69.917  1.00  0.00    -0.194 C  
ENDBRANCH   5   6
ENDBRANCH   4   5
BRANCH   4   8
HETATM    8  S   UNL     1     -10.814  12.103  66.896  1.00  0.00    -0.262 S  
HETATM    9  O   UNL     1      -9.766  13.077  66.697  1.00  0.00    -0.243 OA 
HETATM   10  O   UNL     1     -11.798  11.852  65.862  1.00  0.00    -0.466 OA 
BRANCH   8  11
HETATM   11  C   UNL     1     -11.678  12.675  68.353  1.00  0.00    -0.333 A  
HETATM   12  C   UNL     1     -11.922  11.770  69.396  1.00  0.00    -0.361 A  
HETATM   13  C   UNL     1     -12.386  12.234  70.631  1.00  0.00    -0.375 A  
HETATM   14  C   UNL     1     -12.607  13.605  70.823  1.00  0.00    -0.397 A  
HETATM   15  C   UNL     1     -13.038  14.165  72.132  1.00  0.00    -0.401 C  
HETATM   16  C   UNL     1     -12.342  14.506  69.781  1.00  0.00    -0.317 A  
HETATM   17  O   UNL     1     -13.881  13.365  72.813  1.00  0.00    -0.720 OA 
HETATM   18  C   UNL     1     -11.880  14.043  68.545  1.00  0.00    -0.399 A  
HETATM   19  O   UNL     1     -12.698  15.266  72.529  1.00  0.00    -0.315 OA 
ENDBRANCH   8  11
ENDBRANCH   4   8
ENDBRANCH   3   4
ENDBRANCH   2   3
TORSDOF 6
ENDMDL
MODEL       61
REMARK 921   NORMALIZED FREE ENERGY PREDICTED BY IDOCK:   -4.49 KCAL/MOL
REMARK 922        TOTAL FREE ENERGY PREDICTED BY IDOCK:   -6.85 KCAL/MOL
REMARK 923 INTER-LIGAND FREE ENERGY PREDICTED BY IDOCK:   -6.38 KCAL/MOL
REMARK 924 INTRA-LIGAND FREE ENERGY PREDICTED BY IDOCK:   -0.48 KCAL/MOL
REMARK 927      BINDING AFFINITY PREDICTED BY RF-SCORE:    0.00 PKD
ROOT
HETATM    1  C   UNL     1     -12.474  12.354  63.855  1.00  0.00    -0.573 C  
HETATM    2  C   UNL     1     -12.617  13.154  65.136  1.00  0.00    -0.525 C  
ENDROOT
BRANCH   2   3
HETATM    3  C   UNL     1     -11.951  12.514  66.358  1.00  0.00    -0.318 C  
BRANCH   3   4
HETATM    4  N   UNL     1     -11.449  13.466  67.433  1.00  0.00    -0.315 N  
BRANCH   4   5
HETATM    5  C   UNL     1     -11.812  12.980  68.815  1.00  0.00    -0.317 C  
BRANCH   5   6
HETATM    6  C   UNL     1     -11.848  11.459  68.997  1.00  0.00    -0.415 C  
HETATM    7  C   UNL     1     -11.748  10.999  70.442  1.00  0.00    -0.437 C  
ENDBRANCH   5   6
ENDBRANCH   4   5
BRANCH   4   8
HETATM    8  S   UNL     1      -9.731  13.758  67.217  1.00  0.00    -0.249 S  
HETATM    9  O   UNL     1      -9.014  13.482  68.440  1.00  0.00    -0.184 OA 
HETATM   10  O   UNL     1      -9.335  13.136  65.970  1.00  0.00    -0.153 OA 
BRANCH   8  11
HETATM   11  C   UNL     1      -9.598  15.530  67.017  1.00  0.00    -0.224 A  
HETATM   12  C   UNL     1     -10.601  16.350  67.553  1.00  0.00    -0.309 A  
HETATM   13  C   UNL     1     -10.413  17.735  67.614  1.00  0.00    -0.393 A  
HETATM   14  C   UNL     1      -9.222  18.300  67.139  1.00  0.00    -0.264 A  
HETATM   15  C   UNL     1      -8.939  19.757  67.236  1.00  0.00    -0.326 C  
HETATM   16  C   UNL     1      -8.215  17.470  66.623  1.00  0.00    -0.288 A  
HETATM   17  O   UNL     1     -10.027  20.534  67.070  1.00  0.00    -0.453 OA 
HETATM   18  C   UNL     1      -8.401  16.086  66.559  1.00  0.00    -0.348 A  
HETATM   19  O   UNL     1      -7.818  20.208  67.402  1.00  0.00    -0.289 OA 
ENDBRANCH   8  11
ENDBRANCH   4   8
ENDBRANCH   3   4
ENDBRANCH   2   3
TORSDOF 6
ENDMDL
MODEL       62
REMARK 921   NORMALIZED FREE ENERGY PREDICTED BY IDOCK:   -4.49 KCAL/MOL
REMARK 922        TOTAL FREE ENERGY PREDICTED BY IDOCK:   -6.85 KCAL/MOL
REMARK 923 INTER-LIGAND FREE ENERGY PREDICTED BY IDOCK:   -6.12 KCAL/MOL
REMARK 924 INTRA-LIGAND FREE ENERGY PREDICTED BY IDOCK:   -0.74 KCAL/MOL
REMARK 927      BINDING AFFINITY PREDICTED BY RF-SCORE:    0.00 PKD
ROOT
HETATM    1  C   UNL     1      -9.157  11.024  62.515  1.00  0.00    -0.362 C  
HETATM    2  C   UNL     1      -8.975  10.687  63.983  1.00  0.00    -0.210 C  
ENDROOT
BRANCH   2   3
HETATM    3  C   UNL     1     -10.282  10.586  64.775  1.00  0.00    -0.303 C  
BRANCH   3   4
HETATM    4  N   UNL     1     -10.504  11.633  65.855  1.00  0.00    -0.247 N  
BRANCH   4   5
HETATM    5  C   UNL     1     -11.879  12.249  65.754  1.00  0.00    -0.352 C  
BRANCH   5   6
HETATM    6  C   UNL     1     -11.979  13.513  64.895  1.00  0.00    -0.410 C  
HETATM    7  C   UNL     1     -10.671  14.274  64.746  1.00  0.00    -0.435 C  
ENDBRANCH   5   6
ENDBRANCH   4   5
BRANCH   4   8
HETATM    8  S   UNL     1     -10.153  10.947  67.433  1.00  0.00    -0.198 S  
HETATM    9  O   UNL     1     -11.026   9.829  67.704  1.00  0.00    -0.280 OA 
HETATM   10  O   UNL     1      -8.715  10.806  67.538  1.00  0.00    -0.125 OA 
BRANCH   8  11
HETATM   11  C   UNL     1     -10.670  12.204  68.595  1.00  0.00    -0.233 A  
HETATM   12  C   UNL     1     -10.186  13.511  68.440  1.00  0.00    -0.245 A  
HETATM   13  C   UNL     1     -10.744  14.557  69.184  1.00  0.00    -0.263 A  
HETATM   14  C   UNL     1     -11.786  14.295  70.084  1.00  0.00    -0.379 A  
HETATM   15  C   UNL     1     -12.461  15.373  70.854  1.00  0.00    -0.418 C  
HETATM   16  C   UNL     1     -12.278  12.987  70.218  1.00  0.00    -0.368 A  
HETATM   17  O   UNL     1     -11.635  16.367  71.235  1.00  0.00    -0.414 OA 
HETATM   18  C   UNL     1     -11.721  11.941  69.477  1.00  0.00    -0.410 A  
HETATM   19  O   UNL     1     -13.642  15.336  71.155  1.00  0.00    -0.466 OA 
ENDBRANCH   8  11
ENDBRANCH   4   8
ENDBRANCH   3   4
ENDBRANCH   2   3
TORSDOF 6
ENDMDL
MODEL       63
REMARK 921   NORMALIZED FREE ENERGY PREDICTED BY IDOCK:   -4.49 KCAL/MOL
REMARK 922        TOTAL FREE ENERGY PREDICTED BY IDOCK:   -6.85 KCAL/MOL
REMARK 923 INTER-LIGAND FREE ENERGY PREDICTED BY IDOCK:   -5.89 KCAL/MOL
REMARK 924 INTRA-LIGAND FREE ENERGY PREDICTED BY IDOCK:   -0.96 KCAL/MOL
REMARK 927      BINDING AFFINITY PREDICTED BY RF-SCORE:    0.00 PKD
ROOT
HETATM    1  C   UNL     1     -10.549   9.203  67.397  1.00  0.00    -0.315 C  
HETATM    2  C   UNL     1     -10.381  10.452  66.553  1.00  0.00    -0.287 C  
ENDROOT
BRANCH   2   3
HETATM    3  C   UNL     1     -11.244  11.637  66.999  1.00  0.00    -0.314 C  
BRANCH   3   4
HETATM    4  N   UNL     1     -10.565  12.997  67.027  1.00  0.00    -0.256 N  
BRANCH   4   5
HETATM    5  C   UNL     1      -9.083  12.882  66.763  1.00  0.00    -0.211 C  
BRANCH   5   6
HETATM    6  C   UNL     1      -8.170  13.545  67.800  1.00  0.00    -0.176 C  
HETATM    7  C   UNL     1      -7.679  14.929  67.406  1.00  0.00    -0.231 C  
ENDBRANCH   5   6
ENDBRANCH   4   5
BRANCH   4   8
HETATM    8  S   UNL     1     -11.391  14.099  65.939  1.00  0.00    -0.330 S  
HETATM    9  O   UNL     1     -10.764  14.091  64.638  1.00  0.00    -0.407 OA 
HETATM   10  O   UNL     1     -12.814  13.865  66.075  1.00  0.00    -0.430 OA 
BRANCH   8  11
HETATM   11  C   UNL     1     -11.035  15.726  66.590  1.00  0.00    -0.179 A  
HETATM   12  C   UNL     1     -11.171  15.950  67.967  1.00  0.00    -0.319 A  
HETATM   13  C   UNL     1     -10.685  17.132  68.536  1.00  0.00    -0.326 A  
HETATM   14  C   UNL     1     -10.063  18.092  67.726  1.00  0.00    -0.359 A  
HETATM   15  C   UNL     1      -9.470  19.338  68.282  1.00  0.00    -0.359 C  
HETATM   16  C   UNL     1      -9.913  17.852  66.352  1.00  0.00    -0.358 A  
HETATM   17  O   UNL     1     -10.159  19.850  69.321  1.00  0.00    -0.389 OA 
HETATM   18  C   UNL     1     -10.399  16.671  65.782  1.00  0.00    -0.338 A  
HETATM   19  O   UNL     1      -8.482  19.873  67.810  1.00  0.00    -0.307 OA 
ENDBRANCH   8  11
ENDBRANCH   4   8
ENDBRANCH   3   4
ENDBRANCH   2   3
TORSDOF 6
ENDMDL
MODEL       64
REMARK 921   NORMALIZED FREE ENERGY PREDICTED BY IDOCK:   -4.48 KCAL/MOL
REMARK 922        TOTAL FREE ENERGY PREDICTED BY IDOCK:   -6.84 KCAL/MOL
REMARK 923 INTER-LIGAND FREE ENERGY PREDICTED BY IDOCK:   -6.13 KCAL/MOL
REMARK 924 INTRA-LIGAND FREE ENERGY PREDICTED BY IDOCK:   -0.71 KCAL/MOL
REMARK 927      BINDING AFFINITY PREDICTED BY RF-SCORE:    0.00 PKD
ROOT
HETATM    1  C   UNL     1     -14.043   8.884  72.089  1.00  0.00    -0.497 C  
HETATM    2  C   UNL     1     -13.913   7.445  71.626  1.00  0.00    -0.523 C  
ENDROOT
BRANCH   2   3
HETATM    3  C   UNL     1     -12.492   6.880  71.710  1.00  0.00    -0.356 C  
BRANCH   3   4
HETATM    4  N   UNL     1     -11.357   7.855  71.433  1.00  0.00    -0.247 N  
BRANCH   4   5
HETATM    5  C   UNL     1     -10.465   8.022  72.640  1.00  0.00    -0.339 C  
BRANCH   5   6
HETATM    6  C   UNL     1     -10.566   6.920  73.699  1.00  0.00    -0.371 C  
HETATM    7  C   UNL     1      -9.225   6.412  74.203  1.00  0.00    -0.181 C  
ENDBRANCH   5   6
ENDBRANCH   4   5
BRANCH   4   8
HETATM    8  S   UNL     1     -10.496   7.371  69.982  1.00  0.00    -0.230 S  
HETATM    9  O   UNL     1      -9.095   7.168  70.269  1.00  0.00    -0.155 OA 
HETATM   10  O   UNL     1     -11.276   6.336  69.334  1.00  0.00    -0.382 OA 
BRANCH   8  11
HETATM   11  C   UNL     1     -10.527   8.821  68.936  1.00  0.00    -0.197 A  
HETATM   12  C   UNL     1     -10.052   8.718  67.621  1.00  0.00    -0.273 A  
HETATM   13  C   UNL     1     -10.273   9.761  66.714  1.00  0.00    -0.300 A  
HETATM   14  C   UNL     1     -10.968  10.907  67.123  1.00  0.00    -0.334 A  
HETATM   15  C   UNL     1     -11.288  12.019  66.189  1.00  0.00    -0.351 C  
HETATM   16  C   UNL     1     -11.457  10.993  68.436  1.00  0.00    -0.378 A  
HETATM   17  O   UNL     1     -10.329  12.250  65.271  1.00  0.00    -0.268 OA 
HETATM   18  C   UNL     1     -11.237   9.953  69.343  1.00  0.00    -0.196 A  
HETATM   19  O   UNL     1     -12.301  12.691  66.277  1.00  0.00    -0.550 OA 
ENDBRANCH   8  11
ENDBRANCH   4   8
ENDBRANCH   3   4
ENDBRANCH   2   3
TORSDOF 6
ENDMDL
MODEL       65
REMARK 921   NORMALIZED FREE ENERGY PREDICTED BY IDOCK:   -4.47 KCAL/MOL
REMARK 922        TOTAL FREE ENERGY PREDICTED BY IDOCK:   -6.82 KCAL/MOL
REMARK 923 INTER-LIGAND FREE ENERGY PREDICTED BY IDOCK:   -6.28 KCAL/MOL
REMARK 924 INTRA-LIGAND FREE ENERGY PREDICTED BY IDOCK:   -0.54 KCAL/MOL
REMARK 927      BINDING AFFINITY PREDICTED BY RF-SCORE:    0.00 PKD
ROOT
HETATM    1  C   UNL     1     -11.901  12.562  63.491  1.00  0.00    -0.616 C  
HETATM    2  C   UNL     1     -10.569  12.837  64.165  1.00  0.00    -0.441 C  
ENDROOT
BRANCH   2   3
HETATM    3  C   UNL     1     -10.540  14.115  65.008  1.00  0.00    -0.419 C  
BRANCH   3   4
HETATM    4  N   UNL     1     -10.103  13.962  66.457  1.00  0.00    -0.279 N  
BRANCH   4   5
HETATM    5  C   UNL     1      -9.061  14.989  66.831  1.00  0.00    -0.247 C  
BRANCH   5   6
HETATM    6  C   UNL     1      -9.203  16.356  66.155  1.00  0.00    -0.365 C  
HETATM    7  C   UNL     1      -9.215  17.532  67.118  1.00  0.00    -0.245 C  
ENDBRANCH   5   6
ENDBRANCH   4   5
BRANCH   4   8
HETATM    8  S   UNL     1     -11.509  13.968  67.509  1.00  0.00    -0.364 S  
HETATM    9  O   UNL     1     -11.457  15.091  68.415  1.00  0.00    -0.295 OA 
HETATM   10  O   UNL     1     -12.676  13.738  66.681  1.00  0.00    -0.233 OA 
BRANCH   8  11
HETATM   11  C   UNL     1     -11.289  12.540  68.562  1.00  0.00    -0.297 A  
HETATM   12  C   UNL     1     -12.005  12.468  69.765  1.00  0.00    -0.359 A  
HETATM   13  C   UNL     1     -12.031  11.273  70.493  1.00  0.00    -0.467 A  
HETATM   14  C   UNL     1     -11.340  10.151  70.018  1.00  0.00    -0.351 A  
HETATM   15  C   UNL     1     -11.383   8.837  70.713  1.00  0.00    -0.272 C  
HETATM   16  C   UNL     1     -10.642  10.225  68.803  1.00  0.00    -0.231 A  
HETATM   17  O   UNL     1     -11.426   8.935  72.056  1.00  0.00    -0.352 OA 
HETATM   18  C   UNL     1     -10.614  11.418  68.074  1.00  0.00    -0.224 A  
HETATM   19  O   UNL     1     -11.335   7.770  70.125  1.00  0.00    -0.225 OA 
ENDBRANCH   8  11
ENDBRANCH   4   8
ENDBRANCH   3   4
ENDBRANCH   2   3
TORSDOF 6
ENDMDL
MODEL       66
REMARK 921   NORMALIZED FREE ENERGY PREDICTED BY IDOCK:   -4.43 KCAL/MOL
REMARK 922        TOTAL FREE ENERGY PREDICTED BY IDOCK:   -6.77 KCAL/MOL
REMARK 923 INTER-LIGAND FREE ENERGY PREDICTED BY IDOCK:   -5.78 KCAL/MOL
REMARK 924 INTRA-LIGAND FREE ENERGY PREDICTED BY IDOCK:   -0.99 KCAL/MOL
REMARK 927      BINDING AFFINITY PREDICTED BY RF-SCORE:    0.00 PKD
ROOT
HETATM    1  C   UNL     1     -12.101  13.398  64.636  1.00  0.00    -0.456 C  
HETATM    2  C   UNL     1     -10.926  14.354  64.548  1.00  0.00    -0.290 C  
ENDROOT
BRANCH   2   3
HETATM    3  C   UNL     1     -11.000  15.538  65.517  1.00  0.00    -0.324 C  
BRANCH   3   4
HETATM    4  N   UNL     1      -9.912  15.617  66.576  1.00  0.00    -0.261 N  
BRANCH   4   5
HETATM    5  C   UNL     1      -9.391  17.026  66.730  1.00  0.00    -0.252 C  
BRANCH   5   6
HETATM    6  C   UNL     1     -10.335  18.138  66.262  1.00  0.00    -0.407 C  
HETATM    7  C   UNL     1     -10.572  19.232  67.291  1.00  0.00    -0.590 C  
ENDBRANCH   5   6
ENDBRANCH   4   5
BRANCH   4   8
HETATM    8  S   UNL     1     -10.487  14.910  68.077  1.00  0.00    -0.249 S  
HETATM    9  O   UNL     1      -9.587  15.224  69.161  1.00  0.00    -0.217 OA 
HETATM   10  O   UNL     1     -11.903  15.199  68.182  1.00  0.00    -0.333 OA 
BRANCH   8  11
HETATM   11  C   UNL     1     -10.300  13.147  67.844  1.00  0.00    -0.231 A  
HETATM   12  C   UNL     1     -11.420  12.319  68.005  1.00  0.00    -0.378 A  
HETATM   13  C   UNL     1     -11.361  10.978  67.610  1.00  0.00    -0.355 A  
HETATM   14  C   UNL     1     -10.181  10.465  67.055  1.00  0.00    -0.277 A  
HETATM   15  C   UNL     1     -10.078   9.066  66.558  1.00  0.00    -0.283 C  
HETATM   16  C   UNL     1      -9.071  11.305  66.879  1.00  0.00    -0.172 A  
HETATM   17  O   UNL     1     -10.781   8.178  67.288  1.00  0.00    -0.298 OA 
HETATM   18  C   UNL     1      -9.127  12.645  67.274  1.00  0.00    -0.191 A  
HETATM   19  O   UNL     1      -9.384   8.747  65.609  1.00  0.00    -0.214 OA 
ENDBRANCH   8  11
ENDBRANCH   4   8
ENDBRANCH   3   4
ENDBRANCH   2   3
TORSDOF 6
ENDMDL
MODEL       67
REMARK 921   NORMALIZED FREE ENERGY PREDICTED BY IDOCK:   -4.42 KCAL/MOL
REMARK 922        TOTAL FREE ENERGY PREDICTED BY IDOCK:   -6.76 KCAL/MOL
REMARK 923 INTER-LIGAND FREE ENERGY PREDICTED BY IDOCK:   -6.25 KCAL/MOL
REMARK 924 INTRA-LIGAND FREE ENERGY PREDICTED BY IDOCK:   -0.51 KCAL/MOL
REMARK 927      BINDING AFFINITY PREDICTED BY RF-SCORE:    0.00 PKD
ROOT
HETATM    1  C   UNL     1      -6.641  13.018  68.286  1.00  0.00    -0.094 C  
HETATM    2  C   UNL     1      -8.100  12.708  68.005  1.00  0.00    -0.161 C  
ENDROOT
BRANCH   2   3
HETATM    3  C   UNL     1      -8.804  13.736  67.114  1.00  0.00    -0.231 C  
BRANCH   3   4
HETATM    4  N   UNL     1      -9.882  13.202  66.184  1.00  0.00    -0.286 N  
BRANCH   4   5
HETATM    5  C   UNL     1     -10.048  11.708  66.329  1.00  0.00    -0.221 C  
BRANCH   5   6
HETATM    6  C   UNL     1      -9.871  10.893  65.044  1.00  0.00    -0.336 C  
HETATM    7  C   UNL     1      -9.451   9.450  65.271  1.00  0.00    -0.296 C  
ENDBRANCH   5   6
ENDBRANCH   4   5
BRANCH   4   8
HETATM    8  S   UNL     1     -11.372  14.102  66.418  1.00  0.00    -0.349 S  
HETATM    9  O   UNL     1     -11.193  15.484  66.039  1.00  0.00    -0.247 OA 
HETATM   10  O   UNL     1     -12.451  13.315  65.856  1.00  0.00    -0.426 OA 
BRANCH   8  11
HETATM   11  C   UNL     1     -11.592  14.155  68.191  1.00  0.00    -0.331 A  
HETATM   12  C   UNL     1     -11.754  15.398  68.818  1.00  0.00    -0.369 A  
HETATM   13  C   UNL     1     -12.154  15.460  70.157  1.00  0.00    -0.400 A  
HETATM   14  C   UNL     1     -12.391  14.278  70.870  1.00  0.00    -0.429 A  
HETATM   15  C   UNL     1     -12.879  14.280  72.276  1.00  0.00    -0.340 C  
HETATM   16  C   UNL     1     -12.246  13.037  70.231  1.00  0.00    -0.368 A  
HETATM   17  O   UNL     1     -12.384  15.288  73.020  1.00  0.00    -0.351 OA 
HETATM   18  C   UNL     1     -11.845  12.973  68.893  1.00  0.00    -0.358 A  
HETATM   19  O   UNL     1     -13.619  13.423  72.725  1.00  0.00    -0.656 OA 
ENDBRANCH   8  11
ENDBRANCH   4   8
ENDBRANCH   3   4
ENDBRANCH   2   3
TORSDOF 6
ENDMDL
MODEL       68
REMARK 921   NORMALIZED FREE ENERGY PREDICTED BY IDOCK:   -4.41 KCAL/MOL
REMARK 922        TOTAL FREE ENERGY PREDICTED BY IDOCK:   -6.74 KCAL/MOL
REMARK 923 INTER-LIGAND FREE ENERGY PREDICTED BY IDOCK:   -6.14 KCAL/MOL
REMARK 924 INTRA-LIGAND FREE ENERGY PREDICTED BY IDOCK:   -0.60 KCAL/MOL
REMARK 927      BINDING AFFINITY PREDICTED BY RF-SCORE:    0.00 PKD
ROOT
HETATM    1  C   UNL     1      -6.699  15.680  68.685  1.00  0.00    -0.115 C  
HETATM    2  C   UNL     1      -6.765  16.166  67.249  1.00  0.00    -0.233 C  
ENDROOT
BRANCH   2   3
HETATM    3  C   UNL     1      -7.780  17.288  67.008  1.00  0.00    -0.197 C  
BRANCH   3   4
HETATM    4  N   UNL     1      -8.553  17.776  68.223  1.00  0.00    -0.270 N  
BRANCH   4   5
HETATM    5  C   UNL     1      -8.252  19.224  68.526  1.00  0.00    -0.366 C  
BRANCH   5   6
HETATM    6  C   UNL     1      -7.673  20.039  67.365  1.00  0.00    -0.330 C  
HETATM    7  C   UNL     1      -6.438  20.848  67.724  1.00  0.00    -0.400 C  
ENDBRANCH   5   6
ENDBRANCH   4   5
BRANCH   4   8
HETATM    8  S   UNL     1     -10.264  17.440  68.016  1.00  0.00    -0.364 S  
HETATM    9  O   UNL     1     -10.811  16.844  69.212  1.00  0.00    -0.311 OA 
HETATM   10  O   UNL     1     -10.873  18.617  67.430  1.00  0.00    -0.439 OA 
BRANCH   8  11
HETATM   11  C   UNL     1     -10.321  16.127  66.803  1.00  0.00    -0.291 A  
HETATM   12  C   UNL     1     -10.193  14.800  67.235  1.00  0.00    -0.241 A  
HETATM   13  C   UNL     1     -10.461  13.748  66.351  1.00  0.00    -0.284 A  
HETATM   14  C   UNL     1     -10.855  14.025  65.035  1.00  0.00    -0.401 A  
HETATM   15  C   UNL     1     -11.214  12.952  64.070  1.00  0.00    -0.412 C  
HETATM   16  C   UNL     1     -11.000  15.357  64.617  1.00  0.00    -0.333 A  
HETATM   17  O   UNL     1     -10.477  11.832  64.205  1.00  0.00    -0.288 OA 
HETATM   18  C   UNL     1     -10.732  16.409  65.498  1.00  0.00    -0.300 A  
HETATM   19  O   UNL     1     -12.062  13.090  63.206  1.00  0.00    -0.569 OA 
ENDBRANCH   8  11
ENDBRANCH   4   8
ENDBRANCH   3   4
ENDBRANCH   2   3
TORSDOF 6
ENDMDL
MODEL       69
REMARK 921   NORMALIZED FREE ENERGY PREDICTED BY IDOCK:   -4.39 KCAL/MOL
REMARK 922        TOTAL FREE ENERGY PREDICTED BY IDOCK:   -6.71 KCAL/MOL
REMARK 923 INTER-LIGAND FREE ENERGY PREDICTED BY IDOCK:   -6.00 KCAL/MOL
REMARK 924 INTRA-LIGAND FREE ENERGY PREDICTED BY IDOCK:   -0.71 KCAL/MOL
REMARK 927      BINDING AFFINITY PREDICTED BY RF-SCORE:    0.00 PKD
ROOT
HETATM    1  C   UNL     1     -11.861   6.186  72.159  1.00  0.00    -0.339 C  
HETATM    2  C   UNL     1     -12.243   6.830  70.839  1.00  0.00    -0.386 C  
ENDROOT
BRANCH   2   3
HETATM    3  C   UNL     1     -11.253   6.571  69.700  1.00  0.00    -0.384 C  
BRANCH   3   4
HETATM    4  N   UNL     1     -10.382   7.743  69.278  1.00  0.00    -0.216 N  
BRANCH   4   5
HETATM    5  C   UNL     1      -9.118   7.818  70.100  1.00  0.00    -0.153 C  
BRANCH   5   6
HETATM    6  C   UNL     1      -9.124   8.848  71.234  1.00  0.00    -0.323 C  
HETATM    7  C   UNL     1      -8.833   8.267  72.609  1.00  0.00    -0.304 C  
ENDBRANCH   5   6
ENDBRANCH   4   5
BRANCH   4   8
HETATM    8  S   UNL     1     -10.094   7.680  67.547  1.00  0.00    -0.224 S  
HETATM    9  O   UNL     1      -8.709   7.372  67.275  1.00  0.00    -0.120 OA 
HETATM   10  O   UNL     1     -11.157   6.895  66.954  1.00  0.00    -0.379 OA 
BRANCH   8  11
HETATM   11  C   UNL     1     -10.285   9.371  66.997  1.00  0.00    -0.255 A  
HETATM   12  C   UNL     1      -9.938   9.699  65.679  1.00  0.00    -0.321 A  
HETATM   13  C   UNL     1     -10.288  10.948  65.153  1.00  0.00    -0.344 A  
HETATM   14  C   UNL     1     -10.984  11.869  65.947  1.00  0.00    -0.354 A  
HETATM   15  C   UNL     1     -11.438  13.186  65.425  1.00  0.00    -0.304 C  
HETATM   16  C   UNL     1     -11.344  11.526  67.259  1.00  0.00    -0.359 A  
HETATM   17  O   UNL     1     -10.584  13.744  64.545  1.00  0.00    -0.423 OA 
HETATM   18  C   UNL     1     -10.995  10.279  67.786  1.00  0.00    -0.360 A  
HETATM   19  O   UNL     1     -12.463  13.731  65.796  1.00  0.00    -0.455 OA 
ENDBRANCH   8  11
ENDBRANCH   4   8
ENDBRANCH   3   4
ENDBRANCH   2   3
TORSDOF 6
ENDMDL
MODEL       70
REMARK 921   NORMALIZED FREE ENERGY PREDICTED BY IDOCK:   -4.38 KCAL/MOL
REMARK 922        TOTAL FREE ENERGY PREDICTED BY IDOCK:   -6.70 KCAL/MOL
REMARK 923 INTER-LIGAND FREE ENERGY PREDICTED BY IDOCK:   -6.12 KCAL/MOL
REMARK 924 INTRA-LIGAND FREE ENERGY PREDICTED BY IDOCK:   -0.58 KCAL/MOL
REMARK 927      BINDING AFFINITY PREDICTED BY RF-SCORE:    0.00 PKD
ROOT
HETATM    1  C   UNL     1     -13.036  15.071  72.832  1.00  0.00    -0.576 C  
HETATM    2  C   UNL     1     -11.980  14.763  71.787  1.00  0.00    -0.409 C  
ENDROOT
BRANCH   2   3
HETATM    3  C   UNL     1     -12.459  13.851  70.654  1.00  0.00    -0.366 C  
BRANCH   3   4
HETATM    4  N   UNL     1     -11.480  12.788  70.179  1.00  0.00    -0.031 N  
BRANCH   4   5
HETATM    5  C   UNL     1     -12.040  11.398  70.363  1.00  0.00    -0.384 C  
BRANCH   5   6
HETATM    6  C   UNL     1     -12.841  11.170  71.649  1.00  0.00    -0.524 C  
HETATM    7  C   UNL     1     -13.134   9.710  71.953  1.00  0.00    -0.530 C  
ENDBRANCH   5   6
ENDBRANCH   4   5
BRANCH   4   8
HETATM    8  S   UNL     1     -10.977  13.133  68.532  1.00  0.00    -0.272 S  
HETATM    9  O   UNL     1      -9.733  12.465  68.233  1.00  0.00    -0.215 OA 
HETATM   10  O   UNL     1     -12.134  12.962  67.677  1.00  0.00    -0.325 OA 
BRANCH   8  11
HETATM   11  C   UNL     1     -10.554  14.870  68.546  1.00  0.00    -0.245 A  
HETATM   12  C   UNL     1      -9.331  15.266  69.107  1.00  0.00    -0.236 A  
HETATM   13  C   UNL     1      -8.871  16.575  68.929  1.00  0.00    -0.244 A  
HETATM   14  C   UNL     1      -9.634  17.489  68.191  1.00  0.00    -0.294 A  
HETATM   15  C   UNL     1      -9.168  18.875  67.915  1.00  0.00    -0.303 C  
HETATM   16  C   UNL     1     -10.847  17.080  67.617  1.00  0.00    -0.244 A  
HETATM   17  O   UNL     1      -8.469  19.424  68.927  1.00  0.00    -0.367 OA 
HETATM   18  C   UNL     1     -11.310  15.773  67.794  1.00  0.00    -0.240 A  
HETATM   19  O   UNL     1      -9.435  19.474  66.888  1.00  0.00    -0.313 OA 
ENDBRANCH   8  11
ENDBRANCH   4   8
ENDBRANCH   3   4
ENDBRANCH   2   3
TORSDOF 6
ENDMDL
MODEL       71
REMARK 921   NORMALIZED FREE ENERGY PREDICTED BY IDOCK:   -4.38 KCAL/MOL
REMARK 922        TOTAL FREE ENERGY PREDICTED BY IDOCK:   -6.70 KCAL/MOL
REMARK 923 INTER-LIGAND FREE ENERGY PREDICTED BY IDOCK:   -5.91 KCAL/MOL
REMARK 924 INTRA-LIGAND FREE ENERGY PREDICTED BY IDOCK:   -0.79 KCAL/MOL
REMARK 927      BINDING AFFINITY PREDICTED BY RF-SCORE:    0.00 PKD
ROOT
HETATM    1  C   UNL     1      -7.208  13.920  67.809  1.00  0.00    -0.173 C  
HETATM    2  C   UNL     1      -8.287  12.860  67.937  1.00  0.00    -0.170 C  
ENDROOT
BRANCH   2   3
HETATM    3  C   UNL     1      -9.015  12.538  66.629  1.00  0.00    -0.174 C  
BRANCH   3   4
HETATM    4  N   UNL     1     -10.533  12.481  66.694  1.00  0.00    -0.232 N  
BRANCH   4   5
HETATM    5  C   UNL     1     -11.022  12.349  68.116  1.00  0.00    -0.228 C  
BRANCH   5   6
HETATM    6  C   UNL     1     -11.508  10.954  68.525  1.00  0.00    -0.380 C  
HETATM    7  C   UNL     1     -10.822  10.388  69.757  1.00  0.00    -0.342 C  
ENDBRANCH   5   6
ENDBRANCH   4   5
BRANCH   4   8
HETATM    8  S   UNL     1     -11.219  13.852  65.838  1.00  0.00    -0.302 S  
HETATM    9  O   UNL     1     -10.694  13.925  64.495  1.00  0.00    -0.412 OA 
HETATM   10  O   UNL     1     -12.649  13.846  66.075  1.00  0.00    -0.467 OA 
BRANCH   8  11
HETATM   11  C   UNL     1     -10.531  15.284  66.659  1.00  0.00    -0.290 A  
HETATM   12  C   UNL     1      -9.531  16.023  66.010  1.00  0.00    -0.384 A  
HETATM   13  C   UNL     1      -9.139  17.266  66.518  1.00  0.00    -0.289 A  
HETATM   14  C   UNL     1      -9.746  17.771  67.675  1.00  0.00    -0.282 A  
HETATM   15  C   UNL     1      -9.416  19.113  68.226  1.00  0.00    -0.352 C  
HETATM   16  C   UNL     1     -10.759  17.035  68.308  1.00  0.00    -0.372 A  
HETATM   17  O   UNL     1      -8.121  19.454  68.084  1.00  0.00    -0.298 OA 
HETATM   18  C   UNL     1     -11.152  15.791  67.803  1.00  0.00    -0.313 A  
HETATM   19  O   UNL     1     -10.232  19.817  68.796  1.00  0.00    -0.449 OA 
ENDBRANCH   8  11
ENDBRANCH   4   8
ENDBRANCH   3   4
ENDBRANCH   2   3
TORSDOF 6
ENDMDL
MODEL       72
REMARK 921   NORMALIZED FREE ENERGY PREDICTED BY IDOCK:   -4.37 KCAL/MOL
REMARK 922        TOTAL FREE ENERGY PREDICTED BY IDOCK:   -6.68 KCAL/MOL
REMARK 923 INTER-LIGAND FREE ENERGY PREDICTED BY IDOCK:   -6.21 KCAL/MOL
REMARK 924 INTRA-LIGAND FREE ENERGY PREDICTED BY IDOCK:   -0.48 KCAL/MOL
REMARK 927      BINDING AFFINITY PREDICTED BY RF-SCORE:    0.00 PKD
ROOT
HETATM    1  C   UNL     1      -9.335  20.493  67.414  1.00  0.00    -0.511 C  
HETATM    2  C   UNL     1      -9.563  19.257  68.266  1.00  0.00    -0.438 C  
ENDROOT
BRANCH   2   3
HETATM    3  C   UNL     1     -10.655  18.320  67.741  1.00  0.00    -0.393 C  
BRANCH   3   4
HETATM    4  N   UNL     1     -10.287  16.849  67.623  1.00  0.00    -0.308 N  
BRANCH   4   5
HETATM    5  C   UNL     1     -11.431  15.958  68.044  1.00  0.00    -0.236 C  
BRANCH   5   6
HETATM    6  C   UNL     1     -11.560  15.712  69.551  1.00  0.00    -0.366 C  
HETATM    7  C   UNL     1     -12.159  14.363  69.915  1.00  0.00    -0.398 C  
ENDBRANCH   5   6
ENDBRANCH   4   5
BRANCH   4   8
HETATM    8  S   UNL     1      -9.689  16.512  66.007  1.00  0.00    -0.278 S  
HETATM    9  O   UNL     1     -10.720  16.753  65.025  1.00  0.00    -0.692 OA 
HETATM   10  O   UNL     1      -8.387  17.136  65.883  1.00  0.00    -0.527 OA 
BRANCH   8  11
HETATM   11  C   UNL     1      -9.456  14.739  65.976  1.00  0.00    -0.264 A  
HETATM   12  C   UNL     1      -8.734  14.132  67.013  1.00  0.00    -0.222 A  
HETATM   13  C   UNL     1      -8.730  12.738  67.139  1.00  0.00    -0.202 A  
HETATM   14  C   UNL     1      -9.447  11.952  66.227  1.00  0.00    -0.238 A  
HETATM   15  C   UNL     1      -9.532  10.472  66.348  1.00  0.00    -0.171 C  
HETATM   16  C   UNL     1     -10.182  12.569  65.204  1.00  0.00    -0.299 A  
HETATM   17  O   UNL     1      -8.402   9.899  66.807  1.00  0.00    -0.123 OA 
HETATM   18  C   UNL     1     -10.187  13.961  65.075  1.00  0.00    -0.383 A  
HETATM   19  O   UNL     1     -10.515   9.832  66.016  1.00  0.00    -0.157 OA 
ENDBRANCH   8  11
ENDBRANCH   4   8
ENDBRANCH   3   4
ENDBRANCH   2   3
TORSDOF 6
ENDMDL
MODEL       73
REMARK 921   NORMALIZED FREE ENERGY PREDICTED BY IDOCK:   -4.36 KCAL/MOL
REMARK 922        TOTAL FREE ENERGY PREDICTED BY IDOCK:   -6.67 KCAL/MOL
REMARK 923 INTER-LIGAND FREE ENERGY PREDICTED BY IDOCK:   -5.62 KCAL/MOL
REMARK 924 INTRA-LIGAND FREE ENERGY PREDICTED BY IDOCK:   -1.05 KCAL/MOL
REMARK 927      BINDING AFFINITY PREDICTED BY RF-SCORE:    0.00 PKD
ROOT
HETATM    1  C   UNL     1      -7.319  13.887  67.706  1.00  0.00    -0.170 C  
HETATM    2  C   UNL     1      -8.035  12.618  67.283  1.00  0.00    -0.166 C  
ENDROOT
BRANCH   2   3
HETATM    3  C   UNL     1      -9.525  12.583  67.640  1.00  0.00    -0.188 C  
BRANCH   3   4
HETATM    4  N   UNL     1     -10.502  12.735  66.485  1.00  0.00    -0.260 N  
BRANCH   4   5
HETATM    5  C   UNL     1     -10.993  11.393  65.996  1.00  0.00    -0.226 C  
BRANCH   5   6
HETATM    6  C   UNL     1     -10.630  11.040  64.550  1.00  0.00    -0.383 C  
HETATM    7  C   UNL     1     -10.217  12.230  63.700  1.00  0.00    -0.430 C  
ENDBRANCH   5   6
ENDBRANCH   4   5
BRANCH   4   8
HETATM    8  S   UNL     1     -11.793  13.837  66.936  1.00  0.00    -0.424 S  
HETATM    9  O   UNL     1     -12.684  14.055  65.821  1.00  0.00    -0.516 OA 
HETATM   10  O   UNL     1     -12.306  13.407  68.220  1.00  0.00    -0.187 OA 
BRANCH   8  11
HETATM   11  C   UNL     1     -10.979  15.412  67.165  1.00  0.00    -0.317 A  
HETATM   12  C   UNL     1     -10.939  15.974  68.450  1.00  0.00    -0.331 A  
HETATM   13  C   UNL     1     -10.121  17.080  68.704  1.00  0.00    -0.303 A  
HETATM   14  C   UNL     1      -9.344  17.625  67.674  1.00  0.00    -0.246 A  
HETATM   15  C   UNL     1      -8.408  18.760  67.899  1.00  0.00    -0.276 C  
HETATM   16  C   UNL     1      -9.375  17.046  66.397  1.00  0.00    -0.295 A  
HETATM   17  O   UNL     1      -8.854  19.661  68.795  1.00  0.00    -0.336 OA 
HETATM   18  C   UNL     1     -10.193  15.941  66.140  1.00  0.00    -0.340 A  
HETATM   19  O   UNL     1      -7.359  18.887  67.292  1.00  0.00    -0.222 OA 
ENDBRANCH   8  11
ENDBRANCH   4   8
ENDBRANCH   3   4
ENDBRANCH   2   3
TORSDOF 6
ENDMDL
MODEL       74
REMARK 921   NORMALIZED FREE ENERGY PREDICTED BY IDOCK:   -4.36 KCAL/MOL
REMARK 922        TOTAL FREE ENERGY PREDICTED BY IDOCK:   -6.67 KCAL/MOL
REMARK 923 INTER-LIGAND FREE ENERGY PREDICTED BY IDOCK:   -6.05 KCAL/MOL
REMARK 924 INTRA-LIGAND FREE ENERGY PREDICTED BY IDOCK:   -0.62 KCAL/MOL
REMARK 927      BINDING AFFINITY PREDICTED BY RF-SCORE:    0.00 PKD
ROOT
HETATM    1  C   UNL     1     -10.905  15.804  65.056  1.00  0.00    -0.461 C  
HETATM    2  C   UNL     1     -11.738  14.560  64.809  1.00  0.00    -0.425 C  
ENDROOT
BRANCH   2   3
HETATM    3  C   UNL     1     -12.205  13.850  66.084  1.00  0.00    -0.464 C  
BRANCH   3   4
HETATM    4  N   UNL     1     -11.470  12.571  66.455  1.00  0.00    -0.341 N  
BRANCH   4   5
HETATM    5  C   UNL     1     -10.329  12.293  65.507  1.00  0.00    -0.267 C  
BRANCH   5   6
HETATM    6  C   UNL     1     -10.398  10.959  64.757  1.00  0.00    -0.391 C  
HETATM    7  C   UNL     1      -9.649   9.822  65.433  1.00  0.00    -0.359 C  
ENDBRANCH   5   6
ENDBRANCH   4   5
BRANCH   4   8
HETATM    8  S   UNL     1     -10.986  12.630  68.142  1.00  0.00    -0.251 S  
HETATM    9  O   UNL     1     -12.122  12.397  69.003  1.00  0.00    -0.259 OA 
HETATM   10  O   UNL     1      -9.780  11.839  68.279  1.00  0.00    -0.189 OA 
BRANCH   8  11
HETATM   11  C   UNL     1     -10.558  14.342  68.428  1.00  0.00    -0.247 A  
HETATM   12  C   UNL     1      -9.260  14.777  68.124  1.00  0.00    -0.195 A  
HETATM   13  C   UNL     1      -8.964  16.144  68.119  1.00  0.00    -0.185 A  
HETATM   14  C   UNL     1      -9.965  17.077  68.419  1.00  0.00    -0.289 A  
HETATM   15  C   UNL     1      -9.727  18.544  68.368  1.00  0.00    -0.364 C  
HETATM   16  C   UNL     1     -11.266  16.635  68.704  1.00  0.00    -0.235 A  
HETATM   17  O   UNL     1      -8.492  18.907  68.766  1.00  0.00    -0.346 OA 
HETATM   18  C   UNL     1     -11.564  15.269  68.710  1.00  0.00    -0.379 A  
HETATM   19  O   UNL     1     -10.585  19.347  68.043  1.00  0.00    -0.407 OA 
ENDBRANCH   8  11
ENDBRANCH   4   8
ENDBRANCH   3   4
ENDBRANCH   2   3
TORSDOF 6
ENDMDL
MODEL       75
REMARK 921   NORMALIZED FREE ENERGY PREDICTED BY IDOCK:   -4.34 KCAL/MOL
REMARK 922        TOTAL FREE ENERGY PREDICTED BY IDOCK:   -6.64 KCAL/MOL
REMARK 923 INTER-LIGAND FREE ENERGY PREDICTED BY IDOCK:   -6.03 KCAL/MOL
REMARK 924 INTRA-LIGAND FREE ENERGY PREDICTED BY IDOCK:   -0.62 KCAL/MOL
REMARK 927      BINDING AFFINITY PREDICTED BY RF-SCORE:    0.00 PKD
ROOT
HETATM    1  C   UNL     1     -10.633   5.372  66.631  1.00  0.00    -0.359 C  
HETATM    2  C   UNL     1     -10.742   6.802  67.128  1.00  0.00    -0.441 C  
ENDROOT
BRANCH   2   3
HETATM    3  C   UNL     1      -9.425   7.394  67.641  1.00  0.00    -0.136 C  
BRANCH   3   4
HETATM    4  N   UNL     1      -9.335   8.912  67.683  1.00  0.00    -0.136 N  
BRANCH   4   5
HETATM    5  C   UNL     1      -8.763   9.396  68.993  1.00  0.00    -0.136 C  
BRANCH   5   6
HETATM    6  C   UNL     1      -9.777   9.611  70.122  1.00  0.00    -0.301 C  
HETATM    7  C   UNL     1     -10.923  10.543  69.764  1.00  0.00    -0.350 C  
ENDBRANCH   5   6
ENDBRANCH   4   5
BRANCH   4   8
HETATM    8  S   UNL     1      -8.465   9.497  66.275  1.00  0.00    -0.116 S  
HETATM    9  O   UNL     1      -7.247  10.161  66.673  1.00  0.00    -0.099 OA 
HETATM   10  O   UNL     1      -8.440   8.426  65.300  1.00  0.00    -0.165 OA 
BRANCH   8  11
HETATM   11  C   UNL     1      -9.492  10.809  65.625  1.00  0.00    -0.209 A  
HETATM   12  C   UNL     1     -10.156  10.610  64.407  1.00  0.00    -0.418 A  
HETATM   13  C   UNL     1     -11.138  11.516  63.989  1.00  0.00    -0.441 A  
HETATM   14  C   UNL     1     -11.454  12.622  64.790  1.00  0.00    -0.364 A  
HETATM   15  C   UNL     1     -12.531  13.583  64.431  1.00  0.00    -0.267 C  
HETATM   16  C   UNL     1     -10.798  12.803  66.017  1.00  0.00    -0.301 A  
HETATM   17  O   UNL     1     -12.637  13.808  63.106  1.00  0.00    -0.793 OA 
HETATM   18  C   UNL     1      -9.816  11.899  66.436  1.00  0.00    -0.234 A  
HETATM   19  O   UNL     1     -13.220  14.151  65.260  1.00  0.00    -0.760 OA 
ENDBRANCH   8  11
ENDBRANCH   4   8
ENDBRANCH   3   4
ENDBRANCH   2   3
TORSDOF 6
ENDMDL
MODEL       76
REMARK 921   NORMALIZED FREE ENERGY PREDICTED BY IDOCK:   -4.33 KCAL/MOL
REMARK 922        TOTAL FREE ENERGY PREDICTED BY IDOCK:   -6.64 KCAL/MOL
REMARK 923 INTER-LIGAND FREE ENERGY PREDICTED BY IDOCK:   -5.92 KCAL/MOL
REMARK 924 INTRA-LIGAND FREE ENERGY PREDICTED BY IDOCK:   -0.71 KCAL/MOL
REMARK 927      BINDING AFFINITY PREDICTED BY RF-SCORE:    0.00 PKD
ROOT
HETATM    1  C   UNL     1      -7.547  14.641  67.463  1.00  0.00    -0.215 C  
HETATM    2  C   UNL     1      -8.052  15.776  66.591  1.00  0.00    -0.282 C  
ENDROOT
BRANCH   2   3
HETATM    3  C   UNL     1      -9.464  15.566  66.036  1.00  0.00    -0.352 C  
BRANCH   3   4
HETATM    4  N   UNL     1     -10.471  14.917  66.973  1.00  0.00    -0.268 N  
BRANCH   4   5
HETATM    5  C   UNL     1     -11.346  15.947  67.646  1.00  0.00    -0.151 C  
BRANCH   5   6
HETATM    6  C   UNL     1     -10.812  16.511  68.967  1.00  0.00    -0.329 C  
HETATM    7  C   UNL     1     -10.195  17.895  68.852  1.00  0.00    -0.331 C  
ENDBRANCH   5   6
ENDBRANCH   4   5
BRANCH   4   8
HETATM    8  S   UNL     1     -11.374  13.679  66.114  1.00  0.00    -0.320 S  
HETATM    9  O   UNL     1     -12.751  14.080  65.949  1.00  0.00    -0.495 OA 
HETATM   10  O   UNL     1     -10.580  13.271  64.973  1.00  0.00    -0.313 OA 
BRANCH   8  11
HETATM   11  C   UNL     1     -11.447  12.304  67.254  1.00  0.00    -0.357 A  
HETATM   12  C   UNL     1     -10.828  11.096  66.901  1.00  0.00    -0.333 A  
HETATM   13  C   UNL     1     -10.670  10.085  67.856  1.00  0.00    -0.322 A  
HETATM   14  C   UNL     1     -11.133  10.282  69.164  1.00  0.00    -0.283 A  
HETATM   15  C   UNL     1     -10.937   9.271  70.237  1.00  0.00    -0.247 C  
HETATM   16  C   UNL     1     -11.734  11.501  69.514  1.00  0.00    -0.413 A  
HETATM   17  O   UNL     1     -11.019   7.998  69.804  1.00  0.00    -0.227 OA 
HETATM   18  C   UNL     1     -11.893  12.512  68.562  1.00  0.00    -0.341 A  
HETATM   19  O   UNL     1     -10.767   9.567  71.407  1.00  0.00    -0.346 OA 
ENDBRANCH   8  11
ENDBRANCH   4   8
ENDBRANCH   3   4
ENDBRANCH   2   3
TORSDOF 6
ENDMDL
MODEL       77
REMARK 921   NORMALIZED FREE ENERGY PREDICTED BY IDOCK:   -4.33 KCAL/MOL
REMARK 922        TOTAL FREE ENERGY PREDICTED BY IDOCK:   -6.63 KCAL/MOL
REMARK 923 INTER-LIGAND FREE ENERGY PREDICTED BY IDOCK:   -5.85 KCAL/MOL
REMARK 924 INTRA-LIGAND FREE ENERGY PREDICTED BY IDOCK:   -0.79 KCAL/MOL
REMARK 927      BINDING AFFINITY PREDICTED BY RF-SCORE:    0.00 PKD
ROOT
HETATM    1  C   UNL     1      -8.606  16.770  66.283  1.00  0.00    -0.340 C  
HETATM    2  C   UNL     1     -10.078  16.499  66.033  1.00  0.00    -0.368 C  
ENDROOT
BRANCH   2   3
HETATM    3  C   UNL     1     -10.410  15.033  65.742  1.00  0.00    -0.335 C  
BRANCH   3   4
HETATM    4  N   UNL     1     -11.564  14.429  66.528  1.00  0.00    -0.367 N  
BRANCH   4   5
HETATM    5  C   UNL     1     -12.494  13.648  65.632  1.00  0.00    -0.496 C  
BRANCH   5   6
HETATM    6  C   UNL     1     -12.046  13.502  64.175  1.00  0.00    -0.488 C  
HETATM    7  C   UNL     1     -12.129  12.083  63.634  1.00  0.00    -0.627 C  
ENDBRANCH   5   6
ENDBRANCH   4   5
BRANCH   4   8
HETATM    8  S   UNL     1     -10.942  13.499  67.881  1.00  0.00    -0.264 S  
HETATM    9  O   UNL     1      -9.689  14.050  68.341  1.00  0.00    -0.217 OA 
HETATM   10  O   UNL     1     -12.038  13.283  68.804  1.00  0.00    -0.326 OA 
BRANCH   8  11
HETATM   11  C   UNL     1     -10.496  11.919  67.174  1.00  0.00    -0.221 A  
HETATM   12  C   UNL     1      -9.359  11.838  66.358  1.00  0.00    -0.229 A  
HETATM   13  C   UNL     1      -8.857  10.587  65.980  1.00  0.00    -0.179 A  
HETATM   14  C   UNL     1      -9.493   9.418  66.418  1.00  0.00    -0.259 A  
HETATM   15  C   UNL     1      -8.970   8.062  66.102  1.00  0.00    -0.175 C  
HETATM   16  C   UNL     1     -10.619   9.508  67.250  1.00  0.00    -0.317 A  
HETATM   17  O   UNL     1      -8.412   7.967  64.879  1.00  0.00    -0.127 OA 
HETATM   18  C   UNL     1     -11.123  10.756  67.628  1.00  0.00    -0.384 A  
HETATM   19  O   UNL     1      -9.079   7.113  66.859  1.00  0.00    -0.130 OA 
ENDBRANCH   8  11
ENDBRANCH   4   8
ENDBRANCH   3   4
ENDBRANCH   2   3
TORSDOF 6
ENDMDL
MODEL       78
REMARK 921   NORMALIZED FREE ENERGY PREDICTED BY IDOCK:   -4.33 KCAL/MOL
REMARK 922        TOTAL FREE ENERGY PREDICTED BY IDOCK:   -6.63 KCAL/MOL
REMARK 923 INTER-LIGAND FREE ENERGY PREDICTED BY IDOCK:   -5.96 KCAL/MOL
REMARK 924 INTRA-LIGAND FREE ENERGY PREDICTED BY IDOCK:   -0.67 KCAL/MOL
REMARK 927      BINDING AFFINITY PREDICTED BY RF-SCORE:    0.00 PKD
ROOT
HETATM    1  C   UNL     1     -10.512  17.521  67.889  1.00  0.00    -0.384 C  
HETATM    2  C   UNL     1      -9.676  16.293  68.197  1.00  0.00    -0.227 C  
ENDROOT
BRANCH   2   3
HETATM    3  C   UNL     1     -10.219  14.992  67.597  1.00  0.00    -0.236 C  
BRANCH   3   4
HETATM    4  N   UNL     1     -10.720  13.948  68.582  1.00  0.00    -0.255 N  
BRANCH   4   5
HETATM    5  C   UNL     1     -12.026  14.366  69.215  1.00  0.00    -0.324 C  
BRANCH   5   6
HETATM    6  C   UNL     1     -11.998  14.552  70.736  1.00  0.00    -0.388 C  
HETATM    7  C   UNL     1     -11.808  15.991  71.187  1.00  0.00    -0.465 C  
ENDBRANCH   5   6
ENDBRANCH   4   5
BRANCH   4   8
HETATM    8  S   UNL     1     -10.786  12.375  67.804  1.00  0.00    -0.229 S  
HETATM    9  O   UNL     1     -12.091  12.149  67.230  1.00  0.00    -0.565 OA 
HETATM   10  O   UNL     1      -9.589  12.235  67.000  1.00  0.00    -0.199 OA 
BRANCH   8  11
HETATM   11  C   UNL     1     -10.686  11.203  69.151  1.00  0.00    -0.221 A  
HETATM   12  C   UNL     1     -11.855  10.877  69.854  1.00  0.00    -0.427 A  
HETATM   13  C   UNL     1     -11.855   9.804  70.752  1.00  0.00    -0.400 A  
HETATM   14  C   UNL     1     -10.685   9.057  70.947  1.00  0.00    -0.319 A  
HETATM   15  C   UNL     1     -10.641   7.868  71.839  1.00  0.00    -0.231 C  
HETATM   16  C   UNL     1      -9.526   9.378  70.225  1.00  0.00    -0.294 A  
HETATM   17  O   UNL     1     -11.417   7.982  72.935  1.00  0.00    -0.411 OA 
HETATM   18  C   UNL     1      -9.523  10.450  69.328  1.00  0.00    -0.214 A  
HETATM   19  O   UNL     1      -9.931   6.901  71.624  1.00  0.00    -0.173 OA 
ENDBRANCH   8  11
ENDBRANCH   4   8
ENDBRANCH   3   4
ENDBRANCH   2   3
TORSDOF 6
ENDMDL
MODEL       79
REMARK 921   NORMALIZED FREE ENERGY PREDICTED BY IDOCK:   -4.32 KCAL/MOL
REMARK 922        TOTAL FREE ENERGY PREDICTED BY IDOCK:   -6.62 KCAL/MOL
REMARK 923 INTER-LIGAND FREE ENERGY PREDICTED BY IDOCK:   -5.80 KCAL/MOL
REMARK 924 INTRA-LIGAND FREE ENERGY PREDICTED BY IDOCK:   -0.82 KCAL/MOL
REMARK 927      BINDING AFFINITY PREDICTED BY RF-SCORE:    0.00 PKD
ROOT
HETATM    1  C   UNL     1     -14.087   8.899  72.325  1.00  0.00    -0.512 C  
HETATM    2  C   UNL     1     -14.176   7.610  71.529  1.00  0.00    -0.564 C  
ENDROOT
BRANCH   2   3
HETATM    3  C   UNL     1     -12.847   6.860  71.390  1.00  0.00    -0.311 C  
BRANCH   3   4
HETATM    4  N   UNL     1     -11.583   7.671  71.630  1.00  0.00    -0.259 N  
BRANCH   4   5
HETATM    5  C   UNL     1     -10.821   7.164  72.831  1.00  0.00    -0.323 C  
BRANCH   5   6
HETATM    6  C   UNL     1     -10.960   5.667  73.122  1.00  0.00    -0.326 C  
HETATM    7  C   UNL     1      -9.909   4.798  72.450  1.00  0.00    -0.211 C  
ENDBRANCH   5   6
ENDBRANCH   4   5
BRANCH   4   8
HETATM    8  S   UNL     1     -10.624   7.730  70.160  1.00  0.00    -0.239 S  
HETATM    9  O   UNL     1      -9.221   7.856  70.477  1.00  0.00    -0.156 OA 
HETATM   10  O   UNL     1     -11.094   6.673  69.288  1.00  0.00    -0.282 OA 
BRANCH   8  11
HETATM   11  C   UNL     1     -11.049   9.295  69.408  1.00  0.00    -0.043 A  
HETATM   12  C   UNL     1     -11.413  10.368  70.235  1.00  0.00    -0.406 A  
HETATM   13  C   UNL     1     -11.528  11.656  69.700  1.00  0.00    -0.359 A  
HETATM   14  C   UNL     1     -11.279  11.871  68.338  1.00  0.00    -0.312 A  
HETATM   15  C   UNL     1     -11.323  13.226  67.726  1.00  0.00    -0.295 C  
HETATM   16  C   UNL     1     -10.896  10.796  67.522  1.00  0.00    -0.342 A  
HETATM   17  O   UNL     1     -12.269  14.028  68.251  1.00  0.00    -0.328 OA 
HETATM   18  C   UNL     1     -10.782   9.508  68.054  1.00  0.00    -0.266 A  
HETATM   19  O   UNL     1     -10.603  13.562  66.802  1.00  0.00    -0.269 OA 
ENDBRANCH   8  11
ENDBRANCH   4   8
ENDBRANCH   3   4
ENDBRANCH   2   3
TORSDOF 6
ENDMDL
MODEL       80
REMARK 921   NORMALIZED FREE ENERGY PREDICTED BY IDOCK:   -4.32 KCAL/MOL
REMARK 922        TOTAL FREE ENERGY PREDICTED BY IDOCK:   -6.62 KCAL/MOL
REMARK 923 INTER-LIGAND FREE ENERGY PREDICTED BY IDOCK:   -5.67 KCAL/MOL
REMARK 924 INTRA-LIGAND FREE ENERGY PREDICTED BY IDOCK:   -0.94 KCAL/MOL
REMARK 927      BINDING AFFINITY PREDICTED BY RF-SCORE:    0.00 PKD
ROOT
HETATM    1  C   UNL     1      -9.919  20.028  66.110  1.00  0.00    -0.580 C  
HETATM    2  C   UNL     1      -9.581  19.036  67.207  1.00  0.00    -0.363 C  
ENDROOT
BRANCH   2   3
HETATM    3  C   UNL     1     -10.774  18.219  67.710  1.00  0.00    -0.333 C  
BRANCH   3   4
HETATM    4  N   UNL     1     -10.693  16.712  67.520  1.00  0.00    -0.310 N  
BRANCH   4   5
HETATM    5  C   UNL     1      -9.921  16.353  66.274  1.00  0.00    -0.323 C  
BRANCH   5   6
HETATM    6  C   UNL     1     -10.760  15.853  65.094  1.00  0.00    -0.449 C  
HETATM    7  C   UNL     1     -10.798  14.340  64.950  1.00  0.00    -0.429 C  
ENDBRANCH   5   6
ENDBRANCH   4   5
BRANCH   4   8
HETATM    8  S   UNL     1     -10.068  15.959  68.978  1.00  0.00    -0.244 S  
HETATM    9  O   UNL     1      -8.676  16.296  69.165  1.00  0.00    -0.247 OA 
HETATM   10  O   UNL     1     -11.032  16.186  70.035  1.00  0.00    -0.326 OA 
BRANCH   8  11
HETATM   11  C   UNL     1     -10.054  14.209  68.610  1.00  0.00    -0.229 A  
HETATM   12  C   UNL     1     -11.272  13.514  68.575  1.00  0.00    -0.310 A  
HETATM   13  C   UNL     1     -11.318  12.210  68.070  1.00  0.00    -0.353 A  
HETATM   14  C   UNL     1     -10.147  11.601  67.601  1.00  0.00    -0.204 A  
HETATM   15  C   UNL     1     -10.145  10.243  66.994  1.00  0.00    -0.218 C  
HETATM   16  C   UNL     1      -8.937  12.311  67.621  1.00  0.00    -0.181 A  
HETATM   17  O   UNL     1     -11.024   9.394  67.563  1.00  0.00    -0.223 OA 
HETATM   18  C   UNL     1      -8.888  13.613  68.126  1.00  0.00    -0.189 A  
HETATM   19  O   UNL     1      -9.385   9.914  66.100  1.00  0.00    -0.162 OA 
ENDBRANCH   8  11
ENDBRANCH   4   8
ENDBRANCH   3   4
ENDBRANCH   2   3
TORSDOF 6
ENDMDL
MODEL       81
REMARK 921   NORMALIZED FREE ENERGY PREDICTED BY IDOCK:   -4.29 KCAL/MOL
REMARK 922        TOTAL FREE ENERGY PREDICTED BY IDOCK:   -6.58 KCAL/MOL
REMARK 923 INTER-LIGAND FREE ENERGY PREDICTED BY IDOCK:   -5.83 KCAL/MOL
REMARK 924 INTRA-LIGAND FREE ENERGY PREDICTED BY IDOCK:   -0.75 KCAL/MOL
REMARK 927      BINDING AFFINITY PREDICTED BY RF-SCORE:    0.00 PKD
ROOT
HETATM    1  C   UNL     1     -10.428  18.821  65.970  1.00  0.00    -0.483 C  
HETATM    2  C   UNL     1     -10.515  17.391  66.471  1.00  0.00    -0.264 C  
ENDROOT
BRANCH   2   3
HETATM    3  C   UNL     1     -10.546  16.334  65.364  1.00  0.00    -0.352 C  
BRANCH   3   4
HETATM    4  N   UNL     1     -10.141  14.923  65.761  1.00  0.00    -0.319 N  
BRANCH   4   5
HETATM    5  C   UNL     1      -9.614  14.877  67.175  1.00  0.00    -0.225 C  
BRANCH   5   6
HETATM    6  C   UNL     1      -8.101  14.678  67.315  1.00  0.00    -0.230 C  
HETATM    7  C   UNL     1      -7.698  13.342  67.919  1.00  0.00    -0.153 C  
ENDBRANCH   5   6
ENDBRANCH   4   5
BRANCH   4   8
HETATM    8  S   UNL     1     -11.470  13.814  65.468  1.00  0.00    -0.320 S  
HETATM    9  O   UNL     1     -12.652  14.243  66.178  1.00  0.00    -0.436 OA 
HETATM   10  O   UNL     1     -11.516  13.554  64.043  1.00  0.00    -0.379 OA 
BRANCH   8  11
HETATM   11  C   UNL     1     -10.985  12.302  66.289  1.00  0.00    -0.291 A  
HETATM   12  C   UNL     1     -11.559  11.990  67.530  1.00  0.00    -0.401 A  
HETATM   13  C   UNL     1     -11.377  10.719  68.085  1.00  0.00    -0.377 A  
HETATM   14  C   UNL     1     -10.619   9.760  67.400  1.00  0.00    -0.330 A  
HETATM   15  C   UNL     1     -10.444   8.373  67.909  1.00  0.00    -0.193 C  
HETATM   16  C   UNL     1     -10.065  10.074  66.150  1.00  0.00    -0.317 A  
HETATM   17  O   UNL     1     -10.357   8.295  69.251  1.00  0.00    -0.212 OA 
HETATM   18  C   UNL     1     -10.244  11.344  65.594  1.00  0.00    -0.298 A  
HETATM   19  O   UNL     1     -10.340   7.404  67.177  1.00  0.00    -0.245 OA 
ENDBRANCH   8  11
ENDBRANCH   4   8
ENDBRANCH   3   4
ENDBRANCH   2   3
TORSDOF 6
ENDMDL
MODEL       82
REMARK 921   NORMALIZED FREE ENERGY PREDICTED BY IDOCK:   -4.26 KCAL/MOL
REMARK 922        TOTAL FREE ENERGY PREDICTED BY IDOCK:   -6.53 KCAL/MOL
REMARK 923 INTER-LIGAND FREE ENERGY PREDICTED BY IDOCK:   -5.68 KCAL/MOL
REMARK 924 INTRA-LIGAND FREE ENERGY PREDICTED BY IDOCK:   -0.85 KCAL/MOL
REMARK 927      BINDING AFFINITY PREDICTED BY RF-SCORE:    0.00 PKD
ROOT
HETATM    1  C   UNL     1     -14.088   8.378  71.969  1.00  0.00    -0.495 C  
HETATM    2  C   UNL     1     -13.380   7.223  71.286  1.00  0.00    -0.338 C  
ENDROOT
BRANCH   2   3
HETATM    3  C   UNL     1     -12.038   6.842  71.920  1.00  0.00    -0.334 C  
BRANCH   3   4
HETATM    4  N   UNL     1     -10.860   6.688  70.971  1.00  0.00    -0.236 N  
BRANCH   4   5
HETATM    5  C   UNL     1     -11.314   6.316  69.580  1.00  0.00    -0.422 C  
BRANCH   5   6
HETATM    6  C   UNL     1     -10.395   5.357  68.816  1.00  0.00    -0.240 C  
HETATM    7  C   UNL     1      -9.517   4.491  69.704  1.00  0.00    -0.244 C  
ENDBRANCH   5   6
ENDBRANCH   4   5
BRANCH   4   8
HETATM    8  S   UNL     1      -9.859   8.130  71.024  1.00  0.00    -0.183 S  
HETATM    9  O   UNL     1     -10.231   8.963  72.143  1.00  0.00    -0.321 OA 
HETATM   10  O   UNL     1      -8.484   7.716  70.833  1.00  0.00    -0.121 OA 
BRANCH   8  11
HETATM   11  C   UNL     1     -10.355   9.074  69.588  1.00  0.00    -0.212 A  
HETATM   12  C   UNL     1     -11.334  10.066  69.734  1.00  0.00    -0.281 A  
HETATM   13  C   UNL     1     -11.577  10.968  68.692  1.00  0.00    -0.385 A  
HETATM   14  C   UNL     1     -10.841  10.877  67.503  1.00  0.00    -0.324 A  
HETATM   15  C   UNL     1     -11.009  11.845  66.387  1.00  0.00    -0.292 C  
HETATM   16  C   UNL     1      -9.848   9.893  67.373  1.00  0.00    -0.223 A  
HETATM   17  O   UNL     1     -12.277  12.269  66.223  1.00  0.00    -0.628 OA 
HETATM   18  C   UNL     1      -9.605   8.990  68.412  1.00  0.00    -0.163 A  
HETATM   19  O   UNL     1     -10.094  12.185  65.657  1.00  0.00    -0.239 OA 
ENDBRANCH   8  11
ENDBRANCH   4   8
ENDBRANCH   3   4
ENDBRANCH   2   3
TORSDOF 6
ENDMDL
MODEL       83
REMARK 921   NORMALIZED FREE ENERGY PREDICTED BY IDOCK:   -4.22 KCAL/MOL
REMARK 922        TOTAL FREE ENERGY PREDICTED BY IDOCK:   -6.49 KCAL/MOL
REMARK 923 INTER-LIGAND FREE ENERGY PREDICTED BY IDOCK:   -5.95 KCAL/MOL
REMARK 924 INTRA-LIGAND FREE ENERGY PREDICTED BY IDOCK:   -0.53 KCAL/MOL
REMARK 927      BINDING AFFINITY PREDICTED BY RF-SCORE:    0.00 PKD
ROOT
HETATM    1  C   UNL     1      -8.038   9.280  65.098  1.00  0.00    -0.124 C  
HETATM    2  C   UNL     1      -9.053   8.750  66.094  1.00  0.00    -0.251 C  
ENDROOT
BRANCH   2   3
HETATM    3  C   UNL     1     -10.243   9.683  66.341  1.00  0.00    -0.217 C  
BRANCH   3   4
HETATM    4  N   UNL     1     -10.642   9.903  67.792  1.00  0.00    -0.243 N  
BRANCH   4   5
HETATM    5  C   UNL     1     -10.168   8.774  68.674  1.00  0.00    -0.194 C  
BRANCH   5   6
HETATM    6  C   UNL     1     -10.855   8.662  70.038  1.00  0.00    -0.226 C  
HETATM    7  C   UNL     1      -9.973   9.042  71.217  1.00  0.00    -0.381 C  
ENDBRANCH   5   6
ENDBRANCH   4   5
BRANCH   4   8
HETATM    8  S   UNL     1     -10.104  11.488  68.325  1.00  0.00    -0.204 S  
HETATM    9  O   UNL     1     -10.886  11.933  69.455  1.00  0.00    -0.159 OA 
HETATM   10  O   UNL     1      -8.657  11.459  68.392  1.00  0.00    -0.146 OA 
BRANCH   8  11
HETATM   11  C   UNL     1     -10.574  12.592  66.999  1.00  0.00    -0.232 A  
HETATM   12  C   UNL     1     -11.936  12.815  66.753  1.00  0.00    -0.389 A  
HETATM   13  C   UNL     1     -12.332  13.838  65.884  1.00  0.00    -0.516 A  
HETATM   14  C   UNL     1     -11.364  14.637  65.261  1.00  0.00    -0.354 A  
HETATM   15  C   UNL     1     -11.725  15.779  64.379  1.00  0.00    -0.201 C  
HETATM   16  C   UNL     1     -10.004  14.420  65.528  1.00  0.00    -0.359 A  
HETATM   17  O   UNL     1     -12.829  15.565  63.638  1.00  0.00    -0.385 OA 
HETATM   18  C   UNL     1      -9.607  13.398  66.395  1.00  0.00    -0.265 A  
HETATM   19  O   UNL     1     -11.055  16.795  64.297  1.00  0.00    -1.106 OA 
ENDBRANCH   8  11
ENDBRANCH   4   8
ENDBRANCH   3   4
ENDBRANCH   2   3
TORSDOF 6
ENDMDL
MODEL       84
REMARK 921   NORMALIZED FREE ENERGY PREDICTED BY IDOCK:   -4.22 KCAL/MOL
REMARK 922        TOTAL FREE ENERGY PREDICTED BY IDOCK:   -6.48 KCAL/MOL
REMARK 923 INTER-LIGAND FREE ENERGY PREDICTED BY IDOCK:   -6.14 KCAL/MOL
REMARK 924 INTRA-LIGAND FREE ENERGY PREDICTED BY IDOCK:   -0.34 KCAL/MOL
REMARK 927      BINDING AFFINITY PREDICTED BY RF-SCORE:    0.00 PKD
ROOT
HETATM    1  C   UNL     1     -11.318  15.819  70.401  1.00  0.00    -0.389 C  
HETATM    2  C   UNL     1     -11.921  15.303  69.107  1.00  0.00    -0.308 C  
ENDROOT
BRANCH   2   3
HETATM    3  C   UNL     1     -10.893  14.808  68.085  1.00  0.00    -0.254 C  
BRANCH   3   4
HETATM    4  N   UNL     1     -11.295  14.897  66.621  1.00  0.00    -0.347 N  
BRANCH   4   5
HETATM    5  C   UNL     1     -10.125  15.280  65.748  1.00  0.00    -0.356 C  
BRANCH   5   6
HETATM    6  C   UNL     1      -9.491  16.642  66.046  1.00  0.00    -0.286 C  
HETATM    7  C   UNL     1      -7.996  16.591  66.315  1.00  0.00    -0.307 C  
ENDBRANCH   5   6
ENDBRANCH   4   5
BRANCH   4   8
HETATM    8  S   UNL     1     -12.087  13.409  66.128  1.00  0.00    -0.424 S  
HETATM    9  O   UNL     1     -12.378  12.586  67.278  1.00  0.00    -0.359 OA 
HETATM   10  O   UNL     1     -13.130  13.760  65.185  1.00  0.00    -0.762 OA 
BRANCH   8  11
HETATM   11  C   UNL     1     -10.826  12.502  65.242  1.00  0.00    -0.286 A  
HETATM   12  C   UNL     1      -9.785  11.904  65.968  1.00  0.00    -0.257 A  
HETATM   13  C   UNL     1      -8.920  11.004  65.336  1.00  0.00    -0.192 A  
HETATM   14  C   UNL     1      -9.094  10.703  63.979  1.00  0.00    -0.246 A  
HETATM   15  C   UNL     1      -8.247   9.707  63.270  1.00  0.00    -0.158 C  
HETATM   16  C   UNL     1     -10.150  11.290  63.265  1.00  0.00    -0.428 A  
HETATM   17  O   UNL     1      -6.964   9.696  63.681  1.00  0.00    -0.102 OA 
HETATM   18  C   UNL     1     -11.015  12.191  63.894  1.00  0.00    -0.463 A  
HETATM   19  O   UNL     1      -8.663   9.001  62.367  1.00  0.00    -0.221 OA 
ENDBRANCH   8  11
ENDBRANCH   4   8
ENDBRANCH   3   4
ENDBRANCH   2   3
TORSDOF 6
ENDMDL
MODEL       85
REMARK 921   NORMALIZED FREE ENERGY PREDICTED BY IDOCK:   -4.19 KCAL/MOL
REMARK 922        TOTAL FREE ENERGY PREDICTED BY IDOCK:   -6.45 KCAL/MOL
REMARK 923 INTER-LIGAND FREE ENERGY PREDICTED BY IDOCK:   -6.03 KCAL/MOL
REMARK 924 INTRA-LIGAND FREE ENERGY PREDICTED BY IDOCK:   -0.41 KCAL/MOL
REMARK 927      BINDING AFFINITY PREDICTED BY RF-SCORE:    0.00 PKD
ROOT
HETATM    1  C   UNL     1     -10.094   9.008  71.411  1.00  0.00    -0.399 C  
HETATM    2  C   UNL     1      -9.959   9.091  69.902  1.00  0.00    -0.203 C  
ENDROOT
BRANCH   2   3
HETATM    3  C   UNL     1      -9.594  10.483  69.375  1.00  0.00    -0.148 C  
BRANCH   3   4
HETATM    4  N   UNL     1      -9.103  10.556  67.938  1.00  0.00    -0.135 N  
BRANCH   4   5
HETATM    5  C   UNL     1      -8.064   9.499  67.653  1.00  0.00    -0.110 C  
BRANCH   5   6
HETATM    6  C   UNL     1      -6.621  10.000  67.533  1.00  0.00    -0.068 C  
HETATM    7  C   UNL     1      -6.387  10.961  66.379  1.00  0.00    -0.132 C  
ENDBRANCH   5   6
ENDBRANCH   4   5
BRANCH   4   8
HETATM    8  S   UNL     1     -10.470  10.516  66.837  1.00  0.00    -0.236 S  
HETATM    9  O   UNL     1     -10.204   9.625  65.732  1.00  0.00    -0.261 OA 
HETATM   10  O   UNL     1     -11.670  10.367  67.635  1.00  0.00    -0.309 OA 
BRANCH   8  11
HETATM   11  C   UNL     1     -10.499  12.143  66.096  1.00  0.00    -0.248 A  
HETATM   12  C   UNL     1     -11.681  12.591  65.490  1.00  0.00    -0.457 A  
HETATM   13  C   UNL     1     -11.807  13.932  65.108  1.00  0.00    -0.370 A  
HETATM   14  C   UNL     1     -10.750  14.824  65.332  1.00  0.00    -0.385 A  
HETATM   15  C   UNL     1     -10.848  16.272  65.007  1.00  0.00    -0.320 C  
HETATM   16  C   UNL     1      -9.577  14.371  65.957  1.00  0.00    -0.292 A  
HETATM   17  O   UNL     1     -11.568  16.531  63.898  1.00  0.00    -1.175 OA 
HETATM   18  C   UNL     1      -9.449  13.032  66.338  1.00  0.00    -0.228 A  
HETATM   19  O   UNL     1     -10.288  17.139  65.655  1.00  0.00    -0.557 OA 
ENDBRANCH   8  11
ENDBRANCH   4   8
ENDBRANCH   3   4
ENDBRANCH   2   3
TORSDOF 6
ENDMDL
MODEL       86
REMARK 921   NORMALIZED FREE ENERGY PREDICTED BY IDOCK:   -4.18 KCAL/MOL
REMARK 922        TOTAL FREE ENERGY PREDICTED BY IDOCK:   -6.43 KCAL/MOL
REMARK 923 INTER-LIGAND FREE ENERGY PREDICTED BY IDOCK:   -6.12 KCAL/MOL
REMARK 924 INTRA-LIGAND FREE ENERGY PREDICTED BY IDOCK:   -0.32 KCAL/MOL
REMARK 927      BINDING AFFINITY PREDICTED BY RF-SCORE:    0.00 PKD
ROOT
HETATM    1  C   UNL     1      -9.032   9.725  66.008  1.00  0.00    -0.186 C  
HETATM    2  C   UNL     1     -10.403  10.277  66.351  1.00  0.00    -0.262 C  
ENDROOT
BRANCH   2   3
HETATM    3  C   UNL     1     -10.433  11.790  66.592  1.00  0.00    -0.224 C  
BRANCH   3   4
HETATM    4  N   UNL     1     -11.674  12.528  66.114  1.00  0.00    -0.399 N  
BRANCH   4   5
HETATM    5  C   UNL     1     -12.245  13.409  67.198  1.00  0.00    -0.256 C  
BRANCH   5   6
HETATM    6  C   UNL     1     -11.399  13.531  68.469  1.00  0.00    -0.327 C  
HETATM    7  C   UNL     1     -12.025  12.897  69.701  1.00  0.00    -0.358 C  
ENDBRANCH   5   6
ENDBRANCH   4   5
BRANCH   4   8
HETATM    8  S   UNL     1     -11.321  13.384  64.622  1.00  0.00    -0.367 S  
HETATM    9  O   UNL     1     -10.343  12.662  63.843  1.00  0.00    -0.417 OA 
HETATM   10  O   UNL     1     -12.585  13.782  64.037  1.00  0.00    -0.685 OA 
BRANCH   8  11
HETATM   11  C   UNL     1     -10.465  14.864  65.145  1.00  0.00    -0.417 A  
HETATM   12  C   UNL     1     -11.077  16.109  64.942  1.00  0.00    -0.336 A  
HETATM   13  C   UNL     1     -10.544  17.256  65.539  1.00  0.00    -0.136 A  
HETATM   14  C   UNL     1      -9.398  17.158  66.340  1.00  0.00    -0.286 A  
HETATM   15  C   UNL     1      -8.822  18.331  67.052  1.00  0.00    -0.266 C  
HETATM   16  C   UNL     1      -8.803  15.906  66.554  1.00  0.00    -0.340 A  
HETATM   17  O   UNL     1      -8.924  19.486  66.366  1.00  0.00    -0.342 OA 
HETATM   18  C   UNL     1      -9.333  14.758  65.956  1.00  0.00    -0.249 A  
HETATM   19  O   UNL     1      -8.267  18.245  68.134  1.00  0.00    -0.267 OA 
ENDBRANCH   8  11
ENDBRANCH   4   8
ENDBRANCH   3   4
ENDBRANCH   2   3
TORSDOF 6
ENDMDL
MODEL       87
REMARK 921   NORMALIZED FREE ENERGY PREDICTED BY IDOCK:   -4.17 KCAL/MOL
REMARK 922        TOTAL FREE ENERGY PREDICTED BY IDOCK:   -6.41 KCAL/MOL
REMARK 923 INTER-LIGAND FREE ENERGY PREDICTED BY IDOCK:   -6.12 KCAL/MOL
REMARK 924 INTRA-LIGAND FREE ENERGY PREDICTED BY IDOCK:   -0.29 KCAL/MOL
REMARK 927      BINDING AFFINITY PREDICTED BY RF-SCORE:    0.00 PKD
ROOT
HETATM    1  C   UNL     1      -9.898   4.436  72.463  1.00  0.00    -0.213 C  
HETATM    2  C   UNL     1     -10.967   5.471  72.169  1.00  0.00    -0.291 C  
ENDROOT
BRANCH   2   3
HETATM    3  C   UNL     1     -11.040   6.612  73.188  1.00  0.00    -0.171 C  
BRANCH   3   4
HETATM    4  N   UNL     1     -11.019   8.025  72.628  1.00  0.00    -0.362 N  
BRANCH   4   5
HETATM    5  C   UNL     1      -9.607   8.519  72.426  1.00  0.00    -0.286 C  
BRANCH   5   6
HETATM    6  C   UNL     1      -8.586   8.057  73.470  1.00  0.00    -0.318 C  
HETATM    7  C   UNL     1      -7.371   7.354  72.888  1.00  0.00    -0.082 C  
ENDBRANCH   5   6
ENDBRANCH   4   5
BRANCH   4   8
HETATM    8  S   UNL     1     -12.009   8.108  71.179  1.00  0.00    -0.239 S  
HETATM    9  O   UNL     1     -11.226   7.775  70.012  1.00  0.00    -0.224 OA 
HETATM   10  O   UNL     1     -13.251   7.418  71.458  1.00  0.00    -0.363 OA 
BRANCH   8  11
HETATM   11  C   UNL     1     -12.375   9.847  70.984  1.00  0.00    -0.357 A  
HETATM   12  C   UNL     1     -13.158  10.488  71.955  1.00  0.00    -0.567 A  
HETATM   13  C   UNL     1     -13.270  11.883  71.954  1.00  0.00    -0.467 A  
HETATM   14  C   UNL     1     -12.601  12.636  70.980  1.00  0.00    -0.354 A  
HETATM   15  C   UNL     1     -12.630  14.124  70.966  1.00  0.00    -0.369 C  
HETATM   16  C   UNL     1     -11.804  11.988  70.024  1.00  0.00    -0.392 A  
HETATM   17  O   UNL     1     -13.808  14.646  71.360  1.00  0.00    -0.387 OA 
HETATM   18  C   UNL     1     -11.691  10.595  70.023  1.00  0.00    -0.405 A  
HETATM   19  O   UNL     1     -11.694  14.804  70.585  1.00  0.00    -0.274 OA 
ENDBRANCH   8  11
ENDBRANCH   4   8
ENDBRANCH   3   4
ENDBRANCH   2   3
TORSDOF 6
ENDMDL
MODEL       88
REMARK 921   NORMALIZED FREE ENERGY PREDICTED BY IDOCK:   -4.15 KCAL/MOL
REMARK 922        TOTAL FREE ENERGY PREDICTED BY IDOCK:   -6.39 KCAL/MOL
REMARK 923 INTER-LIGAND FREE ENERGY PREDICTED BY IDOCK:   -5.97 KCAL/MOL
REMARK 924 INTRA-LIGAND FREE ENERGY PREDICTED BY IDOCK:   -0.42 KCAL/MOL
REMARK 927      BINDING AFFINITY PREDICTED BY RF-SCORE:    0.00 PKD
ROOT
HETATM    1  C   UNL     1     -10.151   4.724  66.249  1.00  0.00    -0.291 C  
HETATM    2  C   UNL     1     -10.695   6.063  66.711  1.00  0.00    -0.374 C  
ENDROOT
BRANCH   2   3
HETATM    3  C   UNL     1      -9.686   6.925  67.476  1.00  0.00    -0.134 C  
BRANCH   3   4
HETATM    4  N   UNL     1     -10.261   7.921  68.471  1.00  0.00    -0.202 N  
BRANCH   4   5
HETATM    5  C   UNL     1     -10.366   7.324  69.853  1.00  0.00    -0.219 C  
BRANCH   5   6
HETATM    6  C   UNL     1     -11.669   6.576  70.156  1.00  0.00    -0.419 C  
HETATM    7  C   UNL     1     -12.449   7.131  71.336  1.00  0.00    -0.427 C  
ENDBRANCH   5   6
ENDBRANCH   4   5
BRANCH   4   8
HETATM    8  S   UNL     1      -9.343   9.417  68.417  1.00  0.00    -0.133 S  
HETATM    9  O   UNL     1      -9.318  10.042  69.719  1.00  0.00    -0.220 OA 
HETATM   10  O   UNL     1      -8.112   9.149  67.701  1.00  0.00    -0.104 OA 
BRANCH   8  11
HETATM   11  C   UNL     1     -10.335  10.518  67.417  1.00  0.00    -0.224 A  
HETATM   12  C   UNL     1     -11.106  11.502  68.053  1.00  0.00    -0.313 A  
HETATM   13  C   UNL     1     -11.707  12.515  67.298  1.00  0.00    -0.431 A  
HETATM   14  C   UNL     1     -11.538  12.544  65.907  1.00  0.00    -0.454 A  
HETATM   15  C   UNL     1     -12.099  13.630  65.060  1.00  0.00    -0.392 C  
HETATM   16  C   UNL     1     -10.749  11.567  65.281  1.00  0.00    -0.337 A  
HETATM   17  O   UNL     1     -13.294  14.087  65.484  1.00  0.00    -0.673 OA 
HETATM   18  C   UNL     1     -10.148  10.553  66.033  1.00  0.00    -0.317 A  
HETATM   19  O   UNL     1     -11.552  14.035  64.049  1.00  0.00    -0.310 OA 
ENDBRANCH   8  11
ENDBRANCH   4   8
ENDBRANCH   3   4
ENDBRANCH   2   3
TORSDOF 6
ENDMDL
MODEL       89
REMARK 921   NORMALIZED FREE ENERGY PREDICTED BY IDOCK:   -4.14 KCAL/MOL
REMARK 922        TOTAL FREE ENERGY PREDICTED BY IDOCK:   -6.38 KCAL/MOL
REMARK 923 INTER-LIGAND FREE ENERGY PREDICTED BY IDOCK:   -5.78 KCAL/MOL
REMARK 924 INTRA-LIGAND FREE ENERGY PREDICTED BY IDOCK:   -0.60 KCAL/MOL
REMARK 927      BINDING AFFINITY PREDICTED BY RF-SCORE:    0.00 PKD
ROOT
HETATM    1  C   UNL     1      -6.745   7.068  68.344  1.00  0.00    -0.064 C  
HETATM    2  C   UNL     1      -7.374   8.173  69.172  1.00  0.00    -0.082 C  
ENDROOT
BRANCH   2   3
HETATM    3  C   UNL     1      -8.574   8.855  68.508  1.00  0.00    -0.133 C  
BRANCH   3   4
HETATM    4  N   UNL     1      -8.947   8.368  67.117  1.00  0.00    -0.135 N  
BRANCH   4   5
HETATM    5  C   UNL     1     -10.431   8.118  66.997  1.00  0.00    -0.326 C  
BRANCH   5   6
HETATM    6  C   UNL     1     -10.858   6.647  66.981  1.00  0.00    -0.467 C  
HETATM    7  C   UNL     1     -10.910   5.996  68.354  1.00  0.00    -0.361 C  
ENDBRANCH   5   6
ENDBRANCH   4   5
BRANCH   4   8
HETATM    8  S   UNL     1      -8.319   9.476  65.908  1.00  0.00    -0.123 S  
HETATM    9  O   UNL     1      -7.321  10.344  66.488  1.00  0.00    -0.107 OA 
HETATM   10  O   UNL     1      -8.027   8.704  64.717  1.00  0.00    -0.124 OA 
BRANCH   8  11
HETATM   11  C   UNL     1      -9.690  10.563  65.539  1.00  0.00    -0.242 A  
HETATM   12  C   UNL     1     -10.056  11.535  66.481  1.00  0.00    -0.246 A  
HETATM   13  C   UNL     1     -10.965  12.540  66.131  1.00  0.00    -0.318 A  
HETATM   14  C   UNL     1     -11.507  12.572  64.839  1.00  0.00    -0.367 A  
HETATM   15  C   UNL     1     -12.428  13.651  64.389  1.00  0.00    -0.264 C  
HETATM   16  C   UNL     1     -11.121  11.607  63.897  1.00  0.00    -0.477 A  
HETATM   17  O   UNL     1     -13.260  14.090  65.353  1.00  0.00    -0.761 OA 
HETATM   18  C   UNL     1     -10.214  10.601  64.245  1.00  0.00    -0.391 A  
HETATM   19  O   UNL     1     -12.459  14.064  63.243  1.00  0.00    -0.795 OA 
ENDBRANCH   8  11
ENDBRANCH   4   8
ENDBRANCH   3   4
ENDBRANCH   2   3
TORSDOF 6
ENDMDL
MODEL       90
REMARK 921   NORMALIZED FREE ENERGY PREDICTED BY IDOCK:   -4.13 KCAL/MOL
REMARK 922        TOTAL FREE ENERGY PREDICTED BY IDOCK:   -6.36 KCAL/MOL
REMARK 923 INTER-LIGAND FREE ENERGY PREDICTED BY IDOCK:   -5.72 KCAL/MOL
REMARK 924 INTRA-LIGAND FREE ENERGY PREDICTED BY IDOCK:   -0.64 KCAL/MOL
REMARK 927      BINDING AFFINITY PREDICTED BY RF-SCORE:    0.00 PKD
ROOT
HETATM    1  C   UNL     1     -11.770  15.128  71.462  1.00  0.00    -0.447 C  
HETATM    2  C   UNL     1     -11.497  15.247  69.975  1.00  0.00    -0.317 C  
ENDROOT
BRANCH   2   3
HETATM    3  C   UNL     1     -12.107  14.125  69.129  1.00  0.00    -0.325 C  
BRANCH   3   4
HETATM    4  N   UNL     1     -11.219  12.920  68.860  1.00  0.00    -0.266 N  
BRANCH   4   5
HETATM    5  C   UNL     1     -11.833  11.649  69.398  1.00  0.00    -0.342 C  
BRANCH   5   6
HETATM    6  C   UNL     1     -10.843  10.604  69.923  1.00  0.00    -0.301 C  
HETATM    7  C   UNL     1     -11.403   9.703  71.011  1.00  0.00    -0.444 C  
ENDBRANCH   5   6
ENDBRANCH   4   5
BRANCH   4   8
HETATM    8  S   UNL     1     -10.821  12.841  67.152  1.00  0.00    -0.262 S  
HETATM    9  O   UNL     1      -9.908  11.752  66.895  1.00  0.00    -0.199 OA 
HETATM   10  O   UNL     1     -12.058  12.961  66.408  1.00  0.00    -0.401 OA 
BRANCH   8  11
HETATM   11  C   UNL     1      -9.850  14.312  66.848  1.00  0.00    -0.263 A  
HETATM   12  C   UNL     1     -10.422  15.362  66.117  1.00  0.00    -0.325 A  
HETATM   13  C   UNL     1      -9.780  16.605  66.059  1.00  0.00    -0.306 A  
HETATM   14  C   UNL     1      -8.566  16.795  66.732  1.00  0.00    -0.264 A  
HETATM   15  C   UNL     1      -7.870  18.110  66.760  1.00  0.00    -0.235 C  
HETATM   16  C   UNL     1      -8.011  15.745  67.478  1.00  0.00    -0.171 A  
HETATM   17  O   UNL     1      -7.986  18.810  65.615  1.00  0.00    -0.441 OA 
HETATM   18  C   UNL     1      -8.649  14.502  67.536  1.00  0.00    -0.198 A  
HETATM   19  O   UNL     1      -7.215  18.496  67.713  1.00  0.00    -0.216 OA 
ENDBRANCH   8  11
ENDBRANCH   4   8
ENDBRANCH   3   4
ENDBRANCH   2   3
TORSDOF 6
ENDMDL
MODEL       91
REMARK 921   NORMALIZED FREE ENERGY PREDICTED BY IDOCK:   -4.13 KCAL/MOL
REMARK 922        TOTAL FREE ENERGY PREDICTED BY IDOCK:   -6.36 KCAL/MOL
REMARK 923 INTER-LIGAND FREE ENERGY PREDICTED BY IDOCK:   -5.41 KCAL/MOL
REMARK 924 INTRA-LIGAND FREE ENERGY PREDICTED BY IDOCK:   -0.95 KCAL/MOL
REMARK 927      BINDING AFFINITY PREDICTED BY RF-SCORE:    0.00 PKD
ROOT
HETATM    1  C   UNL     1     -10.400   9.649  70.723  1.00  0.00    -0.356 C  
HETATM    2  C   UNL     1      -9.440   8.476  70.665  1.00  0.00    -0.203 C  
ENDROOT
BRANCH   2   3
HETATM    3  C   UNL     1      -9.177   7.943  69.253  1.00  0.00    -0.148 C  
BRANCH   3   4
HETATM    4  N   UNL     1      -8.740   8.964  68.214  1.00  0.00    -0.134 N  
BRANCH   4   5
HETATM    5  C   UNL     1      -7.238   8.995  68.066  1.00  0.00    -0.080 C  
BRANCH   5   6
HETATM    6  C   UNL     1      -6.535  10.210  68.679  1.00  0.00    -0.052 C  
HETATM    7  C   UNL     1      -7.423  11.434  68.834  1.00  0.00    -0.113 C  
ENDBRANCH   5   6
ENDBRANCH   4   5
BRANCH   4   8
HETATM    8  S   UNL     1      -9.591   8.681  66.704  1.00  0.00    -0.242 S  
HETATM    9  O   UNL     1      -8.657   8.375  65.647  1.00  0.00    -0.157 OA 
HETATM   10  O   UNL     1     -10.704   7.798  66.988  1.00  0.00    -0.347 OA 
BRANCH   8  11
HETATM   11  C   UNL     1     -10.256  10.280  66.257  1.00  0.00    -0.221 A  
HETATM   12  C   UNL     1     -10.288  10.646  64.904  1.00  0.00    -0.347 A  
HETATM   13  C   UNL     1     -11.003  11.780  64.503  1.00  0.00    -0.382 A  
HETATM   14  C   UNL     1     -11.687  12.547  65.455  1.00  0.00    -0.457 A  
HETATM   15  C   UNL     1     -12.516  13.725  65.082  1.00  0.00    -0.450 C  
HETATM   16  C   UNL     1     -11.666  12.163  66.805  1.00  0.00    -0.377 A  
HETATM   17  O   UNL     1     -12.017  14.434  64.051  1.00  0.00    -0.385 OA 
HETATM   18  C   UNL     1     -10.950  11.031  67.208  1.00  0.00    -0.356 A  
HETATM   19  O   UNL     1     -13.525  14.046  65.685  1.00  0.00    -0.604 OA 
ENDBRANCH   8  11
ENDBRANCH   4   8
ENDBRANCH   3   4
ENDBRANCH   2   3
TORSDOF 6
ENDMDL
MODEL       92
REMARK 921   NORMALIZED FREE ENERGY PREDICTED BY IDOCK:   -4.13 KCAL/MOL
REMARK 922        TOTAL FREE ENERGY PREDICTED BY IDOCK:   -6.36 KCAL/MOL
REMARK 923 INTER-LIGAND FREE ENERGY PREDICTED BY IDOCK:   -5.44 KCAL/MOL
REMARK 924 INTRA-LIGAND FREE ENERGY PREDICTED BY IDOCK:   -0.91 KCAL/MOL
REMARK 927      BINDING AFFINITY PREDICTED BY RF-SCORE:    0.00 PKD
ROOT
HETATM    1  C   UNL     1      -9.199  12.170  67.811  1.00  0.00    -0.189 C  
HETATM    2  C   UNL     1      -9.049  11.861  66.334  1.00  0.00    -0.208 C  
ENDROOT
BRANCH   2   3
HETATM    3  C   UNL     1     -10.363  11.520  65.623  1.00  0.00    -0.261 C  
BRANCH   3   4
HETATM    4  N   UNL     1     -10.611  12.208  64.290  1.00  0.00    -0.318 N  
BRANCH   4   5
HETATM    5  C   UNL     1     -10.513  11.236  63.139  1.00  0.00    -0.227 C  
BRANCH   5   6
HETATM    6  C   UNL     1      -9.096  10.784  62.770  1.00  0.00    -0.328 C  
HETATM    7  C   UNL     1      -8.808   9.322  63.071  1.00  0.00    -0.173 C  
ENDBRANCH   5   6
ENDBRANCH   4   5
BRANCH   4   8
HETATM    8  S   UNL     1     -12.131  13.085  64.344  1.00  0.00    -0.428 S  
HETATM    9  O   UNL     1     -12.236  13.986  63.220  1.00  0.00    -0.588 OA 
HETATM   10  O   UNL     1     -13.180  12.126  64.624  1.00  0.00    -0.659 OA 
BRANCH   8  11
HETATM   11  C   UNL     1     -11.977  14.164  65.762  1.00  0.00    -0.402 A  
HETATM   12  C   UNL     1     -12.523  13.755  66.987  1.00  0.00    -0.146 A  
HETATM   13  C   UNL     1     -12.224  14.462  68.157  1.00  0.00    -0.142 A  
HETATM   14  C   UNL     1     -11.378  15.578  68.101  1.00  0.00    -0.348 A  
HETATM   15  C   UNL     1     -10.973  16.330  69.319  1.00  0.00    -0.317 C  
HETATM   16  C   UNL     1     -10.821  15.969  66.875  1.00  0.00    -0.203 A  
HETATM   17  O   UNL     1     -11.940  16.412  70.253  1.00  0.00    -0.015 OA 
HETATM   18  C   UNL     1     -11.119  15.265  65.704  1.00  0.00    -0.308 A  
HETATM   19  O   UNL     1      -9.884  16.865  69.439  1.00  0.00    -0.185 OA 
ENDBRANCH   8  11
ENDBRANCH   4   8
ENDBRANCH   3   4
ENDBRANCH   2   3
TORSDOF 6
ENDMDL
MODEL       93
REMARK 921   NORMALIZED FREE ENERGY PREDICTED BY IDOCK:   -4.12 KCAL/MOL
REMARK 922        TOTAL FREE ENERGY PREDICTED BY IDOCK:   -6.35 KCAL/MOL
REMARK 923 INTER-LIGAND FREE ENERGY PREDICTED BY IDOCK:   -5.85 KCAL/MOL
REMARK 924 INTRA-LIGAND FREE ENERGY PREDICTED BY IDOCK:   -0.50 KCAL/MOL
REMARK 927      BINDING AFFINITY PREDICTED BY RF-SCORE:    0.00 PKD
ROOT
HETATM    1  C   UNL     1      -9.365   5.782  66.074  1.00  0.00    -0.134 C  
HETATM    2  C   UNL     1      -9.264   7.152  66.717  1.00  0.00    -0.188 C  
ENDROOT
BRANCH   2   3
HETATM    3  C   UNL     1     -10.593   7.702  67.245  1.00  0.00    -0.318 C  
BRANCH   3   4
HETATM    4  N   UNL     1     -10.524   8.551  68.504  1.00  0.00    -0.196 N  
BRANCH   4   5
HETATM    5  C   UNL     1      -9.573   7.961  69.517  1.00  0.00    -0.160 C  
BRANCH   5   6
HETATM    6  C   UNL     1     -10.217   7.107  70.614  1.00  0.00    -0.205 C  
HETATM    7  C   UNL     1     -11.601   6.583  70.267  1.00  0.00    -0.473 C  
ENDBRANCH   5   6
ENDBRANCH   4   5
BRANCH   4   8
HETATM    8  S   UNL     1     -10.160  10.216  68.082  1.00  0.00    -0.160 S  
HETATM    9  O   UNL     1      -8.841  10.579  68.545  1.00  0.00    -0.130 OA 
HETATM   10  O   UNL     1     -10.537  10.409  66.696  1.00  0.00    -0.231 OA 
BRANCH   8  11
HETATM   11  C   UNL     1     -11.267  11.189  69.095  1.00  0.00    -0.264 A  
HETATM   12  C   UNL     1     -11.897  10.579  70.189  1.00  0.00    -0.404 A  
HETATM   13  C   UNL     1     -12.582  11.360  71.127  1.00  0.00    -0.490 A  
HETATM   14  C   UNL     1     -12.636  12.751  70.970  1.00  0.00    -0.362 A  
HETATM   15  C   UNL     1     -13.294  13.639  71.966  1.00  0.00    -0.459 C  
HETATM   16  C   UNL     1     -11.987  13.356  69.883  1.00  0.00    -0.408 A  
HETATM   17  O   UNL     1     -14.391  13.100  72.532  1.00  0.00    -0.613 OA 
HETATM   18  C   UNL     1     -11.303  12.577  68.944  1.00  0.00    -0.346 A  
HETATM   19  O   UNL     1     -12.904  14.767  72.211  1.00  0.00    -0.306 OA 
ENDBRANCH   8  11
ENDBRANCH   4   8
ENDBRANCH   3   4
ENDBRANCH   2   3
TORSDOF 6
ENDMDL
MODEL       94
REMARK 921   NORMALIZED FREE ENERGY PREDICTED BY IDOCK:   -4.09 KCAL/MOL
REMARK 922        TOTAL FREE ENERGY PREDICTED BY IDOCK:   -6.32 KCAL/MOL
REMARK 923 INTER-LIGAND FREE ENERGY PREDICTED BY IDOCK:   -5.91 KCAL/MOL
REMARK 924 INTRA-LIGAND FREE ENERGY PREDICTED BY IDOCK:   -0.41 KCAL/MOL
REMARK 927      BINDING AFFINITY PREDICTED BY RF-SCORE:    0.00 PKD
ROOT
HETATM    1  C   UNL     1      -9.009   8.282  65.989  1.00  0.00    -0.224 C  
HETATM    2  C   UNL     1      -9.482   9.509  65.232  1.00  0.00    -0.326 C  
ENDROOT
BRANCH   2   3
HETATM    3  C   UNL     1      -8.853  10.823  65.703  1.00  0.00    -0.190 C  
BRANCH   3   4
HETATM    4  N   UNL     1      -9.724  12.066  65.605  1.00  0.00    -0.240 N  
BRANCH   4   5
HETATM    5  C   UNL     1     -11.191  11.711  65.563  1.00  0.00    -0.205 C  
BRANCH   5   6
HETATM    6  C   UNL     1     -11.943  12.147  64.302  1.00  0.00    -0.466 C  
HETATM    7  C   UNL     1     -12.115  13.651  64.164  1.00  0.00    -0.484 C  
ENDBRANCH   5   6
ENDBRANCH   4   5
BRANCH   4   8
HETATM    8  S   UNL     1      -9.307  13.190  66.888  1.00  0.00    -0.248 S  
HETATM    9  O   UNL     1      -7.922  13.036  67.266  1.00  0.00    -0.172 OA 
HETATM   10  O   UNL     1      -9.834  14.489  66.520  1.00  0.00    -0.262 OA 
BRANCH   8  11
HETATM   11  C   UNL     1     -10.221  12.607  68.311  1.00  0.00    -0.239 A  
HETATM   12  C   UNL     1     -11.278  13.386  68.803  1.00  0.00    -0.315 A  
HETATM   13  C   UNL     1     -12.150  12.856  69.761  1.00  0.00    -0.312 A  
HETATM   14  C   UNL     1     -11.964  11.547  70.226  1.00  0.00    -0.455 A  
HETATM   15  C   UNL     1     -12.895  10.907  71.194  1.00  0.00    -0.409 C  
HETATM   16  C   UNL     1     -10.916  10.768  69.713  1.00  0.00    -0.314 A  
HETATM   17  O   UNL     1     -13.391  11.759  72.113  1.00  0.00    -0.497 OA 
HETATM   18  C   UNL     1     -10.042  11.296  68.758  1.00  0.00    -0.204 A  
HETATM   19  O   UNL     1     -13.147   9.715  71.187  1.00  0.00    -0.348 OA 
ENDBRANCH   8  11
ENDBRANCH   4   8
ENDBRANCH   3   4
ENDBRANCH   2   3
TORSDOF 6
ENDMDL
MODEL       95
REMARK 921   NORMALIZED FREE ENERGY PREDICTED BY IDOCK:   -4.09 KCAL/MOL
REMARK 922        TOTAL FREE ENERGY PREDICTED BY IDOCK:   -6.31 KCAL/MOL
REMARK 923 INTER-LIGAND FREE ENERGY PREDICTED BY IDOCK:   -5.62 KCAL/MOL
REMARK 924 INTRA-LIGAND FREE ENERGY PREDICTED BY IDOCK:   -0.70 KCAL/MOL
REMARK 927      BINDING AFFINITY PREDICTED BY RF-SCORE:    0.00 PKD
ROOT
HETATM    1  C   UNL     1     -10.185   5.045  69.030  1.00  0.00    -0.207 C  
HETATM    2  C   UNL     1     -11.040   6.089  69.724  1.00  0.00    -0.476 C  
ENDROOT
BRANCH   2   3
HETATM    3  C   UNL     1     -10.250   7.096  70.566  1.00  0.00    -0.196 C  
BRANCH   3   4
HETATM    4  N   UNL     1     -10.528   8.567  70.302  1.00  0.00    -0.215 N  
BRANCH   4   5
HETATM    5  C   UNL     1     -10.929   9.290  71.566  1.00  0.00    -0.375 C  
BRANCH   5   6
HETATM    6  C   UNL     1     -12.273  10.024  71.514  1.00  0.00    -0.496 C  
HETATM    7  C   UNL     1     -13.482   9.131  71.739  1.00  0.00    -0.478 C  
ENDBRANCH   5   6
ENDBRANCH   4   5
BRANCH   4   8
HETATM    8  S   UNL     1      -9.160   9.296  69.478  1.00  0.00    -0.171 S  
HETATM    9  O   UNL     1      -8.295   9.961  70.424  1.00  0.00    -0.153 OA 
HETATM   10  O   UNL     1      -8.630   8.312  68.556  1.00  0.00    -0.131 OA 
BRANCH   8  11
HETATM   11  C   UNL     1      -9.870  10.626  68.517  1.00  0.00    -0.168 A  
HETATM   12  C   UNL     1     -11.204  10.524  68.100  1.00  0.00    -0.357 A  
HETATM   13  C   UNL     1     -11.853  11.635  67.550  1.00  0.00    -0.196 A  
HETATM   14  C   UNL     1     -11.166  12.850  67.418  1.00  0.00    -0.331 A  
HETATM   15  C   UNL     1     -11.820  14.081  66.901  1.00  0.00    -0.430 C  
HETATM   16  C   UNL     1      -9.837  12.949  67.856  1.00  0.00    -0.227 A  
HETATM   17  O   UNL     1     -12.728  13.848  65.933  1.00  0.00    -0.489 OA 
HETATM   18  C   UNL     1      -9.187  11.839  68.404  1.00  0.00    -0.175 A  
HETATM   19  O   UNL     1     -11.527  15.201  67.283  1.00  0.00    -0.345 OA 
ENDBRANCH   8  11
ENDBRANCH   4   8
ENDBRANCH   3   4
ENDBRANCH   2   3
TORSDOF 6
ENDMDL
MODEL       96
REMARK 921   NORMALIZED FREE ENERGY PREDICTED BY IDOCK:   -4.07 KCAL/MOL
REMARK 922        TOTAL FREE ENERGY PREDICTED BY IDOCK:   -6.29 KCAL/MOL
REMARK 923 INTER-LIGAND FREE ENERGY PREDICTED BY IDOCK:   -5.77 KCAL/MOL
REMARK 924 INTRA-LIGAND FREE ENERGY PREDICTED BY IDOCK:   -0.52 KCAL/MOL
REMARK 927      BINDING AFFINITY PREDICTED BY RF-SCORE:    0.00 PKD
ROOT
HETATM    1  C   UNL     1      -9.116   9.261  70.770  1.00  0.00    -0.306 C  
HETATM    2  C   UNL     1     -10.167   9.855  69.851  1.00  0.00    -0.298 C  
ENDROOT
BRANCH   2   3
HETATM    3  C   UNL     1      -9.673  11.030  69.001  1.00  0.00    -0.134 C  
BRANCH   3   4
HETATM    4  N   UNL     1     -10.235  11.131  67.592  1.00  0.00    -0.178 N  
BRANCH   4   5
HETATM    5  C   UNL     1     -10.717   9.791  67.091  1.00  0.00    -0.202 C  
BRANCH   5   6
HETATM    6  C   UNL     1      -9.691   8.966  66.307  1.00  0.00    -0.345 C  
HETATM    7  C   UNL     1      -9.649   7.495  66.688  1.00  0.00    -0.263 C  
ENDBRANCH   5   6
ENDBRANCH   4   5
BRANCH   4   8
HETATM    8  S   UNL     1     -11.457  12.390  67.524  1.00  0.00    -0.364 S  
HETATM    9  O   UNL     1     -12.238  12.273  66.316  1.00  0.00    -0.628 OA 
HETATM   10  O   UNL     1     -12.101  12.444  68.820  1.00  0.00    -0.269 OA 
BRANCH   8  11
HETATM   11  C   UNL     1     -10.530  13.904  67.306  1.00  0.00    -0.271 A  
HETATM   12  C   UNL     1     -10.012  14.205  66.038  1.00  0.00    -0.340 A  
HETATM   13  C   UNL     1      -9.486  15.476  65.781  1.00  0.00    -0.334 A  
HETATM   14  C   UNL     1      -9.478  16.446  66.792  1.00  0.00    -0.265 A  
HETATM   15  C   UNL     1      -8.992  17.833  66.561  1.00  0.00    -0.261 C  
HETATM   16  C   UNL     1     -10.017  16.143  68.052  1.00  0.00    -0.238 A  
HETATM   17  O   UNL     1      -7.948  17.907  65.712  1.00  0.00    -0.540 OA 
HETATM   18  C   UNL     1     -10.542  14.874  68.311  1.00  0.00    -0.240 A  
HETATM   19  O   UNL     1      -9.462  18.806  67.124  1.00  0.00    -0.295 OA 
ENDBRANCH   8  11
ENDBRANCH   4   8
ENDBRANCH   3   4
ENDBRANCH   2   3
TORSDOF 6
ENDMDL
MODEL       97
REMARK 921   NORMALIZED FREE ENERGY PREDICTED BY IDOCK:   -4.07 KCAL/MOL
REMARK 922        TOTAL FREE ENERGY PREDICTED BY IDOCK:   -6.29 KCAL/MOL
REMARK 923 INTER-LIGAND FREE ENERGY PREDICTED BY IDOCK:   -5.88 KCAL/MOL
REMARK 924 INTRA-LIGAND FREE ENERGY PREDICTED BY IDOCK:   -0.41 KCAL/MOL
REMARK 927      BINDING AFFINITY PREDICTED BY RF-SCORE:    0.00 PKD
ROOT
HETATM    1  C   UNL     1      -8.448   9.417  64.301  1.00  0.00    -0.198 C  
HETATM    2  C   UNL     1      -9.753  10.158  64.518  1.00  0.00    -0.361 C  
ENDROOT
BRANCH   2   3
HETATM    3  C   UNL     1     -10.263  10.130  65.963  1.00  0.00    -0.218 C  
BRANCH   3   4
HETATM    4  N   UNL     1     -10.074  11.403  66.773  1.00  0.00    -0.211 N  
BRANCH   4   5
HETATM    5  C   UNL     1      -8.833  12.151  66.348  1.00  0.00    -0.100 C  
BRANCH   5   6
HETATM    6  C   UNL     1      -7.684  12.162  67.361  1.00  0.00    -0.165 C  
HETATM    7  C   UNL     1      -6.629  11.094  67.122  1.00  0.00    -0.098 C  
ENDBRANCH   5   6
ENDBRANCH   4   5
BRANCH   4   8
HETATM    8  S   UNL     1     -11.536  12.373  66.712  1.00  0.00    -0.367 S  
HETATM    9  O   UNL     1     -12.165  12.259  65.417  1.00  0.00    -0.546 OA 
HETATM   10  O   UNL     1     -12.286  12.111  67.924  1.00  0.00    -0.438 OA 
BRANCH   8  11
HETATM   11  C   UNL     1     -10.958  14.064  66.775  1.00  0.00    -0.297 A  
HETATM   12  C   UNL     1     -10.743  14.752  65.572  1.00  0.00    -0.369 A  
HETATM   13  C   UNL     1     -10.514  16.132  65.588  1.00  0.00    -0.402 A  
HETATM   14  C   UNL     1     -10.499  16.824  66.806  1.00  0.00    -0.258 A  
HETATM   15  C   UNL     1     -10.325  18.299  66.881  1.00  0.00    -0.385 C  
HETATM   16  C   UNL     1     -10.735  16.131  68.003  1.00  0.00    -0.321 A  
HETATM   17  O   UNL     1      -9.485  18.794  65.951  1.00  0.00    -0.470 OA 
HETATM   18  C   UNL     1     -10.962  14.752  67.990  1.00  0.00    -0.276 A  
HETATM   19  O   UNL     1     -10.854  18.990  67.735  1.00  0.00    -0.396 OA 
ENDBRANCH   8  11
ENDBRANCH   4   8
ENDBRANCH   3   4
ENDBRANCH   2   3
TORSDOF 6
ENDMDL
MODEL       98
REMARK 921   NORMALIZED FREE ENERGY PREDICTED BY IDOCK:   -4.06 KCAL/MOL
REMARK 922        TOTAL FREE ENERGY PREDICTED BY IDOCK:   -6.27 KCAL/MOL
REMARK 923 INTER-LIGAND FREE ENERGY PREDICTED BY IDOCK:   -5.20 KCAL/MOL
REMARK 924 INTRA-LIGAND FREE ENERGY PREDICTED BY IDOCK:   -1.07 KCAL/MOL
REMARK 927      BINDING AFFINITY PREDICTED BY RF-SCORE:    0.00 PKD
ROOT
HETATM    1  C   UNL     1     -12.096  13.422  69.301  1.00  0.00    -0.312 C  
HETATM    2  C   UNL     1     -12.003  12.052  69.946  1.00  0.00    -0.391 C  
ENDROOT
BRANCH   2   3
HETATM    3  C   UNL     1     -11.505  10.945  69.012  1.00  0.00    -0.302 C  
BRANCH   3   4
HETATM    4  N   UNL     1      -9.999  10.748  68.937  1.00  0.00    -0.196 N  
BRANCH   4   5
HETATM    5  C   UNL     1      -9.566   9.509  69.683  1.00  0.00    -0.202 C  
BRANCH   5   6
HETATM    6  C   UNL     1     -10.645   8.439  69.876  1.00  0.00    -0.228 C  
HETATM    7  C   UNL     1     -10.593   7.307  68.862  1.00  0.00    -0.207 C  
ENDBRANCH   5   6
ENDBRANCH   4   5
BRANCH   4   8
HETATM    8  S   UNL     1      -9.475  10.781  67.261  1.00  0.00    -0.159 S  
HETATM    9  O   UNL     1      -8.065  10.482  67.166  1.00  0.00    -0.117 OA 
HETATM   10  O   UNL     1     -10.444  10.034  66.485  1.00  0.00    -0.215 OA 
BRANCH   8  11
HETATM   11  C   UNL     1      -9.595  12.501  66.786  1.00  0.00    -0.231 A  
HETATM   12  C   UNL     1     -10.597  12.887  65.886  1.00  0.00    -0.287 A  
HETATM   13  C   UNL     1     -10.862  14.245  65.673  1.00  0.00    -0.311 A  
HETATM   14  C   UNL     1     -10.122  15.216  66.362  1.00  0.00    -0.286 A  
HETATM   15  C   UNL     1     -10.400  16.671  66.226  1.00  0.00    -0.317 C  
HETATM   16  C   UNL     1      -9.134  14.820  67.276  1.00  0.00    -0.214 A  
HETATM   17  O   UNL     1     -10.780  17.037  64.986  1.00  0.00    -0.713 OA 
HETATM   18  C   UNL     1      -8.867  13.465  67.489  1.00  0.00    -0.210 A  
HETATM   19  O   UNL     1     -10.250  17.465  67.138  1.00  0.00    -0.305 OA 
ENDBRANCH   8  11
ENDBRANCH   4   8
ENDBRANCH   3   4
ENDBRANCH   2   3
TORSDOF 6
ENDMDL
MODEL       99
REMARK 921   NORMALIZED FREE ENERGY PREDICTED BY IDOCK:   -4.06 KCAL/MOL
REMARK 922        TOTAL FREE ENERGY PREDICTED BY IDOCK:   -6.27 KCAL/MOL
REMARK 923 INTER-LIGAND FREE ENERGY PREDICTED BY IDOCK:   -5.95 KCAL/MOL
REMARK 924 INTRA-LIGAND FREE ENERGY PREDICTED BY IDOCK:   -0.32 KCAL/MOL
REMARK 927      BINDING AFFINITY PREDICTED BY RF-SCORE:    0.00 PKD
ROOT
HETATM    1  C   UNL     1     -10.483  18.043  67.838  1.00  0.00    -0.408 C  
HETATM    2  C   UNL     1     -10.577  16.928  68.863  1.00  0.00    -0.353 C  
ENDROOT
BRANCH   2   3
HETATM    3  C   UNL     1     -11.182  15.627  68.327  1.00  0.00    -0.353 C  
BRANCH   3   4
HETATM    4  N   UNL     1     -10.317  14.819  67.373  1.00  0.00    -0.242 N  
BRANCH   4   5
HETATM    5  C   UNL     1      -9.133  14.207  68.082  1.00  0.00    -0.193 C  
BRANCH   5   6
HETATM    6  C   UNL     1      -7.756  14.629  67.560  1.00  0.00    -0.216 C  
HETATM    7  C   UNL     1      -7.765  15.903  66.729  1.00  0.00    -0.245 C  
ENDBRANCH   5   6
ENDBRANCH   4   5
BRANCH   4   8
HETATM    8  S   UNL     1     -11.307  13.649  66.515  1.00  0.00    -0.331 S  
HETATM    9  O   UNL     1     -12.658  14.137  66.372  1.00  0.00    -0.427 OA 
HETATM   10  O   UNL     1     -10.555  13.203  65.360  1.00  0.00    -0.286 OA 
BRANCH   8  11
HETATM   11  C   UNL     1     -11.453  12.270  67.645  1.00  0.00    -0.336 A  
HETATM   12  C   UNL     1     -10.931  11.025  67.266  1.00  0.00    -0.356 A  
HETATM   13  C   UNL     1     -10.824   9.996  68.208  1.00  0.00    -0.286 A  
HETATM   14  C   UNL     1     -11.241  10.211  69.528  1.00  0.00    -0.288 A  
HETATM   15  C   UNL     1     -11.094   9.178  70.587  1.00  0.00    -0.265 C  
HETATM   16  C   UNL     1     -11.744  11.466  69.903  1.00  0.00    -0.424 A  
HETATM   17  O   UNL     1     -11.277   7.918  70.145  1.00  0.00    -0.242 OA 
HETATM   18  C   UNL     1     -11.852  12.496  68.964  1.00  0.00    -0.344 A  
HETATM   19  O   UNL     1     -10.876   9.448  71.756  1.00  0.00    -0.354 OA 
ENDBRANCH   8  11
ENDBRANCH   4   8
ENDBRANCH   3   4
ENDBRANCH   2   3
TORSDOF 6
ENDMDL
MODEL      100
REMARK 921   NORMALIZED FREE ENERGY PREDICTED BY IDOCK:   -4.05 KCAL/MOL
REMARK 922        TOTAL FREE ENERGY PREDICTED BY IDOCK:   -6.26 KCAL/MOL
REMARK 923 INTER-LIGAND FREE ENERGY PREDICTED BY IDOCK:   -5.54 KCAL/MOL
REMARK 924 INTRA-LIGAND FREE ENERGY PREDICTED BY IDOCK:   -0.72 KCAL/MOL
REMARK 927      BINDING AFFINITY PREDICTED BY RF-SCORE:    0.00 PKD
ROOT
HETATM    1  C   UNL     1      -8.726   7.247  74.159  1.00  0.00    -0.253 C  
HETATM    2  C   UNL     1      -8.597   8.316  73.090  1.00  0.00    -0.278 C  
ENDROOT
BRANCH   2   3
HETATM    3  C   UNL     1      -9.559   8.151  71.910  1.00  0.00    -0.201 C  
BRANCH   3   4
HETATM    4  N   UNL     1     -11.043   8.242  72.227  1.00  0.00    -0.333 N  
BRANCH   4   5
HETATM    5  C   UNL     1     -11.675   9.448  71.574  1.00  0.00    -0.394 C  
BRANCH   5   6
HETATM    6  C   UNL     1     -10.862  10.096  70.449  1.00  0.00    -0.365 C  
HETATM    7  C   UNL     1     -11.700  10.821  69.409  1.00  0.00    -0.378 C  
ENDBRANCH   5   6
ENDBRANCH   4   5
BRANCH   4   8
HETATM    8  S   UNL     1     -11.834   6.727  71.826  1.00  0.00    -0.344 S  
HETATM    9  O   UNL     1     -11.515   5.715  72.805  1.00  0.00    -0.299 OA 
HETATM   10  O   UNL     1     -13.212   7.028  71.494  1.00  0.00    -0.375 OA 
BRANCH   8  11
HETATM   11  C   UNL     1     -11.016   6.174  70.335  1.00  0.00    -0.337 A  
HETATM   12  C   UNL     1     -10.181   5.049  70.398  1.00  0.00    -0.324 A  
HETATM   13  C   UNL     1      -9.712   4.459  69.219  1.00  0.00    -0.252 A  
HETATM   14  C   UNL     1     -10.079   4.994  67.977  1.00  0.00    -0.169 A  
HETATM   15  C   UNL     1      -9.665   4.374  66.690  1.00  0.00    -0.215 C  
HETATM   16  C   UNL     1     -10.931   6.108  67.923  1.00  0.00    -0.399 A  
HETATM   17  O   UNL     1      -8.431   3.834  66.720  1.00  0.00    -0.102 OA 
HETATM   18  C   UNL     1     -11.399   6.700  69.099  1.00  0.00    -0.262 A  
HETATM   19  O   UNL     1     -10.358   4.395  65.688  1.00  0.00    -0.257 OA 
ENDBRANCH   8  11
ENDBRANCH   4   8
ENDBRANCH   3   4
ENDBRANCH   2   3
TORSDOF 6
ENDMDL
MODEL      101
REMARK 921   NORMALIZED FREE ENERGY PREDICTED BY IDOCK:   -4.05 KCAL/MOL
REMARK 922        TOTAL FREE ENERGY PREDICTED BY IDOCK:   -6.26 KCAL/MOL
REMARK 923 INTER-LIGAND FREE ENERGY PREDICTED BY IDOCK:   -5.65 KCAL/MOL
REMARK 924 INTRA-LIGAND FREE ENERGY PREDICTED BY IDOCK:   -0.61 KCAL/MOL
REMARK 927      BINDING AFFINITY PREDICTED BY RF-SCORE:    0.00 PKD
ROOT
HETATM    1  C   UNL     1      -7.298   4.971  70.643  1.00  0.00    -0.065 C  
HETATM    2  C   UNL     1      -8.577   5.713  70.302  1.00  0.00    -0.131 C  
ENDROOT
BRANCH   2   3
HETATM    3  C   UNL     1      -9.209   6.459  71.482  1.00  0.00    -0.144 C  
BRANCH   3   4
HETATM    4  N   UNL     1     -10.662   6.875  71.322  1.00  0.00    -0.221 N  
BRANCH   4   5
HETATM    5  C   UNL     1     -11.585   5.978  72.111  1.00  0.00    -0.293 C  
BRANCH   5   6
HETATM    6  C   UNL     1     -10.980   5.342  73.366  1.00  0.00    -0.349 C  
HETATM    7  C   UNL     1     -11.107   3.829  73.425  1.00  0.00    -0.308 C  
ENDBRANCH   5   6
ENDBRANCH   4   5
BRANCH   4   8
HETATM    8  S   UNL     1     -10.841   8.580  71.703  1.00  0.00    -0.312 S  
HETATM    9  O   UNL     1     -12.056   8.807  72.449  1.00  0.00    -0.361 OA 
HETATM   10  O   UNL     1      -9.566   9.052  72.203  1.00  0.00    -0.312 OA 
BRANCH   8  11
HETATM   11  C   UNL     1     -11.138   9.365  70.124  1.00  0.00    -0.242 A  
HETATM   12  C   UNL     1     -11.768  10.617  70.097  1.00  0.00    -0.417 A  
HETATM   13  C   UNL     1     -11.808  11.355  68.909  1.00  0.00    -0.413 A  
HETATM   14  C   UNL     1     -11.219  10.839  67.747  1.00  0.00    -0.385 A  
HETATM   15  C   UNL     1     -11.174  11.604  66.471  1.00  0.00    -0.294 C  
HETATM   16  C   UNL     1     -10.574   9.594  67.787  1.00  0.00    -0.320 A  
HETATM   17  O   UNL     1     -12.269  12.357  66.252  1.00  0.00    -0.620 OA 
HETATM   18  C   UNL     1     -10.534   8.855  68.973  1.00  0.00    -0.231 A  
HETATM   19  O   UNL     1     -10.255  11.518  65.676  1.00  0.00    -0.229 OA 
ENDBRANCH   8  11
ENDBRANCH   4   8
ENDBRANCH   3   4
ENDBRANCH   2   3
TORSDOF 6
ENDMDL
MODEL      102
REMARK 921   NORMALIZED FREE ENERGY PREDICTED BY IDOCK:   -4.05 KCAL/MOL
REMARK 922        TOTAL FREE ENERGY PREDICTED BY IDOCK:   -6.25 KCAL/MOL
REMARK 923 INTER-LIGAND FREE ENERGY PREDICTED BY IDOCK:   -5.48 KCAL/MOL
REMARK 924 INTRA-LIGAND FREE ENERGY PREDICTED BY IDOCK:   -0.77 KCAL/MOL
REMARK 927      BINDING AFFINITY PREDICTED BY RF-SCORE:    0.00 PKD
ROOT
HETATM    1  C   UNL     1      -7.159  14.917  67.947  1.00  0.00    -0.168 C  
HETATM    2  C   UNL     1      -8.347  13.986  68.094  1.00  0.00    -0.164 C  
ENDROOT
BRANCH   2   3
HETATM    3  C   UNL     1      -8.789  13.313  66.790  1.00  0.00    -0.129 C  
BRANCH   3   4
HETATM    4  N   UNL     1     -10.196  13.628  66.308  1.00  0.00    -0.289 N  
BRANCH   4   5
HETATM    5  C   UNL     1     -10.180  14.595  65.148  1.00  0.00    -0.382 C  
BRANCH   5   6
HETATM    6  C   UNL     1     -10.260  16.079  65.520  1.00  0.00    -0.389 C  
HETATM    7  C   UNL     1     -10.873  16.351  66.884  1.00  0.00    -0.118 C  
ENDBRANCH   5   6
ENDBRANCH   4   5
BRANCH   4   8
HETATM    8  S   UNL     1     -11.059  12.137  65.970  1.00  0.00    -0.326 S  
HETATM    9  O   UNL     1     -12.471  12.395  65.806  1.00  0.00    -0.615 OA 
HETATM   10  O   UNL     1     -10.315  11.421  64.954  1.00  0.00    -0.261 OA 
BRANCH   8  11
HETATM   11  C   UNL     1     -10.955  11.202  67.491  1.00  0.00    -0.275 A  
HETATM   12  C   UNL     1     -11.734  11.600  68.586  1.00  0.00    -0.386 A  
HETATM   13  C   UNL     1     -11.849  10.766  69.704  1.00  0.00    -0.392 A  
HETATM   14  C   UNL     1     -11.182   9.534  69.726  1.00  0.00    -0.173 A  
HETATM   15  C   UNL     1     -11.317   8.577  70.857  1.00  0.00    -0.268 C  
HETATM   16  C   UNL     1     -10.420   9.134  68.618  1.00  0.00    -0.235 A  
HETATM   17  O   UNL     1     -11.424   9.172  72.061  1.00  0.00    -0.362 OA 
HETATM   18  C   UNL     1     -10.303   9.967  67.501  1.00  0.00    -0.289 A  
HETATM   19  O   UNL     1     -11.283   7.367  70.713  1.00  0.00    -0.260 OA 
ENDBRANCH   8  11
ENDBRANCH   4   8
ENDBRANCH   3   4
ENDBRANCH   2   3
TORSDOF 6
ENDMDL
MODEL      103
REMARK 921   NORMALIZED FREE ENERGY PREDICTED BY IDOCK:   -4.04 KCAL/MOL
REMARK 922        TOTAL FREE ENERGY PREDICTED BY IDOCK:   -6.25 KCAL/MOL
REMARK 923 INTER-LIGAND FREE ENERGY PREDICTED BY IDOCK:   -5.70 KCAL/MOL
REMARK 924 INTRA-LIGAND FREE ENERGY PREDICTED BY IDOCK:   -0.55 KCAL/MOL
REMARK 927      BINDING AFFINITY PREDICTED BY RF-SCORE:    0.00 PKD
ROOT
HETATM    1  C   UNL     1     -11.279   6.045  69.786  1.00  0.00    -0.440 C  
HETATM    2  C   UNL     1     -10.858   6.608  68.441  1.00  0.00    -0.320 C  
ENDROOT
BRANCH   2   3
HETATM    3  C   UNL     1      -9.809   7.722  68.522  1.00  0.00    -0.172 C  
BRANCH   3   4
HETATM    4  N   UNL     1     -10.214   8.981  69.273  1.00  0.00    -0.199 N  
BRANCH   4   5
HETATM    5  C   UNL     1      -9.286   9.257  70.432  1.00  0.00    -0.250 C  
BRANCH   5   6
HETATM    6  C   UNL     1      -9.519   8.408  71.686  1.00  0.00    -0.281 C  
HETATM    7  C   UNL     1     -10.929   8.494  72.246  1.00  0.00    -0.426 C  
ENDBRANCH   5   6
ENDBRANCH   4   5
BRANCH   4   8
HETATM    8  S   UNL     1     -10.360  10.324  68.152  1.00  0.00    -0.190 S  
HETATM    9  O   UNL     1      -9.054  10.790  67.748  1.00  0.00    -0.148 OA 
HETATM   10  O   UNL     1     -11.356   9.963  67.163  1.00  0.00    -0.028 OA 
BRANCH   8  11
HETATM   11  C   UNL     1     -11.022  11.662  69.137  1.00  0.00    -0.219 A  
HETATM   12  C   UNL     1     -10.767  12.984  68.743  1.00  0.00    -0.250 A  
HETATM   13  C   UNL     1     -11.453  14.040  69.353  1.00  0.00    -0.343 A  
HETATM   14  C   UNL     1     -12.394  13.774  70.356  1.00  0.00    -0.423 A  
HETATM   15  C   UNL     1     -13.200  14.848  70.996  1.00  0.00    -0.399 C  
HETATM   16  C   UNL     1     -12.657  12.447  70.731  1.00  0.00    -0.298 A  
HETATM   17  O   UNL     1     -12.531  16.007  71.154  1.00  0.00    -0.425 OA 
HETATM   18  C   UNL     1     -11.972  11.391  70.124  1.00  0.00    -0.460 A  
HETATM   19  O   UNL     1     -14.343  14.681  71.385  1.00  0.00    -0.433 OA 
ENDBRANCH   8  11
ENDBRANCH   4   8
ENDBRANCH   3   4
ENDBRANCH   2   3
TORSDOF 6
ENDMDL
MODEL      104
REMARK 921   NORMALIZED FREE ENERGY PREDICTED BY IDOCK:   -4.04 KCAL/MOL
REMARK 922        TOTAL FREE ENERGY PREDICTED BY IDOCK:   -6.25 KCAL/MOL
REMARK 923 INTER-LIGAND FREE ENERGY PREDICTED BY IDOCK:   -5.59 KCAL/MOL
REMARK 924 INTRA-LIGAND FREE ENERGY PREDICTED BY IDOCK:   -0.66 KCAL/MOL
REMARK 927      BINDING AFFINITY PREDICTED BY RF-SCORE:    0.00 PKD
ROOT
HETATM    1  C   UNL     1     -12.229  12.746  63.468  1.00  0.00    -0.613 C  
HETATM    2  C   UNL     1     -12.311  13.910  64.438  1.00  0.00    -0.400 C  
ENDROOT
BRANCH   2   3
HETATM    3  C   UNL     1     -12.162  13.518  65.911  1.00  0.00    -0.460 C  
BRANCH   3   4
HETATM    4  N   UNL     1     -10.746  13.270  66.406  1.00  0.00    -0.283 N  
BRANCH   4   5
HETATM    5  C   UNL     1     -10.146  14.515  67.013  1.00  0.00    -0.254 C  
BRANCH   5   6
HETATM    6  C   UNL     1      -9.551  15.518  66.020  1.00  0.00    -0.380 C  
HETATM    7  C   UNL     1     -10.113  16.926  66.141  1.00  0.00    -0.347 C  
ENDBRANCH   5   6
ENDBRANCH   4   5
BRANCH   4   8
HETATM    8  S   UNL     1     -10.723  11.880  67.480  1.00  0.00    -0.236 S  
HETATM    9  O   UNL     1      -9.708  12.041  68.494  1.00  0.00    -0.207 OA 
HETATM   10  O   UNL     1     -12.094  11.588  67.845  1.00  0.00    -0.630 OA 
BRANCH   8  11
HETATM   11  C   UNL     1     -10.124  10.536  66.464  1.00  0.00    -0.225 A  
HETATM   12  C   UNL     1      -9.626  10.823  65.185  1.00  0.00    -0.295 A  
HETATM   13  C   UNL     1      -8.945   9.838  64.462  1.00  0.00    -0.278 A  
HETATM   14  C   UNL     1      -8.763   8.565  65.018  1.00  0.00    -0.124 A  
HETATM   15  C   UNL     1      -7.993   7.497  64.326  1.00  0.00    -0.109 C  
HETATM   16  C   UNL     1      -9.247   8.292  66.306  1.00  0.00    -0.258 A  
HETATM   17  O   UNL     1      -8.142   7.502  62.986  1.00  0.00    -0.133 OA 
HETATM   18  C   UNL     1      -9.929   9.275  67.030  1.00  0.00    -0.286 A  
HETATM   19  O   UNL     1      -7.328   6.665  64.918  1.00  0.00    -0.070 OA 
ENDBRANCH   8  11
ENDBRANCH   4   8
ENDBRANCH   3   4
ENDBRANCH   2   3
TORSDOF 6
ENDMDL
MODEL      105
REMARK 921   NORMALIZED FREE ENERGY PREDICTED BY IDOCK:   -4.04 KCAL/MOL
REMARK 922        TOTAL FREE ENERGY PREDICTED BY IDOCK:   -6.24 KCAL/MOL
REMARK 923 INTER-LIGAND FREE ENERGY PREDICTED BY IDOCK:   -5.31 KCAL/MOL
REMARK 924 INTRA-LIGAND FREE ENERGY PREDICTED BY IDOCK:   -0.94 KCAL/MOL
REMARK 927      BINDING AFFINITY PREDICTED BY RF-SCORE:    0.00 PKD
ROOT
HETATM    1  C   UNL     1     -12.416  11.943  70.854  1.00  0.00    -0.397 C  
HETATM    2  C   UNL     1     -12.900  10.506  70.820  1.00  0.00    -0.454 C  
ENDROOT
BRANCH   2   3
HETATM    3  C   UNL     1     -12.124   9.556  71.737  1.00  0.00    -0.384 C  
BRANCH   3   4
HETATM    4  N   UNL     1     -11.144   8.609  71.061  1.00  0.00    -0.253 N  
BRANCH   4   5
HETATM    5  C   UNL     1      -9.715   8.956  71.402  1.00  0.00    -0.300 C  
BRANCH   5   6
HETATM    6  C   UNL     1      -8.938   9.710  70.318  1.00  0.00    -0.263 C  
HETATM    7  C   UNL     1      -9.595   9.688  68.947  1.00  0.00    -0.161 C  
ENDBRANCH   5   6
ENDBRANCH   4   5
BRANCH   4   8
HETATM    8  S   UNL     1     -11.572   6.946  71.426  1.00  0.00    -0.319 S  
HETATM    9  O   UNL     1     -10.752   6.437  72.500  1.00  0.00    -0.210 OA 
HETATM   10  O   UNL     1     -13.017   6.872  71.499  1.00  0.00    -0.367 OA 
BRANCH   8  11
HETATM   11  C   UNL     1     -11.045   6.021  69.990  1.00  0.00    -0.381 A  
HETATM   12  C   UNL     1     -11.367   6.506  68.714  1.00  0.00    -0.237 A  
HETATM   13  C   UNL     1     -10.779   5.936  67.580  1.00  0.00    -0.359 A  
HETATM   14  C   UNL     1      -9.869   4.880  67.721  1.00  0.00    -0.196 A  
HETATM   15  C   UNL     1      -9.164   4.276  66.558  1.00  0.00    -0.149 C  
HETATM   16  C   UNL     1      -9.537   4.413  69.002  1.00  0.00    -0.244 A  
HETATM   17  O   UNL     1      -9.914   4.219  65.440  1.00  0.00    -0.198 OA 
HETATM   18  C   UNL     1     -10.125   4.980  70.137  1.00  0.00    -0.338 A  
HETATM   19  O   UNL     1      -8.032   3.831  66.625  1.00  0.00    -0.094 OA 
ENDBRANCH   8  11
ENDBRANCH   4   8
ENDBRANCH   3   4
ENDBRANCH   2   3
TORSDOF 6
ENDMDL
MODEL      106
REMARK 921   NORMALIZED FREE ENERGY PREDICTED BY IDOCK:   -4.04 KCAL/MOL
REMARK 922        TOTAL FREE ENERGY PREDICTED BY IDOCK:   -6.24 KCAL/MOL
REMARK 923 INTER-LIGAND FREE ENERGY PREDICTED BY IDOCK:   -5.82 KCAL/MOL
REMARK 924 INTRA-LIGAND FREE ENERGY PREDICTED BY IDOCK:   -0.41 KCAL/MOL
REMARK 927      BINDING AFFINITY PREDICTED BY RF-SCORE:    0.00 PKD
ROOT
HETATM    1  C   UNL     1     -12.492  12.005  63.530  1.00  0.00    -0.654 C  
HETATM    2  C   UNL     1     -11.979  13.383  63.908  1.00  0.00    -0.520 C  
ENDROOT
BRANCH   2   3
HETATM    3  C   UNL     1     -10.717  13.371  64.776  1.00  0.00    -0.390 C  
BRANCH   3   4
HETATM    4  N   UNL     1     -10.640  12.293  65.846  1.00  0.00    -0.249 N  
BRANCH   4   5
HETATM    5  C   UNL     1      -9.413  11.430  65.674  1.00  0.00    -0.230 C  
BRANCH   5   6
HETATM    6  C   UNL     1      -9.678   9.945  65.409  1.00  0.00    -0.375 C  
HETATM    7  C   UNL     1      -9.545   9.057  66.636  1.00  0.00    -0.274 C  
ENDBRANCH   5   6
ENDBRANCH   4   5
BRANCH   4   8
HETATM    8  S   UNL     1     -10.772  13.021  67.438  1.00  0.00    -0.248 S  
HETATM    9  O   UNL     1     -12.095  13.565  67.638  1.00  0.00    -0.347 OA 
HETATM   10  O   UNL     1     -10.201  12.092  68.392  1.00  0.00    -0.203 OA 
BRANCH   8  11
HETATM   11  C   UNL     1      -9.710  14.458  67.365  1.00  0.00    -0.220 A  
HETATM   12  C   UNL     1      -8.322  14.273  67.300  1.00  0.00    -0.222 A  
HETATM   13  C   UNL     1      -7.484  15.356  67.013  1.00  0.00    -0.166 A  
HETATM   14  C   UNL     1      -8.035  16.625  66.791  1.00  0.00    -0.284 A  
HETATM   15  C   UNL     1      -7.202  17.800  66.419  1.00  0.00    -0.273 C  
HETATM   16  C   UNL     1      -9.427  16.798  66.838  1.00  0.00    -0.253 A  
HETATM   17  O   UNL     1      -5.992  17.816  67.010  1.00  0.00    -0.132 OA 
HETATM   18  C   UNL     1     -10.266  15.717  67.126  1.00  0.00    -0.279 A  
HETATM   19  O   UNL     1      -7.597  18.691  65.687  1.00  0.00    -0.505 OA 
ENDBRANCH   8  11
ENDBRANCH   4   8
ENDBRANCH   3   4
ENDBRANCH   2   3
TORSDOF 6
ENDMDL
MODEL      107
REMARK 921   NORMALIZED FREE ENERGY PREDICTED BY IDOCK:   -4.02 KCAL/MOL
REMARK 922        TOTAL FREE ENERGY PREDICTED BY IDOCK:   -6.21 KCAL/MOL
REMARK 923 INTER-LIGAND FREE ENERGY PREDICTED BY IDOCK:   -5.15 KCAL/MOL
REMARK 924 INTRA-LIGAND FREE ENERGY PREDICTED BY IDOCK:   -1.06 KCAL/MOL
REMARK 927      BINDING AFFINITY PREDICTED BY RF-SCORE:    0.00 PKD
ROOT
HETATM    1  C   UNL     1      -9.676   7.781  73.293  1.00  0.00    -0.357 C  
HETATM    2  C   UNL     1     -11.037   7.941  72.641  1.00  0.00    -0.447 C  
ENDROOT
BRANCH   2   3
HETATM    3  C   UNL     1     -11.077   7.554  71.159  1.00  0.00    -0.251 C  
BRANCH   3   4
HETATM    4  N   UNL     1     -10.973   8.694  70.158  1.00  0.00    -0.244 N  
BRANCH   4   5
HETATM    5  C   UNL     1     -11.166  10.035  70.824  1.00  0.00    -0.352 C  
BRANCH   5   6
HETATM    6  C   UNL     1     -12.262  10.922  70.224  1.00  0.00    -0.432 C  
HETATM    7  C   UNL     1     -11.832  12.356  69.962  1.00  0.00    -0.363 C  
ENDBRANCH   5   6
ENDBRANCH   4   5
BRANCH   4   8
HETATM    8  S   UNL     1      -9.470   8.563  69.259  1.00  0.00    -0.159 S  
HETATM    9  O   UNL     1      -8.340   8.806  70.125  1.00  0.00    -0.115 OA 
HETATM   10  O   UNL     1      -9.542   7.359  68.457  1.00  0.00    -0.144 OA 
BRANCH   8  11
HETATM   11  C   UNL     1      -9.486   9.966  68.151  1.00  0.00    -0.138 A  
HETATM   12  C   UNL     1     -10.456  10.021  67.140  1.00  0.00    -0.305 A  
HETATM   13  C   UNL     1     -10.639  11.200  66.409  1.00  0.00    -0.315 A  
HETATM   14  C   UNL     1      -9.852  12.324  66.689  1.00  0.00    -0.230 A  
HETATM   15  C   UNL     1     -10.043  13.624  65.991  1.00  0.00    -0.312 C  
HETATM   16  C   UNL     1      -8.896  12.268  67.715  1.00  0.00    -0.174 A  
HETATM   17  O   UNL     1     -10.390  13.497  64.695  1.00  0.00    -0.408 OA 
HETATM   18  C   UNL     1      -8.710  11.090  68.446  1.00  0.00    -0.150 A  
HETATM   19  O   UNL     1      -9.856  14.702  66.527  1.00  0.00    -0.253 OA 
ENDBRANCH   8  11
ENDBRANCH   4   8
ENDBRANCH   3   4
ENDBRANCH   2   3
TORSDOF 6
ENDMDL
MODEL      108
REMARK 921   NORMALIZED FREE ENERGY PREDICTED BY IDOCK:   -4.02 KCAL/MOL
REMARK 922        TOTAL FREE ENERGY PREDICTED BY IDOCK:   -6.21 KCAL/MOL
REMARK 923 INTER-LIGAND FREE ENERGY PREDICTED BY IDOCK:   -5.35 KCAL/MOL
REMARK 924 INTRA-LIGAND FREE ENERGY PREDICTED BY IDOCK:   -0.86 KCAL/MOL
REMARK 927      BINDING AFFINITY PREDICTED BY RF-SCORE:    0.00 PKD
ROOT
HETATM    1  C   UNL     1      -7.610   5.241  68.577  1.00  0.00    -0.079 C  
HETATM    2  C   UNL     1      -7.333   6.725  68.738  1.00  0.00    -0.094 C  
ENDROOT
BRANCH   2   3
HETATM    3  C   UNL     1      -8.240   7.430  69.751  1.00  0.00    -0.129 C  
BRANCH   3   4
HETATM    4  N   UNL     1      -9.477   8.116  69.193  1.00  0.00    -0.155 N  
BRANCH   4   5
HETATM    5  C   UNL     1     -10.741   7.413  69.625  1.00  0.00    -0.235 C  
BRANCH   5   6
HETATM    6  C   UNL     1     -11.153   6.205  68.778  1.00  0.00    -0.398 C  
HETATM    7  C   UNL     1     -11.096   6.444  67.278  1.00  0.00    -0.416 C  
ENDBRANCH   5   6
ENDBRANCH   4   5
BRANCH   4   8
HETATM    8  S   UNL     1      -9.446   9.824  69.597  1.00  0.00    -0.229 S  
HETATM    9  O   UNL     1     -10.448  10.127  70.591  1.00  0.00    -0.229 OA 
HETATM   10  O   UNL     1      -8.062  10.201  69.802  1.00  0.00    -0.168 OA 
BRANCH   8  11
HETATM   11  C   UNL     1     -10.027  10.646  68.118  1.00  0.00    -0.158 A  
HETATM   12  C   UNL     1      -9.713  10.095  66.868  1.00  0.00    -0.233 A  
HETATM   13  C   UNL     1     -10.338  10.578  65.713  1.00  0.00    -0.270 A  
HETATM   14  C   UNL     1     -11.277  11.613  65.809  1.00  0.00    -0.290 A  
HETATM   15  C   UNL     1     -12.021  12.125  64.627  1.00  0.00    -0.323 C  
HETATM   16  C   UNL     1     -11.601  12.146  67.066  1.00  0.00    -0.406 A  
HETATM   17  O   UNL     1     -11.293  12.137  63.493  1.00  0.00    -0.421 OA 
HETATM   18  C   UNL     1     -10.976  11.666  68.221  1.00  0.00    -0.273 A  
HETATM   19  O   UNL     1     -13.165  12.539  64.688  1.00  0.00    -0.848 OA 
ENDBRANCH   8  11
ENDBRANCH   4   8
ENDBRANCH   3   4
ENDBRANCH   2   3
TORSDOF 6
ENDMDL
MODEL      109
REMARK 921   NORMALIZED FREE ENERGY PREDICTED BY IDOCK:   -4.00 KCAL/MOL
REMARK 922        TOTAL FREE ENERGY PREDICTED BY IDOCK:   -6.19 KCAL/MOL
REMARK 923 INTER-LIGAND FREE ENERGY PREDICTED BY IDOCK:   -5.64 KCAL/MOL
REMARK 924 INTRA-LIGAND FREE ENERGY PREDICTED BY IDOCK:   -0.55 KCAL/MOL
REMARK 927      BINDING AFFINITY PREDICTED BY RF-SCORE:    0.00 PKD
ROOT
HETATM    1  C   UNL     1      -7.604   7.087  74.532  1.00  0.00    -0.132 C  
HETATM    2  C   UNL     1      -8.379   7.927  73.534  1.00  0.00    -0.271 C  
ENDROOT
BRANCH   2   3
HETATM    3  C   UNL     1      -9.883   7.641  73.500  1.00  0.00    -0.297 C  
BRANCH   3   4
HETATM    4  N   UNL     1     -10.453   7.159  72.175  1.00  0.00    -0.203 N  
BRANCH   4   5
HETATM    5  C   UNL     1     -10.550   5.653  72.131  1.00  0.00    -0.223 C  
BRANCH   5   6
HETATM    6  C   UNL     1     -11.004   4.978  73.429  1.00  0.00    -0.393 C  
HETATM    7  C   UNL     1     -10.980   3.459  73.386  1.00  0.00    -0.306 C  
ENDBRANCH   5   6
ENDBRANCH   4   5
BRANCH   4   8
HETATM    8  S   UNL     1     -11.973   7.974  71.847  1.00  0.00    -0.334 S  
HETATM    9  O   UNL     1     -12.899   7.075  71.198  1.00  0.00    -0.374 OA 
HETATM   10  O   UNL     1     -12.354   8.690  73.047  1.00  0.00    -0.198 OA 
BRANCH   8  11
HETATM   11  C   UNL     1     -11.573   9.180  70.589  1.00  0.00    -0.235 A  
HETATM   12  C   UNL     1     -10.759   8.795  69.514  1.00  0.00    -0.196 A  
HETATM   13  C   UNL     1     -10.617   9.638  68.406  1.00  0.00    -0.264 A  
HETATM   14  C   UNL     1     -11.289  10.867  68.374  1.00  0.00    -0.370 A  
HETATM   15  C   UNL     1     -11.228  11.776  67.198  1.00  0.00    -0.316 C  
HETATM   16  C   UNL     1     -12.118  11.237  69.445  1.00  0.00    -0.384 A  
HETATM   17  O   UNL     1     -10.033  11.780  66.577  1.00  0.00    -0.198 OA 
HETATM   18  C   UNL     1     -12.260  10.396  70.553  1.00  0.00    -0.412 A  
HETATM   19  O   UNL     1     -12.158  12.488  66.858  1.00  0.00    -0.537 OA 
ENDBRANCH   8  11
ENDBRANCH   4   8
ENDBRANCH   3   4
ENDBRANCH   2   3
TORSDOF 6
ENDMDL
MODEL      110
REMARK 921   NORMALIZED FREE ENERGY PREDICTED BY IDOCK:   -4.00 KCAL/MOL
REMARK 922        TOTAL FREE ENERGY PREDICTED BY IDOCK:   -6.18 KCAL/MOL
REMARK 923 INTER-LIGAND FREE ENERGY PREDICTED BY IDOCK:   -5.37 KCAL/MOL
REMARK 924 INTRA-LIGAND FREE ENERGY PREDICTED BY IDOCK:   -0.81 KCAL/MOL
REMARK 927      BINDING AFFINITY PREDICTED BY RF-SCORE:    0.00 PKD
ROOT
HETATM    1  C   UNL     1      -7.639  13.307  67.362  1.00  0.00    -0.137 C  
HETATM    2  C   UNL     1      -7.184  12.081  68.132  1.00  0.00    -0.090 C  
ENDROOT
BRANCH   2   3
HETATM    3  C   UNL     1      -7.305  10.766  67.354  1.00  0.00    -0.094 C  
BRANCH   3   4
HETATM    4  N   UNL     1      -8.187   9.692  67.972  1.00  0.00    -0.109 N  
BRANCH   4   5
HETATM    5  C   UNL     1      -8.736  10.128  69.308  1.00  0.00    -0.179 C  
BRANCH   5   6
HETATM    6  C   UNL     1      -8.564   9.128  70.456  1.00  0.00    -0.252 C  
HETATM    7  C   UNL     1      -9.790   8.973  71.341  1.00  0.00    -0.381 C  
ENDBRANCH   5   6
ENDBRANCH   4   5
BRANCH   4   8
HETATM    8  S   UNL     1      -9.425   9.204  66.826  1.00  0.00    -0.191 S  
HETATM    9  O   UNL     1      -8.822   8.665  65.629  1.00  0.00    -0.175 OA 
HETATM   10  O   UNL     1     -10.423   8.450  67.556  1.00  0.00    -0.249 OA 
BRANCH   8  11
HETATM   11  C   UNL     1     -10.172  10.738  66.292  1.00  0.00    -0.245 A  
HETATM   12  C   UNL     1     -10.150  11.065  64.928  1.00  0.00    -0.359 A  
HETATM   13  C   UNL     1     -10.918  12.133  64.452  1.00  0.00    -0.375 A  
HETATM   14  C   UNL     1     -11.709  12.874  65.340  1.00  0.00    -0.413 A  
HETATM   15  C   UNL     1     -12.595  13.979  64.883  1.00  0.00    -0.342 C  
HETATM   16  C   UNL     1     -11.741  12.529  66.699  1.00  0.00    -0.453 A  
HETATM   17  O   UNL     1     -12.087  14.694  63.861  1.00  0.00    -0.467 OA 
HETATM   18  C   UNL     1     -10.973  11.463  67.177  1.00  0.00    -0.340 A  
HETATM   19  O   UNL     1     -13.659  14.242  65.417  1.00  0.00    -0.516 OA 
ENDBRANCH   8  11
ENDBRANCH   4   8
ENDBRANCH   3   4
ENDBRANCH   2   3
TORSDOF 6
ENDMDL
MODEL      111
REMARK 921   NORMALIZED FREE ENERGY PREDICTED BY IDOCK:   -3.99 KCAL/MOL
REMARK 922        TOTAL FREE ENERGY PREDICTED BY IDOCK:   -6.18 KCAL/MOL
REMARK 923 INTER-LIGAND FREE ENERGY PREDICTED BY IDOCK:   -5.35 KCAL/MOL
REMARK 924 INTRA-LIGAND FREE ENERGY PREDICTED BY IDOCK:   -0.83 KCAL/MOL
REMARK 927      BINDING AFFINITY PREDICTED BY RF-SCORE:    0.00 PKD
ROOT
HETATM    1  C   UNL     1     -11.574  14.240  64.955  1.00  0.00    -0.384 C  
HETATM    2  C   UNL     1     -10.523  15.334  64.924  1.00  0.00    -0.334 C  
ENDROOT
BRANCH   2   3
HETATM    3  C   UNL     1     -10.774  16.481  65.909  1.00  0.00    -0.190 C  
BRANCH   3   4
HETATM    4  N   UNL     1      -9.549  17.076  66.584  1.00  0.00    -0.254 N  
BRANCH   4   5
HETATM    5  C   UNL     1      -9.388  18.539  66.248  1.00  0.00    -0.237 C  
BRANCH   5   6
HETATM    6  C   UNL     1      -7.953  19.075  66.284  1.00  0.00    -0.302 C  
HETATM    7  C   UNL     1      -6.892  18.047  65.927  1.00  0.00    -0.332 C  
ENDBRANCH   5   6
ENDBRANCH   4   5
BRANCH   4   8
HETATM    8  S   UNL     1      -9.599  16.749  68.308  1.00  0.00    -0.252 S  
HETATM    9  O   UNL     1      -8.263  16.597  68.834  1.00  0.00    -0.235 OA 
HETATM   10  O   UNL     1     -10.526  17.690  68.905  1.00  0.00    -0.351 OA 
BRANCH   8  11
HETATM   11  C   UNL     1     -10.314  15.115  68.436  1.00  0.00    -0.229 A  
HETATM   12  C   UNL     1      -9.493  13.998  68.225  1.00  0.00    -0.216 A  
HETATM   13  C   UNL     1      -9.960  12.717  68.539  1.00  0.00    -0.168 A  
HETATM   14  C   UNL     1     -11.249  12.553  69.064  1.00  0.00    -0.321 A  
HETATM   15  C   UNL     1     -11.777  11.225  69.477  1.00  0.00    -0.345 C  
HETATM   16  C   UNL     1     -12.057  13.678  69.290  1.00  0.00    -0.360 A  
HETATM   17  O   UNL     1     -11.362  10.210  68.694  1.00  0.00    -0.206 OA 
HETATM   18  C   UNL     1     -11.592  14.959  68.976  1.00  0.00    -0.330 A  
HETATM   19  O   UNL     1     -12.551  11.077  70.406  1.00  0.00    -0.304 OA 
ENDBRANCH   8  11
ENDBRANCH   4   8
ENDBRANCH   3   4
ENDBRANCH   2   3
TORSDOF 6
ENDMDL
MODEL      112
REMARK 921   NORMALIZED FREE ENERGY PREDICTED BY IDOCK:   -3.99 KCAL/MOL
REMARK 922        TOTAL FREE ENERGY PREDICTED BY IDOCK:   -6.17 KCAL/MOL
REMARK 923 INTER-LIGAND FREE ENERGY PREDICTED BY IDOCK:   -5.50 KCAL/MOL
REMARK 924 INTRA-LIGAND FREE ENERGY PREDICTED BY IDOCK:   -0.67 KCAL/MOL
REMARK 927      BINDING AFFINITY PREDICTED BY RF-SCORE:    0.00 PKD
ROOT
HETATM    1  C   UNL     1     -10.911   5.931  67.607  1.00  0.00    -0.331 C  
HETATM    2  C   UNL     1     -10.357   5.302  68.872  1.00  0.00    -0.228 C  
ENDROOT
BRANCH   2   3
HETATM    3  C   UNL     1     -10.136   6.289  70.023  1.00  0.00    -0.175 C  
BRANCH   3   4
HETATM    4  N   UNL     1     -10.620   7.713  69.798  1.00  0.00    -0.242 N  
BRANCH   4   5
HETATM    5  C   UNL     1     -11.586   8.145  70.876  1.00  0.00    -0.267 C  
BRANCH   5   6
HETATM    6  C   UNL     1     -12.624   7.099  71.295  1.00  0.00    -0.421 C  
HETATM    7  C   UNL     1     -14.048   7.626  71.367  1.00  0.00    -0.479 C  
ENDBRANCH   5   6
ENDBRANCH   4   5
BRANCH   4   8
HETATM    8  S   UNL     1      -9.246   8.789  69.611  1.00  0.00    -0.153 S  
HETATM    9  O   UNL     1      -9.066   9.591  70.798  1.00  0.00    -0.231 OA 
HETATM   10  O   UNL     1      -8.150   8.010  69.071  1.00  0.00    -0.119 OA 
BRANCH   8  11
HETATM   11  C   UNL     1      -9.759   9.960  68.360  1.00  0.00    -0.149 A  
HETATM   12  C   UNL     1      -9.435   9.705  67.020  1.00  0.00    -0.195 A  
HETATM   13  C   UNL     1     -10.013  10.474  66.003  1.00  0.00    -0.295 A  
HETATM   14  C   UNL     1     -10.914  11.497  66.327  1.00  0.00    -0.328 A  
HETATM   15  C   UNL     1     -11.608  12.304  65.288  1.00  0.00    -0.355 C  
HETATM   16  C   UNL     1     -11.247  11.732  67.670  1.00  0.00    -0.345 A  
HETATM   17  O   UNL     1     -10.853  12.552  64.200  1.00  0.00    -0.326 OA 
HETATM   18  C   UNL     1     -10.670  10.966  68.687  1.00  0.00    -0.238 A  
HETATM   19  O   UNL     1     -12.737  12.741  65.429  1.00  0.00    -0.621 OA 
ENDBRANCH   8  11
ENDBRANCH   4   8
ENDBRANCH   3   4
ENDBRANCH   2   3
TORSDOF 6
ENDMDL
MODEL      113
REMARK 921   NORMALIZED FREE ENERGY PREDICTED BY IDOCK:   -3.97 KCAL/MOL
REMARK 922        TOTAL FREE ENERGY PREDICTED BY IDOCK:   -6.14 KCAL/MOL
REMARK 923 INTER-LIGAND FREE ENERGY PREDICTED BY IDOCK:   -5.61 KCAL/MOL
REMARK 924 INTRA-LIGAND FREE ENERGY PREDICTED BY IDOCK:   -0.54 KCAL/MOL
REMARK 927      BINDING AFFINITY PREDICTED BY RF-SCORE:    0.00 PKD
ROOT
HETATM    1  C   UNL     1     -12.614  12.025  63.465  1.00  0.00    -0.625 C  
HETATM    2  C   UNL     1     -12.301  13.070  64.520  1.00  0.00    -0.461 C  
ENDROOT
BRANCH   2   3
HETATM    3  C   UNL     1     -11.767  12.499  65.837  1.00  0.00    -0.426 C  
BRANCH   3   4
HETATM    4  N   UNL     1     -10.390  12.974  66.273  1.00  0.00    -0.279 N  
BRANCH   4   5
HETATM    5  C   UNL     1     -10.444  13.671  67.611  1.00  0.00    -0.238 C  
BRANCH   5   6
HETATM    6  C   UNL     1     -11.845  14.036  68.114  1.00  0.00    -0.402 C  
HETATM    7  C   UNL     1     -12.122  13.620  69.549  1.00  0.00    -0.368 C  
ENDBRANCH   5   6
ENDBRANCH   4   5
BRANCH   4   8
HETATM    8  S   UNL     1      -9.252  11.638  66.220  1.00  0.00    -0.212 S  
HETATM    9  O   UNL     1      -9.321  10.965  64.944  1.00  0.00    -0.208 OA 
HETATM   10  O   UNL     1      -7.987  12.120  66.734  1.00  0.00    -0.126 OA 
BRANCH   8  11
HETATM   11  C   UNL     1      -9.903  10.447  67.384  1.00  0.00    -0.178 A  
HETATM   12  C   UNL     1     -10.273   9.177  66.919  1.00  0.00    -0.336 A  
HETATM   13  C   UNL     1     -10.566   8.156  67.830  1.00  0.00    -0.233 A  
HETATM   14  C   UNL     1     -10.490   8.406  69.206  1.00  0.00    -0.223 A  
HETATM   15  C   UNL     1     -10.727   7.345  70.222  1.00  0.00    -0.237 C  
HETATM   16  C   UNL     1     -10.100   9.674  69.664  1.00  0.00    -0.242 A  
HETATM   17  O   UNL     1     -11.681   6.461  69.870  1.00  0.00    -0.426 OA 
HETATM   18  C   UNL     1      -9.808  10.695  68.755  1.00  0.00    -0.196 A  
HETATM   19  O   UNL     1     -10.148   7.308  71.293  1.00  0.00    -0.190 OA 
ENDBRANCH   8  11
ENDBRANCH   4   8
ENDBRANCH   3   4
ENDBRANCH   2   3
TORSDOF 6
ENDMDL
MODEL      114
REMARK 921   NORMALIZED FREE ENERGY PREDICTED BY IDOCK:   -3.94 KCAL/MOL
REMARK 922        TOTAL FREE ENERGY PREDICTED BY IDOCK:   -6.11 KCAL/MOL
REMARK 923 INTER-LIGAND FREE ENERGY PREDICTED BY IDOCK:   -5.84 KCAL/MOL
REMARK 924 INTRA-LIGAND FREE ENERGY PREDICTED BY IDOCK:   -0.27 KCAL/MOL
REMARK 927      BINDING AFFINITY PREDICTED BY RF-SCORE:    0.00 PKD
ROOT
HETATM    1  C   UNL     1      -6.782   7.746  70.849  1.00  0.00    -0.038 C  
HETATM    2  C   UNL     1      -7.514   8.260  72.075  1.00  0.00    -0.124 C  
ENDROOT
BRANCH   2   3
HETATM    3  C   UNL     1      -8.998   8.561  71.845  1.00  0.00    -0.231 C  
BRANCH   3   4
HETATM    4  N   UNL     1      -9.960   7.395  72.013  1.00  0.00    -0.165 N  
BRANCH   4   5
HETATM    5  C   UNL     1     -10.502   7.322  73.420  1.00  0.00    -0.377 C  
BRANCH   5   6
HETATM    6  C   UNL     1     -10.024   6.129  74.255  1.00  0.00    -0.294 C  
HETATM    7  C   UNL     1     -10.668   4.805  73.879  1.00  0.00    -0.362 C  
ENDBRANCH   5   6
ENDBRANCH   4   5
BRANCH   4   8
HETATM    8  S   UNL     1     -11.209   7.469  70.780  1.00  0.00    -0.271 S  
HETATM    9  O   UNL     1     -10.619   7.481  69.462  1.00  0.00    -0.233 OA 
HETATM   10  O   UNL     1     -12.225   6.497  71.127  1.00  0.00    -0.335 OA 
BRANCH   8  11
HETATM   11  C   UNL     1     -11.921   9.100  70.960  1.00  0.00    -0.282 A  
HETATM   12  C   UNL     1     -12.814   9.337  72.015  1.00  0.00    -0.495 A  
HETATM   13  C   UNL     1     -13.207  10.645  72.319  1.00  0.00    -0.211 A  
HETATM   14  C   UNL     1     -12.708  11.716  71.566  1.00  0.00    -0.423 A  
HETATM   15  C   UNL     1     -13.039  13.132  71.880  1.00  0.00    -0.385 C  
HETATM   16  C   UNL     1     -11.800  11.472  70.524  1.00  0.00    -0.363 A  
HETATM   17  O   UNL     1     -14.296  13.308  72.331  1.00  0.00    -0.574 OA 
HETATM   18  C   UNL     1     -11.407  10.165  70.219  1.00  0.00    -0.387 A  
HETATM   19  O   UNL     1     -12.261  14.053  71.701  1.00  0.00    -0.285 OA 
ENDBRANCH   8  11
ENDBRANCH   4   8
ENDBRANCH   3   4
ENDBRANCH   2   3
TORSDOF 6
ENDMDL
MODEL      115
REMARK 921   NORMALIZED FREE ENERGY PREDICTED BY IDOCK:   -3.92 KCAL/MOL
REMARK 922        TOTAL FREE ENERGY PREDICTED BY IDOCK:   -6.08 KCAL/MOL
REMARK 923 INTER-LIGAND FREE ENERGY PREDICTED BY IDOCK:   -5.61 KCAL/MOL
REMARK 924 INTRA-LIGAND FREE ENERGY PREDICTED BY IDOCK:   -0.47 KCAL/MOL
REMARK 927      BINDING AFFINITY PREDICTED BY RF-SCORE:    0.00 PKD
ROOT
HETATM    1  C   UNL     1     -12.399  11.207  70.908  1.00  0.00    -0.500 C  
HETATM    2  C   UNL     1     -11.729  10.437  69.785  1.00  0.00    -0.310 C  
ENDROOT
BRANCH   2   3
HETATM    3  C   UNL     1     -10.226  10.216  69.978  1.00  0.00    -0.220 C  
BRANCH   3   4
HETATM    4  N   UNL     1      -9.529   9.351  68.941  1.00  0.00    -0.152 N  
BRANCH   4   5
HETATM    5  C   UNL     1     -10.523   8.592  68.095  1.00  0.00    -0.187 C  
BRANCH   5   6
HETATM    6  C   UNL     1     -10.336   7.072  68.053  1.00  0.00    -0.234 C  
HETATM    7  C   UNL     1     -10.097   6.509  66.662  1.00  0.00    -0.201 C  
ENDBRANCH   5   6
ENDBRANCH   4   5
BRANCH   4   8
HETATM    8  S   UNL     1      -8.406  10.325  68.006  1.00  0.00    -0.115 S  
HETATM    9  O   UNL     1      -7.727  11.272  68.859  1.00  0.00    -0.133 OA 
HETATM   10  O   UNL     1      -7.656   9.429  67.151  1.00  0.00    -0.091 OA 
BRANCH   8  11
HETATM   11  C   UNL     1      -9.449  11.338  66.965  1.00  0.00    -0.171 A  
HETATM   12  C   UNL     1      -9.853  10.838  65.719  1.00  0.00    -0.292 A  
HETATM   13  C   UNL     1     -10.845  11.500  64.987  1.00  0.00    -0.336 A  
HETATM   14  C   UNL     1     -11.432  12.663  65.502  1.00  0.00    -0.375 A  
HETATM   15  C   UNL     1     -12.535  13.375  64.801  1.00  0.00    -0.365 C  
HETATM   16  C   UNL     1     -11.037  13.146  66.758  1.00  0.00    -0.314 A  
HETATM   17  O   UNL     1     -12.426  13.354  63.458  1.00  0.00    -0.738 OA 
HETATM   18  C   UNL     1     -10.045  12.487  67.491  1.00  0.00    -0.207 A  
HETATM   19  O   UNL     1     -13.426  13.963  65.387  1.00  0.00    -0.672 OA 
ENDBRANCH   8  11
ENDBRANCH   4   8
ENDBRANCH   3   4
ENDBRANCH   2   3
TORSDOF 6
ENDMDL
MODEL      116
REMARK 921   NORMALIZED FREE ENERGY PREDICTED BY IDOCK:   -3.92 KCAL/MOL
REMARK 922        TOTAL FREE ENERGY PREDICTED BY IDOCK:   -6.08 KCAL/MOL
REMARK 923 INTER-LIGAND FREE ENERGY PREDICTED BY IDOCK:   -5.30 KCAL/MOL
REMARK 924 INTRA-LIGAND FREE ENERGY PREDICTED BY IDOCK:   -0.78 KCAL/MOL
REMARK 927      BINDING AFFINITY PREDICTED BY RF-SCORE:    0.00 PKD
ROOT
HETATM    1  C   UNL     1     -11.561  14.613  70.922  1.00  0.00    -0.276 C  
HETATM    2  C   UNL     1     -12.298  13.857  69.832  1.00  0.00    -0.358 C  
ENDROOT
BRANCH   2   3
HETATM    3  C   UNL     1     -11.754  14.094  68.420  1.00  0.00    -0.345 C  
BRANCH   3   4
HETATM    4  N   UNL     1     -10.968  12.952  67.795  1.00  0.00    -0.236 N  
BRANCH   4   5
HETATM    5  C   UNL     1     -11.664  12.407  66.570  1.00  0.00    -0.379 C  
BRANCH   5   6
HETATM    6  C   UNL     1     -12.397  13.440  65.708  1.00  0.00    -0.513 C  
HETATM    7  C   UNL     1     -11.892  13.532  64.277  1.00  0.00    -0.471 C  
ENDBRANCH   5   6
ENDBRANCH   4   5
BRANCH   4   8
HETATM    8  S   UNL     1      -9.313  13.457  67.498  1.00  0.00    -0.228 S  
HETATM    9  O   UNL     1      -8.481  13.160  68.641  1.00  0.00    -0.096 OA 
HETATM   10  O   UNL     1      -8.945  12.997  66.175  1.00  0.00    -0.002 OA 
BRANCH   8  11
HETATM   11  C   UNL     1      -9.389  15.244  67.460  1.00  0.00    -0.204 A  
HETATM   12  C   UNL     1      -8.892  15.967  68.554  1.00  0.00    -0.195 A  
HETATM   13  C   UNL     1      -8.727  17.353  68.459  1.00  0.00    -0.277 A  
HETATM   14  C   UNL     1      -9.060  18.016  67.270  1.00  0.00    -0.255 A  
HETATM   15  C   UNL     1      -8.847  19.477  67.088  1.00  0.00    -0.304 C  
HETATM   16  C   UNL     1      -9.538  17.282  66.174  1.00  0.00    -0.224 A  
HETATM   17  O   UNL     1      -9.059  20.200  68.205  1.00  0.00    -0.260 OA 
HETATM   18  C   UNL     1      -9.705  15.897  66.267  1.00  0.00    -0.332 A  
HETATM   19  O   UNL     1      -8.556  19.978  66.015  1.00  0.00    -0.341 OA 
ENDBRANCH   8  11
ENDBRANCH   4   8
ENDBRANCH   3   4
ENDBRANCH   2   3
TORSDOF 6
ENDMDL
MODEL      117
REMARK 921   NORMALIZED FREE ENERGY PREDICTED BY IDOCK:   -3.91 KCAL/MOL
REMARK 922        TOTAL FREE ENERGY PREDICTED BY IDOCK:   -6.06 KCAL/MOL
REMARK 923 INTER-LIGAND FREE ENERGY PREDICTED BY IDOCK:   -5.39 KCAL/MOL
REMARK 924 INTRA-LIGAND FREE ENERGY PREDICTED BY IDOCK:   -0.67 KCAL/MOL
REMARK 927      BINDING AFFINITY PREDICTED BY RF-SCORE:    0.00 PKD
ROOT
HETATM    1  C   UNL     1     -10.795   5.629  70.748  1.00  0.00    -0.294 C  
HETATM    2  C   UNL     1     -11.505   6.958  70.576  1.00  0.00    -0.390 C  
ENDROOT
BRANCH   2   3
HETATM    3  C   UNL     1     -10.702   8.009  69.803  1.00  0.00    -0.231 C  
BRANCH   3   4
HETATM    4  N   UNL     1     -10.032   7.541  68.521  1.00  0.00    -0.163 N  
BRANCH   4   5
HETATM    5  C   UNL     1     -11.046   7.068  67.507  1.00  0.00    -0.160 C  
BRANCH   5   6
HETATM    6  C   UNL     1     -10.714   5.749  66.802  1.00  0.00    -0.369 C  
HETATM    7  C   UNL     1      -9.612   4.943  67.469  1.00  0.00    -0.179 C  
ENDBRANCH   5   6
ENDBRANCH   4   5
BRANCH   4   8
HETATM    8  S   UNL     1      -8.961   8.794  67.915  1.00  0.00    -0.140 S  
HETATM    9  O   UNL     1      -8.531   9.655  68.991  1.00  0.00    -0.120 OA 
HETATM   10  O   UNL     1      -7.993   8.159  67.044  1.00  0.00    -0.102 OA 
BRANCH   8  11
HETATM   11  C   UNL     1     -10.011   9.834  66.909  1.00  0.00    -0.211 A  
HETATM   12  C   UNL     1     -10.727  10.871  67.524  1.00  0.00    -0.299 A  
HETATM   13  C   UNL     1     -11.370  11.837  66.741  1.00  0.00    -0.385 A  
HETATM   14  C   UNL     1     -11.298  11.764  65.344  1.00  0.00    -0.284 A  
HETATM   15  C   UNL     1     -11.906  12.796  64.461  1.00  0.00    -0.379 C  
HETATM   16  C   UNL     1     -10.563  10.735  64.737  1.00  0.00    -0.264 A  
HETATM   17  O   UNL     1     -13.065  13.297  64.932  1.00  0.00    -0.737 OA 
HETATM   18  C   UNL     1      -9.920   9.769  65.517  1.00  0.00    -0.329 A  
HETATM   19  O   UNL     1     -11.427  13.121  63.389  1.00  0.00    -0.359 OA 
ENDBRANCH   8  11
ENDBRANCH   4   8
ENDBRANCH   3   4
ENDBRANCH   2   3
TORSDOF 6
ENDMDL
MODEL      118
REMARK 921   NORMALIZED FREE ENERGY PREDICTED BY IDOCK:   -3.90 KCAL/MOL
REMARK 922        TOTAL FREE ENERGY PREDICTED BY IDOCK:   -6.06 KCAL/MOL
REMARK 923 INTER-LIGAND FREE ENERGY PREDICTED BY IDOCK:   -5.44 KCAL/MOL
REMARK 924 INTRA-LIGAND FREE ENERGY PREDICTED BY IDOCK:   -0.62 KCAL/MOL
REMARK 927      BINDING AFFINITY PREDICTED BY RF-SCORE:    0.00 PKD
ROOT
HETATM    1  C   UNL     1      -6.148  16.827  68.257  1.00  0.00    -0.132 C  
HETATM    2  C   UNL     1      -7.195  16.168  67.379  1.00  0.00    -0.213 C  
ENDROOT
BRANCH   2   3
HETATM    3  C   UNL     1      -8.105  15.179  68.114  1.00  0.00    -0.137 C  
BRANCH   3   4
HETATM    4  N   UNL     1      -9.230  14.559  67.300  1.00  0.00    -0.199 N  
BRANCH   4   5
HETATM    5  C   UNL     1      -9.327  15.180  65.927  1.00  0.00    -0.244 C  
BRANCH   5   6
HETATM    6  C   UNL     1     -10.690  15.777  65.563  1.00  0.00    -0.397 C  
HETATM    7  C   UNL     1     -11.603  14.832  64.799  1.00  0.00    -0.418 C  
ENDBRANCH   5   6
ENDBRANCH   4   5
BRANCH   4   8
HETATM    8  S   UNL     1      -9.054  12.812  67.273  1.00  0.00    -0.208 S  
HETATM    9  O   UNL     1      -9.407  12.288  65.974  1.00  0.00    -0.221 OA 
HETATM   10  O   UNL     1      -7.777  12.491  67.877  1.00  0.00    -0.114 OA 
BRANCH   8  11
HETATM   11  C   UNL     1     -10.343  12.213  68.357  1.00  0.00    -0.229 A  
HETATM   12  C   UNL     1     -10.222  10.930  68.910  1.00  0.00    -0.213 A  
HETATM   13  C   UNL     1     -11.088  10.524  69.932  1.00  0.00    -0.371 A  
HETATM   14  C   UNL     1     -12.076  11.402  70.399  1.00  0.00    -0.473 A  
HETATM   15  C   UNL     1     -12.983  11.051  71.525  1.00  0.00    -0.448 C  
HETATM   16  C   UNL     1     -12.178  12.690  69.853  1.00  0.00    -0.238 A  
HETATM   17  O   UNL     1     -13.337   9.751  71.552  1.00  0.00    -0.378 OA 
HETATM   18  C   UNL     1     -11.314  13.097  68.832  1.00  0.00    -0.335 A  
HETATM   19  O   UNL     1     -13.406  11.873  72.319  1.00  0.00    -0.471 OA 
ENDBRANCH   8  11
ENDBRANCH   4   8
ENDBRANCH   3   4
ENDBRANCH   2   3
TORSDOF 6
ENDMDL
MODEL      119
REMARK 921   NORMALIZED FREE ENERGY PREDICTED BY IDOCK:   -3.88 KCAL/MOL
REMARK 922        TOTAL FREE ENERGY PREDICTED BY IDOCK:   -6.03 KCAL/MOL
REMARK 923 INTER-LIGAND FREE ENERGY PREDICTED BY IDOCK:   -5.38 KCAL/MOL
REMARK 924 INTRA-LIGAND FREE ENERGY PREDICTED BY IDOCK:   -0.65 KCAL/MOL
REMARK 927      BINDING AFFINITY PREDICTED BY RF-SCORE:    0.00 PKD
ROOT
HETATM    1  C   UNL     1      -8.213  17.559  67.583  1.00  0.00    -0.218 C  
HETATM    2  C   UNL     1      -9.452  17.159  68.362  1.00  0.00    -0.276 C  
ENDROOT
BRANCH   2   3
HETATM    3  C   UNL     1     -10.622  16.691  67.491  1.00  0.00    -0.311 C  
BRANCH   3   4
HETATM    4  N   UNL     1     -10.949  15.206  67.536  1.00  0.00    -0.302 N  
BRANCH   4   5
HETATM    5  C   UNL     1     -12.033  14.909  68.544  1.00  0.00    -0.241 C  
BRANCH   5   6
HETATM    6  C   UNL     1     -11.891  13.584  69.301  1.00  0.00    -0.392 C  
HETATM    7  C   UNL     1     -12.295  13.654  70.764  1.00  0.00    -0.446 C  
ENDBRANCH   5   6
ENDBRANCH   4   5
BRANCH   4   8
HETATM    8  S   UNL     1     -11.312  14.626  65.919  1.00  0.00    -0.327 S  
HETATM    9  O   UNL     1     -12.699  14.240  65.819  1.00  0.00    -0.464 OA 
HETATM   10  O   UNL     1     -10.735  15.564  64.977  1.00  0.00    -0.413 OA 
BRANCH   8  11
HETATM   11  C   UNL     1     -10.414  13.085  65.783  1.00  0.00    -0.280 A  
HETATM   12  C   UNL     1      -9.262  12.901  66.560  1.00  0.00    -0.186 A  
HETATM   13  C   UNL     1      -8.673  11.635  66.649  1.00  0.00    -0.187 A  
HETATM   14  C   UNL     1      -9.235  10.553  65.958  1.00  0.00    -0.205 A  
HETATM   15  C   UNL     1      -8.692   9.172  66.064  1.00  0.00    -0.153 C  
HETATM   16  C   UNL     1     -10.400  10.742  65.198  1.00  0.00    -0.341 A  
HETATM   17  O   UNL     1      -7.350   9.124  66.173  1.00  0.00    -0.092 OA 
HETATM   18  C   UNL     1     -10.989  12.006  65.107  1.00  0.00    -0.359 A  
HETATM   19  O   UNL     1      -9.392   8.176  66.008  1.00  0.00    -0.182 OA 
ENDBRANCH   8  11
ENDBRANCH   4   8
ENDBRANCH   3   4
ENDBRANCH   2   3
TORSDOF 6
ENDMDL
MODEL      120
REMARK 921   NORMALIZED FREE ENERGY PREDICTED BY IDOCK:   -3.88 KCAL/MOL
REMARK 922        TOTAL FREE ENERGY PREDICTED BY IDOCK:   -6.03 KCAL/MOL
REMARK 923 INTER-LIGAND FREE ENERGY PREDICTED BY IDOCK:   -5.36 KCAL/MOL
REMARK 924 INTRA-LIGAND FREE ENERGY PREDICTED BY IDOCK:   -0.67 KCAL/MOL
REMARK 927      BINDING AFFINITY PREDICTED BY RF-SCORE:    0.00 PKD
ROOT
HETATM    1  C   UNL     1     -11.884  10.843  70.135  1.00  0.00    -0.438 C  
HETATM    2  C   UNL     1     -11.921  11.226  68.668  1.00  0.00    -0.314 C  
ENDROOT
BRANCH   2   3
HETATM    3  C   UNL     1     -11.081  12.458  68.315  1.00  0.00    -0.243 C  
BRANCH   3   4
HETATM    4  N   UNL     1     -10.321  12.406  66.999  1.00  0.00    -0.219 N  
BRANCH   4   5
HETATM    5  C   UNL     1     -10.324  11.015  66.413  1.00  0.00    -0.250 C  
BRANCH   5   6
HETATM    6  C   UNL     1      -8.977  10.284  66.430  1.00  0.00    -0.166 C  
HETATM    7  C   UNL     1      -7.791  11.167  66.784  1.00  0.00    -0.153 C  
ENDBRANCH   5   6
ENDBRANCH   4   5
BRANCH   4   8
HETATM    8  S   UNL     1     -10.938  13.633  65.905  1.00  0.00    -0.284 S  
HETATM    9  O   UNL     1     -10.552  13.339  64.545  1.00  0.00    -0.379 OA 
HETATM   10  O   UNL     1     -12.327  13.865  66.246  1.00  0.00    -0.453 OA 
BRANCH   8  11
HETATM   11  C   UNL     1     -10.015  15.108  66.317  1.00  0.00    -0.288 A  
HETATM   12  C   UNL     1      -8.648  14.994  66.604  1.00  0.00    -0.246 A  
HETATM   13  C   UNL     1      -7.855  16.143  66.704  1.00  0.00    -0.288 A  
HETATM   14  C   UNL     1      -8.431  17.407  66.516  1.00  0.00    -0.298 A  
HETATM   15  C   UNL     1      -7.629  18.659  66.547  1.00  0.00    -0.251 C  
HETATM   16  C   UNL     1      -9.796  17.511  66.209  1.00  0.00    -0.295 A  
HETATM   17  O   UNL     1      -6.620  18.635  67.439  1.00  0.00    -0.195 OA 
HETATM   18  C   UNL     1     -10.590  16.364  66.111  1.00  0.00    -0.259 A  
HETATM   19  O   UNL     1      -7.890  19.633  65.863  1.00  0.00    -0.336 OA 
ENDBRANCH   8  11
ENDBRANCH   4   8
ENDBRANCH   3   4
ENDBRANCH   2   3
TORSDOF 6
ENDMDL
MODEL      121
REMARK 921   NORMALIZED FREE ENERGY PREDICTED BY IDOCK:   -3.88 KCAL/MOL
REMARK 922        TOTAL FREE ENERGY PREDICTED BY IDOCK:   -6.02 KCAL/MOL
REMARK 923 INTER-LIGAND FREE ENERGY PREDICTED BY IDOCK:   -5.25 KCAL/MOL
REMARK 924 INTRA-LIGAND FREE ENERGY PREDICTED BY IDOCK:   -0.77 KCAL/MOL
REMARK 927      BINDING AFFINITY PREDICTED BY RF-SCORE:    0.00 PKD
ROOT
HETATM    1  C   UNL     1      -7.358   8.141  73.009  1.00  0.00    -0.161 C  
HETATM    2  C   UNL     1      -7.914   6.828  72.491  1.00  0.00    -0.101 C  
ENDROOT
BRANCH   2   3
HETATM    3  C   UNL     1      -9.416   6.640  72.728  1.00  0.00    -0.142 C  
BRANCH   3   4
HETATM    4  N   UNL     1     -10.323   6.845  71.526  1.00  0.00    -0.204 N  
BRANCH   4   5
HETATM    5  C   UNL     1     -10.697   5.530  70.883  1.00  0.00    -0.213 C  
BRANCH   5   6
HETATM    6  C   UNL     1     -10.147   5.301  69.472  1.00  0.00    -0.322 C  
HETATM    7  C   UNL     1     -10.770   6.189  68.406  1.00  0.00    -0.361 C  
ENDBRANCH   5   6
ENDBRANCH   4   5
BRANCH   4   8
HETATM    8  S   UNL     1     -11.707   7.824  71.982  1.00  0.00    -0.322 S  
HETATM    9  O   UNL     1     -12.906   7.337  71.340  1.00  0.00    -0.366 OA 
HETATM   10  O   UNL     1     -11.659   8.007  73.419  1.00  0.00    -0.098 OA 
BRANCH   8  11
HETATM   11  C   UNL     1     -11.408   9.411  71.214  1.00  0.00    -0.366 A  
HETATM   12  C   UNL     1     -10.416   9.511  70.229  1.00  0.00    -0.319 A  
HETATM   13  C   UNL     1     -10.314  10.671  69.453  1.00  0.00    -0.234 A  
HETATM   14  C   UNL     1     -11.205  11.732  69.664  1.00  0.00    -0.225 A  
HETATM   15  C   UNL     1     -11.187  12.963  68.829  1.00  0.00    -0.279 C  
HETATM   16  C   UNL     1     -12.208  11.616  70.638  1.00  0.00    -0.461 A  
HETATM   17  O   UNL     1      -9.952  13.343  68.448  1.00  0.00    -0.235 OA 
HETATM   18  C   UNL     1     -12.310  10.458  71.415  1.00  0.00    -0.500 A  
HETATM   19  O   UNL     1     -12.192  13.597  68.557  1.00  0.00    -0.342 OA 
ENDBRANCH   8  11
ENDBRANCH   4   8
ENDBRANCH   3   4
ENDBRANCH   2   3
TORSDOF 6
ENDMDL
MODEL      122
REMARK 921   NORMALIZED FREE ENERGY PREDICTED BY IDOCK:   -3.87 KCAL/MOL
REMARK 922        TOTAL FREE ENERGY PREDICTED BY IDOCK:   -6.02 KCAL/MOL
REMARK 923 INTER-LIGAND FREE ENERGY PREDICTED BY IDOCK:   -5.47 KCAL/MOL
REMARK 924 INTRA-LIGAND FREE ENERGY PREDICTED BY IDOCK:   -0.55 KCAL/MOL
REMARK 927      BINDING AFFINITY PREDICTED BY RF-SCORE:    0.00 PKD
ROOT
HETATM    1  C   UNL     1     -11.843  15.945  71.681  1.00  0.00    -0.565 C  
HETATM    2  C   UNL     1     -12.592  15.435  70.464  1.00  0.00    -0.471 C  
ENDROOT
BRANCH   2   3
HETATM    3  C   UNL     1     -11.704  14.765  69.410  1.00  0.00    -0.323 C  
BRANCH   3   4
HETATM    4  N   UNL     1     -11.387  15.585  68.170  1.00  0.00    -0.342 N  
BRANCH   4   5
HETATM    5  C   UNL     1     -10.224  16.519  68.407  1.00  0.00    -0.266 C  
BRANCH   5   6
HETATM    6  C   UNL     1      -9.072  15.947  69.239  1.00  0.00    -0.253 C  
HETATM    7  C   UNL     1      -7.708  16.527  68.902  1.00  0.00    -0.236 C  
ENDBRANCH   5   6
ENDBRANCH   4   5
BRANCH   4   8
HETATM    8  S   UNL     1     -11.166  14.521  66.791  1.00  0.00    -0.342 S  
HETATM    9  O   UNL     1     -12.435  14.241  66.160  1.00  0.00    -0.442 OA 
HETATM   10  O   UNL     1     -10.052  15.032  66.018  1.00  0.00    -0.266 OA 
BRANCH   8  11
HETATM   11  C   UNL     1     -10.673  12.957  67.504  1.00  0.00    -0.226 A  
HETATM   12  C   UNL     1     -11.574  11.884  67.474  1.00  0.00    -0.374 A  
HETATM   13  C   UNL     1     -11.142  10.597  67.812  1.00  0.00    -0.385 A  
HETATM   14  C   UNL     1      -9.806  10.384  68.180  1.00  0.00    -0.168 A  
HETATM   15  C   UNL     1      -9.273   9.030  68.488  1.00  0.00    -0.136 C  
HETATM   16  C   UNL     1      -8.906  11.460  68.188  1.00  0.00    -0.162 A  
HETATM   17  O   UNL     1     -10.156   8.228  69.113  1.00  0.00    -0.192 OA 
HETATM   18  C   UNL     1      -9.336  12.747  67.852  1.00  0.00    -0.208 A  
HETATM   19  O   UNL     1      -8.127   8.694  68.241  1.00  0.00    -0.115 OA 
ENDBRANCH   8  11
ENDBRANCH   4   8
ENDBRANCH   3   4
ENDBRANCH   2   3
TORSDOF 6
ENDMDL
MODEL      123
REMARK 921   NORMALIZED FREE ENERGY PREDICTED BY IDOCK:   -3.87 KCAL/MOL
REMARK 922        TOTAL FREE ENERGY PREDICTED BY IDOCK:   -6.01 KCAL/MOL
REMARK 923 INTER-LIGAND FREE ENERGY PREDICTED BY IDOCK:   -5.49 KCAL/MOL
REMARK 924 INTRA-LIGAND FREE ENERGY PREDICTED BY IDOCK:   -0.52 KCAL/MOL
REMARK 927      BINDING AFFINITY PREDICTED BY RF-SCORE:    0.00 PKD
ROOT
HETATM    1  C   UNL     1     -11.604  16.129  69.555  1.00  0.00    -0.254 C  
HETATM    2  C   UNL     1     -11.792  14.626  69.462  1.00  0.00    -0.374 C  
ENDROOT
BRANCH   2   3
HETATM    3  C   UNL     1     -10.548  13.860  69.003  1.00  0.00    -0.167 C  
BRANCH   3   4
HETATM    4  N   UNL     1     -10.350  13.727  67.501  1.00  0.00    -0.240 N  
BRANCH   4   5
HETATM    5  C   UNL     1      -9.009  14.270  67.069  1.00  0.00    -0.236 C  
BRANCH   5   6
HETATM    6  C   UNL     1      -9.045  15.599  66.309  1.00  0.00    -0.376 C  
HETATM    7  C   UNL     1     -10.262  15.778  65.416  1.00  0.00    -0.380 C  
ENDBRANCH   5   6
ENDBRANCH   4   5
BRANCH   4   8
HETATM    8  S   UNL     1     -10.629  12.065  67.008  1.00  0.00    -0.234 S  
HETATM    9  O   UNL     1     -11.984  11.898  66.537  1.00  0.00    -0.588 OA 
HETATM   10  O   UNL     1      -9.506  11.656  66.190  1.00  0.00    -0.213 OA 
BRANCH   8  11
HETATM   11  C   UNL     1     -10.573  11.128  68.530  1.00  0.00    -0.191 A  
HETATM   12  C   UNL     1     -11.778  10.771  69.151  1.00  0.00    -0.368 A  
HETATM   13  C   UNL     1     -11.775   9.852  70.207  1.00  0.00    -0.286 A  
HETATM   14  C   UNL     1     -10.566   9.292  70.642  1.00  0.00    -0.324 A  
HETATM   15  C   UNL     1     -10.507   8.264  71.715  1.00  0.00    -0.259 C  
HETATM   16  C   UNL     1      -9.367   9.641  70.002  1.00  0.00    -0.276 A  
HETATM   17  O   UNL     1     -11.418   8.445  72.691  1.00  0.00    -0.380 OA 
HETATM   18  C   UNL     1      -9.368  10.559  68.948  1.00  0.00    -0.192 A  
HETATM   19  O   UNL     1      -9.678   7.370  71.735  1.00  0.00    -0.154 OA 
ENDBRANCH   8  11
ENDBRANCH   4   8
ENDBRANCH   3   4
ENDBRANCH   2   3
TORSDOF 6
ENDMDL
MODEL      124
REMARK 921   NORMALIZED FREE ENERGY PREDICTED BY IDOCK:   -3.84 KCAL/MOL
REMARK 922        TOTAL FREE ENERGY PREDICTED BY IDOCK:   -5.98 KCAL/MOL
REMARK 923 INTER-LIGAND FREE ENERGY PREDICTED BY IDOCK:   -5.77 KCAL/MOL
REMARK 924 INTRA-LIGAND FREE ENERGY PREDICTED BY IDOCK:   -0.21 KCAL/MOL
REMARK 927      BINDING AFFINITY PREDICTED BY RF-SCORE:    0.00 PKD
ROOT
HETATM    1  C   UNL     1     -10.591  19.339  66.959  1.00  0.00    -0.571 C  
HETATM    2  C   UNL     1     -10.848  17.883  67.303  1.00  0.00    -0.188 C  
ENDROOT
BRANCH   2   3
HETATM    3  C   UNL     1     -10.286  16.885  66.286  1.00  0.00    -0.329 C  
BRANCH   3   4
HETATM    4  N   UNL     1     -10.548  15.413  66.564  1.00  0.00    -0.301 N  
BRANCH   4   5
HETATM    5  C   UNL     1     -10.585  14.607  65.288  1.00  0.00    -0.391 C  
BRANCH   5   6
HETATM    6  C   UNL     1     -11.979  14.345  64.709  1.00  0.00    -0.455 C  
HETATM    7  C   UNL     1     -12.049  13.162  63.756  1.00  0.00    -0.563 C  
ENDBRANCH   5   6
ENDBRANCH   4   5
BRANCH   4   8
HETATM    8  S   UNL     1      -9.394  14.814  67.743  1.00  0.00    -0.202 S  
HETATM    9  O   UNL     1      -8.132  14.512  67.108  1.00  0.00    -0.202 OA 
HETATM   10  O   UNL     1      -9.451  15.690  68.896  1.00  0.00    -0.199 OA 
BRANCH   8  11
HETATM   11  C   UNL     1     -10.036  13.218  68.231  1.00  0.00    -0.250 A  
HETATM   12  C   UNL     1      -9.184  12.105  68.199  1.00  0.00    -0.197 A  
HETATM   13  C   UNL     1      -9.585  10.900  68.786  1.00  0.00    -0.195 A  
HETATM   14  C   UNL     1     -10.839  10.807  69.404  1.00  0.00    -0.289 A  
HETATM   15  C   UNL     1     -11.294   9.574  70.099  1.00  0.00    -0.199 C  
HETATM   16  C   UNL     1     -11.678  11.931  69.449  1.00  0.00    -0.401 A  
HETATM   17  O   UNL     1     -10.879   8.435  69.511  1.00  0.00    -0.210 OA 
HETATM   18  C   UNL     1     -11.280  13.136  68.862  1.00  0.00    -0.324 A  
HETATM   19  O   UNL     1     -12.015   9.591  71.082  1.00  0.00    -0.304 OA 
ENDBRANCH   8  11
ENDBRANCH   4   8
ENDBRANCH   3   4
ENDBRANCH   2   3
TORSDOF 6
ENDMDL
MODEL      125
REMARK 921   NORMALIZED FREE ENERGY PREDICTED BY IDOCK:   -3.84 KCAL/MOL
REMARK 922        TOTAL FREE ENERGY PREDICTED BY IDOCK:   -5.98 KCAL/MOL
REMARK 923 INTER-LIGAND FREE ENERGY PREDICTED BY IDOCK:   -5.26 KCAL/MOL
REMARK 924 INTRA-LIGAND FREE ENERGY PREDICTED BY IDOCK:   -0.72 KCAL/MOL
REMARK 927      BINDING AFFINITY PREDICTED BY RF-SCORE:    0.00 PKD
ROOT
HETATM    1  C   UNL     1      -7.704  15.729  69.188  1.00  0.00    -0.220 C  
HETATM    2  C   UNL     1      -8.440  16.938  68.643  1.00  0.00    -0.260 C  
ENDROOT
BRANCH   2   3
HETATM    3  C   UNL     1      -9.726  16.604  67.880  1.00  0.00    -0.244 C  
BRANCH   3   4
HETATM    4  N   UNL     1     -10.468  15.350  68.317  1.00  0.00    -0.237 N  
BRANCH   4   5
HETATM    5  C   UNL     1     -11.755  15.690  69.030  1.00  0.00    -0.395 C  
BRANCH   5   6
HETATM    6  C   UNL     1     -12.072  14.845  70.268  1.00  0.00    -0.379 C  
HETATM    7  C   UNL     1     -13.082  15.473  71.213  1.00  0.00    -0.581 C  
ENDBRANCH   5   6
ENDBRANCH   4   5
BRANCH   4   8
HETATM    8  S   UNL     1     -10.684  14.275  66.946  1.00  0.00    -0.293 S  
HETATM    9  O   UNL     1     -12.074  14.222  66.558  1.00  0.00    -0.431 OA 
HETATM   10  O   UNL     1      -9.656  14.592  65.975  1.00  0.00    -0.303 OA 
BRANCH   8  11
HETATM   11  C   UNL     1     -10.344  12.644  67.596  1.00  0.00    -0.220 A  
HETATM   12  C   UNL     1     -11.225  11.596  67.292  1.00  0.00    -0.365 A  
HETATM   13  C   UNL     1     -10.870  10.276  67.589  1.00  0.00    -0.363 A  
HETATM   14  C   UNL     1      -9.635  10.004  68.192  1.00  0.00    -0.152 A  
HETATM   15  C   UNL     1      -9.176   8.617  68.474  1.00  0.00    -0.138 C  
HETATM   16  C   UNL     1      -8.751  11.056  68.476  1.00  0.00    -0.159 A  
HETATM   17  O   UNL     1     -10.167   7.780  68.837  1.00  0.00    -0.201 OA 
HETATM   18  C   UNL     1      -9.104  12.376  68.181  1.00  0.00    -0.200 A  
HETATM   19  O   UNL     1      -8.005   8.282  68.429  1.00  0.00    -0.115 OA 
ENDBRANCH   8  11
ENDBRANCH   4   8
ENDBRANCH   3   4
ENDBRANCH   2   3
TORSDOF 6
ENDMDL
MODEL      126
REMARK 921   NORMALIZED FREE ENERGY PREDICTED BY IDOCK:   -3.84 KCAL/MOL
REMARK 922        TOTAL FREE ENERGY PREDICTED BY IDOCK:   -5.98 KCAL/MOL
REMARK 923 INTER-LIGAND FREE ENERGY PREDICTED BY IDOCK:   -5.16 KCAL/MOL
REMARK 924 INTRA-LIGAND FREE ENERGY PREDICTED BY IDOCK:   -0.82 KCAL/MOL
REMARK 927      BINDING AFFINITY PREDICTED BY RF-SCORE:    0.00 PKD
ROOT
HETATM    1  C   UNL     1      -8.257   6.712  74.362  1.00  0.00    -0.146 C  
HETATM    2  C   UNL     1      -9.210   7.755  73.808  1.00  0.00    -0.316 C  
ENDROOT
BRANCH   2   3
HETATM    3  C   UNL     1     -10.617   7.229  73.505  1.00  0.00    -0.362 C  
BRANCH   3   4
HETATM    4  N   UNL     1     -11.050   7.252  72.048  1.00  0.00    -0.238 N  
BRANCH   4   5
HETATM    5  C   UNL     1     -11.132   5.858  71.473  1.00  0.00    -0.250 C  
BRANCH   5   6
HETATM    6  C   UNL     1     -10.447   5.659  70.117  1.00  0.00    -0.366 C  
HETATM    7  C   UNL     1      -9.007   6.142  70.066  1.00  0.00    -0.148 C  
ENDBRANCH   5   6
ENDBRANCH   4   5
BRANCH   4   8
HETATM    8  S   UNL     1     -12.538   8.171  71.882  1.00  0.00    -0.340 S  
HETATM    9  O   UNL     1     -13.542   7.388  71.201  1.00  0.00    -0.307 OA 
HETATM   10  O   UNL     1     -12.820   8.782  73.165  1.00  0.00    -0.155 OA 
BRANCH   8  11
HETATM   11  C   UNL     1     -12.134   9.474  70.727  1.00  0.00    -0.232 A  
HETATM   12  C   UNL     1     -12.699  10.744  70.913  1.00  0.00    -0.478 A  
HETATM   13  C   UNL     1     -12.230  11.834  70.171  1.00  0.00    -0.342 A  
HETATM   14  C   UNL     1     -11.197  11.653  69.242  1.00  0.00    -0.328 A  
HETATM   15  C   UNL     1     -10.614  12.784  68.470  1.00  0.00    -0.252 C  
HETATM   16  C   UNL     1     -10.624  10.383  69.075  1.00  0.00    -0.247 A  
HETATM   17  O   UNL     1     -11.514  13.725  68.125  1.00  0.00    -0.276 OA 
HETATM   18  C   UNL     1     -11.091   9.293  69.815  1.00  0.00    -0.168 A  
HETATM   19  O   UNL     1      -9.442  12.829  68.140  1.00  0.00    -0.210 OA 
ENDBRANCH   8  11
ENDBRANCH   4   8
ENDBRANCH   3   4
ENDBRANCH   2   3
TORSDOF 6
ENDMDL
MODEL      127
REMARK 921   NORMALIZED FREE ENERGY PREDICTED BY IDOCK:   -3.84 KCAL/MOL
REMARK 922        TOTAL FREE ENERGY PREDICTED BY IDOCK:   -5.97 KCAL/MOL
REMARK 923 INTER-LIGAND FREE ENERGY PREDICTED BY IDOCK:   -5.19 KCAL/MOL
REMARK 924 INTRA-LIGAND FREE ENERGY PREDICTED BY IDOCK:   -0.78 KCAL/MOL
REMARK 927      BINDING AFFINITY PREDICTED BY RF-SCORE:    0.00 PKD
ROOT
HETATM    1  C   UNL     1      -7.961  12.134  67.827  1.00  0.00    -0.151 C  
HETATM    2  C   UNL     1      -7.681  10.982  68.774  1.00  0.00    -0.135 C  
ENDROOT
BRANCH   2   3
HETATM    3  C   UNL     1      -8.214   9.628  68.295  1.00  0.00    -0.106 C  
BRANCH   3   4
HETATM    4  N   UNL     1      -8.846   8.736  69.353  1.00  0.00    -0.141 N  
BRANCH   4   5
HETATM    5  C   UNL     1      -8.671   9.311  70.738  1.00  0.00    -0.217 C  
BRANCH   5   6
HETATM    6  C   UNL     1      -8.217   8.320  71.815  1.00  0.00    -0.186 C  
HETATM    7  C   UNL     1      -9.268   8.021  72.872  1.00  0.00    -0.332 C  
ENDBRANCH   5   6
ENDBRANCH   4   5
BRANCH   4   8
HETATM    8  S   UNL     1     -10.519   8.406  68.933  1.00  0.00    -0.148 S  
HETATM    9  O   UNL     1     -10.716   8.525  67.508  1.00  0.00    -0.248 OA 
HETATM   10  O   UNL     1     -10.917   7.204  69.638  1.00  0.00    -0.243 OA 
BRANCH   8  11
HETATM   11  C   UNL     1     -11.435   9.778  69.622  1.00  0.00    -0.056 A  
HETATM   12  C   UNL     1     -12.035   9.630  70.881  1.00  0.00    -0.391 A  
HETATM   13  C   UNL     1     -12.557  10.746  71.543  1.00  0.00    -0.500 A  
HETATM   14  C   UNL     1     -12.480  12.011  70.946  1.00  0.00    -0.384 A  
HETATM   15  C   UNL     1     -12.960  13.243  71.627  1.00  0.00    -0.349 C  
HETATM   16  C   UNL     1     -11.861  12.155  69.695  1.00  0.00    -0.391 A  
HETATM   17  O   UNL     1     -14.059  13.052  72.384  1.00  0.00    -0.537 OA 
HETATM   18  C   UNL     1     -11.339  11.040  69.031  1.00  0.00    -0.345 A  
HETATM   19  O   UNL     1     -12.438  14.334  71.477  1.00  0.00    -0.334 OA 
ENDBRANCH   8  11
ENDBRANCH   4   8
ENDBRANCH   3   4
ENDBRANCH   2   3
TORSDOF 6
ENDMDL
MODEL      128
REMARK 921   NORMALIZED FREE ENERGY PREDICTED BY IDOCK:   -3.82 KCAL/MOL
REMARK 922        TOTAL FREE ENERGY PREDICTED BY IDOCK:   -5.95 KCAL/MOL
REMARK 923 INTER-LIGAND FREE ENERGY PREDICTED BY IDOCK:   -5.40 KCAL/MOL
REMARK 924 INTRA-LIGAND FREE ENERGY PREDICTED BY IDOCK:   -0.55 KCAL/MOL
REMARK 927      BINDING AFFINITY PREDICTED BY RF-SCORE:    0.00 PKD
ROOT
HETATM    1  C   UNL     1      -7.846   7.928  64.065  1.00  0.00    -0.138 C  
HETATM    2  C   UNL     1      -7.547   8.849  65.232  1.00  0.00    -0.098 C  
ENDROOT
BRANCH   2   3
HETATM    3  C   UNL     1      -8.789   9.455  65.893  1.00  0.00    -0.162 C  
BRANCH   3   4
HETATM    4  N   UNL     1      -9.100  10.904  65.553  1.00  0.00    -0.197 N  
BRANCH   4   5
HETATM    5  C   UNL     1     -10.443  11.038  64.876  1.00  0.00    -0.303 C  
BRANCH   5   6
HETATM    6  C   UNL     1     -10.414  11.585  63.446  1.00  0.00    -0.466 C  
HETATM    7  C   UNL     1      -9.264  11.065  62.600  1.00  0.00    -0.363 C  
ENDBRANCH   5   6
ENDBRANCH   4   5
BRANCH   4   8
HETATM    8  S   UNL     1      -8.931  11.904  66.987  1.00  0.00    -0.196 S  
HETATM    9  O   UNL     1      -7.620  11.735  67.569  1.00  0.00    -0.118 OA 
HETATM   10  O   UNL     1      -9.432  13.223  66.662  1.00  0.00    -0.252 OA 
BRANCH   8  11
HETATM   11  C   UNL     1     -10.042  11.170  68.180  1.00  0.00    -0.179 A  
HETATM   12  C   UNL     1      -9.529  10.256  69.112  1.00  0.00    -0.225 A  
HETATM   13  C   UNL     1     -10.316   9.843  70.193  1.00  0.00    -0.336 A  
HETATM   14  C   UNL     1     -11.616  10.344  70.341  1.00  0.00    -0.423 A  
HETATM   15  C   UNL     1     -12.476   9.991  71.503  1.00  0.00    -0.419 C  
HETATM   16  C   UNL     1     -12.115  11.273  69.416  1.00  0.00    -0.384 A  
HETATM   17  O   UNL     1     -12.317   8.724  71.931  1.00  0.00    -0.316 OA 
HETATM   18  C   UNL     1     -11.331  11.686  68.334  1.00  0.00    -0.339 A  
HETATM   19  O   UNL     1     -13.285  10.762  71.990  1.00  0.00    -0.484 OA 
ENDBRANCH   8  11
ENDBRANCH   4   8
ENDBRANCH   3   4
ENDBRANCH   2   3
TORSDOF 6
ENDMDL
MODEL      129
REMARK 921   NORMALIZED FREE ENERGY PREDICTED BY IDOCK:   -3.81 KCAL/MOL
REMARK 922        TOTAL FREE ENERGY PREDICTED BY IDOCK:   -5.93 KCAL/MOL
REMARK 923 INTER-LIGAND FREE ENERGY PREDICTED BY IDOCK:   -5.13 KCAL/MOL
REMARK 924 INTRA-LIGAND FREE ENERGY PREDICTED BY IDOCK:   -0.81 KCAL/MOL
REMARK 927      BINDING AFFINITY PREDICTED BY RF-SCORE:    0.00 PKD
ROOT
HETATM    1  C   UNL     1     -12.002  11.265  70.271  1.00  0.00    -0.466 C  
HETATM    2  C   UNL     1     -11.173  10.081  70.734  1.00  0.00    -0.428 C  
ENDROOT
BRANCH   2   3
HETATM    3  C   UNL     1     -10.908   9.032  69.650  1.00  0.00    -0.186 C  
BRANCH   3   4
HETATM    4  N   UNL     1      -9.599   8.265  69.754  1.00  0.00    -0.170 N  
BRANCH   4   5
HETATM    5  C   UNL     1      -9.761   6.831  69.313  1.00  0.00    -0.151 C  
BRANCH   5   6
HETATM    6  C   UNL     1     -11.070   6.504  68.586  1.00  0.00    -0.348 C  
HETATM    7  C   UNL     1     -10.913   6.262  67.093  1.00  0.00    -0.453 C  
ENDBRANCH   5   6
ENDBRANCH   4   5
BRANCH   4   8
HETATM    8  S   UNL     1      -8.332   9.127  68.896  1.00  0.00    -0.126 S  
HETATM    9  O   UNL     1      -7.713  10.107  69.758  1.00  0.00    -0.146 OA 
HETATM   10  O   UNL     1      -7.530   8.144  68.198  1.00  0.00    -0.093 OA 
BRANCH   8  11
HETATM   11  C   UNL     1      -9.200  10.101  67.673  1.00  0.00    -0.141 A  
HETATM   12  C   UNL     1      -9.178  11.499  67.779  1.00  0.00    -0.165 A  
HETATM   13  C   UNL     1      -9.647  12.288  66.723  1.00  0.00    -0.220 A  
HETATM   14  C   UNL     1     -10.139  11.678  65.561  1.00  0.00    -0.285 A  
HETATM   15  C   UNL     1     -10.592  12.464  64.381  1.00  0.00    -0.337 C  
HETATM   16  C   UNL     1     -10.139  10.279  65.455  1.00  0.00    -0.351 A  
HETATM   17  O   UNL     1     -11.201  13.622  64.702  1.00  0.00    -0.343 OA 
HETATM   18  C   UNL     1      -9.672   9.489  66.509  1.00  0.00    -0.284 A  
HETATM   19  O   UNL     1     -10.467  12.073  63.234  1.00  0.00    -0.431 OA 
ENDBRANCH   8  11
ENDBRANCH   4   8
ENDBRANCH   3   4
ENDBRANCH   2   3
TORSDOF 6
ENDMDL
MODEL      130
REMARK 921   NORMALIZED FREE ENERGY PREDICTED BY IDOCK:   -3.78 KCAL/MOL
REMARK 922        TOTAL FREE ENERGY PREDICTED BY IDOCK:   -5.89 KCAL/MOL
REMARK 923 INTER-LIGAND FREE ENERGY PREDICTED BY IDOCK:   -5.37 KCAL/MOL
REMARK 924 INTRA-LIGAND FREE ENERGY PREDICTED BY IDOCK:   -0.52 KCAL/MOL
REMARK 927      BINDING AFFINITY PREDICTED BY RF-SCORE:    0.00 PKD
ROOT
HETATM    1  C   UNL     1     -11.803  15.513  64.269  1.00  0.00    -0.179 C  
HETATM    2  C   UNL     1     -10.891  15.438  65.479  1.00  0.00    -0.384 C  
ENDROOT
BRANCH   2   3
HETATM    3  C   UNL     1     -11.532  14.801  66.716  1.00  0.00    -0.338 C  
BRANCH   3   4
HETATM    4  N   UNL     1     -10.828  13.583  67.293  1.00  0.00    -0.274 N  
BRANCH   4   5
HETATM    5  C   UNL     1     -10.690  13.683  68.793  1.00  0.00    -0.244 C  
BRANCH   5   6
HETATM    6  C   UNL     1     -10.321  15.068  69.335  1.00  0.00    -0.241 C  
HETATM    7  C   UNL     1      -8.827  15.345  69.379  1.00  0.00    -0.251 C  
ENDBRANCH   5   6
ENDBRANCH   4   5
BRANCH   4   8
HETATM    8  S   UNL     1     -11.634  12.118  66.756  1.00  0.00    -0.308 S  
HETATM    9  O   UNL     1     -12.117  11.362  67.888  1.00  0.00    -0.646 OA 
HETATM   10  O   UNL     1     -12.525  12.480  65.673  1.00  0.00    -0.648 OA 
BRANCH   8  11
HETATM   11  C   UNL     1     -10.323  11.108  66.077  1.00  0.00    -0.254 A  
HETATM   12  C   UNL     1      -9.928   9.955  66.771  1.00  0.00    -0.272 A  
HETATM   13  C   UNL     1      -9.075   9.029  66.160  1.00  0.00    -0.246 A  
HETATM   14  C   UNL     1      -8.618   9.256  64.855  1.00  0.00    -0.204 A  
HETATM   15  C   UNL     1      -7.762   8.279  64.131  1.00  0.00    -0.138 C  
HETATM   16  C   UNL     1      -9.034  10.402  64.161  1.00  0.00    -0.251 A  
HETATM   17  O   UNL     1      -6.883   7.635  64.923  1.00  0.00    -0.050 OA 
HETATM   18  C   UNL     1      -9.885  11.329  64.770  1.00  0.00    -0.312 A  
HETATM   19  O   UNL     1      -7.818   8.111  62.925  1.00  0.00    -0.130 OA 
ENDBRANCH   8  11
ENDBRANCH   4   8
ENDBRANCH   3   4
ENDBRANCH   2   3
TORSDOF 6
ENDMDL
MODEL      131
REMARK 921   NORMALIZED FREE ENERGY PREDICTED BY IDOCK:   -3.78 KCAL/MOL
REMARK 922        TOTAL FREE ENERGY PREDICTED BY IDOCK:   -5.89 KCAL/MOL
REMARK 923 INTER-LIGAND FREE ENERGY PREDICTED BY IDOCK:   -5.29 KCAL/MOL
REMARK 924 INTRA-LIGAND FREE ENERGY PREDICTED BY IDOCK:   -0.60 KCAL/MOL
REMARK 927      BINDING AFFINITY PREDICTED BY RF-SCORE:    0.00 PKD
ROOT
HETATM    1  C   UNL     1      -9.025   8.811  71.375  1.00  0.00    -0.307 C  
HETATM    2  C   UNL     1      -9.836   8.959  70.101  1.00  0.00    -0.199 C  
ENDROOT
BRANCH   2   3
HETATM    3  C   UNL     1     -10.433  10.354  69.890  1.00  0.00    -0.218 C  
BRANCH   3   4
HETATM    4  N   UNL     1      -9.790  11.211  68.811  1.00  0.00    -0.202 N  
BRANCH   4   5
HETATM    5  C   UNL     1      -8.481  10.621  68.342  1.00  0.00    -0.132 C  
BRANCH   5   6
HETATM    6  C   UNL     1      -7.275  11.565  68.384  1.00  0.00    -0.089 C  
HETATM    7  C   UNL     1      -6.614  11.795  67.034  1.00  0.00    -0.140 C  
ENDBRANCH   5   6
ENDBRANCH   4   5
BRANCH   4   8
HETATM    8  S   UNL     1     -10.938  11.498  67.513  1.00  0.00    -0.274 S  
HETATM    9  O   UNL     1     -10.419  11.002  66.260  1.00  0.00    -0.248 OA 
HETATM   10  O   UNL     1     -12.245  11.088  67.987  1.00  0.00    -0.520 OA 
BRANCH   8  11
HETATM   11  C   UNL     1     -10.956  13.274  67.313  1.00  0.00    -0.268 A  
HETATM   12  C   UNL     1     -10.877  14.086  68.453  1.00  0.00    -0.263 A  
HETATM   13  C   UNL     1     -10.658  15.462  68.319  1.00  0.00    -0.253 A  
HETATM   14  C   UNL     1     -10.520  16.026  67.044  1.00  0.00    -0.307 A  
HETATM   15  C   UNL     1     -10.224  17.469  66.840  1.00  0.00    -0.329 C  
HETATM   16  C   UNL     1     -10.581  15.203  65.908  1.00  0.00    -0.347 A  
HETATM   17  O   UNL     1     -10.812  18.276  67.744  1.00  0.00    -0.386 OA 
HETATM   18  C   UNL     1     -10.800  13.829  66.040  1.00  0.00    -0.282 A  
HETATM   19  O   UNL     1      -9.551  17.886  65.913  1.00  0.00    -0.525 OA 
ENDBRANCH   8  11
ENDBRANCH   4   8
ENDBRANCH   3   4
ENDBRANCH   2   3
TORSDOF 6
ENDMDL
MODEL      132
REMARK 921   NORMALIZED FREE ENERGY PREDICTED BY IDOCK:   -3.78 KCAL/MOL
REMARK 922        TOTAL FREE ENERGY PREDICTED BY IDOCK:   -5.89 KCAL/MOL
REMARK 923 INTER-LIGAND FREE ENERGY PREDICTED BY IDOCK:   -5.27 KCAL/MOL
REMARK 924 INTRA-LIGAND FREE ENERGY PREDICTED BY IDOCK:   -0.62 KCAL/MOL
REMARK 927      BINDING AFFINITY PREDICTED BY RF-SCORE:    0.00 PKD
ROOT
HETATM    1  C   UNL     1     -13.131  11.467  71.742  1.00  0.00    -0.503 C  
HETATM    2  C   UNL     1     -12.878  10.804  70.400  1.00  0.00    -0.285 C  
ENDROOT
BRANCH   2   3
HETATM    3  C   UNL     1     -11.729  11.423  69.597  1.00  0.00    -0.345 C  
BRANCH   3   4
HETATM    4  N   UNL     1     -11.263  10.648  68.374  1.00  0.00    -0.274 N  
BRANCH   4   5
HETATM    5  C   UNL     1     -11.220  11.526  67.147  1.00  0.00    -0.301 C  
BRANCH   5   6
HETATM    6  C   UNL     1     -11.939  12.874  67.268  1.00  0.00    -0.371 C  
HETATM    7  C   UNL     1     -12.459  13.426  65.951  1.00  0.00    -0.468 C  
ENDBRANCH   5   6
ENDBRANCH   4   5
BRANCH   4   8
HETATM    8  S   UNL     1      -9.741   9.845  68.721  1.00  0.00    -0.168 S  
HETATM    9  O   UNL     1      -9.381   8.955  67.642  1.00  0.00    -0.135 OA 
HETATM   10  O   UNL     1      -8.811  10.853  69.189  1.00  0.00    -0.135 OA 
BRANCH   8  11
HETATM   11  C   UNL     1     -10.109   8.755  70.090  1.00  0.00    -0.187 A  
HETATM   12  C   UNL     1     -10.738   7.530  69.830  1.00  0.00    -0.254 A  
HETATM   13  C   UNL     1     -10.831   6.564  70.838  1.00  0.00    -0.302 A  
HETATM   14  C   UNL     1     -10.296   6.825  72.107  1.00  0.00    -0.221 A  
HETATM   15  C   UNL     1     -10.308   5.814  73.198  1.00  0.00    -0.205 C  
HETATM   16  C   UNL     1      -9.650   8.046  72.352  1.00  0.00    -0.297 A  
HETATM   17  O   UNL     1     -11.411   5.041  73.209  1.00  0.00    -0.332 OA 
HETATM   18  C   UNL     1      -9.557   9.013  71.347  1.00  0.00    -0.356 A  
HETATM   19  O   UNL     1      -9.425   5.727  74.034  1.00  0.00    -0.133 OA 
ENDBRANCH   8  11
ENDBRANCH   4   8
ENDBRANCH   3   4
ENDBRANCH   2   3
TORSDOF 6
ENDMDL
MODEL      133
REMARK 921   NORMALIZED FREE ENERGY PREDICTED BY IDOCK:   -3.76 KCAL/MOL
REMARK 922        TOTAL FREE ENERGY PREDICTED BY IDOCK:   -5.87 KCAL/MOL
REMARK 923 INTER-LIGAND FREE ENERGY PREDICTED BY IDOCK:   -5.54 KCAL/MOL
REMARK 924 INTRA-LIGAND FREE ENERGY PREDICTED BY IDOCK:   -0.33 KCAL/MOL
REMARK 927      BINDING AFFINITY PREDICTED BY RF-SCORE:    0.00 PKD
ROOT
HETATM    1  C   UNL     1      -8.401   6.987  68.383  1.00  0.00    -0.124 C  
HETATM    2  C   UNL     1      -9.501   7.710  67.627  1.00  0.00    -0.165 C  
ENDROOT
BRANCH   2   3
HETATM    3  C   UNL     1      -9.814   9.113  68.155  1.00  0.00    -0.164 C  
BRANCH   3   4
HETATM    4  N   UNL     1     -10.746   9.964  67.308  1.00  0.00    -0.260 N  
BRANCH   4   5
HETATM    5  C   UNL     1     -11.491  10.974  68.148  1.00  0.00    -0.302 C  
BRANCH   5   6
HETATM    6  C   UNL     1     -11.454  10.735  69.661  1.00  0.00    -0.376 C  
HETATM    7  C   UNL     1     -12.099  11.838  70.484  1.00  0.00    -0.439 C  
ENDBRANCH   5   6
ENDBRANCH   4   5
BRANCH   4   8
HETATM    8  S   UNL     1      -9.855  10.678  65.973  1.00  0.00    -0.239 S  
HETATM    9  O   UNL     1      -8.433  10.529  66.177  1.00  0.00    -0.142 OA 
HETATM   10  O   UNL     1     -10.477  10.233  64.743  1.00  0.00    -0.200 OA 
BRANCH   8  11
HETATM   11  C   UNL     1     -10.142  12.436  66.131  1.00  0.00    -0.248 A  
HETATM   12  C   UNL     1      -9.206  13.216  66.825  1.00  0.00    -0.232 A  
HETATM   13  C   UNL     1      -9.280  14.613  66.770  1.00  0.00    -0.285 A  
HETATM   14  C   UNL     1     -10.292  15.229  66.021  1.00  0.00    -0.327 A  
HETATM   15  C   UNL     1     -10.385  16.706  65.873  1.00  0.00    -0.340 C  
HETATM   16  C   UNL     1     -11.213  14.441  65.314  1.00  0.00    -0.345 A  
HETATM   17  O   UNL     1     -10.018  17.386  66.977  1.00  0.00    -0.274 OA 
HETATM   18  C   UNL     1     -11.141  13.046  65.369  1.00  0.00    -0.300 A  
HETATM   19  O   UNL     1     -10.801  17.249  64.864  1.00  0.00    -0.773 OA 
ENDBRANCH   8  11
ENDBRANCH   4   8
ENDBRANCH   3   4
ENDBRANCH   2   3
TORSDOF 6
ENDMDL
MODEL      134
REMARK 921   NORMALIZED FREE ENERGY PREDICTED BY IDOCK:   -3.72 KCAL/MOL
REMARK 922        TOTAL FREE ENERGY PREDICTED BY IDOCK:   -5.81 KCAL/MOL
REMARK 923 INTER-LIGAND FREE ENERGY PREDICTED BY IDOCK:   -5.21 KCAL/MOL
REMARK 924 INTRA-LIGAND FREE ENERGY PREDICTED BY IDOCK:   -0.60 KCAL/MOL
REMARK 927      BINDING AFFINITY PREDICTED BY RF-SCORE:    0.00 PKD
ROOT
HETATM    1  C   UNL     1      -8.053   8.033  73.329  1.00  0.00    -0.240 C  
HETATM    2  C   UNL     1      -9.212   8.102  72.352  1.00  0.00    -0.292 C  
ENDROOT
BRANCH   2   3
HETATM    3  C   UNL     1      -8.828   7.824  70.896  1.00  0.00    -0.142 C  
BRANCH   3   4
HETATM    4  N   UNL     1      -9.863   8.185  69.841  1.00  0.00    -0.184 N  
BRANCH   4   5
HETATM    5  C   UNL     1     -11.203   7.560  70.144  1.00  0.00    -0.196 C  
BRANCH   5   6
HETATM    6  C   UNL     1     -11.518   6.265  69.387  1.00  0.00    -0.348 C  
HETATM    7  C   UNL     1     -10.840   6.153  68.031  1.00  0.00    -0.398 C  
ENDBRANCH   5   6
ENDBRANCH   4   5
BRANCH   4   8
HETATM    8  S   UNL     1      -9.927   9.928  69.641  1.00  0.00    -0.242 S  
HETATM    9  O   UNL     1     -11.065  10.476  70.341  1.00  0.00    -0.298 OA 
HETATM   10  O   UNL     1      -8.595  10.446  69.875  1.00  0.00    -0.072 OA 
BRANCH   8  11
HETATM   11  C   UNL     1     -10.316  10.168  67.912  1.00  0.00    -0.194 A  
HETATM   12  C   UNL     1     -10.980  11.340  67.522  1.00  0.00    -0.319 A  
HETATM   13  C   UNL     1     -11.093  11.662  66.165  1.00  0.00    -0.335 A  
HETATM   14  C   UNL     1     -10.542  10.811  65.198  1.00  0.00    -0.239 A  
HETATM   15  C   UNL     1     -10.574  11.132  63.745  1.00  0.00    -0.356 C  
HETATM   16  C   UNL     1      -9.861   9.651  65.597  1.00  0.00    -0.369 A  
HETATM   17  O   UNL     1     -11.698  11.763  63.354  1.00  0.00    -0.427 OA 
HETATM   18  C   UNL     1      -9.748   9.327  66.952  1.00  0.00    -0.248 A  
HETATM   19  O   UNL     1      -9.689  10.809  62.973  1.00  0.00    -0.308 OA 
ENDBRANCH   8  11
ENDBRANCH   4   8
ENDBRANCH   3   4
ENDBRANCH   2   3
TORSDOF 6
ENDMDL
MODEL      135
REMARK 921   NORMALIZED FREE ENERGY PREDICTED BY IDOCK:   -3.72 KCAL/MOL
REMARK 922        TOTAL FREE ENERGY PREDICTED BY IDOCK:   -5.81 KCAL/MOL
REMARK 923 INTER-LIGAND FREE ENERGY PREDICTED BY IDOCK:   -5.31 KCAL/MOL
REMARK 924 INTRA-LIGAND FREE ENERGY PREDICTED BY IDOCK:   -0.49 KCAL/MOL
REMARK 927      BINDING AFFINITY PREDICTED BY RF-SCORE:    0.00 PKD
ROOT
HETATM    1  C   UNL     1     -10.572   5.217  73.870  1.00  0.00    -0.335 C  
HETATM    2  C   UNL     1     -11.077   6.253  72.882  1.00  0.00    -0.268 C  
ENDROOT
BRANCH   2   3
HETATM    3  C   UNL     1     -10.578   7.676  73.149  1.00  0.00    -0.379 C  
BRANCH   3   4
HETATM    4  N   UNL     1     -10.166   8.489  71.931  1.00  0.00    -0.270 N  
BRANCH   4   5
HETATM    5  C   UNL     1      -8.825   8.047  71.398  1.00  0.00    -0.141 C  
BRANCH   5   6
HETATM    6  C   UNL     1      -7.856   9.172  71.022  1.00  0.00    -0.152 C  
HETATM    7  C   UNL     1      -7.455   9.190  69.556  1.00  0.00    -0.077 C  
ENDBRANCH   5   6
ENDBRANCH   4   5
BRANCH   4   8
HETATM    8  S   UNL     1     -11.447   8.457  70.731  1.00  0.00    -0.220 S  
HETATM    9  O   UNL     1     -11.217   7.401  69.774  1.00  0.00    -0.202 OA 
HETATM   10  O   UNL     1     -12.710   8.556  71.435  1.00  0.00    -0.312 OA 
BRANCH   8  11
HETATM   11  C   UNL     1     -11.221   9.962  69.791  1.00  0.00    -0.235 A  
HETATM   12  C   UNL     1     -10.824   9.870  68.450  1.00  0.00    -0.263 A  
HETATM   13  C   UNL     1     -10.860  11.004  67.630  1.00  0.00    -0.306 A  
HETATM   14  C   UNL     1     -11.293  12.230  68.153  1.00  0.00    -0.349 A  
HETATM   15  C   UNL     1     -11.413  13.453  67.316  1.00  0.00    -0.340 C  
HETATM   16  C   UNL     1     -11.706  12.309  69.492  1.00  0.00    -0.398 A  
HETATM   17  O   UNL     1     -10.461  13.558  66.369  1.00  0.00    -0.279 OA 
HETATM   18  C   UNL     1     -11.670  11.177  70.313  1.00  0.00    -0.431 A  
HETATM   19  O   UNL     1     -12.264  14.306  67.502  1.00  0.00    -0.354 OA 
ENDBRANCH   8  11
ENDBRANCH   4   8
ENDBRANCH   3   4
ENDBRANCH   2   3
TORSDOF 6
ENDMDL
MODEL      136
REMARK 921   NORMALIZED FREE ENERGY PREDICTED BY IDOCK:   -3.70 KCAL/MOL
REMARK 922        TOTAL FREE ENERGY PREDICTED BY IDOCK:   -5.78 KCAL/MOL
REMARK 923 INTER-LIGAND FREE ENERGY PREDICTED BY IDOCK:   -5.56 KCAL/MOL
REMARK 924 INTRA-LIGAND FREE ENERGY PREDICTED BY IDOCK:   -0.22 KCAL/MOL
REMARK 927      BINDING AFFINITY PREDICTED BY RF-SCORE:    0.00 PKD
ROOT
HETATM    1  C   UNL     1     -11.664  14.447  64.723  1.00  0.00    -0.420 C  
HETATM    2  C   UNL     1     -10.233  14.886  64.970  1.00  0.00    -0.365 C  
ENDROOT
BRANCH   2   3
HETATM    3  C   UNL     1     -10.069  15.892  66.113  1.00  0.00    -0.315 C  
BRANCH   3   4
HETATM    4  N   UNL     1      -8.719  16.584  66.219  1.00  0.00    -0.315 N  
BRANCH   4   5
HETATM    5  C   UNL     1      -8.872  18.082  66.330  1.00  0.00    -0.231 C  
BRANCH   5   6
HETATM    6  C   UNL     1     -10.285  18.584  66.642  1.00  0.00    -0.429 C  
HETATM    7  C   UNL     1     -10.565  20.001  66.167  1.00  0.00    -0.464 C  
ENDBRANCH   5   6
ENDBRANCH   4   5
BRANCH   4   8
HETATM    8  S   UNL     1      -7.784  15.873  67.525  1.00  0.00    -0.175 S  
HETATM    9  O   UNL     1      -6.696  15.085  66.997  1.00  0.00    -0.211 OA 
HETATM   10  O   UNL     1      -7.539  16.912  68.504  1.00  0.00    -0.199 OA 
BRANCH   8  11
HETATM   11  C   UNL     1      -8.884  14.669  68.260  1.00  0.00    -0.176 A  
HETATM   12  C   UNL     1      -9.948  15.120  69.055  1.00  0.00    -0.239 A  
HETATM   13  C   UNL     1     -10.951  14.228  69.452  1.00  0.00    -0.242 A  
HETATM   14  C   UNL     1     -10.888  12.885  69.055  1.00  0.00    -0.188 A  
HETATM   15  C   UNL     1     -11.956  11.906  69.392  1.00  0.00    -0.289 C  
HETATM   16  C   UNL     1      -9.830  12.447  68.244  1.00  0.00    -0.224 A  
HETATM   17  O   UNL     1     -12.508  12.102  70.606  1.00  0.00    -0.316 OA 
HETATM   18  C   UNL     1      -8.827  13.336  67.847  1.00  0.00    -0.192 A  
HETATM   19  O   UNL     1     -12.267  10.983  68.660  1.00  0.00    -0.571 OA 
ENDBRANCH   8  11
ENDBRANCH   4   8
ENDBRANCH   3   4
ENDBRANCH   2   3
TORSDOF 6
ENDMDL
MODEL      137
REMARK 921   NORMALIZED FREE ENERGY PREDICTED BY IDOCK:   -3.69 KCAL/MOL
REMARK 922        TOTAL FREE ENERGY PREDICTED BY IDOCK:   -5.77 KCAL/MOL
REMARK 923 INTER-LIGAND FREE ENERGY PREDICTED BY IDOCK:   -4.99 KCAL/MOL
REMARK 924 INTRA-LIGAND FREE ENERGY PREDICTED BY IDOCK:   -0.77 KCAL/MOL
REMARK 927      BINDING AFFINITY PREDICTED BY RF-SCORE:    0.00 PKD
ROOT
HETATM    1  C   UNL     1      -7.590   8.412  69.905  1.00  0.00    -0.076 C  
HETATM    2  C   UNL     1      -8.804   9.227  70.310  1.00  0.00    -0.254 C  
ENDROOT
BRANCH   2   3
HETATM    3  C   UNL     1      -9.391   8.851  71.674  1.00  0.00    -0.258 C  
BRANCH   3   4
HETATM    4  N   UNL     1     -10.890   9.045  71.843  1.00  0.00    -0.362 N  
BRANCH   4   5
HETATM    5  C   UNL     1     -11.494   9.756  70.656  1.00  0.00    -0.324 C  
BRANCH   5   6
HETATM    6  C   UNL     1     -12.230  11.063  70.968  1.00  0.00    -0.456 C  
HETATM    7  C   UNL     1     -12.142  12.109  69.869  1.00  0.00    -0.324 C  
ENDBRANCH   5   6
ENDBRANCH   4   5
BRANCH   4   8
HETATM    8  S   UNL     1     -11.654   7.506  72.206  1.00  0.00    -0.311 S  
HETATM    9  O   UNL     1     -11.123   6.954  73.430  1.00  0.00    -0.240 OA 
HETATM   10  O   UNL     1     -13.082   7.674  72.027  1.00  0.00    -0.273 OA 
BRANCH   8  11
HETATM   11  C   UNL     1     -11.065   6.400  70.930  1.00  0.00    -0.298 A  
HETATM   12  C   UNL     1     -11.492   6.599  69.610  1.00  0.00    -0.358 A  
HETATM   13  C   UNL     1     -10.877   5.903  68.563  1.00  0.00    -0.323 A  
HETATM   14  C   UNL     1      -9.836   5.006  68.838  1.00  0.00    -0.245 A  
HETATM   15  C   UNL     1      -9.102   4.286  67.763  1.00  0.00    -0.131 C  
HETATM   16  C   UNL     1      -9.402   4.827  70.160  1.00  0.00    -0.222 A  
HETATM   17  O   UNL     1      -9.878   3.934  66.719  1.00  0.00    -0.206 OA 
HETATM   18  C   UNL     1     -10.015   5.521  71.207  1.00  0.00    -0.249 A  
HETATM   19  O   UNL     1      -7.921   3.998  67.841  1.00  0.00    -0.087 OA 
ENDBRANCH   8  11
ENDBRANCH   4   8
ENDBRANCH   3   4
ENDBRANCH   2   3
TORSDOF 6
ENDMDL
MODEL      138
REMARK 921   NORMALIZED FREE ENERGY PREDICTED BY IDOCK:   -3.68 KCAL/MOL
REMARK 922        TOTAL FREE ENERGY PREDICTED BY IDOCK:   -5.76 KCAL/MOL
REMARK 923 INTER-LIGAND FREE ENERGY PREDICTED BY IDOCK:   -5.24 KCAL/MOL
REMARK 924 INTRA-LIGAND FREE ENERGY PREDICTED BY IDOCK:   -0.52 KCAL/MOL
REMARK 927      BINDING AFFINITY PREDICTED BY RF-SCORE:    0.00 PKD
ROOT
HETATM    1  C   UNL     1      -7.903   7.321  66.052  1.00  0.00    -0.106 C  
HETATM    2  C   UNL     1      -9.272   7.044  66.646  1.00  0.00    -0.189 C  
ENDROOT
BRANCH   2   3
HETATM    3  C   UNL     1     -10.084   8.300  66.976  1.00  0.00    -0.283 C  
BRANCH   3   4
HETATM    4  N   UNL     1     -10.514   8.468  68.425  1.00  0.00    -0.200 N  
BRANCH   4   5
HETATM    5  C   UNL     1     -10.294   7.202  69.218  1.00  0.00    -0.203 C  
BRANCH   5   6
HETATM    6  C   UNL     1     -11.512   6.680  69.987  1.00  0.00    -0.434 C  
HETATM    7  C   UNL     1     -11.357   6.711  71.499  1.00  0.00    -0.326 C  
ENDBRANCH   5   6
ENDBRANCH   4   5
BRANCH   4   8
HETATM    8  S   UNL     1      -9.734   9.879  69.120  1.00  0.00    -0.210 S  
HETATM    9  O   UNL     1     -10.277  10.165  70.427  1.00  0.00    -0.228 OA 
HETATM   10  O   UNL     1      -8.306   9.728  68.928  1.00  0.00    -0.110 OA 
BRANCH   8  11
HETATM   11  C   UNL     1     -10.286  11.243  68.104  1.00  0.00    -0.180 A  
HETATM   12  C   UNL     1      -9.449  11.707  67.079  1.00  0.00    -0.191 A  
HETATM   13  C   UNL     1      -9.940  12.610  66.130  1.00  0.00    -0.269 A  
HETATM   14  C   UNL     1     -11.268  13.050  66.206  1.00  0.00    -0.332 A  
HETATM   15  C   UNL     1     -11.865  13.958  65.191  1.00  0.00    -0.362 C  
HETATM   16  C   UNL     1     -12.105  12.566  67.223  1.00  0.00    -0.133 A  
HETATM   17  O   UNL     1     -11.003  14.875  64.710  1.00  0.00    -0.390 OA 
HETATM   18  C   UNL     1     -11.616  11.664  68.174  1.00  0.00    -0.389 A  
HETATM   19  O   UNL     1     -13.037  13.909  64.861  1.00  0.00    -0.704 OA 
ENDBRANCH   8  11
ENDBRANCH   4   8
ENDBRANCH   3   4
ENDBRANCH   2   3
TORSDOF 6
ENDMDL
MODEL      139
REMARK 921   NORMALIZED FREE ENERGY PREDICTED BY IDOCK:   -3.68 KCAL/MOL
REMARK 922        TOTAL FREE ENERGY PREDICTED BY IDOCK:   -5.75 KCAL/MOL
REMARK 923 INTER-LIGAND FREE ENERGY PREDICTED BY IDOCK:   -5.05 KCAL/MOL
REMARK 924 INTRA-LIGAND FREE ENERGY PREDICTED BY IDOCK:   -0.70 KCAL/MOL
REMARK 927      BINDING AFFINITY PREDICTED BY RF-SCORE:    0.00 PKD
ROOT
HETATM    1  C   UNL     1     -10.964   6.423  68.673  1.00  0.00    -0.404 C  
HETATM    2  C   UNL     1     -10.932   6.537  67.161  1.00  0.00    -0.480 C  
ENDROOT
BRANCH   2   3
HETATM    3  C   UNL     1      -9.632   7.120  66.598  1.00  0.00    -0.170 C  
BRANCH   3   4
HETATM    4  N   UNL     1      -8.886   8.099  67.491  1.00  0.00    -0.134 N  
BRANCH   4   5
HETATM    5  C   UNL     1      -7.399   7.837  67.478  1.00  0.00    -0.092 C  
BRANCH   5   6
HETATM    6  C   UNL     1      -6.865   6.982  68.631  1.00  0.00    -0.076 C  
HETATM    7  C   UNL     1      -5.790   5.986  68.226  1.00  0.00    -0.016 C  
ENDBRANCH   5   6
ENDBRANCH   4   5
BRANCH   4   8
HETATM    8  S   UNL     1      -9.315   9.746  67.060  1.00  0.00    -0.150 S  
HETATM    9  O   UNL     1      -8.138  10.580  67.013  1.00  0.00    -0.115 OA 
HETATM   10  O   UNL     1     -10.222   9.681  65.932  1.00  0.00    -0.259 OA 
BRANCH   8  11
HETATM   11  C   UNL     1     -10.232  10.355  68.470  1.00  0.00    -0.173 A  
HETATM   12  C   UNL     1     -11.110  11.434  68.293  1.00  0.00    -0.300 A  
HETATM   13  C   UNL     1     -12.003  11.783  69.312  1.00  0.00    -0.354 A  
HETATM   14  C   UNL     1     -12.018  11.053  70.508  1.00  0.00    -0.474 A  
HETATM   15  C   UNL     1     -12.987  11.336  71.601  1.00  0.00    -0.432 C  
HETATM   16  C   UNL     1     -11.149   9.963  70.669  1.00  0.00    -0.409 A  
HETATM   17  O   UNL     1     -13.276  12.644  71.744  1.00  0.00    -0.432 OA 
HETATM   18  C   UNL     1     -10.255   9.613  69.653  1.00  0.00    -0.239 A  
HETATM   19  O   UNL     1     -13.439  10.470  72.329  1.00  0.00    -0.340 OA 
ENDBRANCH   8  11
ENDBRANCH   4   8
ENDBRANCH   3   4
ENDBRANCH   2   3
TORSDOF 6
ENDMDL
MODEL      140
REMARK 921   NORMALIZED FREE ENERGY PREDICTED BY IDOCK:   -3.67 KCAL/MOL
REMARK 922        TOTAL FREE ENERGY PREDICTED BY IDOCK:   -5.74 KCAL/MOL
REMARK 923 INTER-LIGAND FREE ENERGY PREDICTED BY IDOCK:   -5.57 KCAL/MOL
REMARK 924 INTRA-LIGAND FREE ENERGY PREDICTED BY IDOCK:   -0.17 KCAL/MOL
REMARK 927      BINDING AFFINITY PREDICTED BY RF-SCORE:    0.00 PKD
ROOT
HETATM    1  C   UNL     1     -13.033  13.882  65.499  1.00  0.00    -0.375 C  
HETATM    2  C   UNL     1     -11.945  13.017  66.105  1.00  0.00    -0.488 C  
ENDROOT
BRANCH   2   3
HETATM    3  C   UNL     1     -11.514  13.436  67.514  1.00  0.00    -0.323 C  
BRANCH   3   4
HETATM    4  N   UNL     1     -10.782  14.764  67.632  1.00  0.00    -0.266 N  
BRANCH   4   5
HETATM    5  C   UNL     1     -10.444  15.083  69.069  1.00  0.00    -0.245 C  
BRANCH   5   6
HETATM    6  C   UNL     1     -11.225  16.244  69.693  1.00  0.00    -0.311 C  
HETATM    7  C   UNL     1     -11.775  15.954  71.080  1.00  0.00    -0.473 C  
ENDBRANCH   5   6
ENDBRANCH   4   5
BRANCH   4   8
HETATM    8  S   UNL     1      -9.391  14.776  66.561  1.00  0.00    -0.288 S  
HETATM    9  O   UNL     1      -8.490  13.696  66.889  1.00  0.00    -0.164 OA 
HETATM   10  O   UNL     1      -9.882  14.947  65.208  1.00  0.00    -0.327 OA 
BRANCH   8  11
HETATM   11  C   UNL     1      -8.490  16.254  67.011  1.00  0.00    -0.202 A  
HETATM   12  C   UNL     1      -9.022  17.504  66.664  1.00  0.00    -0.283 A  
HETATM   13  C   UNL     1      -8.466  18.673  67.195  1.00  0.00    -0.272 A  
HETATM   14  C   UNL     1      -7.378  18.592  68.074  1.00  0.00    -0.261 A  
HETATM   15  C   UNL     1      -6.786  19.793  68.721  1.00  0.00    -0.318 C  
HETATM   16  C   UNL     1      -6.864  17.336  68.432  1.00  0.00    -0.191 A  
HETATM   17  O   UNL     1      -6.783  20.887  67.934  1.00  0.00    -0.322 OA 
HETATM   18  C   UNL     1      -7.417  16.167  67.901  1.00  0.00    -0.140 A  
HETATM   19  O   UNL     1      -6.303  19.777  69.840  1.00  0.00    -0.321 OA 
ENDBRANCH   8  11
ENDBRANCH   4   8
ENDBRANCH   3   4
ENDBRANCH   2   3
TORSDOF 6
ENDMDL
MODEL      141
REMARK 921   NORMALIZED FREE ENERGY PREDICTED BY IDOCK:   -3.67 KCAL/MOL
REMARK 922        TOTAL FREE ENERGY PREDICTED BY IDOCK:   -5.74 KCAL/MOL
REMARK 923 INTER-LIGAND FREE ENERGY PREDICTED BY IDOCK:   -5.20 KCAL/MOL
REMARK 924 INTRA-LIGAND FREE ENERGY PREDICTED BY IDOCK:   -0.54 KCAL/MOL
REMARK 927      BINDING AFFINITY PREDICTED BY RF-SCORE:    0.00 PKD
ROOT
HETATM    1  C   UNL     1     -13.850   7.347  71.561  1.00  0.00    -0.483 C  
HETATM    2  C   UNL     1     -12.411   6.867  71.549  1.00  0.00    -0.420 C  
ENDROOT
BRANCH   2   3
HETATM    3  C   UNL     1     -11.532   7.531  70.484  1.00  0.00    -0.237 C  
BRANCH   3   4
HETATM    4  N   UNL     1     -10.074   7.099  70.443  1.00  0.00    -0.191 N  
BRANCH   4   5
HETATM    5  C   UNL     1      -9.765   6.313  69.191  1.00  0.00    -0.135 C  
BRANCH   5   6
HETATM    6  C   UNL     1     -10.975   5.927  68.334  1.00  0.00    -0.264 C  
HETATM    7  C   UNL     1     -10.931   6.464  66.913  1.00  0.00    -0.413 C  
ENDBRANCH   5   6
ENDBRANCH   4   5
BRANCH   4   8
HETATM    8  S   UNL     1      -9.032   8.494  70.675  1.00  0.00    -0.173 S  
HETATM    9  O   UNL     1      -9.398   9.204  71.878  1.00  0.00    -0.349 OA 
HETATM   10  O   UNL     1      -7.667   8.061  70.458  1.00  0.00    -0.081 OA 
BRANCH   8  11
HETATM   11  C   UNL     1      -9.474   9.611  69.350  1.00  0.00    -0.192 A  
HETATM   12  C   UNL     1      -8.934   9.396  68.074  1.00  0.00    -0.128 A  
HETATM   13  C   UNL     1      -9.433  10.105  66.975  1.00  0.00    -0.197 A  
HETATM   14  C   UNL     1     -10.471  11.029  67.153  1.00  0.00    -0.274 A  
HETATM   15  C   UNL     1     -11.085  11.764  66.016  1.00  0.00    -0.312 C  
HETATM   16  C   UNL     1     -11.019  11.223  68.430  1.00  0.00    -0.268 A  
HETATM   17  O   UNL     1     -10.209  12.093  65.046  1.00  0.00    -0.272 OA 
HETATM   18  C   UNL     1     -10.522  10.517  69.530  1.00  0.00    -0.265 A  
HETATM   19  O   UNL     1     -12.261  12.083  65.986  1.00  0.00    -0.546 OA 
ENDBRANCH   8  11
ENDBRANCH   4   8
ENDBRANCH   3   4
ENDBRANCH   2   3
TORSDOF 6
ENDMDL
MODEL      142
REMARK 921   NORMALIZED FREE ENERGY PREDICTED BY IDOCK:   -3.66 KCAL/MOL
REMARK 922        TOTAL FREE ENERGY PREDICTED BY IDOCK:   -5.73 KCAL/MOL
REMARK 923 INTER-LIGAND FREE ENERGY PREDICTED BY IDOCK:   -5.73 KCAL/MOL
REMARK 924 INTRA-LIGAND FREE ENERGY PREDICTED BY IDOCK:    0.00 KCAL/MOL
REMARK 927      BINDING AFFINITY PREDICTED BY RF-SCORE:    0.00 PKD
ROOT
HETATM    1  C   UNL     1     -12.230  13.051  63.314  1.00  0.00    -0.464 C  
HETATM    2  C   UNL     1     -11.411  13.654  64.441  1.00  0.00    -0.410 C  
ENDROOT
BRANCH   2   3
HETATM    3  C   UNL     1     -11.197  12.720  65.636  1.00  0.00    -0.301 C  
BRANCH   3   4
HETATM    4  N   UNL     1      -9.788  12.658  66.204  1.00  0.00    -0.258 N  
BRANCH   4   5
HETATM    5  C   UNL     1      -9.591  13.673  67.305  1.00  0.00    -0.238 C  
BRANCH   5   6
HETATM    6  C   UNL     1      -8.991  15.014  66.871  1.00  0.00    -0.276 C  
HETATM    7  C   UNL     1      -7.588  15.271  67.395  1.00  0.00    -0.229 C  
ENDBRANCH   5   6
ENDBRANCH   4   5
BRANCH   4   8
HETATM    8  S   UNL     1      -9.410  11.013  66.687  1.00  0.00    -0.181 S  
HETATM    9  O   UNL     1     -10.081  10.066  65.827  1.00  0.00    -0.273 OA 
HETATM   10  O   UNL     1      -7.979  10.936  66.897  1.00  0.00    -0.126 OA 
BRANCH   8  11
HETATM   11  C   UNL     1     -10.212  10.814  68.273  1.00  0.00    -0.167 A  
HETATM   12  C   UNL     1     -11.568  11.152  68.394  1.00  0.00    -0.376 A  
HETATM   13  C   UNL     1     -12.277  10.796  69.547  1.00  0.00    -0.292 A  
HETATM   14  C   UNL     1     -11.629  10.103  70.579  1.00  0.00    -0.411 A  
HETATM   15  C   UNL     1     -12.345   9.643  71.799  1.00  0.00    -0.392 C  
HETATM   16  C   UNL     1     -10.278   9.752  70.441  1.00  0.00    -0.343 A  
HETATM   17  O   UNL     1     -13.306  10.490  72.216  1.00  0.00    -0.384 OA 
HETATM   18  C   UNL     1      -9.567  10.107  69.290  1.00  0.00    -0.239 A  
HETATM   19  O   UNL     1     -12.056   8.619  72.393  1.00  0.00    -0.375 OA 
ENDBRANCH   8  11
ENDBRANCH   4   8
ENDBRANCH   3   4
ENDBRANCH   2   3
TORSDOF 6
ENDMDL
MODEL      143
REMARK 921   NORMALIZED FREE ENERGY PREDICTED BY IDOCK:   -3.64 KCAL/MOL
REMARK 922        TOTAL FREE ENERGY PREDICTED BY IDOCK:   -5.71 KCAL/MOL
REMARK 923 INTER-LIGAND FREE ENERGY PREDICTED BY IDOCK:   -5.05 KCAL/MOL
REMARK 924 INTRA-LIGAND FREE ENERGY PREDICTED BY IDOCK:   -0.66 KCAL/MOL
REMARK 927      BINDING AFFINITY PREDICTED BY RF-SCORE:    0.00 PKD
ROOT
HETATM    1  C   UNL     1      -6.318  14.553  67.919  1.00  0.00    -0.173 C  
HETATM    2  C   UNL     1      -7.668  14.375  67.250  1.00  0.00    -0.164 C  
ENDROOT
BRANCH   2   3
HETATM    3  C   UNL     1      -8.782  13.900  68.188  1.00  0.00    -0.182 C  
BRANCH   3   4
HETATM    4  N   UNL     1      -9.722  12.837  67.641  1.00  0.00    -0.200 N  
BRANCH   4   5
HETATM    5  C   UNL     1      -9.989  13.039  66.169  1.00  0.00    -0.278 C  
BRANCH   5   6
HETATM    6  C   UNL     1     -11.458  13.237  65.782  1.00  0.00    -0.349 C  
HETATM    7  C   UNL     1     -12.252  14.091  66.756  1.00  0.00    -0.439 C  
ENDBRANCH   5   6
ENDBRANCH   4   5
BRANCH   4   8
HETATM    8  S   UNL     1      -9.109  11.239  68.033  1.00  0.00    -0.162 S  
HETATM    9  O   UNL     1      -9.014  10.427  66.843  1.00  0.00    -0.139 OA 
HETATM   10  O   UNL     1      -7.964  11.411  68.904  1.00  0.00    -0.142 OA 
BRANCH   8  11
HETATM   11  C   UNL     1     -10.417  10.477  68.986  1.00  0.00    -0.217 A  
HETATM   12  C   UNL     1     -10.265   9.147  69.404  1.00  0.00    -0.212 A  
HETATM   13  C   UNL     1     -11.155   8.600  70.334  1.00  0.00    -0.250 A  
HETATM   14  C   UNL     1     -12.198   9.383  70.846  1.00  0.00    -0.297 A  
HETATM   15  C   UNL     1     -13.136   8.878  71.884  1.00  0.00    -0.386 C  
HETATM   16  C   UNL     1     -12.331  10.719  70.437  1.00  0.00    -0.438 A  
HETATM   17  O   UNL     1     -13.435   7.571  71.755  1.00  0.00    -0.349 OA 
HETATM   18  C   UNL     1     -11.444  11.267  69.507  1.00  0.00    -0.376 A  
HETATM   19  O   UNL     1     -13.628   9.592  72.741  1.00  0.00    -0.297 OA 
ENDBRANCH   8  11
ENDBRANCH   4   8
ENDBRANCH   3   4
ENDBRANCH   2   3
TORSDOF 6
ENDMDL
MODEL      144
REMARK 921   NORMALIZED FREE ENERGY PREDICTED BY IDOCK:   -3.64 KCAL/MOL
REMARK 922        TOTAL FREE ENERGY PREDICTED BY IDOCK:   -5.70 KCAL/MOL
REMARK 923 INTER-LIGAND FREE ENERGY PREDICTED BY IDOCK:   -5.53 KCAL/MOL
REMARK 924 INTRA-LIGAND FREE ENERGY PREDICTED BY IDOCK:   -0.18 KCAL/MOL
REMARK 927      BINDING AFFINITY PREDICTED BY RF-SCORE:    0.00 PKD
ROOT
HETATM    1  C   UNL     1      -6.400  20.113  70.177  1.00  0.00    -0.359 C  
HETATM    2  C   UNL     1      -6.843  18.780  69.604  1.00  0.00    -0.055 C  
ENDROOT
BRANCH   2   3
HETATM    3  C   UNL     1      -8.099  18.854  68.730  1.00  0.00    -0.319 C  
BRANCH   3   4
HETATM    4  N   UNL     1      -8.393  17.641  67.861  1.00  0.00    -0.230 N  
BRANCH   4   5
HETATM    5  C   UNL     1      -7.126  17.044  67.298  1.00  0.00    -0.163 C  
BRANCH   5   6
HETATM    6  C   UNL     1      -6.795  17.429  65.852  1.00  0.00    -0.119 C  
HETATM    7  C   UNL     1      -6.669  18.926  65.617  1.00  0.00    -0.310 C  
ENDBRANCH   5   6
ENDBRANCH   4   5
BRANCH   4   8
HETATM    8  S   UNL     1      -9.378  16.493  68.752  1.00  0.00    -0.251 S  
HETATM    9  O   UNL     1      -8.546  15.494  69.381  1.00  0.00    -0.249 OA 
HETATM   10  O   UNL     1     -10.339  17.250  69.527  1.00  0.00    -0.240 OA 
BRANCH   8  11
HETATM   11  C   UNL     1     -10.272  15.594  67.491  1.00  0.00    -0.263 A  
HETATM   12  C   UNL     1      -9.739  15.532  66.195  1.00  0.00    -0.348 A  
HETATM   13  C   UNL     1     -10.288  14.655  65.254  1.00  0.00    -0.425 A  
HETATM   14  C   UNL     1     -11.372  13.840  65.608  1.00  0.00    -0.311 A  
HETATM   15  C   UNL     1     -11.957  12.844  64.671  1.00  0.00    -0.392 C  
HETATM   16  C   UNL     1     -11.887  13.894  66.912  1.00  0.00    -0.453 A  
HETATM   17  O   UNL     1     -11.960  13.245  63.385  1.00  0.00    -0.519 OA 
HETATM   18  C   UNL     1     -11.340  14.770  67.854  1.00  0.00    -0.331 A  
HETATM   19  O   UNL     1     -12.433  11.784  65.039  1.00  0.00    -0.188 OA 
ENDBRANCH   8  11
ENDBRANCH   4   8
ENDBRANCH   3   4
ENDBRANCH   2   3
TORSDOF 6
ENDMDL
MODEL      145
REMARK 921   NORMALIZED FREE ENERGY PREDICTED BY IDOCK:   -3.64 KCAL/MOL
REMARK 922        TOTAL FREE ENERGY PREDICTED BY IDOCK:   -5.70 KCAL/MOL
REMARK 923 INTER-LIGAND FREE ENERGY PREDICTED BY IDOCK:   -5.15 KCAL/MOL
REMARK 924 INTRA-LIGAND FREE ENERGY PREDICTED BY IDOCK:   -0.55 KCAL/MOL
REMARK 927      BINDING AFFINITY PREDICTED BY RF-SCORE:    0.00 PKD
ROOT
HETATM    1  C   UNL     1     -12.762  12.559  64.109  1.00  0.00    -0.417 C  
HETATM    2  C   UNL     1     -12.161  13.000  65.430  1.00  0.00    -0.490 C  
ENDROOT
BRANCH   2   3
HETATM    3  C   UNL     1     -11.628  11.854  66.296  1.00  0.00    -0.246 C  
BRANCH   3   4
HETATM    4  N   UNL     1     -10.935  12.247  67.590  1.00  0.00    -0.233 N  
BRANCH   4   5
HETATM    5  C   UNL     1     -11.325  11.334  68.727  1.00  0.00    -0.270 C  
BRANCH   5   6
HETATM    6  C   UNL     1     -11.915  12.024  69.961  1.00  0.00    -0.400 C  
HETATM    7  C   UNL     1     -12.492  11.070  70.995  1.00  0.00    -0.512 C  
ENDBRANCH   5   6
ENDBRANCH   4   5
BRANCH   4   8
HETATM    8  S   UNL     1      -9.201  12.349  67.332  1.00  0.00    -0.192 S  
HETATM    9  O   UNL     1      -8.488  11.777  68.450  1.00  0.00    -0.155 OA 
HETATM   10  O   UNL     1      -8.933  11.907  65.979  1.00  0.00    -0.171 OA 
BRANCH   8  11
HETATM   11  C   UNL     1      -8.835  14.097  67.423  1.00  0.00    -0.206 A  
HETATM   12  C   UNL     1      -9.897  15.011  67.475  1.00  0.00    -0.217 A  
HETATM   13  C   UNL     1      -9.651  16.355  67.775  1.00  0.00    -0.231 A  
HETATM   14  C   UNL     1      -8.340  16.786  68.023  1.00  0.00    -0.200 A  
HETATM   15  C   UNL     1      -8.023  18.187  68.409  1.00  0.00    -0.302 C  
HETATM   16  C   UNL     1      -7.285  15.862  67.988  1.00  0.00    -0.142 A  
HETATM   17  O   UNL     1      -8.806  19.105  67.810  1.00  0.00    -0.290 OA 
HETATM   18  C   UNL     1      -7.529  14.518  67.687  1.00  0.00    -0.195 A  
HETATM   19  O   UNL     1      -7.109  18.479  69.159  1.00  0.00    -0.278 OA 
ENDBRANCH   8  11
ENDBRANCH   4   8
ENDBRANCH   3   4
ENDBRANCH   2   3
TORSDOF 6
ENDMDL
MODEL      146
REMARK 921   NORMALIZED FREE ENERGY PREDICTED BY IDOCK:   -3.62 KCAL/MOL
REMARK 922        TOTAL FREE ENERGY PREDICTED BY IDOCK:   -5.68 KCAL/MOL
REMARK 923 INTER-LIGAND FREE ENERGY PREDICTED BY IDOCK:   -5.37 KCAL/MOL
REMARK 924 INTRA-LIGAND FREE ENERGY PREDICTED BY IDOCK:   -0.30 KCAL/MOL
REMARK 927      BINDING AFFINITY PREDICTED BY RF-SCORE:    0.00 PKD
ROOT
HETATM    1  C   UNL     1     -10.639  10.144  66.948  1.00  0.00    -0.267 C  
HETATM    2  C   UNL     1     -11.382  11.372  67.438  1.00  0.00    -0.359 C  
ENDROOT
BRANCH   2   3
HETATM    3  C   UNL     1     -10.520  12.356  68.236  1.00  0.00    -0.225 C  
BRANCH   3   4
HETATM    4  N   UNL     1     -10.846  13.832  68.069  1.00  0.00    -0.245 N  
BRANCH   4   5
HETATM    5  C   UNL     1     -10.065  14.684  69.041  1.00  0.00    -0.209 C  
BRANCH   5   6
HETATM    6  C   UNL     1     -10.863  15.245  70.222  1.00  0.00    -0.303 C  
HETATM    7  C   UNL     1     -12.365  15.292  69.996  1.00  0.00    -0.366 C  
ENDBRANCH   5   6
ENDBRANCH   4   5
BRANCH   4   8
HETATM    8  S   UNL     1     -10.635  14.304  66.391  1.00  0.00    -0.291 S  
HETATM    9  O   UNL     1      -9.574  13.538  65.779  1.00  0.00    -0.182 OA 
HETATM   10  O   UNL     1     -11.949  14.363  65.784  1.00  0.00    -0.372 OA 
BRANCH   8  11
HETATM   11  C   UNL     1      -9.988  15.969  66.470  1.00  0.00    -0.279 A  
HETATM   12  C   UNL     1     -10.791  16.984  67.010  1.00  0.00    -0.048 A  
HETATM   13  C   UNL     1     -10.238  18.237  67.295  1.00  0.00    -0.387 A  
HETATM   14  C   UNL     1      -8.882  18.476  67.040  1.00  0.00    -0.278 A  
HETATM   15  C   UNL     1      -8.223  19.765  67.380  1.00  0.00    -0.307 C  
HETATM   16  C   UNL     1      -8.080  17.449  66.517  1.00  0.00    -0.312 A  
HETATM   17  O   UNL     1      -9.017  20.841  67.215  1.00  0.00    -0.314 OA 
HETATM   18  C   UNL     1      -8.631  16.197  66.231  1.00  0.00    -0.373 A  
HETATM   19  O   UNL     1      -7.058  19.846  67.730  1.00  0.00    -0.257 OA 
ENDBRANCH   8  11
ENDBRANCH   4   8
ENDBRANCH   3   4
ENDBRANCH   2   3
TORSDOF 6
ENDMDL
MODEL      147
REMARK 921   NORMALIZED FREE ENERGY PREDICTED BY IDOCK:   -3.61 KCAL/MOL
REMARK 922        TOTAL FREE ENERGY PREDICTED BY IDOCK:   -5.66 KCAL/MOL
REMARK 923 INTER-LIGAND FREE ENERGY PREDICTED BY IDOCK:   -5.11 KCAL/MOL
REMARK 924 INTRA-LIGAND FREE ENERGY PREDICTED BY IDOCK:   -0.55 KCAL/MOL
REMARK 927      BINDING AFFINITY PREDICTED BY RF-SCORE:    0.00 PKD
ROOT
HETATM    1  C   UNL     1      -8.167   7.745  73.894  1.00  0.00    -0.263 C  
HETATM    2  C   UNL     1      -8.816   8.278  72.630  1.00  0.00    -0.304 C  
ENDROOT
BRANCH   2   3
HETATM    3  C   UNL     1      -9.422   7.200  71.727  1.00  0.00    -0.151 C  
BRANCH   3   4
HETATM    4  N   UNL     1      -9.367   7.460  70.230  1.00  0.00    -0.162 N  
BRANCH   4   5
HETATM    5  C   UNL     1      -8.648   6.350  69.501  1.00  0.00    -0.133 C  
BRANCH   5   6
HETATM    6  C   UNL     1      -8.505   5.033  70.272  1.00  0.00    -0.104 C  
HETATM    7  C   UNL     1      -8.903   3.798  69.480  1.00  0.00    -0.149 C  
ENDBRANCH   5   6
ENDBRANCH   4   5
BRANCH   4   8
HETATM    8  S   UNL     1     -10.983   7.772  69.619  1.00  0.00    -0.049 S  
HETATM    9  O   UNL     1     -10.940   8.083  68.209  1.00  0.00     0.021 OA 
HETATM   10  O   UNL     1     -11.851   6.726  70.119  1.00  0.00    -0.349 OA 
BRANCH   8  11
HETATM   11  C   UNL     1     -11.468   9.309  70.395  1.00  0.00    -0.213 A  
HETATM   12  C   UNL     1     -11.274  10.510  69.699  1.00  0.00    -0.342 A  
HETATM   13  C   UNL     1     -11.846  11.695  70.176  1.00  0.00    -0.428 A  
HETATM   14  C   UNL     1     -12.612  11.678  71.349  1.00  0.00    -0.391 A  
HETATM   15  C   UNL     1     -13.297  12.891  71.870  1.00  0.00    -0.435 C  
HETATM   16  C   UNL     1     -12.817  10.467  72.029  1.00  0.00    -0.419 A  
HETATM   17  O   UNL     1     -12.605  14.030  71.675  1.00  0.00    -0.331 OA 
HETATM   18  C   UNL     1     -12.245   9.283  71.555  1.00  0.00    -0.439 A  
HETATM   19  O   UNL     1     -14.361  12.851  72.462  1.00  0.00    -0.469 OA 
ENDBRANCH   8  11
ENDBRANCH   4   8
ENDBRANCH   3   4
ENDBRANCH   2   3
TORSDOF 6
ENDMDL
MODEL      148
REMARK 921   NORMALIZED FREE ENERGY PREDICTED BY IDOCK:   -3.60 KCAL/MOL
REMARK 922        TOTAL FREE ENERGY PREDICTED BY IDOCK:   -5.65 KCAL/MOL
REMARK 923 INTER-LIGAND FREE ENERGY PREDICTED BY IDOCK:   -5.10 KCAL/MOL
REMARK 924 INTRA-LIGAND FREE ENERGY PREDICTED BY IDOCK:   -0.55 KCAL/MOL
REMARK 927      BINDING AFFINITY PREDICTED BY RF-SCORE:    0.00 PKD
ROOT
HETATM    1  C   UNL     1     -12.119  15.175  72.495  1.00  0.00    -0.483 C  
HETATM    2  C   UNL     1     -11.251  15.362  71.265  1.00  0.00    -0.407 C  
ENDROOT
BRANCH   2   3
HETATM    3  C   UNL     1     -11.562  14.393  70.119  1.00  0.00    -0.265 C  
BRANCH   3   4
HETATM    4  N   UNL     1     -10.490  14.241  69.051  1.00  0.00    -0.231 N  
BRANCH   4   5
HETATM    5  C   UNL     1     -10.452  12.834  68.503  1.00  0.00    -0.238 C  
BRANCH   5   6
HETATM    6  C   UNL     1     -11.341  11.816  69.224  1.00  0.00    -0.348 C  
HETATM    7  C   UNL     1     -11.242  10.401  68.678  1.00  0.00    -0.305 C  
ENDBRANCH   5   6
ENDBRANCH   4   5
BRANCH   4   8
HETATM    8  S   UNL     1     -10.698  15.472  67.817  1.00  0.00    -0.303 S  
HETATM    9  O   UNL     1     -10.287  14.970  66.527  1.00  0.00    -0.271 OA 
HETATM   10  O   UNL     1     -12.011  16.057  67.999  1.00  0.00    -0.017 OA 
BRANCH   8  11
HETATM   11  C   UNL     1      -9.479  16.718  68.215  1.00  0.00    -0.240 A  
HETATM   12  C   UNL     1      -8.335  16.342  68.934  1.00  0.00    -0.234 A  
HETATM   13  C   UNL     1      -7.264  17.234  69.061  1.00  0.00    -0.227 A  
HETATM   14  C   UNL     1      -7.338  18.502  68.471  1.00  0.00    -0.314 A  
HETATM   15  C   UNL     1      -6.208  19.468  68.517  1.00  0.00    -0.244 C  
HETATM   16  C   UNL     1      -8.478  18.864  67.737  1.00  0.00    -0.310 A  
HETATM   17  O   UNL     1      -5.510  19.432  69.670  1.00  0.00    -0.194 OA 
HETATM   18  C   UNL     1      -9.550  17.974  67.609  1.00  0.00    -0.271 A  
HETATM   19  O   UNL     1      -5.966  20.254  67.617  1.00  0.00    -0.200 OA 
ENDBRANCH   8  11
ENDBRANCH   4   8
ENDBRANCH   3   4
ENDBRANCH   2   3
TORSDOF 6
ENDMDL
MODEL      149
REMARK 921   NORMALIZED FREE ENERGY PREDICTED BY IDOCK:   -3.60 KCAL/MOL
REMARK 922        TOTAL FREE ENERGY PREDICTED BY IDOCK:   -5.64 KCAL/MOL
REMARK 923 INTER-LIGAND FREE ENERGY PREDICTED BY IDOCK:   -5.43 KCAL/MOL
REMARK 924 INTRA-LIGAND FREE ENERGY PREDICTED BY IDOCK:   -0.21 KCAL/MOL
REMARK 927      BINDING AFFINITY PREDICTED BY RF-SCORE:    0.00 PKD
ROOT
HETATM    1  C   UNL     1     -10.530   7.518  67.126  1.00  0.00    -0.407 C  
HETATM    2  C   UNL     1      -9.836   8.864  67.216  1.00  0.00    -0.256 C  
ENDROOT
BRANCH   2   3
HETATM    3  C   UNL     1      -9.469   9.292  68.641  1.00  0.00    -0.146 C  
BRANCH   3   4
HETATM    4  N   UNL     1      -9.868  10.702  69.049  1.00  0.00    -0.201 N  
BRANCH   4   5
HETATM    5  C   UNL     1      -9.278  11.734  68.118  1.00  0.00    -0.186 C  
BRANCH   5   6
HETATM    6  C   UNL     1      -7.758  11.673  67.935  1.00  0.00    -0.126 C  
HETATM    7  C   UNL     1      -7.041  12.984  68.215  1.00  0.00    -0.103 C  
ENDBRANCH   5   6
ENDBRANCH   4   5
BRANCH   4   8
HETATM    8  S   UNL     1     -11.613  10.808  69.204  1.00  0.00    -0.299 S  
HETATM    9  O   UNL     1     -12.206  11.241  67.960  1.00  0.00    -0.621 OA 
HETATM   10  O   UNL     1     -12.069   9.599  69.859  1.00  0.00     0.070 OA 
BRANCH   8  11
HETATM   11  C   UNL     1     -11.883  12.177  70.322  1.00  0.00    -0.254 A  
HETATM   12  C   UNL     1     -11.228  13.392  70.076  1.00  0.00     0.119 A  
HETATM   13  C   UNL     1     -11.591  14.539  70.791  1.00  0.00    -0.260 A  
HETATM   14  C   UNL     1     -12.608  14.471  71.751  1.00  0.00    -0.417 A  
HETATM   15  C   UNL     1     -13.081  15.668  72.496  1.00  0.00    -0.472 C  
HETATM   16  C   UNL     1     -13.272  13.255  71.977  1.00  0.00    -0.541 A  
HETATM   17  O   UNL     1     -12.102  16.549  72.785  1.00  0.00    -0.508 OA 
HETATM   18  C   UNL     1     -12.911  12.108  71.265  1.00  0.00    -0.349 A  
HETATM   19  O   UNL     1     -14.236  15.816  72.855  1.00  0.00    -0.478 OA 
ENDBRANCH   8  11
ENDBRANCH   4   8
ENDBRANCH   3   4
ENDBRANCH   2   3
TORSDOF 6
ENDMDL
MODEL      150
REMARK 921   NORMALIZED FREE ENERGY PREDICTED BY IDOCK:   -3.58 KCAL/MOL
REMARK 922        TOTAL FREE ENERGY PREDICTED BY IDOCK:   -5.63 KCAL/MOL
REMARK 923 INTER-LIGAND FREE ENERGY PREDICTED BY IDOCK:   -5.24 KCAL/MOL
REMARK 924 INTRA-LIGAND FREE ENERGY PREDICTED BY IDOCK:   -0.38 KCAL/MOL
REMARK 927      BINDING AFFINITY PREDICTED BY RF-SCORE:    0.00 PKD
ROOT
HETATM    1  C   UNL     1      -8.582  16.700  66.246  1.00  0.00    -0.359 C  
HETATM    2  C   UNL     1      -9.886  16.147  65.701  1.00  0.00    -0.290 C  
ENDROOT
BRANCH   2   3
HETATM    3  C   UNL     1     -10.114  14.661  65.996  1.00  0.00    -0.311 C  
BRANCH   3   4
HETATM    4  N   UNL     1     -11.401  14.304  66.725  1.00  0.00    -0.335 N  
BRANCH   4   5
HETATM    5  C   UNL     1     -12.031  13.057  66.155  1.00  0.00    -0.427 C  
BRANCH   5   6
HETATM    6  C   UNL     1     -11.471  12.584  64.810  1.00  0.00    -0.369 C  
HETATM    7  C   UNL     1     -12.462  12.652  63.660  1.00  0.00    -0.523 C  
ENDBRANCH   5   6
ENDBRANCH   4   5
BRANCH   4   8
HETATM    8  S   UNL     1     -11.104  14.218  68.453  1.00  0.00    -0.269 S  
HETATM    9  O   UNL     1      -9.895  14.930  68.795  1.00  0.00    -0.213 OA 
HETATM   10  O   UNL     1     -12.352  14.512  69.127  1.00  0.00    -0.244 OA 
BRANCH   8  11
HETATM   11  C   UNL     1     -10.705  12.501  68.755  1.00  0.00    -0.202 A  
HETATM   12  C   UNL     1     -11.730  11.625  69.139  1.00  0.00    -0.390 A  
HETATM   13  C   UNL     1     -11.499  10.245  69.160  1.00  0.00    -0.210 A  
HETATM   14  C   UNL     1     -10.242   9.742  68.797  1.00  0.00    -0.210 A  
HETATM   15  C   UNL     1      -9.956   8.283  68.738  1.00  0.00    -0.183 C  
HETATM   16  C   UNL     1      -9.228  10.624  68.396  1.00  0.00    -0.159 A  
HETATM   17  O   UNL     1     -10.588   7.568  69.689  1.00  0.00    -0.233 OA 
HETATM   18  C   UNL     1      -9.456  12.004  68.376  1.00  0.00    -0.181 A  
HETATM   19  O   UNL     1      -9.184   7.788  67.936  1.00  0.00    -0.137 OA 
ENDBRANCH   8  11
ENDBRANCH   4   8
ENDBRANCH   3   4
ENDBRANCH   2   3
TORSDOF 6
ENDMDL
MODEL      151
REMARK 921   NORMALIZED FREE ENERGY PREDICTED BY IDOCK:   -3.58 KCAL/MOL
REMARK 922        TOTAL FREE ENERGY PREDICTED BY IDOCK:   -5.62 KCAL/MOL
REMARK 923 INTER-LIGAND FREE ENERGY PREDICTED BY IDOCK:   -5.26 KCAL/MOL
REMARK 924 INTRA-LIGAND FREE ENERGY PREDICTED BY IDOCK:   -0.36 KCAL/MOL
REMARK 927      BINDING AFFINITY PREDICTED BY RF-SCORE:    0.00 PKD
ROOT
HETATM    1  C   UNL     1      -6.812  14.029  68.252  1.00  0.00    -0.108 C  
HETATM    2  C   UNL     1      -7.851  13.332  67.394  1.00  0.00    -0.159 C  
ENDROOT
BRANCH   2   3
HETATM    3  C   UNL     1      -8.623  12.221  68.114  1.00  0.00    -0.181 C  
BRANCH   3   4
HETATM    4  N   UNL     1      -9.748  11.561  67.332  1.00  0.00    -0.178 N  
BRANCH   4   5
HETATM    5  C   UNL     1      -9.218  10.783  66.151  1.00  0.00    -0.180 C  
BRANCH   5   6
HETATM    6  C   UNL     1      -9.663  11.282  64.773  1.00  0.00    -0.298 C  
HETATM    7  C   UNL     1     -10.982  12.038  64.777  1.00  0.00    -0.361 C  
ENDBRANCH   5   6
ENDBRANCH   4   5
BRANCH   4   8
HETATM    8  S   UNL     1     -10.747  10.606  68.415  1.00  0.00    -0.243 S  
HETATM    9  O   UNL     1     -11.778   9.917  67.675  1.00  0.00     0.229 OA 
HETATM   10  O   UNL     1      -9.861   9.879  69.301  1.00  0.00    -0.184 OA 
BRANCH   8  11
HETATM   11  C   UNL     1     -11.635  11.814  69.390  1.00  0.00    -0.322 A  
HETATM   12  C   UNL     1     -12.261  11.401  70.574  1.00  0.00    -0.478 A  
HETATM   13  C   UNL     1     -12.763  12.352  71.469  1.00  0.00    -0.333 A  
HETATM   14  C   UNL     1     -12.638  13.718  71.178  1.00  0.00    -0.452 A  
HETATM   15  C   UNL     1     -13.094  14.776  72.119  1.00  0.00    -0.341 C  
HETATM   16  C   UNL     1     -11.992  14.123  70.001  1.00  0.00    -0.404 A  
HETATM   17  O   UNL     1     -14.211  14.452  72.799  1.00  0.00    -0.491 OA 
HETATM   18  C   UNL     1     -11.491  13.174  69.105  1.00  0.00    -0.358 A  
HETATM   19  O   UNL     1     -12.537  15.854  72.228  1.00  0.00    -0.418 OA 
ENDBRANCH   8  11
ENDBRANCH   4   8
ENDBRANCH   3   4
ENDBRANCH   2   3
TORSDOF 6
ENDMDL
MODEL      152
REMARK 921   NORMALIZED FREE ENERGY PREDICTED BY IDOCK:   -3.58 KCAL/MOL
REMARK 922        TOTAL FREE ENERGY PREDICTED BY IDOCK:   -5.61 KCAL/MOL
REMARK 923 INTER-LIGAND FREE ENERGY PREDICTED BY IDOCK:   -5.15 KCAL/MOL
REMARK 924 INTRA-LIGAND FREE ENERGY PREDICTED BY IDOCK:   -0.46 KCAL/MOL
REMARK 927      BINDING AFFINITY PREDICTED BY RF-SCORE:    0.00 PKD
ROOT
HETATM    1  C   UNL     1      -5.745  18.213  69.137  1.00  0.00    -0.211 C  
HETATM    2  C   UNL     1      -6.367  17.056  68.379  1.00  0.00    -0.150 C  
ENDROOT
BRANCH   2   3
HETATM    3  C   UNL     1      -7.745  16.630  68.894  1.00  0.00    -0.239 C  
BRANCH   3   4
HETATM    4  N   UNL     1      -8.936  16.987  68.020  1.00  0.00    -0.225 N  
BRANCH   4   5
HETATM    5  C   UNL     1      -8.622  18.144  67.102  1.00  0.00    -0.247 C  
BRANCH   5   6
HETATM    6  C   UNL     1      -9.493  19.392  67.284  1.00  0.00    -0.398 C  
HETATM    7  C   UNL     1     -10.508  19.613  66.175  1.00  0.00    -0.624 C  
ENDBRANCH   5   6
ENDBRANCH   4   5
BRANCH   4   8
HETATM    8  S   UNL     1      -9.510  15.557  67.178  1.00  0.00    -0.219 S  
HETATM    9  O   UNL     1     -10.561  15.903  66.250  1.00  0.00    -0.305 OA 
HETATM   10  O   UNL     1      -8.348  14.813  66.737  1.00  0.00    -0.200 OA 
BRANCH   8  11
HETATM   11  C   UNL     1     -10.335  14.594  68.440  1.00  0.00    -0.237 A  
HETATM   12  C   UNL     1     -11.234  15.235  69.303  1.00  0.00    -0.291 A  
HETATM   13  C   UNL     1     -12.060  14.479  70.141  1.00  0.00    -0.394 A  
HETATM   14  C   UNL     1     -11.985  13.079  70.117  1.00  0.00    -0.374 A  
HETATM   15  C   UNL     1     -12.880  12.221  70.938  1.00  0.00    -0.092 C  
HETATM   16  C   UNL     1     -11.096  12.445  69.237  1.00  0.00    -0.209 A  
HETATM   17  O   UNL     1     -13.173  12.741  72.146  1.00  0.00    -0.475 OA 
HETATM   18  C   UNL     1     -10.269  13.199  68.399  1.00  0.00    -0.247 A  
HETATM   19  O   UNL     1     -13.272  11.127  70.572  1.00  0.00    -0.014 OA 
ENDBRANCH   8  11
ENDBRANCH   4   8
ENDBRANCH   3   4
ENDBRANCH   2   3
TORSDOF 6
ENDMDL
MODEL      153
REMARK 921   NORMALIZED FREE ENERGY PREDICTED BY IDOCK:   -3.57 KCAL/MOL
REMARK 922        TOTAL FREE ENERGY PREDICTED BY IDOCK:   -5.61 KCAL/MOL
REMARK 923 INTER-LIGAND FREE ENERGY PREDICTED BY IDOCK:   -5.31 KCAL/MOL
REMARK 924 INTRA-LIGAND FREE ENERGY PREDICTED BY IDOCK:   -0.30 KCAL/MOL
REMARK 927      BINDING AFFINITY PREDICTED BY RF-SCORE:    0.00 PKD
ROOT
HETATM    1  C   UNL     1     -12.186  12.167  63.711  1.00  0.00    -0.630 C  
HETATM    2  C   UNL     1     -12.342  12.743  65.106  1.00  0.00    -0.555 C  
ENDROOT
BRANCH   2   3
HETATM    3  C   UNL     1     -11.854  14.188  65.251  1.00  0.00    -0.367 C  
BRANCH   3   4
HETATM    4  N   UNL     1     -11.667  14.702  66.670  1.00  0.00    -0.362 N  
BRANCH   4   5
HETATM    5  C   UNL     1     -11.332  13.581  67.624  1.00  0.00    -0.296 C  
BRANCH   5   6
HETATM    6  C   UNL     1     -12.138  13.556  68.927  1.00  0.00    -0.315 C  
HETATM    7  C   UNL     1     -11.609  14.483  70.008  1.00  0.00    -0.339 C  
ENDBRANCH   5   6
ENDBRANCH   4   5
BRANCH   4   8
HETATM    8  S   UNL     1     -10.496  16.010  66.681  1.00  0.00    -0.289 S  
HETATM    9  O   UNL     1     -10.049  16.302  65.340  1.00  0.00    -0.519 OA 
HETATM   10  O   UNL     1     -11.021  17.060  67.531  1.00  0.00    -0.258 OA 
BRANCH   8  11
HETATM   11  C   UNL     1      -9.057  15.319  67.486  1.00  0.00    -0.185 A  
HETATM   12  C   UNL     1      -8.644  15.854  68.714  1.00  0.00    -0.212 A  
HETATM   13  C   UNL     1      -7.671  15.194  69.474  1.00  0.00    -0.197 A  
HETATM   14  C   UNL     1      -7.111  13.999  69.004  1.00  0.00    -0.106 A  
HETATM   15  C   UNL     1      -6.121  13.219  69.795  1.00  0.00    -0.128 C  
HETATM   16  C   UNL     1      -7.544  13.459  67.783  1.00  0.00    -0.157 A  
HETATM   17  O   UNL     1      -5.275  13.985  70.511  1.00  0.00    -0.096 OA 
HETATM   18  C   UNL     1      -8.515  14.118  67.022  1.00  0.00    -0.178 A  
HETATM   19  O   UNL     1      -6.051  12.003  69.760  1.00  0.00    -0.118 OA 
ENDBRANCH   8  11
ENDBRANCH   4   8
ENDBRANCH   3   4
ENDBRANCH   2   3
TORSDOF 6
ENDMDL
MODEL      154
REMARK 921   NORMALIZED FREE ENERGY PREDICTED BY IDOCK:   -3.57 KCAL/MOL
REMARK 922        TOTAL FREE ENERGY PREDICTED BY IDOCK:   -5.61 KCAL/MOL
REMARK 923 INTER-LIGAND FREE ENERGY PREDICTED BY IDOCK:   -4.90 KCAL/MOL
REMARK 924 INTRA-LIGAND FREE ENERGY PREDICTED BY IDOCK:   -0.71 KCAL/MOL
REMARK 927      BINDING AFFINITY PREDICTED BY RF-SCORE:    0.00 PKD
ROOT
HETATM    1  C   UNL     1     -11.750  12.793  69.417  1.00  0.00    -0.380 C  
HETATM    2  C   UNL     1     -11.642  12.304  67.984  1.00  0.00    -0.408 C  
ENDROOT
BRANCH   2   3
HETATM    3  C   UNL     1     -10.211  12.246  67.442  1.00  0.00    -0.203 C  
BRANCH   3   4
HETATM    4  N   UNL     1      -9.835  11.002  66.653  1.00  0.00    -0.195 N  
BRANCH   4   5
HETATM    5  C   UNL     1      -9.320  11.355  65.278  1.00  0.00    -0.171 C  
BRANCH   5   6
HETATM    6  C   UNL     1     -10.044  10.685  64.106  1.00  0.00    -0.402 C  
HETATM    7  C   UNL     1      -9.125   9.977  63.124  1.00  0.00    -0.296 C  
ENDBRANCH   5   6
ENDBRANCH   4   5
BRANCH   4   8
HETATM    8  S   UNL     1      -8.726  10.013  67.588  1.00  0.00    -0.121 S  
HETATM    9  O   UNL     1      -8.298   8.868  66.820  1.00  0.00    -0.110 OA 
HETATM   10  O   UNL     1      -7.756  10.901  68.197  1.00  0.00    -0.097 OA 
BRANCH   8  11
HETATM   11  C   UNL     1      -9.734   9.320  68.893  1.00  0.00    -0.161 A  
HETATM   12  C   UNL     1     -10.411   8.115  68.658  1.00  0.00    -0.224 A  
HETATM   13  C   UNL     1     -11.016   7.434  69.720  1.00  0.00    -0.215 A  
HETATM   14  C   UNL     1     -10.943   7.959  71.018  1.00  0.00    -0.262 A  
HETATM   15  C   UNL     1     -11.511   7.250  72.196  1.00  0.00    -0.273 C  
HETATM   16  C   UNL     1     -10.247   9.155  71.247  1.00  0.00    -0.400 A  
HETATM   17  O   UNL     1     -12.650   6.581  71.929  1.00  0.00    -0.341 OA 
HETATM   18  C   UNL     1      -9.643   9.838  70.187  1.00  0.00    -0.287 A  
HETATM   19  O   UNL     1     -11.018   7.308  73.309  1.00  0.00    -0.352 OA 
ENDBRANCH   8  11
ENDBRANCH   4   8
ENDBRANCH   3   4
ENDBRANCH   2   3
TORSDOF 6
ENDMDL
MODEL      155
REMARK 921   NORMALIZED FREE ENERGY PREDICTED BY IDOCK:   -3.56 KCAL/MOL
REMARK 922        TOTAL FREE ENERGY PREDICTED BY IDOCK:   -5.60 KCAL/MOL
REMARK 923 INTER-LIGAND FREE ENERGY PREDICTED BY IDOCK:   -5.09 KCAL/MOL
REMARK 924 INTRA-LIGAND FREE ENERGY PREDICTED BY IDOCK:   -0.51 KCAL/MOL
REMARK 927      BINDING AFFINITY PREDICTED BY RF-SCORE:    0.00 PKD
ROOT
HETATM    1  C   UNL     1      -8.818   9.001  64.987  1.00  0.00    -0.213 C  
HETATM    2  C   UNL     1      -9.678  10.103  65.578  1.00  0.00    -0.344 C  
ENDROOT
BRANCH   2   3
HETATM    3  C   UNL     1     -10.346   9.740  66.908  1.00  0.00    -0.234 C  
BRANCH   3   4
HETATM    4  N   UNL     1      -9.911  10.539  68.126  1.00  0.00    -0.150 N  
BRANCH   4   5
HETATM    5  C   UNL     1      -8.779  11.482  67.794  1.00  0.00    -0.142 C  
BRANCH   5   6
HETATM    6  C   UNL     1      -7.439  11.176  68.471  1.00  0.00    -0.112 C  
HETATM    7  C   UNL     1      -7.540  10.237  69.662  1.00  0.00    -0.167 C  
ENDBRANCH   5   6
ENDBRANCH   4   5
BRANCH   4   8
HETATM    8  S   UNL     1     -11.301  11.332  68.848  1.00  0.00    -0.306 S  
HETATM    9  O   UNL     1     -12.527  10.749  68.357  1.00  0.00    -0.179 OA 
HETATM   10  O   UNL     1     -11.051  11.443  70.271  1.00  0.00    -0.048 OA 
BRANCH   8  11
HETATM   11  C   UNL     1     -11.287  12.981  68.155  1.00  0.00    -0.294 A  
HETATM   12  C   UNL     1     -10.446  13.948  68.724  1.00  0.00    -0.229 A  
HETATM   13  C   UNL     1     -10.242  15.169  68.071  1.00  0.00    -0.230 A  
HETATM   14  C   UNL     1     -10.880  15.422  66.849  1.00  0.00    -0.313 A  
HETATM   15  C   UNL     1     -10.653  16.673  66.078  1.00  0.00    -0.233 C  
HETATM   16  C   UNL     1     -11.705  14.441  66.278  1.00  0.00    -0.394 A  
HETATM   17  O   UNL     1     -10.479  17.763  66.850  1.00  0.00    -0.341 OA 
HETATM   18  C   UNL     1     -11.911  13.221  66.929  1.00  0.00    -0.446 A  
HETATM   19  O   UNL     1     -10.671  16.717  64.860  1.00  0.00    -0.710 OA 
ENDBRANCH   8  11
ENDBRANCH   4   8
ENDBRANCH   3   4
ENDBRANCH   2   3
TORSDOF 6
ENDMDL
MODEL      156
REMARK 921   NORMALIZED FREE ENERGY PREDICTED BY IDOCK:   -3.54 KCAL/MOL
REMARK 922        TOTAL FREE ENERGY PREDICTED BY IDOCK:   -5.57 KCAL/MOL
REMARK 923 INTER-LIGAND FREE ENERGY PREDICTED BY IDOCK:   -4.71 KCAL/MOL
REMARK 924 INTRA-LIGAND FREE ENERGY PREDICTED BY IDOCK:   -0.86 KCAL/MOL
REMARK 927      BINDING AFFINITY PREDICTED BY RF-SCORE:    0.00 PKD
ROOT
HETATM    1  C   UNL     1     -13.158  10.829  71.794  1.00  0.00    -0.573 C  
HETATM    2  C   UNL     1     -12.266  11.140  70.607  1.00  0.00    -0.492 C  
ENDROOT
BRANCH   2   3
HETATM    3  C   UNL     1     -11.521   9.927  70.041  1.00  0.00    -0.217 C  
BRANCH   3   4
HETATM    4  N   UNL     1     -10.179   9.599  70.675  1.00  0.00    -0.288 N  
BRANCH   4   5
HETATM    5  C   UNL     1     -10.154   8.192  71.222  1.00  0.00    -0.195 C  
BRANCH   5   6
HETATM    6  C   UNL     1     -11.443   7.384  71.034  1.00  0.00    -0.307 C  
HETATM    7  C   UNL     1     -11.249   6.054  70.325  1.00  0.00    -0.392 C  
ENDBRANCH   5   6
ENDBRANCH   4   5
BRANCH   4   8
HETATM    8  S   UNL     1      -8.883   9.937  69.540  1.00  0.00    -0.204 S  
HETATM    9  O   UNL     1      -9.183  11.119  68.767  1.00  0.00    -0.180 OA 
HETATM   10  O   UNL     1      -7.630   9.820  70.258  1.00  0.00    -0.153 OA 
BRANCH   8  11
HETATM   11  C   UNL     1      -8.965   8.601  68.354  1.00  0.00    -0.142 A  
HETATM   12  C   UNL     1      -8.013   7.574  68.422  1.00  0.00    -0.123 A  
HETATM   13  C   UNL     1      -8.184   6.410  67.665  1.00  0.00    -0.118 A  
HETATM   14  C   UNL     1      -9.307   6.274  66.838  1.00  0.00    -0.148 A  
HETATM   15  C   UNL     1      -9.576   5.036  66.058  1.00  0.00    -0.168 C  
HETATM   16  C   UNL     1     -10.265   7.298  66.789  1.00  0.00    -0.305 A  
HETATM   17  O   UNL     1      -8.463   4.439  65.588  1.00  0.00    -0.113 OA 
HETATM   18  C   UNL     1     -10.095   8.463  67.545  1.00  0.00    -0.279 A  
HETATM   19  O   UNL     1     -10.700   4.626  65.826  1.00  0.00    -0.310 OA 
ENDBRANCH   8  11
ENDBRANCH   4   8
ENDBRANCH   3   4
ENDBRANCH   2   3
TORSDOF 6
ENDMDL
MODEL      157
REMARK 921   NORMALIZED FREE ENERGY PREDICTED BY IDOCK:   -3.54 KCAL/MOL
REMARK 922        TOTAL FREE ENERGY PREDICTED BY IDOCK:   -5.56 KCAL/MOL
REMARK 923 INTER-LIGAND FREE ENERGY PREDICTED BY IDOCK:   -4.96 KCAL/MOL
REMARK 924 INTRA-LIGAND FREE ENERGY PREDICTED BY IDOCK:   -0.60 KCAL/MOL
REMARK 927      BINDING AFFINITY PREDICTED BY RF-SCORE:    0.00 PKD
ROOT
HETATM    1  C   UNL     1      -9.468   8.287  70.827  1.00  0.00    -0.185 C  
HETATM    2  C   UNL     1      -9.506   7.619  69.466  1.00  0.00    -0.152 C  
ENDROOT
BRANCH   2   3
HETATM    3  C   UNL     1      -9.856   8.561  68.309  1.00  0.00    -0.169 C  
BRANCH   3   4
HETATM    4  N   UNL     1      -9.471  10.021  68.484  1.00  0.00    -0.145 N  
BRANCH   4   5
HETATM    5  C   UNL     1      -7.994  10.236  68.254  1.00  0.00    -0.106 C  
BRANCH   5   6
HETATM    6  C   UNL     1      -7.334   9.286  67.250  1.00  0.00    -0.091 C  
HETATM    7  C   UNL     1      -7.122   9.884  65.869  1.00  0.00    -0.107 C  
ENDBRANCH   5   6
ENDBRANCH   4   5
BRANCH   4   8
HETATM    8  S   UNL     1     -10.495  11.033  67.479  1.00  0.00    -0.223 S  
HETATM    9  O   UNL     1      -9.707  12.037  66.803  1.00  0.00    -0.200 OA 
HETATM   10  O   UNL     1     -11.378  10.159  66.734  1.00  0.00     0.028 OA 
BRANCH   8  11
HETATM   11  C   UNL     1     -11.490  11.960  68.641  1.00  0.00    -0.294 A  
HETATM   12  C   UNL     1     -11.930  11.328  69.812  1.00  0.00    -0.431 A  
HETATM   13  C   UNL     1     -12.509  12.082  70.839  1.00  0.00    -0.384 A  
HETATM   14  C   UNL     1     -12.647  13.469  70.694  1.00  0.00    -0.345 A  
HETATM   15  C   UNL     1     -13.195  14.331  71.775  1.00  0.00    -0.367 C  
HETATM   16  C   UNL     1     -12.186  14.097  69.527  1.00  0.00    -0.351 A  
HETATM   17  O   UNL     1     -14.176  13.746  72.491  1.00  0.00    -0.706 OA 
HETATM   18  C   UNL     1     -11.609  13.345  68.499  1.00  0.00    -0.368 A  
HETATM   19  O   UNL     1     -12.826  15.477  71.965  1.00  0.00    -0.362 OA 
ENDBRANCH   8  11
ENDBRANCH   4   8
ENDBRANCH   3   4
ENDBRANCH   2   3
TORSDOF 6
ENDMDL
MODEL      158
REMARK 921   NORMALIZED FREE ENERGY PREDICTED BY IDOCK:   -3.52 KCAL/MOL
REMARK 922        TOTAL FREE ENERGY PREDICTED BY IDOCK:   -5.54 KCAL/MOL
REMARK 923 INTER-LIGAND FREE ENERGY PREDICTED BY IDOCK:   -5.23 KCAL/MOL
REMARK 924 INTRA-LIGAND FREE ENERGY PREDICTED BY IDOCK:   -0.31 KCAL/MOL
REMARK 927      BINDING AFFINITY PREDICTED BY RF-SCORE:    0.00 PKD
ROOT
HETATM    1  C   UNL     1      -9.026   4.045  66.014  1.00  0.00    -0.129 C  
HETATM    2  C   UNL     1      -9.517   5.434  65.650  1.00  0.00    -0.060 C  
ENDROOT
BRANCH   2   3
HETATM    3  C   UNL     1      -8.545   6.562  66.010  1.00  0.00    -0.148 C  
BRANCH   3   4
HETATM    4  N   UNL     1      -9.164   7.917  66.318  1.00  0.00    -0.187 N  
BRANCH   4   5
HETATM    5  C   UNL     1      -9.033   8.265  67.782  1.00  0.00    -0.136 C  
BRANCH   5   6
HETATM    6  C   UNL     1      -9.506   7.189  68.765  1.00  0.00    -0.141 C  
HETATM    7  C   UNL     1      -9.812   7.708  70.160  1.00  0.00    -0.184 C  
ENDBRANCH   5   6
ENDBRANCH   4   5
BRANCH   4   8
HETATM    8  S   UNL     1      -8.500   9.135  65.242  1.00  0.00    -0.164 S  
HETATM    9  O   UNL     1      -7.484   9.908  65.918  1.00  0.00    -0.100 OA 
HETATM   10  O   UNL     1      -8.220   8.493  63.974  1.00  0.00    -0.159 OA 
BRANCH   8  11
HETATM   11  C   UNL     1      -9.840  10.292  64.991  1.00  0.00    -0.329 A  
HETATM   12  C   UNL     1     -10.394  10.939  66.104  1.00  0.00    -0.305 A  
HETATM   13  C   UNL     1     -11.278  12.009  65.923  1.00  0.00    -0.385 A  
HETATM   14  C   UNL     1     -11.608  12.430  64.628  1.00  0.00    -0.400 A  
HETATM   15  C   UNL     1     -12.491  13.600  64.373  1.00  0.00    -0.264 C  
HETATM   16  C   UNL     1     -11.034  11.789  63.520  1.00  0.00    -0.499 A  
HETATM   17  O   UNL     1     -13.485  13.735  65.272  1.00  0.00    -0.586 OA 
HETATM   18  C   UNL     1     -10.152  10.720  63.698  1.00  0.00    -0.375 A  
HETATM   19  O   UNL     1     -12.356  14.338  63.413  1.00  0.00    -0.678 OA 
ENDBRANCH   8  11
ENDBRANCH   4   8
ENDBRANCH   3   4
ENDBRANCH   2   3
TORSDOF 6
ENDMDL
MODEL      159
REMARK 921   NORMALIZED FREE ENERGY PREDICTED BY IDOCK:   -3.51 KCAL/MOL
REMARK 922        TOTAL FREE ENERGY PREDICTED BY IDOCK:   -5.53 KCAL/MOL
REMARK 923 INTER-LIGAND FREE ENERGY PREDICTED BY IDOCK:   -4.72 KCAL/MOL
REMARK 924 INTRA-LIGAND FREE ENERGY PREDICTED BY IDOCK:   -0.81 KCAL/MOL
REMARK 927      BINDING AFFINITY PREDICTED BY RF-SCORE:    0.00 PKD
ROOT
HETATM    1  C   UNL     1     -10.719   7.960  72.456  1.00  0.00    -0.391 C  
HETATM    2  C   UNL     1     -10.588   6.729  71.579  1.00  0.00    -0.245 C  
ENDROOT
BRANCH   2   3
HETATM    3  C   UNL     1     -10.618   7.019  70.075  1.00  0.00    -0.230 C  
BRANCH   3   4
HETATM    4  N   UNL     1      -9.545   7.957  69.543  1.00  0.00    -0.160 N  
BRANCH   4   5
HETATM    5  C   UNL     1      -8.183   7.307  69.563  1.00  0.00    -0.131 C  
BRANCH   5   6
HETATM    6  C   UNL     1      -7.033   8.189  70.059  1.00  0.00    -0.040 C  
HETATM    7  C   UNL     1      -7.372   9.033  71.277  1.00  0.00    -0.093 C  
ENDBRANCH   5   6
ENDBRANCH   4   5
BRANCH   4   8
HETATM    8  S   UNL     1     -10.013   8.565  67.964  1.00  0.00    -0.191 S  
HETATM    9  O   UNL     1      -8.847   8.943  67.202  1.00  0.00    -0.122 OA 
HETATM   10  O   UNL     1     -10.992   7.649  67.415  1.00  0.00    -0.207 OA 
BRANCH   8  11
HETATM   11  C   UNL     1     -10.838  10.114  68.306  1.00  0.00    -0.252 A  
HETATM   12  C   UNL     1     -11.078  10.475  69.639  1.00  0.00    -0.338 A  
HETATM   13  C   UNL     1     -11.509  11.770  69.947  1.00  0.00    -0.285 A  
HETATM   14  C   UNL     1     -11.701  12.705  68.921  1.00  0.00    -0.370 A  
HETATM   15  C   UNL     1     -12.096  14.113  69.191  1.00  0.00    -0.325 C  
HETATM   16  C   UNL     1     -11.440  12.341  67.591  1.00  0.00    -0.401 A  
HETATM   17  O   UNL     1     -12.941  14.250  70.231  1.00  0.00    -0.261 OA 
HETATM   18  C   UNL     1     -11.011  11.048  67.281  1.00  0.00    -0.356 A  
HETATM   19  O   UNL     1     -11.729  15.051  68.504  1.00  0.00    -0.320 OA 
ENDBRANCH   8  11
ENDBRANCH   4   8
ENDBRANCH   3   4
ENDBRANCH   2   3
TORSDOF 6
ENDMDL
MODEL      160
REMARK 921   NORMALIZED FREE ENERGY PREDICTED BY IDOCK:   -3.50 KCAL/MOL
REMARK 922        TOTAL FREE ENERGY PREDICTED BY IDOCK:   -5.51 KCAL/MOL
REMARK 923 INTER-LIGAND FREE ENERGY PREDICTED BY IDOCK:   -4.94 KCAL/MOL
REMARK 924 INTRA-LIGAND FREE ENERGY PREDICTED BY IDOCK:   -0.57 KCAL/MOL
REMARK 927      BINDING AFFINITY PREDICTED BY RF-SCORE:    0.00 PKD
ROOT
HETATM    1  C   UNL     1     -12.752  15.196  72.558  1.00  0.00    -0.443 C  
HETATM    2  C   UNL     1     -11.957  14.757  71.343  1.00  0.00    -0.403 C  
ENDROOT
BRANCH   2   3
HETATM    3  C   UNL     1     -12.594  13.611  70.551  1.00  0.00    -0.267 C  
BRANCH   3   4
HETATM    4  N   UNL     1     -11.640  12.604  69.927  1.00  0.00    -0.229 N  
BRANCH   4   5
HETATM    5  C   UNL     1     -12.111  11.187  70.146  1.00  0.00    -0.362 C  
BRANCH   5   6
HETATM    6  C   UNL     1     -12.707  10.890  71.526  1.00  0.00    -0.533 C  
HETATM    7  C   UNL     1     -13.135   9.445  71.725  1.00  0.00    -0.488 C  
ENDBRANCH   5   6
ENDBRANCH   4   5
BRANCH   4   8
HETATM    8  S   UNL     1     -11.369  13.005  68.239  1.00  0.00    -0.312 S  
HETATM    9  O   UNL     1     -10.985  11.828  67.496  1.00  0.00    -0.228 OA 
HETATM   10  O   UNL     1     -12.477  13.828  67.801  1.00  0.00    -0.126 OA 
BRANCH   8  11
HETATM   11  C   UNL     1      -9.897  14.020  68.249  1.00  0.00    -0.233 A  
HETATM   12  C   UNL     1      -8.654  13.415  68.015  1.00  0.00    -0.174 A  
HETATM   13  C   UNL     1      -7.522  14.207  67.790  1.00  0.00    -0.174 A  
HETATM   14  C   UNL     1      -7.634  15.604  67.800  1.00  0.00    -0.158 A  
HETATM   15  C   UNL     1      -6.481  16.496  67.505  1.00  0.00    -0.154 C  
HETATM   16  C   UNL     1      -8.885  16.201  68.016  1.00  0.00    -0.181 A  
HETATM   17  O   UNL     1      -5.302  16.029  67.963  1.00  0.00    -0.104 OA 
HETATM   18  C   UNL     1     -10.017  15.412  68.243  1.00  0.00    -0.214 A  
HETATM   19  O   UNL     1      -6.598  17.572  66.945  1.00  0.00    -0.157 OA 
ENDBRANCH   8  11
ENDBRANCH   4   8
ENDBRANCH   3   4
ENDBRANCH   2   3
TORSDOF 6
ENDMDL
MODEL      161
REMARK 921   NORMALIZED FREE ENERGY PREDICTED BY IDOCK:   -3.50 KCAL/MOL
REMARK 922        TOTAL FREE ENERGY PREDICTED BY IDOCK:   -5.51 KCAL/MOL
REMARK 923 INTER-LIGAND FREE ENERGY PREDICTED BY IDOCK:   -4.99 KCAL/MOL
REMARK 924 INTRA-LIGAND FREE ENERGY PREDICTED BY IDOCK:   -0.52 KCAL/MOL
REMARK 927      BINDING AFFINITY PREDICTED BY RF-SCORE:    0.00 PKD
ROOT
HETATM    1  C   UNL     1     -14.085   7.421  71.437  1.00  0.00    -0.491 C  
HETATM    2  C   UNL     1     -12.636   7.000  71.590  1.00  0.00    -0.419 C  
ENDROOT
BRANCH   2   3
HETATM    3  C   UNL     1     -11.951   6.601  70.279  1.00  0.00    -0.240 C  
BRANCH   3   4
HETATM    4  N   UNL     1     -10.615   7.263  69.982  1.00  0.00    -0.228 N  
BRANCH   4   5
HETATM    5  C   UNL     1      -9.491   6.607  70.748  1.00  0.00    -0.168 C  
BRANCH   5   6
HETATM    6  C   UNL     1      -9.546   5.078  70.828  1.00  0.00    -0.244 C  
HETATM    7  C   UNL     1      -9.065   4.503  72.150  1.00  0.00    -0.153 C  
ENDBRANCH   5   6
ENDBRANCH   4   5
BRANCH   4   8
HETATM    8  S   UNL     1     -10.348   7.319  68.248  1.00  0.00    -0.192 S  
HETATM    9  O   UNL     1      -9.013   6.871  67.927  1.00  0.00    -0.123 OA 
HETATM   10  O   UNL     1     -11.503   6.724  67.608  1.00  0.00    -0.101 OA 
BRANCH   8  11
HETATM   11  C   UNL     1     -10.334   9.063  67.851  1.00  0.00    -0.235 A  
HETATM   12  C   UNL     1      -9.870   9.469  66.592  1.00  0.00    -0.293 A  
HETATM   13  C   UNL     1     -10.060  10.789  66.168  1.00  0.00    -0.297 A  
HETATM   14  C   UNL     1     -10.712  11.704  67.005  1.00  0.00    -0.292 A  
HETATM   15  C   UNL     1     -10.999  13.102  66.585  1.00  0.00    -0.283 C  
HETATM   16  C   UNL     1     -11.191  11.285  68.256  1.00  0.00    -0.331 A  
HETATM   17  O   UNL     1     -10.038  13.643  65.812  1.00  0.00    -0.295 OA 
HETATM   18  C   UNL     1     -11.002   9.967  68.682  1.00  0.00    -0.222 A  
HETATM   19  O   UNL     1     -11.987  13.716  66.947  1.00  0.00    -0.386 OA 
ENDBRANCH   8  11
ENDBRANCH   4   8
ENDBRANCH   3   4
ENDBRANCH   2   3
TORSDOF 6
ENDMDL
MODEL      162
REMARK 921   NORMALIZED FREE ENERGY PREDICTED BY IDOCK:   -3.50 KCAL/MOL
REMARK 922        TOTAL FREE ENERGY PREDICTED BY IDOCK:   -5.51 KCAL/MOL
REMARK 923 INTER-LIGAND FREE ENERGY PREDICTED BY IDOCK:   -5.00 KCAL/MOL
REMARK 924 INTRA-LIGAND FREE ENERGY PREDICTED BY IDOCK:   -0.51 KCAL/MOL
REMARK 927      BINDING AFFINITY PREDICTED BY RF-SCORE:    0.00 PKD
ROOT
HETATM    1  C   UNL     1      -9.773   6.303  66.758  1.00  0.00    -0.193 C  
HETATM    2  C   UNL     1     -10.609   7.544  67.010  1.00  0.00    -0.409 C  
ENDROOT
BRANCH   2   3
HETATM    3  C   UNL     1     -10.045   8.824  66.383  1.00  0.00    -0.243 C  
BRANCH   3   4
HETATM    4  N   UNL     1      -8.617   9.189  66.755  1.00  0.00    -0.125 N  
BRANCH   4   5
HETATM    5  C   UNL     1      -7.719   9.214  65.542  1.00  0.00    -0.094 C  
BRANCH   5   6
HETATM    6  C   UNL     1      -6.214   9.231  65.829  1.00  0.00    -0.056 C  
HETATM    7  C   UNL     1      -5.420  10.189  64.956  1.00  0.00    -0.097 C  
ENDBRANCH   5   6
ENDBRANCH   4   5
BRANCH   4   8
HETATM    8  S   UNL     1      -8.603  10.685  67.674  1.00  0.00    -0.118 S  
HETATM    9  O   UNL     1      -7.463  10.724  68.560  1.00  0.00    -0.088 OA 
HETATM   10  O   UNL     1      -8.858  11.770  66.747  1.00  0.00    -0.180 OA 
BRANCH   8  11
HETATM   11  C   UNL     1     -10.010  10.553  68.769  1.00  0.00    -0.192 A  
HETATM   12  C   UNL     1      -9.945   9.665  69.852  1.00  0.00    -0.273 A  
HETATM   13  C   UNL     1     -10.926   9.705  70.849  1.00  0.00    -0.412 A  
HETATM   14  C   UNL     1     -11.972  10.633  70.762  1.00  0.00    -0.477 A  
HETATM   15  C   UNL     1     -13.008  10.766  71.822  1.00  0.00    -0.463 C  
HETATM   16  C   UNL     1     -12.019  11.531  69.686  1.00  0.00    -0.407 A  
HETATM   17  O   UNL     1     -13.349   9.596  72.397  1.00  0.00    -0.433 OA 
HETATM   18  C   UNL     1     -11.041  11.492  68.688  1.00  0.00    -0.291 A  
HETATM   19  O   UNL     1     -13.533  11.827  72.110  1.00  0.00    -0.446 OA 
ENDBRANCH   8  11
ENDBRANCH   4   8
ENDBRANCH   3   4
ENDBRANCH   2   3
TORSDOF 6
ENDMDL
MODEL      163
REMARK 921   NORMALIZED FREE ENERGY PREDICTED BY IDOCK:   -3.49 KCAL/MOL
REMARK 922        TOTAL FREE ENERGY PREDICTED BY IDOCK:   -5.51 KCAL/MOL
REMARK 923 INTER-LIGAND FREE ENERGY PREDICTED BY IDOCK:   -4.86 KCAL/MOL
REMARK 924 INTRA-LIGAND FREE ENERGY PREDICTED BY IDOCK:   -0.64 KCAL/MOL
REMARK 927      BINDING AFFINITY PREDICTED BY RF-SCORE:    0.00 PKD
ROOT
HETATM    1  C   UNL     1      -9.109  15.504  66.250  1.00  0.00    -0.369 C  
HETATM    2  C   UNL     1     -10.402  14.726  66.090  1.00  0.00    -0.314 C  
ENDROOT
BRANCH   2   3
HETATM    3  C   UNL     1     -10.529  13.515  67.019  1.00  0.00    -0.265 C  
BRANCH   3   4
HETATM    4  N   UNL     1     -10.094  12.174  66.448  1.00  0.00    -0.216 N  
BRANCH   4   5
HETATM    5  C   UNL     1     -10.029  12.210  64.940  1.00  0.00    -0.212 C  
BRANCH   5   6
HETATM    6  C   UNL     1     -11.270  11.689  64.209  1.00  0.00    -0.392 C  
HETATM    7  C   UNL     1     -11.974  12.730  63.353  1.00  0.00    -0.613 C  
ENDBRANCH   5   6
ENDBRANCH   4   5
BRANCH   4   8
HETATM    8  S   UNL     1      -8.597  11.660  67.207  1.00  0.00    -0.160 S  
HETATM    9  O   UNL     1      -7.655  11.204  66.211  1.00  0.00    -0.140 OA 
HETATM   10  O   UNL     1      -8.223  12.676  68.169  1.00  0.00    -0.155 OA 
BRANCH   8  11
HETATM   11  C   UNL     1      -9.035  10.179  68.109  1.00  0.00    -0.122 A  
HETATM   12  C   UNL     1      -8.761  10.117  69.483  1.00  0.00    -0.189 A  
HETATM   13  C   UNL     1      -9.293   9.079  70.256  1.00  0.00    -0.227 A  
HETATM   14  C   UNL     1     -10.099   8.103  69.655  1.00  0.00    -0.199 A  
HETATM   15  C   UNL     1     -10.744   7.013  70.434  1.00  0.00    -0.234 C  
HETATM   16  C   UNL     1     -10.385   8.184  68.283  1.00  0.00    -0.241 A  
HETATM   17  O   UNL     1      -9.993   6.560  71.458  1.00  0.00    -0.176 OA 
HETATM   18  C   UNL     1      -9.853   9.219  67.509  1.00  0.00    -0.224 A  
HETATM   19  O   UNL     1     -11.830   6.540  70.145  1.00  0.00    -0.416 OA 
ENDBRANCH   8  11
ENDBRANCH   4   8
ENDBRANCH   3   4
ENDBRANCH   2   3
TORSDOF 6
ENDMDL
MODEL      164
REMARK 921   NORMALIZED FREE ENERGY PREDICTED BY IDOCK:   -3.49 KCAL/MOL
REMARK 922        TOTAL FREE ENERGY PREDICTED BY IDOCK:   -5.50 KCAL/MOL
REMARK 923 INTER-LIGAND FREE ENERGY PREDICTED BY IDOCK:   -4.87 KCAL/MOL
REMARK 924 INTRA-LIGAND FREE ENERGY PREDICTED BY IDOCK:   -0.63 KCAL/MOL
REMARK 927      BINDING AFFINITY PREDICTED BY RF-SCORE:    0.00 PKD
ROOT
HETATM    1  C   UNL     1     -12.289  12.548  63.227  1.00  0.00    -0.473 C  
HETATM    2  C   UNL     1     -11.210  11.874  64.053  1.00  0.00    -0.470 C  
ENDROOT
BRANCH   2   3
HETATM    3  C   UNL     1     -11.369  12.049  65.566  1.00  0.00    -0.328 C  
BRANCH   3   4
HETATM    4  N   UNL     1     -10.095  11.990  66.394  1.00  0.00    -0.214 N  
BRANCH   4   5
HETATM    5  C   UNL     1      -9.582  13.371  66.721  1.00  0.00    -0.262 C  
BRANCH   5   6
HETATM    6  C   UNL     1     -10.556  14.523  66.448  1.00  0.00    -0.302 C  
HETATM    7  C   UNL     1     -10.100  15.483  65.361  1.00  0.00    -0.387 C  
ENDBRANCH   5   6
ENDBRANCH   4   5
BRANCH   4   8
HETATM    8  S   UNL     1     -10.348  10.979  67.807  1.00  0.00    -0.198 S  
HETATM    9  O   UNL     1      -9.511  11.417  68.899  1.00  0.00    -0.155 OA 
HETATM   10  O   UNL     1     -11.778  10.826  67.986  1.00  0.00    -0.528 OA 
BRANCH   8  11
HETATM   11  C   UNL     1      -9.676   9.387  67.348  1.00  0.00    -0.159 A  
HETATM   12  C   UNL     1     -10.427   8.232  67.612  1.00  0.00    -0.303 A  
HETATM   13  C   UNL     1     -10.038   7.005  67.064  1.00  0.00    -0.298 A  
HETATM   14  C   UNL     1      -8.898   6.932  66.252  1.00  0.00    -0.161 A  
HETATM   15  C   UNL     1      -8.472   5.670  65.591  1.00  0.00    -0.147 C  
HETATM   16  C   UNL     1      -8.164   8.095  65.977  1.00  0.00    -0.121 A  
HETATM   17  O   UNL     1      -8.699   4.566  66.330  1.00  0.00    -0.112 OA 
HETATM   18  C   UNL     1      -8.550   9.323  66.525  1.00  0.00    -0.139 A  
HETATM   19  O   UNL     1      -7.923   5.641  64.503  1.00  0.00    -0.110 OA 
ENDBRANCH   8  11
ENDBRANCH   4   8
ENDBRANCH   3   4
ENDBRANCH   2   3
TORSDOF 6
ENDMDL
MODEL      165
REMARK 921   NORMALIZED FREE ENERGY PREDICTED BY IDOCK:   -3.49 KCAL/MOL
REMARK 922        TOTAL FREE ENERGY PREDICTED BY IDOCK:   -5.49 KCAL/MOL
REMARK 923 INTER-LIGAND FREE ENERGY PREDICTED BY IDOCK:   -5.23 KCAL/MOL
REMARK 924 INTRA-LIGAND FREE ENERGY PREDICTED BY IDOCK:   -0.26 KCAL/MOL
REMARK 927      BINDING AFFINITY PREDICTED BY RF-SCORE:    0.00 PKD
ROOT
HETATM    1  C   UNL     1     -10.887   8.420  72.433  1.00  0.00    -0.416 C  
HETATM    2  C   UNL     1     -10.926   8.481  70.917  1.00  0.00    -0.292 C  
ENDROOT
BRANCH   2   3
HETATM    3  C   UNL     1     -10.737   9.885  70.335  1.00  0.00    -0.318 C  
BRANCH   3   4
HETATM    4  N   UNL     1      -9.461  10.126  69.544  1.00  0.00    -0.220 N  
BRANCH   4   5
HETATM    5  C   UNL     1      -8.300   9.351  70.118  1.00  0.00    -0.182 C  
BRANCH   5   6
HETATM    6  C   UNL     1      -6.972  10.111  70.203  1.00  0.00    -0.157 C  
HETATM    7  C   UNL     1      -5.863   9.355  70.917  1.00  0.00    -0.060 C  
ENDBRANCH   5   6
ENDBRANCH   4   5
BRANCH   4   8
HETATM    8  S   UNL     1      -9.747   9.809  67.841  1.00  0.00    -0.148 S  
HETATM    9  O   UNL     1      -8.506   9.504  67.168  1.00  0.00    -0.129 OA 
HETATM   10  O   UNL     1     -10.880   8.911  67.746  1.00  0.00    -0.181 OA 
BRANCH   8  11
HETATM   11  C   UNL     1     -10.238  11.390  67.165  1.00  0.00    -0.202 A  
HETATM   12  C   UNL     1      -9.302  12.135  66.433  1.00  0.00    -0.225 A  
HETATM   13  C   UNL     1      -9.715  13.256  65.705  1.00  0.00    -0.101 A  
HETATM   14  C   UNL     1     -11.065  13.632  65.709  1.00  0.00    -0.292 A  
HETATM   15  C   UNL     1     -11.575  14.774  64.904  1.00  0.00    -0.401 C  
HETATM   16  C   UNL     1     -11.998  12.870  66.428  1.00  0.00    -0.462 A  
HETATM   17  O   UNL     1     -10.711  15.804  64.816  1.00  0.00    -0.500 OA 
HETATM   18  C   UNL     1     -11.587  11.750  67.158  1.00  0.00    -0.342 A  
HETATM   19  O   UNL     1     -12.689  14.796  64.411  1.00  0.00    -0.604 OA 
ENDBRANCH   8  11
ENDBRANCH   4   8
ENDBRANCH   3   4
ENDBRANCH   2   3
TORSDOF 6
ENDMDL
MODEL      166
REMARK 921   NORMALIZED FREE ENERGY PREDICTED BY IDOCK:   -3.49 KCAL/MOL
REMARK 922        TOTAL FREE ENERGY PREDICTED BY IDOCK:   -5.49 KCAL/MOL
REMARK 923 INTER-LIGAND FREE ENERGY PREDICTED BY IDOCK:   -4.61 KCAL/MOL
REMARK 924 INTRA-LIGAND FREE ENERGY PREDICTED BY IDOCK:   -0.88 KCAL/MOL
REMARK 927      BINDING AFFINITY PREDICTED BY RF-SCORE:    0.00 PKD
ROOT
HETATM    1  C   UNL     1      -9.696   8.831  65.903  1.00  0.00    -0.211 C  
HETATM    2  C   UNL     1      -9.835  10.150  65.167  1.00  0.00    -0.394 C  
ENDROOT
BRANCH   2   3
HETATM    3  C   UNL     1      -9.231  11.351  65.901  1.00  0.00    -0.216 C  
BRANCH   3   4
HETATM    4  N   UNL     1     -10.169  12.512  66.190  1.00  0.00    -0.247 N  
BRANCH   4   5
HETATM    5  C   UNL     1     -11.583  12.200  65.762  1.00  0.00    -0.355 C  
BRANCH   5   6
HETATM    6  C   UNL     1     -12.207  13.181  64.765  1.00  0.00    -0.477 C  
HETATM    7  C   UNL     1     -11.893  12.878  63.309  1.00  0.00    -0.469 C  
ENDBRANCH   5   6
ENDBRANCH   4   5
BRANCH   4   8
HETATM    8  S   UNL     1     -10.031  12.987  67.875  1.00  0.00    -0.236 S  
HETATM    9  O   UNL     1      -8.784  13.678  68.104  1.00  0.00    -0.165 OA 
HETATM   10  O   UNL     1     -11.291  13.583  68.266  1.00  0.00    -0.260 OA 
BRANCH   8  11
HETATM   11  C   UNL     1      -9.850  11.445  68.763  1.00  0.00    -0.164 A  
HETATM   12  C   UNL     1     -10.981  10.639  68.957  1.00  0.00    -0.295 A  
HETATM   13  C   UNL     1     -10.834   9.334  69.441  1.00  0.00    -0.184 A  
HETATM   14  C   UNL     1      -9.557   8.835  69.730  1.00  0.00    -0.173 A  
HETATM   15  C   UNL     1      -9.333   7.437  70.185  1.00  0.00    -0.158 C  
HETATM   16  C   UNL     1      -8.429   9.642  69.514  1.00  0.00    -0.162 A  
HETATM   17  O   UNL     1     -10.308   6.964  70.986  1.00  0.00    -0.204 OA 
HETATM   18  C   UNL     1      -8.574  10.947  69.032  1.00  0.00    -0.110 A  
HETATM   19  O   UNL     1      -8.336   6.796  69.900  1.00  0.00    -0.131 OA 
ENDBRANCH   8  11
ENDBRANCH   4   8
ENDBRANCH   3   4
ENDBRANCH   2   3
TORSDOF 6
ENDMDL
MODEL      167
REMARK 921   NORMALIZED FREE ENERGY PREDICTED BY IDOCK:   -3.48 KCAL/MOL
REMARK 922        TOTAL FREE ENERGY PREDICTED BY IDOCK:   -5.48 KCAL/MOL
REMARK 923 INTER-LIGAND FREE ENERGY PREDICTED BY IDOCK:   -4.67 KCAL/MOL
REMARK 924 INTRA-LIGAND FREE ENERGY PREDICTED BY IDOCK:   -0.81 KCAL/MOL
REMARK 927      BINDING AFFINITY PREDICTED BY RF-SCORE:    0.00 PKD
ROOT
HETATM    1  C   UNL     1     -11.841  14.023  65.723  1.00  0.00    -0.393 C  
HETATM    2  C   UNL     1     -12.152  12.538  65.729  1.00  0.00    -0.443 C  
ENDROOT
BRANCH   2   3
HETATM    3  C   UNL     1     -10.930  11.636  65.533  1.00  0.00    -0.270 C  
BRANCH   3   4
HETATM    4  N   UNL     1     -10.353  10.994  66.785  1.00  0.00    -0.229 N  
BRANCH   4   5
HETATM    5  C   UNL     1      -9.867   9.591  66.514  1.00  0.00    -0.240 C  
BRANCH   5   6
HETATM    6  C   UNL     1     -10.244   8.542  67.565  1.00  0.00    -0.307 C  
HETATM    7  C   UNL     1     -10.858   9.118  68.831  1.00  0.00    -0.099 C  
ENDBRANCH   5   6
ENDBRANCH   4   5
BRANCH   4   8
HETATM    8  S   UNL     1      -9.130  12.042  67.483  1.00  0.00    -0.184 S  
HETATM    9  O   UNL     1      -8.150  11.265  68.205  1.00  0.00    -0.121 OA 
HETATM   10  O   UNL     1      -8.721  12.981  66.459  1.00  0.00    -0.086 OA 
BRANCH   8  11
HETATM   11  C   UNL     1      -9.993  12.955  68.756  1.00  0.00     0.002 A  
HETATM   12  C   UNL     1      -9.813  14.344  68.834  1.00  0.00    -0.164 A  
HETATM   13  C   UNL     1     -10.641  15.111  69.661  1.00  0.00    -0.274 A  
HETATM   14  C   UNL     1     -11.648  14.489  70.411  1.00  0.00    -0.308 A  
HETATM   15  C   UNL     1     -12.599  15.258  71.257  1.00  0.00    -0.383 C  
HETATM   16  C   UNL     1     -11.834  13.102  70.312  1.00  0.00    -0.299 A  
HETATM   17  O   UNL     1     -12.048  16.334  71.852  1.00  0.00    -0.471 OA 
HETATM   18  C   UNL     1     -11.007  12.333  69.487  1.00  0.00    -0.007 A  
HETATM   19  O   UNL     1     -13.756  14.918  71.435  1.00  0.00    -0.395 OA 
ENDBRANCH   8  11
ENDBRANCH   4   8
ENDBRANCH   3   4
ENDBRANCH   2   3
TORSDOF 6
ENDMDL
MODEL      168
REMARK 921   NORMALIZED FREE ENERGY PREDICTED BY IDOCK:   -3.46 KCAL/MOL
REMARK 922        TOTAL FREE ENERGY PREDICTED BY IDOCK:   -5.46 KCAL/MOL
REMARK 923 INTER-LIGAND FREE ENERGY PREDICTED BY IDOCK:   -4.87 KCAL/MOL
REMARK 924 INTRA-LIGAND FREE ENERGY PREDICTED BY IDOCK:   -0.59 KCAL/MOL
REMARK 927      BINDING AFFINITY PREDICTED BY RF-SCORE:    0.00 PKD
ROOT
HETATM    1  C   UNL     1     -11.351  11.171  68.155  1.00  0.00    -0.377 C  
HETATM    2  C   UNL     1     -10.423  10.609  69.215  1.00  0.00    -0.252 C  
ENDROOT
BRANCH   2   3
HETATM    3  C   UNL     1     -10.964   9.372  69.938  1.00  0.00    -0.229 C  
BRANCH   3   4
HETATM    4  N   UNL     1     -11.005   9.437  71.456  1.00  0.00    -0.372 N  
BRANCH   4   5
HETATM    5  C   UNL     1     -12.405   9.230  71.982  1.00  0.00    -0.363 C  
BRANCH   5   6
HETATM    6  C   UNL     1     -13.470  10.183  71.429  1.00  0.00    -0.325 C  
HETATM    7  C   UNL     1     -13.351  11.613  71.930  1.00  0.00    -0.403 C  
ENDBRANCH   5   6
ENDBRANCH   4   5
BRANCH   4   8
HETATM    8  S   UNL     1      -9.826   8.326  72.133  1.00  0.00    -0.302 S  
HETATM    9  O   UNL     1      -8.520   8.940  72.180  1.00  0.00    -0.382 OA 
HETATM   10  O   UNL     1     -10.411   7.738  73.321  1.00  0.00    -0.334 OA 
BRANCH   8  11
HETATM   11  C   UNL     1      -9.664   7.038  70.903  1.00  0.00    -0.174 A  
HETATM   12  C   UNL     1      -8.456   6.918  70.202  1.00  0.00    -0.140 A  
HETATM   13  C   UNL     1      -8.218   5.792  69.406  1.00  0.00    -0.108 A  
HETATM   14  C   UNL     1      -9.188   4.786  69.312  1.00  0.00    -0.172 A  
HETATM   15  C   UNL     1      -8.967   3.537  68.534  1.00  0.00    -0.131 C  
HETATM   16  C   UNL     1     -10.387   4.904  70.032  1.00  0.00    -0.242 A  
HETATM   17  O   UNL     1      -8.243   3.719  67.412  1.00  0.00    -0.090 OA 
HETATM   18  C   UNL     1     -10.627   6.029  70.827  1.00  0.00    -0.316 A  
HETATM   19  O   UNL     1      -9.437   2.460  68.856  1.00  0.00    -0.158 OA 
ENDBRANCH   8  11
ENDBRANCH   4   8
ENDBRANCH   3   4
ENDBRANCH   2   3
TORSDOF 6
ENDMDL
MODEL      169
REMARK 921   NORMALIZED FREE ENERGY PREDICTED BY IDOCK:   -3.45 KCAL/MOL
REMARK 922        TOTAL FREE ENERGY PREDICTED BY IDOCK:   -5.45 KCAL/MOL
REMARK 923 INTER-LIGAND FREE ENERGY PREDICTED BY IDOCK:   -4.96 KCAL/MOL
REMARK 924 INTRA-LIGAND FREE ENERGY PREDICTED BY IDOCK:   -0.49 KCAL/MOL
REMARK 927      BINDING AFFINITY PREDICTED BY RF-SCORE:    0.00 PKD
ROOT
HETATM    1  C   UNL     1     -13.687   7.283  71.646  1.00  0.00    -0.446 C  
HETATM    2  C   UNL     1     -12.529   6.536  71.011  1.00  0.00    -0.089 C  
ENDROOT
BRANCH   2   3
HETATM    3  C   UNL     1     -11.432   6.117  71.994  1.00  0.00    -0.313 C  
BRANCH   3   4
HETATM    4  N   UNL     1      -9.996   6.308  71.529  1.00  0.00    -0.184 N  
BRANCH   4   5
HETATM    5  C   UNL     1      -9.905   6.361  70.023  1.00  0.00    -0.168 C  
BRANCH   5   6
HETATM    6  C   UNL     1      -9.655   5.020  69.326  1.00  0.00    -0.230 C  
HETATM    7  C   UNL     1      -9.207   3.905  70.256  1.00  0.00    -0.215 C  
ENDBRANCH   5   6
ENDBRANCH   4   5
BRANCH   4   8
HETATM    8  S   UNL     1      -9.291   7.704  72.328  1.00  0.00    -0.162 S  
HETATM    9  O   UNL     1      -9.992   7.991  73.557  1.00  0.00    -0.244 OA 
HETATM   10  O   UNL     1      -7.853   7.533  72.318  1.00  0.00    -0.092 OA 
BRANCH   8  11
HETATM   11  C   UNL     1      -9.691   9.082  71.260  1.00  0.00    -0.301 A  
HETATM   12  C   UNL     1      -8.813   9.407  70.216  1.00  0.00    -0.269 A  
HETATM   13  C   UNL     1      -9.205  10.322  69.233  1.00  0.00    -0.215 A  
HETATM   14  C   UNL     1     -10.474  10.914  69.295  1.00  0.00    -0.230 A  
HETATM   15  C   UNL     1     -10.970  11.844  68.245  1.00  0.00    -0.230 C  
HETATM   16  C   UNL     1     -11.353  10.568  70.332  1.00  0.00    -0.411 A  
HETATM   17  O   UNL     1     -10.012  12.637  67.727  1.00  0.00    -0.207 OA 
HETATM   18  C   UNL     1     -10.963   9.655  71.316  1.00  0.00    -0.399 A  
HETATM   19  O   UNL     1     -12.142  11.916  67.920  1.00  0.00    -0.558 OA 
ENDBRANCH   8  11
ENDBRANCH   4   8
ENDBRANCH   3   4
ENDBRANCH   2   3
TORSDOF 6
ENDMDL
MODEL      170
REMARK 921   NORMALIZED FREE ENERGY PREDICTED BY IDOCK:   -3.45 KCAL/MOL
REMARK 922        TOTAL FREE ENERGY PREDICTED BY IDOCK:   -5.44 KCAL/MOL
REMARK 923 INTER-LIGAND FREE ENERGY PREDICTED BY IDOCK:   -5.05 KCAL/MOL
REMARK 924 INTRA-LIGAND FREE ENERGY PREDICTED BY IDOCK:   -0.39 KCAL/MOL
REMARK 927      BINDING AFFINITY PREDICTED BY RF-SCORE:    0.00 PKD
ROOT
HETATM    1  C   UNL     1      -7.405   9.041  68.559  1.00  0.00    -0.077 C  
HETATM    2  C   UNL     1      -8.350  10.214  68.743  1.00  0.00    -0.122 C  
ENDROOT
BRANCH   2   3
HETATM    3  C   UNL     1      -9.285  10.090  69.950  1.00  0.00    -0.158 C  
BRANCH   3   4
HETATM    4  N   UNL     1     -10.726   9.704  69.654  1.00  0.00    -0.229 N  
BRANCH   4   5
HETATM    5  C   UNL     1     -11.229   8.662  70.624  1.00  0.00    -0.252 C  
BRANCH   5   6
HETATM    6  C   UNL     1     -10.499   8.599  71.970  1.00  0.00    -0.422 C  
HETATM    7  C   UNL     1     -11.055   7.566  72.936  1.00  0.00    -0.426 C  
ENDBRANCH   5   6
ENDBRANCH   4   5
BRANCH   4   8
HETATM    8  S   UNL     1     -11.728  11.144  69.584  1.00  0.00    -0.371 S  
HETATM    9  O   UNL     1     -13.127  10.791  69.654  1.00  0.00    -0.060 OA 
HETATM   10  O   UNL     1     -11.163  12.115  70.500  1.00  0.00     0.481 OA 
BRANCH   8  11
HETATM   11  C   UNL     1     -11.511  11.763  67.921  1.00  0.00    -0.317 A  
HETATM   12  C   UNL     1     -11.055  10.886  66.926  1.00  0.00    -0.236 A  
HETATM   13  C   UNL     1     -11.093  11.273  65.582  1.00  0.00    -0.141 A  
HETATM   14  C   UNL     1     -11.586  12.538  65.233  1.00  0.00    -0.406 A  
HETATM   15  C   UNL     1     -11.711  12.981  63.818  1.00  0.00    -0.485 C  
HETATM   16  C   UNL     1     -12.058  13.401  66.233  1.00  0.00    -0.475 A  
HETATM   17  O   UNL     1     -10.724  12.529  63.020  1.00  0.00    -0.146 OA 
HETATM   18  C   UNL     1     -12.020  13.017  67.577  1.00  0.00    -0.360 A  
HETATM   19  O   UNL     1     -12.596  13.723  63.429  1.00  0.00    -0.842 OA 
ENDBRANCH   8  11
ENDBRANCH   4   8
ENDBRANCH   3   4
ENDBRANCH   2   3
TORSDOF 6
ENDMDL
MODEL      171
REMARK 921   NORMALIZED FREE ENERGY PREDICTED BY IDOCK:   -3.43 KCAL/MOL
REMARK 922        TOTAL FREE ENERGY PREDICTED BY IDOCK:   -5.41 KCAL/MOL
REMARK 923 INTER-LIGAND FREE ENERGY PREDICTED BY IDOCK:   -5.05 KCAL/MOL
REMARK 924 INTRA-LIGAND FREE ENERGY PREDICTED BY IDOCK:   -0.36 KCAL/MOL
REMARK 927      BINDING AFFINITY PREDICTED BY RF-SCORE:    0.00 PKD
ROOT
HETATM    1  C   UNL     1     -10.427   4.927  66.286  1.00  0.00    -0.349 C  
HETATM    2  C   UNL     1     -10.738   6.269  66.923  1.00  0.00    -0.411 C  
ENDROOT
BRANCH   2   3
HETATM    3  C   UNL     1      -9.529   6.959  67.564  1.00  0.00    -0.128 C  
BRANCH   3   4
HETATM    4  N   UNL     1      -9.827   7.959  68.670  1.00  0.00    -0.166 N  
BRANCH   4   5
HETATM    5  C   UNL     1      -9.895   7.286  70.020  1.00  0.00    -0.175 C  
BRANCH   5   6
HETATM    6  C   UNL     1     -11.027   7.756  70.940  1.00  0.00    -0.260 C  
HETATM    7  C   UNL     1     -12.146   6.743  71.121  1.00  0.00    -0.422 C  
ENDBRANCH   5   6
ENDBRANCH   4   5
BRANCH   4   8
HETATM    8  S   UNL     1      -8.680   9.286  68.601  1.00  0.00    -0.132 S  
HETATM    9  O   UNL     1      -8.596   9.950  69.880  1.00  0.00    -0.194 OA 
HETATM   10  O   UNL     1      -7.486   8.798  67.941  1.00  0.00    -0.091 OA 
BRANCH   8  11
HETATM   11  C   UNL     1      -9.450  10.491  67.527  1.00  0.00    -0.149 A  
HETATM   12  C   UNL     1      -9.971  10.067  66.296  1.00  0.00    -0.310 A  
HETATM   13  C   UNL     1     -10.775  10.929  65.543  1.00  0.00    -0.182 A  
HETATM   14  C   UNL     1     -11.057  12.216  66.020  1.00  0.00    -0.354 A  
HETATM   15  C   UNL     1     -11.956  13.154  65.295  1.00  0.00    -0.398 C  
HETATM   16  C   UNL     1     -10.547  12.626  67.261  1.00  0.00    -0.244 A  
HETATM   17  O   UNL     1     -11.864  13.066  63.954  1.00  0.00    -0.411 OA 
HETATM   18  C   UNL     1      -9.743  11.766  68.015  1.00  0.00    -0.185 A  
HETATM   19  O   UNL     1     -12.673  13.960  65.862  1.00  0.00    -0.489 OA 
ENDBRANCH   8  11
ENDBRANCH   4   8
ENDBRANCH   3   4
ENDBRANCH   2   3
TORSDOF 6
ENDMDL
MODEL      172
REMARK 921   NORMALIZED FREE ENERGY PREDICTED BY IDOCK:   -3.42 KCAL/MOL
REMARK 922        TOTAL FREE ENERGY PREDICTED BY IDOCK:   -5.41 KCAL/MOL
REMARK 923 INTER-LIGAND FREE ENERGY PREDICTED BY IDOCK:   -4.48 KCAL/MOL
REMARK 924 INTRA-LIGAND FREE ENERGY PREDICTED BY IDOCK:   -0.93 KCAL/MOL
REMARK 927      BINDING AFFINITY PREDICTED BY RF-SCORE:    0.00 PKD
ROOT
HETATM    1  C   UNL     1      -9.337   6.823  66.622  1.00  0.00    -0.197 C  
HETATM    2  C   UNL     1     -10.514   7.580  67.210  1.00  0.00    -0.391 C  
ENDROOT
BRANCH   2   3
HETATM    3  C   UNL     1     -10.730   8.974  66.613  1.00  0.00     0.027 C  
BRANCH   3   4
HETATM    4  N   UNL     1      -9.761  10.059  67.057  1.00  0.00    -0.174 N  
BRANCH   4   5
HETATM    5  C   UNL     1      -9.260  10.867  65.884  1.00  0.00    -0.191 C  
BRANCH   5   6
HETATM    6  C   UNL     1      -8.303  10.137  64.936  1.00  0.00    -0.166 C  
HETATM    7  C   UNL     1      -6.968   9.765  65.559  1.00  0.00    -0.099 C  
ENDBRANCH   5   6
ENDBRANCH   4   5
BRANCH   4   8
HETATM    8  S   UNL     1     -10.493  11.033  68.321  1.00  0.00    -0.199 S  
HETATM    9  O   UNL     1      -9.788  12.284  68.469  1.00  0.00    -0.207 OA 
HETATM   10  O   UNL     1     -11.927  11.011  68.116  1.00  0.00    -0.610 OA 
BRANCH   8  11
HETATM   11  C   UNL     1     -10.139  10.146  69.833  1.00  0.00    -0.222 A  
HETATM   12  C   UNL     1     -11.207   9.731  70.642  1.00  0.00    -0.402 A  
HETATM   13  C   UNL     1     -10.980   8.846  71.701  1.00  0.00    -0.415 A  
HETATM   14  C   UNL     1      -9.684   8.375  71.952  1.00  0.00    -0.331 A  
HETATM   15  C   UNL     1      -9.391   7.384  73.022  1.00  0.00    -0.178 C  
HETATM   16  C   UNL     1      -8.624   8.779  71.126  1.00  0.00    -0.244 A  
HETATM   17  O   UNL     1     -10.150   7.536  74.124  1.00  0.00    -0.101 OA 
HETATM   18  C   UNL     1      -8.849   9.665  70.068  1.00  0.00    -0.259 A  
HETATM   19  O   UNL     1      -8.512   6.544  72.928  1.00  0.00    -0.120 OA 
ENDBRANCH   8  11
ENDBRANCH   4   8
ENDBRANCH   3   4
ENDBRANCH   2   3
TORSDOF 6
ENDMDL
MODEL      173
REMARK 921   NORMALIZED FREE ENERGY PREDICTED BY IDOCK:   -3.42 KCAL/MOL
REMARK 922        TOTAL FREE ENERGY PREDICTED BY IDOCK:   -5.41 KCAL/MOL
REMARK 923 INTER-LIGAND FREE ENERGY PREDICTED BY IDOCK:   -5.36 KCAL/MOL
REMARK 924 INTRA-LIGAND FREE ENERGY PREDICTED BY IDOCK:   -0.05 KCAL/MOL
REMARK 927      BINDING AFFINITY PREDICTED BY RF-SCORE:    0.00 PKD
ROOT
HETATM    1  C   UNL     1     -12.217  12.160  63.341  1.00  0.00    -0.635 C  
HETATM    2  C   UNL     1     -10.964  12.814  63.893  1.00  0.00    -0.458 C  
ENDROOT
BRANCH   2   3
HETATM    3  C   UNL     1     -11.220  14.091  64.700  1.00  0.00    -0.374 C  
BRANCH   3   4
HETATM    4  N   UNL     1     -10.298  14.343  65.882  1.00  0.00    -0.301 N  
BRANCH   4   5
HETATM    5  C   UNL     1      -9.835  15.779  65.926  1.00  0.00    -0.349 C  
BRANCH   5   6
HETATM    6  C   UNL     1      -8.345  15.988  66.217  1.00  0.00    -0.287 C  
HETATM    7  C   UNL     1      -8.060  16.765  67.492  1.00  0.00    -0.188 C  
ENDBRANCH   5   6
ENDBRANCH   4   5
BRANCH   4   8
HETATM    8  S   UNL     1     -11.068  13.804  67.365  1.00  0.00    -0.305 S  
HETATM    9  O   UNL     1     -10.469  14.451  68.510  1.00  0.00    -0.239 OA 
HETATM   10  O   UNL     1     -12.500  13.848  67.156  1.00  0.00    -0.289 OA 
BRANCH   8  11
HETATM   11  C   UNL     1     -10.586  12.089  67.525  1.00  0.00    -0.221 A  
HETATM   12  C   UNL     1     -10.158  11.619  68.774  1.00  0.00    -0.169 A  
HETATM   13  C   UNL     1      -9.995  10.245  68.986  1.00  0.00    -0.223 A  
HETATM   14  C   UNL     1     -10.260   9.342  67.948  1.00  0.00    -0.259 A  
HETATM   15  C   UNL     1     -10.167   7.869  68.132  1.00  0.00    -0.205 C  
HETATM   16  C   UNL     1     -10.708   9.820  66.707  1.00  0.00    -0.143 A  
HETATM   17  O   UNL     1      -9.176   7.488  68.961  1.00  0.00    -0.147 OA 
HETATM   18  C   UNL     1     -10.870  11.192  66.493  1.00  0.00    -0.302 A  
HETATM   19  O   UNL     1     -10.889   7.079  67.550  1.00  0.00    -0.263 OA 
ENDBRANCH   8  11
ENDBRANCH   4   8
ENDBRANCH   3   4
ENDBRANCH   2   3
TORSDOF 6
ENDMDL
MODEL      174
REMARK 921   NORMALIZED FREE ENERGY PREDICTED BY IDOCK:   -3.41 KCAL/MOL
REMARK 922        TOTAL FREE ENERGY PREDICTED BY IDOCK:   -5.39 KCAL/MOL
REMARK 923 INTER-LIGAND FREE ENERGY PREDICTED BY IDOCK:   -5.37 KCAL/MOL
REMARK 924 INTRA-LIGAND FREE ENERGY PREDICTED BY IDOCK:   -0.03 KCAL/MOL
REMARK 927      BINDING AFFINITY PREDICTED BY RF-SCORE:    0.00 PKD
ROOT
HETATM    1  C   UNL     1     -12.940  11.407  71.525  1.00  0.00    -0.505 C  
HETATM    2  C   UNL     1     -12.272  10.045  71.492  1.00  0.00    -0.496 C  
ENDROOT
BRANCH   2   3
HETATM    3  C   UNL     1     -11.813   9.600  70.100  1.00  0.00    -0.031 C  
BRANCH   3   4
HETATM    4  N   UNL     1     -10.312   9.573  69.858  1.00  0.00    -0.218 N  
BRANCH   4   5
HETATM    5  C   UNL     1      -9.549   9.323  71.137  1.00  0.00    -0.234 C  
BRANCH   5   6
HETATM    6  C   UNL     1      -9.826   7.983  71.825  1.00  0.00    -0.240 C  
HETATM    7  C   UNL     1      -8.607   7.087  71.964  1.00  0.00    -0.123 C  
ENDBRANCH   5   6
ENDBRANCH   4   5
BRANCH   4   8
HETATM    8  S   UNL     1      -9.934   8.432  68.578  1.00  0.00    -0.192 S  
HETATM    9  O   UNL     1      -8.518   8.149  68.554  1.00  0.00    -0.125 OA 
HETATM   10  O   UNL     1     -10.902   7.357  68.650  1.00  0.00    -0.150 OA 
BRANCH   8  11
HETATM   11  C   UNL     1     -10.229   9.339  67.065  1.00  0.00    -0.262 A  
HETATM   12  C   UNL     1     -10.879  10.579  67.134  1.00  0.00    -0.319 A  
HETATM   13  C   UNL     1     -10.919  11.411  66.010  1.00  0.00    -0.286 A  
HETATM   14  C   UNL     1     -10.311  11.002  64.816  1.00  0.00    -0.389 A  
HETATM   15  C   UNL     1     -10.266  11.869  63.608  1.00  0.00    -0.438 C  
HETATM   16  C   UNL     1      -9.645   9.767  64.761  1.00  0.00    -0.284 A  
HETATM   17  O   UNL     1     -11.371  12.621  63.439  1.00  0.00    -0.482 OA 
HETATM   18  C   UNL     1      -9.604   8.934  65.883  1.00  0.00    -0.293 A  
HETATM   19  O   UNL     1      -9.337  11.863  62.819  1.00  0.00    -0.296 OA 
ENDBRANCH   8  11
ENDBRANCH   4   8
ENDBRANCH   3   4
ENDBRANCH   2   3
TORSDOF 6
ENDMDL
MODEL      175
REMARK 921   NORMALIZED FREE ENERGY PREDICTED BY IDOCK:   -3.41 KCAL/MOL
REMARK 922        TOTAL FREE ENERGY PREDICTED BY IDOCK:   -5.39 KCAL/MOL
REMARK 923 INTER-LIGAND FREE ENERGY PREDICTED BY IDOCK:   -5.09 KCAL/MOL
REMARK 924 INTRA-LIGAND FREE ENERGY PREDICTED BY IDOCK:   -0.30 KCAL/MOL
REMARK 927      BINDING AFFINITY PREDICTED BY RF-SCORE:    0.00 PKD
ROOT
HETATM    1  C   UNL     1     -10.525   3.763  73.583  1.00  0.00    -0.260 C  
HETATM    2  C   UNL     1     -11.456   4.862  73.104  1.00  0.00    -0.362 C  
ENDROOT
BRANCH   2   3
HETATM    3  C   UNL     1     -10.885   6.277  73.241  1.00  0.00    -0.244 C  
BRANCH   3   4
HETATM    4  N   UNL     1     -11.206   7.249  72.117  1.00  0.00    -0.243 N  
BRANCH   4   5
HETATM    5  C   UNL     1     -11.993   8.435  72.619  1.00  0.00    -0.277 C  
BRANCH   5   6
HETATM    6  C   UNL     1     -13.518   8.300  72.546  1.00  0.00    -0.084 C  
HETATM    7  C   UNL     1     -14.011   7.355  71.462  1.00  0.00    -0.517 C  
ENDBRANCH   5   6
ENDBRANCH   4   5
BRANCH   4   8
HETATM    8  S   UNL     1      -9.732   7.689  71.269  1.00  0.00    -0.160 S  
HETATM    9  O   UNL     1      -8.897   8.519  72.104  1.00  0.00    -0.202 OA 
HETATM   10  O   UNL     1      -9.205   6.487  70.656  1.00  0.00    -0.160 OA 
BRANCH   8  11
HETATM   11  C   UNL     1     -10.275   8.782  69.962  1.00  0.00    -0.198 A  
HETATM   12  C   UNL     1     -10.654  10.092  70.287  1.00  0.00    -0.354 A  
HETATM   13  C   UNL     1     -10.861  11.032  69.272  1.00  0.00    -0.285 A  
HETATM   14  C   UNL     1     -10.690  10.662  67.931  1.00  0.00    -0.292 A  
HETATM   15  C   UNL     1     -10.833  11.633  66.813  1.00  0.00    -0.277 C  
HETATM   16  C   UNL     1     -10.291   9.354  67.615  1.00  0.00    -0.303 A  
HETATM   17  O   UNL     1     -11.793  12.556  67.016  1.00  0.00    -0.428 OA 
HETATM   18  C   UNL     1     -10.085   8.413  68.628  1.00  0.00    -0.210 A  
HETATM   19  O   UNL     1     -10.177  11.569  65.788  1.00  0.00    -0.231 OA 
ENDBRANCH   8  11
ENDBRANCH   4   8
ENDBRANCH   3   4
ENDBRANCH   2   3
TORSDOF 6
ENDMDL
MODEL      176
REMARK 921   NORMALIZED FREE ENERGY PREDICTED BY IDOCK:   -3.41 KCAL/MOL
REMARK 922        TOTAL FREE ENERGY PREDICTED BY IDOCK:   -5.39 KCAL/MOL
REMARK 923 INTER-LIGAND FREE ENERGY PREDICTED BY IDOCK:   -5.25 KCAL/MOL
REMARK 924 INTRA-LIGAND FREE ENERGY PREDICTED BY IDOCK:   -0.14 KCAL/MOL
REMARK 927      BINDING AFFINITY PREDICTED BY RF-SCORE:    0.00 PKD
ROOT
HETATM    1  C   UNL     1      -6.770   8.225  70.335  1.00  0.00    -0.036 C  
HETATM    2  C   UNL     1      -7.478   9.541  70.598  1.00  0.00    -0.136 C  
ENDROOT
BRANCH   2   3
HETATM    3  C   UNL     1      -9.007   9.458  70.550  1.00  0.00    -0.253 C  
BRANCH   3   4
HETATM    4  N   UNL     1      -9.610   8.772  69.334  1.00  0.00    -0.161 N  
BRANCH   4   5
HETATM    5  C   UNL     1     -10.669   7.772  69.732  1.00  0.00    -0.236 C  
BRANCH   5   6
HETATM    6  C   UNL     1     -10.481   7.117  71.104  1.00  0.00    -0.225 C  
HETATM    7  C   UNL     1     -11.717   7.151  71.988  1.00  0.00    -0.326 C  
ENDBRANCH   5   6
ENDBRANCH   4   5
BRANCH   4   8
HETATM    8  S   UNL     1     -10.175   9.977  68.188  1.00  0.00    -0.186 S  
HETATM    9  O   UNL     1      -9.081  10.815  67.756  1.00  0.00    -0.148 OA 
HETATM   10  O   UNL     1     -11.016   9.302  67.222  1.00  0.00    -0.166 OA 
BRANCH   8  11
HETATM   11  C   UNL     1     -11.211  11.067  69.156  1.00  0.00    -0.255 A  
HETATM   12  C   UNL     1     -11.997  10.522  70.181  1.00  0.00    -0.398 A  
HETATM   13  C   UNL     1     -12.637  11.365  71.096  1.00  0.00    -0.490 A  
HETATM   14  C   UNL     1     -12.490  12.754  70.986  1.00  0.00    -0.369 A  
HETATM   15  C   UNL     1     -13.092  13.698  71.965  1.00  0.00    -0.393 C  
HETATM   16  C   UNL     1     -11.685  13.291  69.969  1.00  0.00    -0.295 A  
HETATM   17  O   UNL     1     -14.291  13.302  72.434  1.00  0.00    -0.574 OA 
HETATM   18  C   UNL     1     -11.046  12.450  69.053  1.00  0.00    -0.288 A  
HETATM   19  O   UNL     1     -12.572  14.755  72.277  1.00  0.00    -0.317 OA 
ENDBRANCH   8  11
ENDBRANCH   4   8
ENDBRANCH   3   4
ENDBRANCH   2   3
TORSDOF 6
ENDMDL
MODEL      177
REMARK 921   NORMALIZED FREE ENERGY PREDICTED BY IDOCK:   -3.39 KCAL/MOL
REMARK 922        TOTAL FREE ENERGY PREDICTED BY IDOCK:   -5.37 KCAL/MOL
REMARK 923 INTER-LIGAND FREE ENERGY PREDICTED BY IDOCK:   -5.42 KCAL/MOL
REMARK 924 INTRA-LIGAND FREE ENERGY PREDICTED BY IDOCK:    0.06 KCAL/MOL
REMARK 927      BINDING AFFINITY PREDICTED BY RF-SCORE:    0.00 PKD
ROOT
HETATM    1  C   UNL     1     -12.329  12.055  64.103  1.00  0.00    -0.452 C  
HETATM    2  C   UNL     1     -12.866  13.011  65.152  1.00  0.00    -0.335 C  
ENDROOT
BRANCH   2   3
HETATM    3  C   UNL     1     -11.995  13.127  66.407  1.00  0.00    -0.402 C  
BRANCH   3   4
HETATM    4  N   UNL     1     -11.650  14.535  66.865  1.00  0.00    -0.375 N  
BRANCH   4   5
HETATM    5  C   UNL     1     -11.051  14.535  68.251  1.00  0.00    -0.261 C  
BRANCH   5   6
HETATM    6  C   UNL     1     -11.451  13.358  69.147  1.00  0.00    -0.351 C  
HETATM    7  C   UNL     1     -12.060  13.764  70.479  1.00  0.00    -0.416 C  
ENDBRANCH   5   6
ENDBRANCH   4   5
BRANCH   4   8
HETATM    8  S   UNL     1     -10.644  15.325  65.662  1.00  0.00    -0.389 S  
HETATM    9  O   UNL     1     -10.028  14.346  64.797  1.00  0.00    -0.269 OA 
HETATM   10  O   UNL     1     -11.404  16.427  65.110  1.00  0.00    -0.107 OA 
BRANCH   8  11
HETATM   11  C   UNL     1      -9.280  16.008  66.596  1.00  0.00    -0.249 A  
HETATM   12  C   UNL     1      -9.450  17.243  67.238  1.00  0.00    -0.250 A  
HETATM   13  C   UNL     1      -8.493  17.691  68.156  1.00  0.00    -0.260 A  
HETATM   14  C   UNL     1      -7.366  16.905  68.430  1.00  0.00    -0.202 A  
HETATM   15  C   UNL     1      -6.348  17.298  69.441  1.00  0.00    -0.244 C  
HETATM   16  C   UNL     1      -7.214  15.661  67.798  1.00  0.00    -0.175 A  
HETATM   17  O   UNL     1      -6.127  18.626  69.500  1.00  0.00    -0.252 OA 
HETATM   18  C   UNL     1      -8.168  15.212  66.880  1.00  0.00    -0.234 A  
HETATM   19  O   UNL     1      -5.737  16.490  70.119  1.00  0.00    -0.201 OA 
ENDBRANCH   8  11
ENDBRANCH   4   8
ENDBRANCH   3   4
ENDBRANCH   2   3
TORSDOF 6
ENDMDL
MODEL      178
REMARK 921   NORMALIZED FREE ENERGY PREDICTED BY IDOCK:   -3.39 KCAL/MOL
REMARK 922        TOTAL FREE ENERGY PREDICTED BY IDOCK:   -5.36 KCAL/MOL
REMARK 923 INTER-LIGAND FREE ENERGY PREDICTED BY IDOCK:   -4.58 KCAL/MOL
REMARK 924 INTRA-LIGAND FREE ENERGY PREDICTED BY IDOCK:   -0.78 KCAL/MOL
REMARK 927      BINDING AFFINITY PREDICTED BY RF-SCORE:    0.00 PKD
ROOT
HETATM    1  C   UNL     1     -14.070   7.428  71.570  1.00  0.00    -0.541 C  
HETATM    2  C   UNL     1     -12.671   6.851  71.680  1.00  0.00    -0.396 C  
ENDROOT
BRANCH   2   3
HETATM    3  C   UNL     1     -11.613   7.601  70.866  1.00  0.00    -0.280 C  
BRANCH   3   4
HETATM    4  N   UNL     1     -10.244   6.946  70.766  1.00  0.00    -0.195 N  
BRANCH   4   5
HETATM    5  C   UNL     1     -10.126   6.095  69.525  1.00  0.00    -0.185 C  
BRANCH   5   6
HETATM    6  C   UNL     1     -11.203   6.323  68.459  1.00  0.00    -0.305 C  
HETATM    7  C   UNL     1     -10.692   6.256  67.029  1.00  0.00    -0.435 C  
ENDBRANCH   5   6
ENDBRANCH   4   5
BRANCH   4   8
HETATM    8  S   UNL     1      -8.987   8.164  70.907  1.00  0.00    -0.153 S  
HETATM    9  O   UNL     1      -9.391   9.204  71.825  1.00  0.00    -0.328 OA 
HETATM   10  O   UNL     1      -7.725   7.474  71.080  1.00  0.00    -0.087 OA 
BRANCH   8  11
HETATM   11  C   UNL     1      -8.961   8.970  69.311  1.00  0.00    -0.144 A  
HETATM   12  C   UNL     1      -8.058   8.518  68.338  1.00  0.00    -0.122 A  
HETATM   13  C   UNL     1      -8.169   8.968  67.018  1.00  0.00    -0.109 A  
HETATM   14  C   UNL     1      -9.183   9.871  66.671  1.00  0.00    -0.185 A  
HETATM   15  C   UNL     1      -9.390  10.336  65.273  1.00  0.00    -0.215 C  
HETATM   16  C   UNL     1     -10.094  10.304  67.646  1.00  0.00    -0.229 A  
HETATM   17  O   UNL     1      -8.246  10.490  64.578  1.00  0.00    -0.154 OA 
HETATM   18  C   UNL     1      -9.985   9.856  68.966  1.00  0.00    -0.193 A  
HETATM   19  O   UNL     1     -10.488  10.600  64.815  1.00  0.00    -0.325 OA 
ENDBRANCH   8  11
ENDBRANCH   4   8
ENDBRANCH   3   4
ENDBRANCH   2   3
TORSDOF 6
ENDMDL
MODEL      179
REMARK 921   NORMALIZED FREE ENERGY PREDICTED BY IDOCK:   -3.39 KCAL/MOL
REMARK 922        TOTAL FREE ENERGY PREDICTED BY IDOCK:   -5.36 KCAL/MOL
REMARK 923 INTER-LIGAND FREE ENERGY PREDICTED BY IDOCK:   -4.76 KCAL/MOL
REMARK 924 INTRA-LIGAND FREE ENERGY PREDICTED BY IDOCK:   -0.60 KCAL/MOL
REMARK 927      BINDING AFFINITY PREDICTED BY RF-SCORE:    0.00 PKD
ROOT
HETATM    1  C   UNL     1      -7.236   9.613  69.898  1.00  0.00    -0.106 C  
HETATM    2  C   UNL     1      -8.495   8.789  69.701  1.00  0.00    -0.129 C  
ENDROOT
BRANCH   2   3
HETATM    3  C   UNL     1      -8.871   7.913  70.900  1.00  0.00    -0.138 C  
BRANCH   3   4
HETATM    4  N   UNL     1     -10.328   7.950  71.335  1.00  0.00    -0.196 N  
BRANCH   4   5
HETATM    5  C   UNL     1     -11.078   9.074  70.663  1.00  0.00    -0.265 C  
BRANCH   5   6
HETATM    6  C   UNL     1     -11.926   9.953  71.588  1.00  0.00    -0.427 C  
HETATM    7  C   UNL     1     -13.337  10.213  71.085  1.00  0.00    -0.372 C  
ENDBRANCH   5   6
ENDBRANCH   4   5
BRANCH   4   8
HETATM    8  S   UNL     1     -11.061   6.372  71.099  1.00  0.00    -0.304 S  
HETATM    9  O   UNL     1     -10.457   5.397  71.975  1.00  0.00    -0.209 OA 
HETATM   10  O   UNL     1     -12.498   6.557  71.075  1.00  0.00    -0.252 OA 
BRANCH   8  11
HETATM   11  C   UNL     1     -10.542   5.876  69.461  1.00  0.00    -0.308 A  
HETATM   12  C   UNL     1      -9.725   4.746  69.322  1.00  0.00    -0.266 A  
HETATM   13  C   UNL     1      -9.492   4.202  68.054  1.00  0.00    -0.215 A  
HETATM   14  C   UNL     1     -10.076   4.790  66.924  1.00  0.00    -0.246 A  
HETATM   15  C   UNL     1      -9.918   4.220  65.559  1.00  0.00    -0.225 C  
HETATM   16  C   UNL     1     -10.909   5.909  67.074  1.00  0.00    -0.379 A  
HETATM   17  O   UNL     1      -8.707   3.673  65.337  1.00  0.00    -0.113 OA 
HETATM   18  C   UNL     1     -11.142   6.455  68.340  1.00  0.00    -0.374 A  
HETATM   19  O   UNL     1     -10.785   4.286  64.706  1.00  0.00    -0.236 OA 
ENDBRANCH   8  11
ENDBRANCH   4   8
ENDBRANCH   3   4
ENDBRANCH   2   3
TORSDOF 6
ENDMDL
MODEL      180
REMARK 921   NORMALIZED FREE ENERGY PREDICTED BY IDOCK:   -3.38 KCAL/MOL
REMARK 922        TOTAL FREE ENERGY PREDICTED BY IDOCK:   -5.35 KCAL/MOL
REMARK 923 INTER-LIGAND FREE ENERGY PREDICTED BY IDOCK:   -4.74 KCAL/MOL
REMARK 924 INTRA-LIGAND FREE ENERGY PREDICTED BY IDOCK:   -0.61 KCAL/MOL
REMARK 927      BINDING AFFINITY PREDICTED BY RF-SCORE:    0.00 PKD
ROOT
HETATM    1  C   UNL     1      -7.627   6.937  70.617  1.00  0.00    -0.094 C  
HETATM    2  C   UNL     1      -7.450   7.026  69.112  1.00  0.00    -0.095 C  
ENDROOT
BRANCH   2   3
HETATM    3  C   UNL     1      -8.169   8.211  68.460  1.00  0.00    -0.125 C  
BRANCH   3   4
HETATM    4  N   UNL     1      -8.646   9.312  69.395  1.00  0.00    -0.135 N  
BRANCH   4   5
HETATM    5  C   UNL     1      -8.082  10.655  69.000  1.00  0.00    -0.148 C  
BRANCH   5   6
HETATM    6  C   UNL     1      -7.049  10.636  67.870  1.00  0.00    -0.086 C  
HETATM    7  C   UNL     1      -7.009  11.906  67.036  1.00  0.00    -0.116 C  
ENDBRANCH   5   6
ENDBRANCH   4   5
BRANCH   4   8
HETATM    8  S   UNL     1     -10.399   9.287  69.500  1.00  0.00    -0.224 S  
HETATM    9  O   UNL     1     -10.905   7.967  69.202  1.00  0.00    -0.152 OA 
HETATM   10  O   UNL     1     -10.774   9.964  70.724  1.00  0.00    -0.306 OA 
BRANCH   8  11
HETATM   11  C   UNL     1     -10.946  10.290  68.125  1.00  0.00    -0.274 A  
HETATM   12  C   UNL     1     -11.598  11.503  68.388  1.00  0.00    -0.375 A  
HETATM   13  C   UNL     1     -11.832  12.411  67.349  1.00  0.00    -0.360 A  
HETATM   14  C   UNL     1     -11.414  12.106  66.047  1.00  0.00    -0.427 A  
HETATM   15  C   UNL     1     -11.577  13.057  64.915  1.00  0.00    -0.326 C  
HETATM   16  C   UNL     1     -10.745  10.898  65.796  1.00  0.00    -0.179 A  
HETATM   17  O   UNL     1     -12.707  13.787  64.979  1.00  0.00    -0.630 OA 
HETATM   18  C   UNL     1     -10.512   9.989  66.832  1.00  0.00    -0.284 A  
HETATM   19  O   UNL     1     -10.786  13.134  63.992  1.00  0.00    -0.399 OA 
ENDBRANCH   8  11
ENDBRANCH   4   8
ENDBRANCH   3   4
ENDBRANCH   2   3
TORSDOF 6
ENDMDL
MODEL      181
REMARK 921   NORMALIZED FREE ENERGY PREDICTED BY IDOCK:   -3.36 KCAL/MOL
REMARK 922        TOTAL FREE ENERGY PREDICTED BY IDOCK:   -5.33 KCAL/MOL
REMARK 923 INTER-LIGAND FREE ENERGY PREDICTED BY IDOCK:   -4.47 KCAL/MOL
REMARK 924 INTRA-LIGAND FREE ENERGY PREDICTED BY IDOCK:   -0.85 KCAL/MOL
REMARK 927      BINDING AFFINITY PREDICTED BY RF-SCORE:    0.00 PKD
ROOT
HETATM    1  C   UNL     1      -9.322   4.229  68.148  1.00  0.00    -0.204 C  
HETATM    2  C   UNL     1     -10.304   5.230  68.728  1.00  0.00    -0.206 C  
ENDROOT
BRANCH   2   3
HETATM    3  C   UNL     1      -9.654   6.354  69.541  1.00  0.00    -0.144 C  
BRANCH   3   4
HETATM    4  N   UNL     1      -9.725   7.751  68.945  1.00  0.00    -0.158 N  
BRANCH   4   5
HETATM    5  C   UNL     1     -10.517   7.765  67.660  1.00  0.00    -0.239 C  
BRANCH   5   6
HETATM    6  C   UNL     1      -9.744   8.191  66.408  1.00  0.00    -0.275 C  
HETATM    7  C   UNL     1      -8.232   8.157  66.564  1.00  0.00    -0.107 C  
ENDBRANCH   5   6
ENDBRANCH   4   5
BRANCH   4   8
HETATM    8  S   UNL     1     -10.316   8.885  70.149  1.00  0.00    -0.217 S  
HETATM    9  O   UNL     1     -11.642   8.515  70.584  1.00  0.00    -0.270 OA 
HETATM   10  O   UNL     1      -9.253   9.095  71.111  1.00  0.00    -0.250 OA 
BRANCH   8  11
HETATM   11  C   UNL     1     -10.555  10.411  69.249  1.00  0.00    -0.232 A  
HETATM   12  C   UNL     1     -11.798  11.056  69.327  1.00  0.00    -0.411 A  
HETATM   13  C   UNL     1     -11.945  12.355  68.827  1.00  0.00    -0.276 A  
HETATM   14  C   UNL     1     -10.848  13.009  68.251  1.00  0.00    -0.267 A  
HETATM   15  C   UNL     1     -10.926  14.411  67.761  1.00  0.00    -0.274 C  
HETATM   16  C   UNL     1      -9.603  12.364  68.195  1.00  0.00    -0.218 A  
HETATM   17  O   UNL     1     -12.115  14.729  67.212  1.00  0.00    -0.307 OA 
HETATM   18  C   UNL     1      -9.455  11.066  68.692  1.00  0.00    -0.197 A  
HETATM   19  O   UNL     1      -9.986  15.186  67.808  1.00  0.00    -0.223 OA 
ENDBRANCH   8  11
ENDBRANCH   4   8
ENDBRANCH   3   4
ENDBRANCH   2   3
TORSDOF 6
ENDMDL
MODEL      182
REMARK 921   NORMALIZED FREE ENERGY PREDICTED BY IDOCK:   -3.36 KCAL/MOL
REMARK 922        TOTAL FREE ENERGY PREDICTED BY IDOCK:   -5.32 KCAL/MOL
REMARK 923 INTER-LIGAND FREE ENERGY PREDICTED BY IDOCK:   -4.46 KCAL/MOL
REMARK 924 INTRA-LIGAND FREE ENERGY PREDICTED BY IDOCK:   -0.87 KCAL/MOL
REMARK 927      BINDING AFFINITY PREDICTED BY RF-SCORE:    0.00 PKD
ROOT
HETATM    1  C   UNL     1     -12.386  12.151  70.680  1.00  0.00    -0.385 C  
HETATM    2  C   UNL     1     -12.780  10.688  70.605  1.00  0.00    -0.445 C  
ENDROOT
BRANCH   2   3
HETATM    3  C   UNL     1     -12.096   9.795  71.645  1.00  0.00    -0.394 C  
BRANCH   3   4
HETATM    4  N   UNL     1     -11.142   8.739  71.110  1.00  0.00    -0.258 N  
BRANCH   4   5
HETATM    5  C   UNL     1      -9.712   9.222  71.131  1.00  0.00    -0.257 C  
BRANCH   5   6
HETATM    6  C   UNL     1      -9.128   9.629  69.775  1.00  0.00    -0.232 C  
HETATM    7  C   UNL     1      -9.915   9.122  68.577  1.00  0.00    -0.192 C  
ENDBRANCH   5   6
ENDBRANCH   4   5
BRANCH   4   8
HETATM    8  S   UNL     1     -11.387   7.225  71.965  1.00  0.00    -0.270 S  
HETATM    9  O   UNL     1     -11.013   7.361  73.353  1.00  0.00    -0.378 OA 
HETATM   10  O   UNL     1     -12.694   6.721  71.597  1.00  0.00    -0.366 OA 
BRANCH   8  11
HETATM   11  C   UNL     1     -10.158   6.119  71.283  1.00  0.00    -0.188 A  
HETATM   12  C   UNL     1      -9.080   5.725  72.088  1.00  0.00    -0.147 A  
HETATM   13  C   UNL     1      -8.234   4.692  71.668  1.00  0.00    -0.104 A  
HETATM   14  C   UNL     1      -8.466   4.055  70.442  1.00  0.00    -0.093 A  
HETATM   15  C   UNL     1      -7.641   2.910  69.972  1.00  0.00    -0.043 C  
HETATM   16  C   UNL     1      -9.559   4.442  69.651  1.00  0.00    -0.275 A  
HETATM   17  O   UNL     1      -6.341   3.002  70.313  1.00  0.00    -0.026 OA 
HETATM   18  C   UNL     1     -10.404   5.475  70.069  1.00  0.00    -0.358 A  
HETATM   19  O   UNL     1      -8.090   1.998  69.300  1.00  0.00    -0.045 OA 
ENDBRANCH   8  11
ENDBRANCH   4   8
ENDBRANCH   3   4
ENDBRANCH   2   3
TORSDOF 6
ENDMDL
MODEL      183
REMARK 921   NORMALIZED FREE ENERGY PREDICTED BY IDOCK:   -3.35 KCAL/MOL
REMARK 922        TOTAL FREE ENERGY PREDICTED BY IDOCK:   -5.32 KCAL/MOL
REMARK 923 INTER-LIGAND FREE ENERGY PREDICTED BY IDOCK:   -4.73 KCAL/MOL
REMARK 924 INTRA-LIGAND FREE ENERGY PREDICTED BY IDOCK:   -0.58 KCAL/MOL
REMARK 927      BINDING AFFINITY PREDICTED BY RF-SCORE:    0.00 PKD
ROOT
HETATM    1  C   UNL     1      -6.775   9.578  65.718  1.00  0.00    -0.083 C  
HETATM    2  C   UNL     1      -7.093  10.837  66.503  1.00  0.00    -0.138 C  
ENDROOT
BRANCH   2   3
HETATM    3  C   UNL     1      -8.094  10.633  67.645  1.00  0.00    -0.107 C  
BRANCH   3   4
HETATM    4  N   UNL     1      -9.402  11.401  67.544  1.00  0.00    -0.162 N  
BRANCH   4   5
HETATM    5  C   UNL     1      -9.362  12.419  66.430  1.00  0.00    -0.219 C  
BRANCH   5   6
HETATM    6  C   UNL     1      -9.884  13.815  66.786  1.00  0.00    -0.275 C  
HETATM    7  C   UNL     1      -8.795  14.835  67.075  1.00  0.00    -0.258 C  
ENDBRANCH   5   6
ENDBRANCH   4   5
BRANCH   4   8
HETATM    8  S   UNL     1     -10.746  10.278  67.424  1.00  0.00    -0.269 S  
HETATM    9  O   UNL     1     -12.003  10.987  67.460  1.00  0.00    -0.529 OA 
HETATM   10  O   UNL     1     -10.449   9.353  66.349  1.00  0.00    -0.204 OA 
BRANCH   8  11
HETATM   11  C   UNL     1     -10.709   9.366  68.962  1.00  0.00    -0.187 A  
HETATM   12  C   UNL     1     -10.924  10.056  70.164  1.00  0.00    -0.368 A  
HETATM   13  C   UNL     1     -11.128   9.344  71.352  1.00  0.00    -0.450 A  
HETATM   14  C   UNL     1     -11.116   7.943  71.337  1.00  0.00    -0.275 A  
HETATM   15  C   UNL     1     -11.389   7.133  72.554  1.00  0.00    -0.279 C  
HETATM   16  C   UNL     1     -10.920   7.261  70.127  1.00  0.00    -0.280 A  
HETATM   17  O   UNL     1     -10.913   7.681  73.689  1.00  0.00    -0.301 OA 
HETATM   18  C   UNL     1     -10.715   7.970  68.939  1.00  0.00    -0.091 A  
HETATM   19  O   UNL     1     -11.949   6.051  72.521  1.00  0.00    -0.258 OA 
ENDBRANCH   8  11
ENDBRANCH   4   8
ENDBRANCH   3   4
ENDBRANCH   2   3
TORSDOF 6
ENDMDL
MODEL      184
REMARK 921   NORMALIZED FREE ENERGY PREDICTED BY IDOCK:   -3.35 KCAL/MOL
REMARK 922        TOTAL FREE ENERGY PREDICTED BY IDOCK:   -5.31 KCAL/MOL
REMARK 923 INTER-LIGAND FREE ENERGY PREDICTED BY IDOCK:   -4.16 KCAL/MOL
REMARK 924 INTRA-LIGAND FREE ENERGY PREDICTED BY IDOCK:   -1.14 KCAL/MOL
REMARK 927      BINDING AFFINITY PREDICTED BY RF-SCORE:    0.00 PKD
ROOT
HETATM    1  C   UNL     1      -7.558  10.711  66.475  1.00  0.00    -0.134 C  
HETATM    2  C   UNL     1      -8.920  10.996  65.869  1.00  0.00    -0.208 C  
ENDROOT
BRANCH   2   3
HETATM    3  C   UNL     1      -9.954   9.887  66.089  1.00  0.00    -0.263 C  
BRANCH   3   4
HETATM    4  N   UNL     1      -9.979   9.247  67.468  1.00  0.00    -0.189 N  
BRANCH   4   5
HETATM    5  C   UNL     1     -11.146   9.745  68.287  1.00  0.00    -0.102 C  
BRANCH   5   6
HETATM    6  C   UNL     1     -10.783  10.473  69.585  1.00  0.00    -0.302 C  
HETATM    7  C   UNL     1     -11.403   9.871  70.835  1.00  0.00    -0.446 C  
ENDBRANCH   5   6
ENDBRANCH   4   5
BRANCH   4   8
HETATM    8  S   UNL     1      -9.920   7.499  67.316  1.00  0.00    -0.235 S  
HETATM    9  O   UNL     1     -11.184   6.989  66.840  1.00  0.00    -0.302 OA 
HETATM   10  O   UNL     1      -8.684   7.160  66.641  1.00  0.00    -0.118 OA 
BRANCH   8  11
HETATM   11  C   UNL     1      -9.810   6.905  68.999  1.00  0.00    -0.152 A  
HETATM   12  C   UNL     1      -8.683   7.238  69.764  1.00  0.00    -0.142 A  
HETATM   13  C   UNL     1      -8.672   6.987  71.140  1.00  0.00    -0.137 A  
HETATM   14  C   UNL     1      -9.788   6.401  71.752  1.00  0.00    -0.178 A  
HETATM   15  C   UNL     1      -9.860   6.168  73.219  1.00  0.00    -0.166 C  
HETATM   16  C   UNL     1     -10.920   6.088  70.983  1.00  0.00    -0.350 A  
HETATM   17  O   UNL     1      -8.680   5.827  73.773  1.00  0.00    -0.121 OA 
HETATM   18  C   UNL     1     -10.933   6.338  69.608  1.00  0.00    -0.440 A  
HETATM   19  O   UNL     1     -10.899   6.232  73.853  1.00  0.00    -0.179 OA 
ENDBRANCH   8  11
ENDBRANCH   4   8
ENDBRANCH   3   4
ENDBRANCH   2   3
TORSDOF 6
ENDMDL
MODEL      185
REMARK 921   NORMALIZED FREE ENERGY PREDICTED BY IDOCK:   -3.34 KCAL/MOL
REMARK 922        TOTAL FREE ENERGY PREDICTED BY IDOCK:   -5.29 KCAL/MOL
REMARK 923 INTER-LIGAND FREE ENERGY PREDICTED BY IDOCK:   -5.02 KCAL/MOL
REMARK 924 INTRA-LIGAND FREE ENERGY PREDICTED BY IDOCK:   -0.27 KCAL/MOL
REMARK 927      BINDING AFFINITY PREDICTED BY RF-SCORE:    0.00 PKD
ROOT
HETATM    1  C   UNL     1      -9.085   6.891  65.893  1.00  0.00    -0.045 C  
HETATM    2  C   UNL     1      -8.990   7.766  67.128  1.00  0.00    -0.138 C  
ENDROOT
BRANCH   2   3
HETATM    3  C   UNL     1     -10.048   8.872  67.202  1.00  0.00    -0.249 C  
BRANCH   3   4
HETATM    4  N   UNL     1      -9.579  10.282  66.880  1.00  0.00    -0.168 N  
BRANCH   4   5
HETATM    5  C   UNL     1     -10.629  11.053  66.117  1.00  0.00    -0.228 C  
BRANCH   5   6
HETATM    6  C   UNL     1     -10.516  10.995  64.590  1.00  0.00    -0.398 C  
HETATM    7  C   UNL     1     -10.877  12.293  63.886  1.00  0.00    -0.464 C  
ENDBRANCH   5   6
ENDBRANCH   4   5
BRANCH   4   8
HETATM    8  S   UNL     1      -9.044  11.084  68.348  1.00  0.00    -0.166 S  
HETATM    9  O   UNL     1      -7.769  10.559  68.775  1.00  0.00    -0.093 OA 
HETATM   10  O   UNL     1      -9.234  12.508  68.162  1.00  0.00    -0.200 OA 
BRANCH   8  11
HETATM   11  C   UNL     1     -10.192  10.534  69.604  1.00  0.00    -0.168 A  
HETATM   12  C   UNL     1     -11.467  11.113  69.658  1.00  0.00    -0.383 A  
HETATM   13  C   UNL     1     -12.457  10.551  70.471  1.00  0.00    -0.433 A  
HETATM   14  C   UNL     1     -12.171   9.410  71.232  1.00  0.00    -0.425 A  
HETATM   15  C   UNL     1     -13.199   8.730  72.065  1.00  0.00    -0.395 C  
HETATM   16  C   UNL     1     -10.898   8.825  71.158  1.00  0.00    -0.335 A  
HETATM   17  O   UNL     1     -14.076   9.576  72.641  1.00  0.00    -0.339 OA 
HETATM   18  C   UNL     1      -9.907   9.385  70.347  1.00  0.00    -0.313 A  
HETATM   19  O   UNL     1     -13.217   7.526  72.250  1.00  0.00    -0.082 OA 
ENDBRANCH   8  11
ENDBRANCH   4   8
ENDBRANCH   3   4
ENDBRANCH   2   3
TORSDOF 6
ENDMDL
MODEL      186
REMARK 921   NORMALIZED FREE ENERGY PREDICTED BY IDOCK:   -3.33 KCAL/MOL
REMARK 922        TOTAL FREE ENERGY PREDICTED BY IDOCK:   -5.29 KCAL/MOL
REMARK 923 INTER-LIGAND FREE ENERGY PREDICTED BY IDOCK:   -4.69 KCAL/MOL
REMARK 924 INTRA-LIGAND FREE ENERGY PREDICTED BY IDOCK:   -0.60 KCAL/MOL
REMARK 927      BINDING AFFINITY PREDICTED BY RF-SCORE:    0.00 PKD
ROOT
HETATM    1  C   UNL     1     -13.017  10.585  70.632  1.00  0.00    -0.362 C  
HETATM    2  C   UNL     1     -12.845   9.585  71.760  1.00  0.00    -0.496 C  
ENDROOT
BRANCH   2   3
HETATM    3  C   UNL     1     -11.978   8.373  71.404  1.00  0.00    -0.297 C  
BRANCH   3   4
HETATM    4  N   UNL     1     -10.652   8.248  72.139  1.00  0.00    -0.284 N  
BRANCH   4   5
HETATM    5  C   UNL     1     -10.614   7.011  73.003  1.00  0.00    -0.292 C  
BRANCH   5   6
HETATM    6  C   UNL     1     -11.557   5.878  72.584  1.00  0.00    -0.289 C  
HETATM    7  C   UNL     1     -11.343   4.575  73.337  1.00  0.00    -0.376 C  
ENDBRANCH   5   6
ENDBRANCH   4   5
BRANCH   4   8
HETATM    8  S   UNL     1      -9.323   8.351  70.996  1.00  0.00    -0.185 S  
HETATM    9  O   UNL     1      -9.307   9.645  70.355  1.00  0.00    -0.251 OA 
HETATM   10  O   UNL     1      -8.140   7.835  71.654  1.00  0.00    -0.097 OA 
BRANCH   8  11
HETATM   11  C   UNL     1      -9.767   7.215  69.688  1.00  0.00    -0.158 A  
HETATM   12  C   UNL     1     -10.210   7.733  68.462  1.00  0.00    -0.227 A  
HETATM   13  C   UNL     1     -10.344   6.889  67.354  1.00  0.00    -0.297 A  
HETATM   14  C   UNL     1     -10.035   5.527  67.472  1.00  0.00    -0.189 A  
HETATM   15  C   UNL     1     -10.096   4.595  66.315  1.00  0.00    -0.265 C  
HETATM   16  C   UNL     1      -9.574   5.021  68.697  1.00  0.00    -0.204 A  
HETATM   17  O   UNL     1     -11.096   4.865  65.453  1.00  0.00    -0.078 OA 
HETATM   18  C   UNL     1      -9.440   5.862  69.806  1.00  0.00    -0.178 A  
HETATM   19  O   UNL     1      -9.344   3.645  66.185  1.00  0.00    -0.163 OA 
ENDBRANCH   8  11
ENDBRANCH   4   8
ENDBRANCH   3   4
ENDBRANCH   2   3
TORSDOF 6
ENDMDL
MODEL      187
REMARK 921   NORMALIZED FREE ENERGY PREDICTED BY IDOCK:   -3.31 KCAL/MOL
REMARK 922        TOTAL FREE ENERGY PREDICTED BY IDOCK:   -5.26 KCAL/MOL
REMARK 923 INTER-LIGAND FREE ENERGY PREDICTED BY IDOCK:   -4.39 KCAL/MOL
REMARK 924 INTRA-LIGAND FREE ENERGY PREDICTED BY IDOCK:   -0.87 KCAL/MOL
REMARK 927      BINDING AFFINITY PREDICTED BY RF-SCORE:    0.00 PKD
ROOT
HETATM    1  C   UNL     1     -11.282   6.280  69.396  1.00  0.00    -0.489 C  
HETATM    2  C   UNL     1     -10.981   6.208  67.910  1.00  0.00    -0.399 C  
ENDROOT
BRANCH   2   3
HETATM    3  C   UNL     1      -9.586   6.708  67.522  1.00  0.00    -0.126 C  
BRANCH   3   4
HETATM    4  N   UNL     1      -9.161   8.049  68.101  1.00  0.00    -0.134 N  
BRANCH   4   5
HETATM    5  C   UNL     1      -7.939   7.911  68.976  1.00  0.00    -0.122 C  
BRANCH   5   6
HETATM    6  C   UNL     1      -8.188   8.005  70.485  1.00  0.00    -0.118 C  
HETATM    7  C   UNL     1      -9.107   9.144  70.897  1.00  0.00    -0.316 C  
ENDBRANCH   5   6
ENDBRANCH   4   5
BRANCH   4   8
HETATM    8  S   UNL     1      -8.976   9.224  66.810  1.00  0.00    -0.134 S  
HETATM    9  O   UNL     1      -7.577   9.448  66.528  1.00  0.00    -0.093 OA 
HETATM   10  O   UNL     1      -9.896   8.862  65.752  1.00  0.00    -0.226 OA 
BRANCH   8  11
HETATM   11  C   UNL     1      -9.535  10.766  67.523  1.00  0.00    -0.154 A  
HETATM   12  C   UNL     1      -8.588  11.754  67.831  1.00  0.00    -0.156 A  
HETATM   13  C   UNL     1      -9.008  13.044  68.172  1.00  0.00    -0.198 A  
HETATM   14  C   UNL     1     -10.376  13.347  68.204  1.00  0.00    -0.249 A  
HETATM   15  C   UNL     1     -10.881  14.715  68.496  1.00  0.00    -0.250 C  
HETATM   16  C   UNL     1     -11.316  12.359  67.875  1.00  0.00    -0.344 A  
HETATM   17  O   UNL     1     -10.142  15.384  69.403  1.00  0.00    -0.236 OA 
HETATM   18  C   UNL     1     -10.898  11.068  67.536  1.00  0.00    -0.314 A  
HETATM   19  O   UNL     1     -11.896  15.170  67.999  1.00  0.00    -0.331 OA 
ENDBRANCH   8  11
ENDBRANCH   4   8
ENDBRANCH   3   4
ENDBRANCH   2   3
TORSDOF 6
ENDMDL
MODEL      188
REMARK 921   NORMALIZED FREE ENERGY PREDICTED BY IDOCK:   -3.31 KCAL/MOL
REMARK 922        TOTAL FREE ENERGY PREDICTED BY IDOCK:   -5.25 KCAL/MOL
REMARK 923 INTER-LIGAND FREE ENERGY PREDICTED BY IDOCK:   -4.67 KCAL/MOL
REMARK 924 INTRA-LIGAND FREE ENERGY PREDICTED BY IDOCK:   -0.59 KCAL/MOL
REMARK 927      BINDING AFFINITY PREDICTED BY RF-SCORE:    0.00 PKD
ROOT
HETATM    1  C   UNL     1     -10.755  15.730  70.578  1.00  0.00    -0.253 C  
HETATM    2  C   UNL     1     -11.693  15.469  69.414  1.00  0.00    -0.382 C  
ENDROOT
BRANCH   2   3
HETATM    3  C   UNL     1     -11.565  14.071  68.802  1.00  0.00    -0.331 C  
BRANCH   3   4
HETATM    4  N   UNL     1     -11.280  14.008  67.309  1.00  0.00    -0.302 N  
BRANCH   4   5
HETATM    5  C   UNL     1      -9.918  14.572  66.983  1.00  0.00    -0.255 C  
BRANCH   5   6
HETATM    6  C   UNL     1      -9.897  15.703  65.950  1.00  0.00    -0.382 C  
HETATM    7  C   UNL     1     -10.172  17.082  66.527  1.00  0.00    -0.321 C  
ENDBRANCH   5   6
ENDBRANCH   4   5
BRANCH   4   8
HETATM    8  S   UNL     1     -11.524  12.371  66.723  1.00  0.00    -0.371 S  
HETATM    9  O   UNL     1     -12.224  11.580  67.707  1.00  0.00    -0.560 OA 
HETATM   10  O   UNL     1     -12.012  12.462  65.362  1.00  0.00    -0.408 OA 
BRANCH   8  11
HETATM   11  C   UNL     1      -9.883  11.662  66.673  1.00  0.00    -0.200 A  
HETATM   12  C   UNL     1      -9.257  11.315  67.879  1.00  0.00    -0.157 A  
HETATM   13  C   UNL     1      -8.082  10.555  67.865  1.00  0.00    -0.107 A  
HETATM   14  C   UNL     1      -7.533  10.143  66.644  1.00  0.00    -0.106 A  
HETATM   15  C   UNL     1      -6.323   9.281  66.567  1.00  0.00    -0.066 C  
HETATM   16  C   UNL     1      -8.176  10.477  65.442  1.00  0.00    -0.152 A  
HETATM   17  O   UNL     1      -5.413   9.535  67.528  1.00  0.00    -0.037 OA 
HETATM   18  C   UNL     1      -9.349  11.237  65.454  1.00  0.00    -0.232 A  
HETATM   19  O   UNL     1      -6.149   8.455  65.687  1.00  0.00    -0.044 OA 
ENDBRANCH   8  11
ENDBRANCH   4   8
ENDBRANCH   3   4
ENDBRANCH   2   3
TORSDOF 6
ENDMDL
MODEL      189
REMARK 921   NORMALIZED FREE ENERGY PREDICTED BY IDOCK:   -3.31 KCAL/MOL
REMARK 922        TOTAL FREE ENERGY PREDICTED BY IDOCK:   -5.25 KCAL/MOL
REMARK 923 INTER-LIGAND FREE ENERGY PREDICTED BY IDOCK:   -4.73 KCAL/MOL
REMARK 924 INTRA-LIGAND FREE ENERGY PREDICTED BY IDOCK:   -0.52 KCAL/MOL
REMARK 927      BINDING AFFINITY PREDICTED BY RF-SCORE:    0.00 PKD
ROOT
HETATM    1  C   UNL     1     -10.983  15.054  64.415  1.00  0.00    -0.046 C  
HETATM    2  C   UNL     1     -10.188  15.776  65.487  1.00  0.00    -0.407 C  
ENDROOT
BRANCH   2   3
HETATM    3  C   UNL     1     -10.667  15.509  66.917  1.00  0.00    -0.317 C  
BRANCH   3   4
HETATM    4  N   UNL     1     -10.225  14.198  67.547  1.00  0.00    -0.240 N  
BRANCH   4   5
HETATM    5  C   UNL     1      -9.321  14.431  68.734  1.00  0.00    -0.150 C  
BRANCH   5   6
HETATM    6  C   UNL     1      -9.071  15.897  69.100  1.00  0.00    -0.255 C  
HETATM    7  C   UNL     1      -7.617  16.329  68.993  1.00  0.00    -0.219 C  
ENDBRANCH   5   6
ENDBRANCH   4   5
BRANCH   4   8
HETATM    8  S   UNL     1     -11.629  13.209  67.913  1.00  0.00    -0.355 S  
HETATM    9  O   UNL     1     -12.134  13.516  69.230  1.00  0.00    -0.322 OA 
HETATM   10  O   UNL     1     -12.502  13.244  66.758  1.00  0.00    -0.259 OA 
BRANCH   8  11
HETATM   11  C   UNL     1     -10.982  11.548  68.065  1.00  0.00    -0.231 A  
HETATM   12  C   UNL     1     -10.918  10.959  69.335  1.00  0.00    -0.304 A  
HETATM   13  C   UNL     1     -10.636   9.594  69.460  1.00  0.00    -0.247 A  
HETATM   14  C   UNL     1     -10.416   8.819  68.313  1.00  0.00    -0.236 A  
HETATM   15  C   UNL     1     -10.175   7.353  68.378  1.00  0.00    -0.183 C  
HETATM   16  C   UNL     1     -10.501   9.413  67.045  1.00  0.00    -0.302 A  
HETATM   17  O   UNL     1      -9.461   6.968  69.454  1.00  0.00    -0.147 OA 
HETATM   18  C   UNL     1     -10.782  10.776  66.918  1.00  0.00    -0.309 A  
HETATM   19  O   UNL     1     -10.546   6.578  67.514  1.00  0.00    -0.205 OA 
ENDBRANCH   8  11
ENDBRANCH   4   8
ENDBRANCH   3   4
ENDBRANCH   2   3
TORSDOF 6
ENDMDL
MODEL      190
REMARK 921   NORMALIZED FREE ENERGY PREDICTED BY IDOCK:   -3.29 KCAL/MOL
REMARK 922        TOTAL FREE ENERGY PREDICTED BY IDOCK:   -5.23 KCAL/MOL
REMARK 923 INTER-LIGAND FREE ENERGY PREDICTED BY IDOCK:   -4.64 KCAL/MOL
REMARK 924 INTRA-LIGAND FREE ENERGY PREDICTED BY IDOCK:   -0.58 KCAL/MOL
REMARK 927      BINDING AFFINITY PREDICTED BY RF-SCORE:    0.00 PKD
ROOT
HETATM    1  C   UNL     1      -6.115   7.740  70.718  1.00  0.00    -0.034 C  
HETATM    2  C   UNL     1      -7.119   6.610  70.845  1.00  0.00    -0.069 C  
ENDROOT
BRANCH   2   3
HETATM    3  C   UNL     1      -8.466   6.882  70.166  1.00  0.00    -0.140 C  
BRANCH   3   4
HETATM    4  N   UNL     1      -9.656   7.103  71.086  1.00  0.00    -0.165 N  
BRANCH   4   5
HETATM    5  C   UNL     1      -9.347   8.123  72.155  1.00  0.00    -0.206 C  
BRANCH   5   6
HETATM    6  C   UNL     1      -9.656   7.693  73.593  1.00  0.00    -0.333 C  
HETATM    7  C   UNL     1     -10.093   6.244  73.733  1.00  0.00    -0.261 C  
ENDBRANCH   5   6
ENDBRANCH   4   5
BRANCH   4   8
HETATM    8  S   UNL     1     -11.082   7.487  70.136  1.00  0.00    -0.191 S  
HETATM    9  O   UNL     1     -10.860   7.178  68.743  1.00  0.00    -0.196 OA 
HETATM   10  O   UNL     1     -12.232   6.955  70.838  1.00  0.00    -0.381 OA 
BRANCH   8  11
HETATM   11  C   UNL     1     -11.185   9.272  70.182  1.00  0.00    -0.208 A  
HETATM   12  C   UNL     1     -10.617  10.010  69.135  1.00  0.00    -0.240 A  
HETATM   13  C   UNL     1     -10.877  11.381  69.024  1.00  0.00    -0.265 A  
HETATM   14  C   UNL     1     -11.706  12.012  69.961  1.00  0.00    -0.346 A  
HETATM   15  C   UNL     1     -12.070  13.451  69.859  1.00  0.00    -0.322 C  
HETATM   16  C   UNL     1     -12.286  11.262  70.994  1.00  0.00    -0.472 A  
HETATM   17  O   UNL     1     -11.080  14.229  69.380  1.00  0.00    -0.258 OA 
HETATM   18  C   UNL     1     -12.027   9.892  71.108  1.00  0.00    -0.473 A  
HETATM   19  O   UNL     1     -13.147  13.892  70.221  1.00  0.00    -0.085 OA 
ENDBRANCH   8  11
ENDBRANCH   4   8
ENDBRANCH   3   4
ENDBRANCH   2   3
TORSDOF 6
ENDMDL
MODEL      191
REMARK 921   NORMALIZED FREE ENERGY PREDICTED BY IDOCK:   -3.26 KCAL/MOL
REMARK 922        TOTAL FREE ENERGY PREDICTED BY IDOCK:   -5.19 KCAL/MOL
REMARK 923 INTER-LIGAND FREE ENERGY PREDICTED BY IDOCK:   -4.89 KCAL/MOL
REMARK 924 INTRA-LIGAND FREE ENERGY PREDICTED BY IDOCK:   -0.30 KCAL/MOL
REMARK 927      BINDING AFFINITY PREDICTED BY RF-SCORE:    0.00 PKD
ROOT
HETATM    1  C   UNL     1     -12.347  14.791  73.747  1.00  0.00    -0.460 C  
HETATM    2  C   UNL     1     -11.827  14.886  72.324  1.00  0.00    -0.372 C  
ENDROOT
BRANCH   2   3
HETATM    3  C   UNL     1     -12.345  13.790  71.387  1.00  0.00    -0.252 C  
BRANCH   3   4
HETATM    4  N   UNL     1     -11.583  13.594  70.086  1.00  0.00    -0.195 N  
BRANCH   4   5
HETATM    5  C   UNL     1     -11.821  12.220  69.508  1.00  0.00    -0.315 C  
BRANCH   5   6
HETATM    6  C   UNL     1     -10.591  11.529  68.909  1.00  0.00    -0.236 C  
HETATM    7  C   UNL     1     -10.914  10.370  67.981  1.00  0.00    -0.347 C  
ENDBRANCH   5   6
ENDBRANCH   4   5
BRANCH   4   8
HETATM    8  S   UNL     1     -11.953  14.901  68.974  1.00  0.00    -0.235 S  
HETATM    9  O   UNL     1     -12.284  14.377  67.670  1.00  0.00    -0.328 OA 
HETATM   10  O   UNL     1     -12.850  15.813  69.654  1.00  0.00    -0.001 OA 
BRANCH   8  11
HETATM   11  C   UNL     1     -10.393  15.740  68.730  1.00  0.00    -0.220 A  
HETATM   12  C   UNL     1     -10.384  16.973  68.063  1.00  0.00    -0.341 A  
HETATM   13  C   UNL     1      -9.225  17.757  68.058  1.00  0.00    -0.273 A  
HETATM   14  C   UNL     1      -8.075  17.307  68.720  1.00  0.00    -0.242 A  
HETATM   15  C   UNL     1      -6.834  18.123  68.804  1.00  0.00    -0.260 C  
HETATM   16  C   UNL     1      -8.099  16.081  69.402  1.00  0.00    -0.139 A  
HETATM   17  O   UNL     1      -6.589  18.852  67.698  1.00  0.00    -0.201 OA 
HETATM   18  C   UNL     1      -9.255  15.296  69.408  1.00  0.00    -0.233 A  
HETATM   19  O   UNL     1      -6.084  18.098  69.764  1.00  0.00    -0.241 OA 
ENDBRANCH   8  11
ENDBRANCH   4   8
ENDBRANCH   3   4
ENDBRANCH   2   3
TORSDOF 6
ENDMDL
MODEL      192
REMARK 921   NORMALIZED FREE ENERGY PREDICTED BY IDOCK:   -3.26 KCAL/MOL
REMARK 922        TOTAL FREE ENERGY PREDICTED BY IDOCK:   -5.19 KCAL/MOL
REMARK 923 INTER-LIGAND FREE ENERGY PREDICTED BY IDOCK:   -4.58 KCAL/MOL
REMARK 924 INTRA-LIGAND FREE ENERGY PREDICTED BY IDOCK:   -0.60 KCAL/MOL
REMARK 927      BINDING AFFINITY PREDICTED BY RF-SCORE:    0.00 PKD
ROOT
HETATM    1  C   UNL     1     -11.716  13.140  68.426  1.00  0.00    -0.386 C  
HETATM    2  C   UNL     1     -11.780  11.639  68.213  1.00  0.00    -0.374 C  
ENDROOT
BRANCH   2   3
HETATM    3  C   UNL     1     -11.614  10.812  69.492  1.00  0.00    -0.303 C  
BRANCH   3   4
HETATM    4  N   UNL     1     -10.857   9.500  69.358  1.00  0.00    -0.225 N  
BRANCH   4   5
HETATM    5  C   UNL     1      -9.882   9.539  68.206  1.00  0.00    -0.155 C  
BRANCH   5   6
HETATM    6  C   UNL     1     -10.314   8.784  66.945  1.00  0.00    -0.344 C  
HETATM    7  C   UNL     1     -10.709   7.336  67.187  1.00  0.00    -0.413 C  
ENDBRANCH   5   6
ENDBRANCH   4   5
BRANCH   4   8
HETATM    8  S   UNL     1     -10.118   9.077  70.894  1.00  0.00    -0.287 S  
HETATM    9  O   UNL     1      -8.716   9.425  70.893  1.00  0.00    -0.213 OA 
HETATM   10  O   UNL     1     -10.996   9.546  71.946  1.00  0.00    -0.261 OA 
BRANCH   8  11
HETATM   11  C   UNL     1     -10.129   7.289  70.921  1.00  0.00    -0.188 A  
HETATM   12  C   UNL     1      -9.021   6.597  70.413  1.00  0.00    -0.152 A  
HETATM   13  C   UNL     1      -8.899   5.219  70.626  1.00  0.00    -0.148 A  
HETATM   14  C   UNL     1      -9.885   4.535  71.349  1.00  0.00    -0.264 A  
HETATM   15  C   UNL     1      -9.779   3.084  71.663  1.00  0.00    -0.158 C  
HETATM   16  C   UNL     1     -10.981   5.239  71.871  1.00  0.00    -0.168 A  
HETATM   17  O   UNL     1      -9.202   2.359  70.685  1.00  0.00    -0.107 OA 
HETATM   18  C   UNL     1     -11.105   6.615  71.658  1.00  0.00    -0.290 A  
HETATM   19  O   UNL     1     -10.218   2.591  72.687  1.00  0.00    -0.145 OA 
ENDBRANCH   8  11
ENDBRANCH   4   8
ENDBRANCH   3   4
ENDBRANCH   2   3
TORSDOF 6
ENDMDL
MODEL      193
REMARK 921   NORMALIZED FREE ENERGY PREDICTED BY IDOCK:   -3.25 KCAL/MOL
REMARK 922        TOTAL FREE ENERGY PREDICTED BY IDOCK:   -5.17 KCAL/MOL
REMARK 923 INTER-LIGAND FREE ENERGY PREDICTED BY IDOCK:   -4.48 KCAL/MOL
REMARK 924 INTRA-LIGAND FREE ENERGY PREDICTED BY IDOCK:   -0.70 KCAL/MOL
REMARK 927      BINDING AFFINITY PREDICTED BY RF-SCORE:    0.00 PKD
ROOT
HETATM    1  C   UNL     1      -8.183   8.273  68.268  1.00  0.00    -0.128 C  
HETATM    2  C   UNL     1      -8.884   9.547  67.836  1.00  0.00    -0.119 C  
ENDROOT
BRANCH   2   3
HETATM    3  C   UNL     1      -8.200  10.835  68.306  1.00  0.00    -0.124 C  
BRANCH   3   4
HETATM    4  N   UNL     1      -8.877  12.141  67.921  1.00  0.00    -0.169 N  
BRANCH   4   5
HETATM    5  C   UNL     1     -10.172  12.335  68.671  1.00  0.00    -0.165 C  
BRANCH   5   6
HETATM    6  C   UNL     1     -11.356  12.833  67.835  1.00  0.00    -0.339 C  
HETATM    7  C   UNL     1     -11.460  12.197  66.458  1.00  0.00    -0.430 C  
ENDBRANCH   5   6
ENDBRANCH   4   5
BRANCH   4   8
HETATM    8  S   UNL     1      -7.749  13.475  68.106  1.00  0.00    -0.153 S  
HETATM    9  O   UNL     1      -7.408  13.660  69.497  1.00  0.00     0.122 OA 
HETATM   10  O   UNL     1      -6.714  13.314  67.105  1.00  0.00    -0.162 OA 
BRANCH   8  11
HETATM   11  C   UNL     1      -8.700  14.929  67.686  1.00  0.00    -0.175 A  
HETATM   12  C   UNL     1      -8.949  15.887  68.680  1.00  0.00    -0.203 A  
HETATM   13  C   UNL     1      -9.486  17.132  68.333  1.00  0.00    -0.276 A  
HETATM   14  C   UNL     1      -9.775  17.418  66.993  1.00  0.00    -0.276 A  
HETATM   15  C   UNL     1     -10.287  18.745  66.555  1.00  0.00    -0.424 C  
HETATM   16  C   UNL     1      -9.505  16.462  66.002  1.00  0.00    -0.345 A  
HETATM   17  O   UNL     1     -11.124  19.322  67.440  1.00  0.00    -0.444 OA 
HETATM   18  C   UNL     1      -8.970  15.217  66.346  1.00  0.00    -0.339 A  
HETATM   19  O   UNL     1     -10.014  19.241  65.476  1.00  0.00    -0.330 OA 
ENDBRANCH   8  11
ENDBRANCH   4   8
ENDBRANCH   3   4
ENDBRANCH   2   3
TORSDOF 6
ENDMDL
MODEL      194
REMARK 921   NORMALIZED FREE ENERGY PREDICTED BY IDOCK:   -3.25 KCAL/MOL
REMARK 922        TOTAL FREE ENERGY PREDICTED BY IDOCK:   -5.17 KCAL/MOL
REMARK 923 INTER-LIGAND FREE ENERGY PREDICTED BY IDOCK:   -4.42 KCAL/MOL
REMARK 924 INTRA-LIGAND FREE ENERGY PREDICTED BY IDOCK:   -0.75 KCAL/MOL
REMARK 927      BINDING AFFINITY PREDICTED BY RF-SCORE:    0.00 PKD
ROOT
HETATM    1  C   UNL     1      -6.797   5.805  70.695  1.00  0.00    -0.053 C  
HETATM    2  C   UNL     1      -7.842   5.878  69.597  1.00  0.00    -0.097 C  
ENDROOT
BRANCH   2   3
HETATM    3  C   UNL     1      -8.240   7.302  69.196  1.00  0.00    -0.122 C  
BRANCH   3   4
HETATM    4  N   UNL     1      -9.088   8.076  70.193  1.00  0.00    -0.151 N  
BRANCH   4   5
HETATM    5  C   UNL     1      -8.483   9.423  70.506  1.00  0.00    -0.212 C  
BRANCH   5   6
HETATM    6  C   UNL     1      -7.222   9.785  69.714  1.00  0.00    -0.105 C  
HETATM    7  C   UNL     1      -5.976   9.960  70.566  1.00  0.00    -0.078 C  
ENDBRANCH   5   6
ENDBRANCH   4   5
BRANCH   4   8
HETATM    8  S   UNL     1     -10.747   8.163  69.624  1.00  0.00    -0.150 S  
HETATM    9  O   UNL     1     -11.024   7.086  68.704  1.00  0.00    -0.177 OA 
HETATM   10  O   UNL     1     -11.594   8.387  70.778  1.00  0.00    -0.278 OA 
BRANCH   8  11
HETATM   11  C   UNL     1     -10.797   9.635  68.610  1.00  0.00    -0.167 A  
HETATM   12  C   UNL     1     -10.288   9.576  67.305  1.00  0.00    -0.319 A  
HETATM   13  C   UNL     1     -10.518  10.632  66.416  1.00  0.00    -0.276 A  
HETATM   14  C   UNL     1     -11.257  11.747  66.833  1.00  0.00    -0.387 A  
HETATM   15  C   UNL     1     -11.588  12.870  65.915  1.00  0.00    -0.377 C  
HETATM   16  C   UNL     1     -11.780  11.789  68.134  1.00  0.00    -0.377 A  
HETATM   17  O   UNL     1     -10.615  13.150  65.027  1.00  0.00    -0.303 OA 
HETATM   18  C   UNL     1     -11.550  10.736  69.024  1.00  0.00    -0.370 A  
HETATM   19  O   UNL     1     -12.623  13.510  65.993  1.00  0.00    -0.420 OA 
ENDBRANCH   8  11
ENDBRANCH   4   8
ENDBRANCH   3   4
ENDBRANCH   2   3
TORSDOF 6
ENDMDL
MODEL      195
REMARK 921   NORMALIZED FREE ENERGY PREDICTED BY IDOCK:   -3.20 KCAL/MOL
REMARK 922        TOTAL FREE ENERGY PREDICTED BY IDOCK:   -5.10 KCAL/MOL
REMARK 923 INTER-LIGAND FREE ENERGY PREDICTED BY IDOCK:   -4.43 KCAL/MOL
REMARK 924 INTRA-LIGAND FREE ENERGY PREDICTED BY IDOCK:   -0.67 KCAL/MOL
REMARK 927      BINDING AFFINITY PREDICTED BY RF-SCORE:    0.00 PKD
ROOT
HETATM    1  C   UNL     1     -11.357  10.934  67.923  1.00  0.00    -0.380 C  
HETATM    2  C   UNL     1     -11.977  12.150  68.586  1.00  0.00    -0.290 C  
ENDROOT
BRANCH   2   3
HETATM    3  C   UNL     1     -11.024  12.927  69.499  1.00  0.00     0.110 C  
BRANCH   3   4
HETATM    4  N   UNL     1     -10.244  14.063  68.855  1.00  0.00    -0.197 N  
BRANCH   4   5
HETATM    5  C   UNL     1     -10.036  13.824  67.379  1.00  0.00    -0.244 C  
BRANCH   5   6
HETATM    6  C   UNL     1      -8.615  13.430  66.964  1.00  0.00    -0.168 C  
HETATM    7  C   UNL     1      -7.607  13.432  68.102  1.00  0.00    -0.138 C  
ENDBRANCH   5   6
ENDBRANCH   4   5
BRANCH   4   8
HETATM    8  S   UNL     1     -11.015  15.598  69.219  1.00  0.00    -0.293 S  
HETATM    9  O   UNL     1     -12.239  15.740  68.467  1.00  0.00    -0.108 OA 
HETATM   10  O   UNL     1     -11.008  15.760  70.659  1.00  0.00    -0.323 OA 
BRANCH   8  11
HETATM   11  C   UNL     1      -9.921  16.827  68.520  1.00  0.00    -0.271 A  
HETATM   12  C   UNL     1      -8.625  16.954  69.038  1.00  0.00    -0.148 A  
HETATM   13  C   UNL     1      -7.678  17.739  68.370  1.00  0.00    -0.278 A  
HETATM   14  C   UNL     1      -8.029  18.396  67.183  1.00  0.00    -0.237 A  
HETATM   15  C   UNL     1      -7.049  19.191  66.395  1.00  0.00    -0.224 C  
HETATM   16  C   UNL     1      -9.322  18.248  66.661  1.00  0.00    -0.304 A  
HETATM   17  O   UNL     1      -6.152  19.852  67.152  1.00  0.00    -0.183 OA 
HETATM   18  C   UNL     1     -10.270  17.466  67.328  1.00  0.00    -0.324 A  
HETATM   19  O   UNL     1      -7.085  19.275  65.179  1.00  0.00    -0.433 OA 
ENDBRANCH   8  11
ENDBRANCH   4   8
ENDBRANCH   3   4
ENDBRANCH   2   3
TORSDOF 6
ENDMDL
MODEL      196
REMARK 921   NORMALIZED FREE ENERGY PREDICTED BY IDOCK:   -3.18 KCAL/MOL
REMARK 922        TOTAL FREE ENERGY PREDICTED BY IDOCK:   -5.08 KCAL/MOL
REMARK 923 INTER-LIGAND FREE ENERGY PREDICTED BY IDOCK:   -4.83 KCAL/MOL
REMARK 924 INTRA-LIGAND FREE ENERGY PREDICTED BY IDOCK:   -0.25 KCAL/MOL
REMARK 927      BINDING AFFINITY PREDICTED BY RF-SCORE:    0.00 PKD
ROOT
HETATM    1  C   UNL     1     -10.431  18.849  66.229  1.00  0.00    -0.510 C  
HETATM    2  C   UNL     1     -10.440  17.563  67.032  1.00  0.00    -0.293 C  
ENDROOT
BRANCH   2   3
HETATM    3  C   UNL     1     -10.281  16.291  66.193  1.00  0.00    -0.346 C  
BRANCH   3   4
HETATM    4  N   UNL     1      -9.858  15.035  66.937  1.00  0.00    -0.233 N  
BRANCH   4   5
HETATM    5  C   UNL     1      -8.570  15.248  67.695  1.00  0.00    -0.169 C  
BRANCH   5   6
HETATM    6  C   UNL     1      -7.538  16.150  67.011  1.00  0.00    -0.260 C  
HETATM    7  C   UNL     1      -6.711  16.993  67.968  1.00  0.00    -0.155 C  
ENDBRANCH   5   6
ENDBRANCH   4   5
BRANCH   4   8
HETATM    8  S   UNL     1     -11.180  14.463  67.941  1.00  0.00    -0.301 S  
HETATM    9  O   UNL     1     -10.879  14.666  69.339  1.00  0.00    -0.247 OA 
HETATM   10  O   UNL     1     -12.413  14.965  67.370  1.00  0.00     0.144 OA 
BRANCH   8  11
HETATM   11  C   UNL     1     -11.162  12.686  67.740  1.00  0.00    -0.274 A  
HETATM   12  C   UNL     1     -10.376  12.128  66.721  1.00  0.00    -0.237 A  
HETATM   13  C   UNL     1     -10.161  10.746  66.682  1.00  0.00    -0.265 A  
HETATM   14  C   UNL     1     -10.732   9.922  67.661  1.00  0.00    -0.339 A  
HETATM   15  C   UNL     1     -10.488   8.456  67.709  1.00  0.00    -0.220 C  
HETATM   16  C   UNL     1     -11.501  10.491  68.688  1.00  0.00    -0.290 A  
HETATM   17  O   UNL     1     -10.382   7.883  66.494  1.00  0.00    -0.247 OA 
HETATM   18  C   UNL     1     -11.719  11.872  68.728  1.00  0.00    -0.379 A  
HETATM   19  O   UNL     1     -10.436   7.823  68.749  1.00  0.00    -0.206 OA 
ENDBRANCH   8  11
ENDBRANCH   4   8
ENDBRANCH   3   4
ENDBRANCH   2   3
TORSDOF 6
ENDMDL
MODEL      197
REMARK 921   NORMALIZED FREE ENERGY PREDICTED BY IDOCK:   -3.18 KCAL/MOL
REMARK 922        TOTAL FREE ENERGY PREDICTED BY IDOCK:   -5.08 KCAL/MOL
REMARK 923 INTER-LIGAND FREE ENERGY PREDICTED BY IDOCK:   -4.89 KCAL/MOL
REMARK 924 INTRA-LIGAND FREE ENERGY PREDICTED BY IDOCK:   -0.19 KCAL/MOL
REMARK 927      BINDING AFFINITY PREDICTED BY RF-SCORE:    0.00 PKD
ROOT
HETATM    1  C   UNL     1     -10.365   6.998  67.463  1.00  0.00    -0.288 C  
HETATM    2  C   UNL     1     -10.160   8.278  66.674  1.00  0.00    -0.351 C  
ENDROOT
BRANCH   2   3
HETATM    3  C   UNL     1      -9.270   9.313  67.370  1.00  0.00    -0.126 C  
BRANCH   3   4
HETATM    4  N   UNL     1      -9.098  10.646  66.660  1.00  0.00    -0.158 N  
BRANCH   4   5
HETATM    5  C   UNL     1      -8.398  10.481  65.333  1.00  0.00    -0.165 C  
BRANCH   5   6
HETATM    6  C   UNL     1      -6.867  10.461  65.388  1.00  0.00    -0.120 C  
HETATM    7  C   UNL     1      -6.226   9.330  64.601  1.00  0.00    -0.072 C  
ENDBRANCH   5   6
ENDBRANCH   4   5
BRANCH   4   8
HETATM    8  S   UNL     1     -10.648  11.463  66.541  1.00  0.00    -0.271 S  
HETATM    9  O   UNL     1     -11.019  11.646  65.158  1.00  0.00    -0.294 OA 
HETATM   10  O   UNL     1     -11.554  10.821  67.472  1.00  0.00    -0.510 OA 
BRANCH   8  11
HETATM   11  C   UNL     1     -10.330  13.119  67.136  1.00  0.00    -0.247 A  
HETATM   12  C   UNL     1      -9.158  13.773  66.728  1.00  0.00    -0.235 A  
HETATM   13  C   UNL     1      -8.992  15.138  66.986  1.00  0.00    -0.255 A  
HETATM   14  C   UNL     1      -9.999  15.850  67.652  1.00  0.00    -0.237 A  
HETATM   15  C   UNL     1      -9.908  17.314  67.898  1.00  0.00    -0.283 C  
HETATM   16  C   UNL     1     -11.177  15.193  68.039  1.00  0.00    -0.329 A  
HETATM   17  O   UNL     1      -8.658  17.744  68.159  1.00  0.00    -0.247 OA 
HETATM   18  C   UNL     1     -11.344  13.829  67.784  1.00  0.00    -0.331 A  
HETATM   19  O   UNL     1     -10.881  18.048  67.911  1.00  0.00    -0.367 OA 
ENDBRANCH   8  11
ENDBRANCH   4   8
ENDBRANCH   3   4
ENDBRANCH   2   3
TORSDOF 6
ENDMDL
MODEL      198
REMARK 921   NORMALIZED FREE ENERGY PREDICTED BY IDOCK:   -3.15 KCAL/MOL
REMARK 922        TOTAL FREE ENERGY PREDICTED BY IDOCK:   -5.04 KCAL/MOL
REMARK 923 INTER-LIGAND FREE ENERGY PREDICTED BY IDOCK:   -4.32 KCAL/MOL
REMARK 924 INTRA-LIGAND FREE ENERGY PREDICTED BY IDOCK:   -0.72 KCAL/MOL
REMARK 927      BINDING AFFINITY PREDICTED BY RF-SCORE:    0.00 PKD
ROOT
HETATM    1  C   UNL     1     -11.540  15.122  67.712  1.00  0.00    -0.303 C  
HETATM    2  C   UNL     1     -11.750  13.735  67.134  1.00  0.00    -0.417 C  
ENDROOT
BRANCH   2   3
HETATM    3  C   UNL     1     -11.249  12.596  68.026  1.00  0.00    -0.265 C  
BRANCH   3   4
HETATM    4  N   UNL     1     -10.854  11.307  67.322  1.00  0.00    -0.251 N  
BRANCH   4   5
HETATM    5  C   UNL     1     -10.023  11.581  66.091  1.00  0.00    -0.224 C  
BRANCH   5   6
HETATM    6  C   UNL     1     -10.646  11.150  64.760  1.00  0.00    -0.371 C  
HETATM    7  C   UNL     1      -9.715  10.353  63.862  1.00  0.00    -0.367 C  
ENDBRANCH   5   6
ENDBRANCH   4   5
BRANCH   4   8
HETATM    8  S   UNL     1     -10.085  10.215  68.462  1.00  0.00    -0.178 S  
HETATM    9  O   UNL     1      -8.754  10.674  68.784  1.00  0.00    -0.142 OA 
HETATM   10  O   UNL     1     -11.044   9.932  69.511  1.00  0.00    -0.233 OA 
BRANCH   8  11
HETATM   11  C   UNL     1      -9.822   8.709  67.535  1.00  0.00    -0.180 A  
HETATM   12  C   UNL     1      -8.523   8.390  67.115  1.00  0.00    -0.123 A  
HETATM   13  C   UNL     1      -8.248   7.121  66.593  1.00  0.00    -0.112 A  
HETATM   14  C   UNL     1      -9.273   6.171  66.491  1.00  0.00    -0.161 A  
HETATM   15  C   UNL     1      -9.029   4.787  66.005  1.00  0.00    -0.126 C  
HETATM   16  C   UNL     1     -10.566   6.492  66.932  1.00  0.00    -0.376 A  
HETATM   17  O   UNL     1      -8.101   4.709  65.031  1.00  0.00    -0.097 OA 
HETATM   18  C   UNL     1     -10.843   7.760  67.453  1.00  0.00    -0.207 A  
HETATM   19  O   UNL     1      -9.646   3.819  66.415  1.00  0.00    -0.191 OA 
ENDBRANCH   8  11
ENDBRANCH   4   8
ENDBRANCH   3   4
ENDBRANCH   2   3
TORSDOF 6
ENDMDL
MODEL      199
REMARK 921   NORMALIZED FREE ENERGY PREDICTED BY IDOCK:   -3.13 KCAL/MOL
REMARK 922        TOTAL FREE ENERGY PREDICTED BY IDOCK:   -5.02 KCAL/MOL
REMARK 923 INTER-LIGAND FREE ENERGY PREDICTED BY IDOCK:   -4.40 KCAL/MOL
REMARK 924 INTRA-LIGAND FREE ENERGY PREDICTED BY IDOCK:   -0.62 KCAL/MOL
REMARK 927      BINDING AFFINITY PREDICTED BY RF-SCORE:    0.00 PKD
ROOT
HETATM    1  C   UNL     1      -5.864   7.644  74.023  1.00  0.00    -0.071 C  
HETATM    2  C   UNL     1      -7.177   8.275  73.598  1.00  0.00    -0.171 C  
ENDROOT
BRANCH   2   3
HETATM    3  C   UNL     1      -8.352   7.295  73.519  1.00  0.00    -0.129 C  
BRANCH   3   4
HETATM    4  N   UNL     1      -8.850   6.945  72.125  1.00  0.00    -0.132 N  
BRANCH   4   5
HETATM    5  C   UNL     1      -8.303   5.616  71.661  1.00  0.00    -0.124 C  
BRANCH   5   6
HETATM    6  C   UNL     1      -7.733   4.712  72.758  1.00  0.00    -0.088 C  
HETATM    7  C   UNL     1      -8.655   3.578  73.177  1.00  0.00    -0.085 C  
ENDBRANCH   5   6
ENDBRANCH   4   5
BRANCH   4   8
HETATM    8  S   UNL     1     -10.602   7.042  72.075  1.00  0.00    -0.214 S  
HETATM    9  O   UNL     1     -11.168   5.776  71.672  1.00  0.00    -0.259 OA 
HETATM   10  O   UNL     1     -11.040   7.693  73.293  1.00  0.00    -0.382 OA 
BRANCH   8  11
HETATM   11  C   UNL     1     -10.953   8.138  70.707  1.00  0.00    -0.244 A  
HETATM   12  C   UNL     1     -11.474   9.412  70.975  1.00  0.00    -0.403 A  
HETATM   13  C   UNL     1     -11.543  10.369  69.956  1.00  0.00    -0.378 A  
HETATM   14  C   UNL     1     -11.091  10.051  68.669  1.00  0.00    -0.223 A  
HETATM   15  C   UNL     1     -11.080  11.044  67.562  1.00  0.00    -0.302 C  
HETATM   16  C   UNL     1     -10.553   8.780  68.413  1.00  0.00    -0.185 A  
HETATM   17  O   UNL     1     -12.120  11.900  67.590  1.00  0.00    -0.568 OA 
HETATM   18  C   UNL     1     -10.485   7.822  69.430  1.00  0.00    -0.221 A  
HETATM   19  O   UNL     1     -10.235  11.052  66.683  1.00  0.00    -0.218 OA 
ENDBRANCH   8  11
ENDBRANCH   4   8
ENDBRANCH   3   4
ENDBRANCH   2   3
TORSDOF 6
ENDMDL
MODEL      200
REMARK 921   NORMALIZED FREE ENERGY PREDICTED BY IDOCK:   -3.12 KCAL/MOL
REMARK 922        TOTAL FREE ENERGY PREDICTED BY IDOCK:   -5.00 KCAL/MOL
REMARK 923 INTER-LIGAND FREE ENERGY PREDICTED BY IDOCK:   -4.33 KCAL/MOL
REMARK 924 INTRA-LIGAND FREE ENERGY PREDICTED BY IDOCK:   -0.67 KCAL/MOL
REMARK 927      BINDING AFFINITY PREDICTED BY RF-SCORE:    0.00 PKD
ROOT
HETATM    1  C   UNL     1      -6.443   8.873  70.663  1.00  0.00    -0.048 C  
HETATM    2  C   UNL     1      -7.415   7.711  70.749  1.00  0.00    -0.071 C  
ENDROOT
BRANCH   2   3
HETATM    3  C   UNL     1      -8.767   8.062  71.379  1.00  0.00    -0.136 C  
BRANCH   3   4
HETATM    4  N   UNL     1      -9.797   6.946  71.439  1.00  0.00    -0.178 N  
BRANCH   4   5
HETATM    5  C   UNL     1     -10.324   6.754  72.841  1.00  0.00    -0.221 C  
BRANCH   5   6
HETATM    6  C   UNL     1     -10.044   5.388  73.475  1.00  0.00    -0.204 C  
HETATM    7  C   UNL     1     -11.255   4.472  73.547  1.00  0.00    -0.388 C  
ENDBRANCH   5   6
ENDBRANCH   4   5
BRANCH   4   8
HETATM    8  S   UNL     1     -11.054   7.228  70.246  1.00  0.00    -0.254 S  
HETATM    9  O   UNL     1     -12.344   6.845  70.770  1.00  0.00    -0.376 OA 
HETATM   10  O   UNL     1     -10.843   8.550  69.693  1.00  0.00    -0.225 OA 
BRANCH   8  11
HETATM   11  C   UNL     1     -10.728   6.032  68.957  1.00  0.00    -0.324 A  
HETATM   12  C   UNL     1     -11.010   6.375  67.627  1.00  0.00    -0.441 A  
HETATM   13  C   UNL     1     -10.558   5.560  66.584  1.00  0.00    -0.365 A  
HETATM   14  C   UNL     1      -9.824   4.401  66.871  1.00  0.00    -0.235 A  
HETATM   15  C   UNL     1      -9.263   3.530  65.803  1.00  0.00    -0.160 C  
HETATM   16  C   UNL     1      -9.529   4.076  68.203  1.00  0.00    -0.215 A  
HETATM   17  O   UNL     1     -10.048   3.434  64.713  1.00  0.00    -0.131 OA 
HETATM   18  C   UNL     1      -9.981   4.889  69.248  1.00  0.00    -0.270 A  
HETATM   19  O   UNL     1      -8.214   2.921  65.924  1.00  0.00    -0.085 OA 
ENDBRANCH   8  11
ENDBRANCH   4   8
ENDBRANCH   3   4
ENDBRANCH   2   3
TORSDOF 6
ENDMDL
MODEL      201
REMARK 921   NORMALIZED FREE ENERGY PREDICTED BY IDOCK:   -3.09 KCAL/MOL
REMARK 922        TOTAL FREE ENERGY PREDICTED BY IDOCK:   -4.96 KCAL/MOL
REMARK 923 INTER-LIGAND FREE ENERGY PREDICTED BY IDOCK:   -4.56 KCAL/MOL
REMARK 924 INTRA-LIGAND FREE ENERGY PREDICTED BY IDOCK:   -0.40 KCAL/MOL
REMARK 927      BINDING AFFINITY PREDICTED BY RF-SCORE:    0.00 PKD
ROOT
HETATM    1  C   UNL     1     -14.253   7.919  71.914  1.00  0.00    -0.508 C  
HETATM    2  C   UNL     1     -13.326   6.997  71.144  1.00  0.00    -0.188 C  
ENDROOT
BRANCH   2   3
HETATM    3  C   UNL     1     -11.893   6.948  71.683  1.00  0.00    -0.324 C  
BRANCH   3   4
HETATM    4  N   UNL     1     -10.778   7.093  70.658  1.00  0.00    -0.230 N  
BRANCH   4   5
HETATM    5  C   UNL     1     -11.087   6.330  69.393  1.00  0.00    -0.410 C  
BRANCH   5   6
HETATM    6  C   UNL     1     -10.052   5.279  68.981  1.00  0.00    -0.272 C  
HETATM    7  C   UNL     1      -9.898   4.132  69.968  1.00  0.00    -0.245 C  
ENDBRANCH   5   6
ENDBRANCH   4   5
BRANCH   4   8
HETATM    8  S   UNL     1     -10.431   8.793  70.390  1.00  0.00    -0.219 S  
HETATM    9  O   UNL     1     -11.653   9.563  70.376  1.00  0.00    -0.258 OA 
HETATM   10  O   UNL     1      -9.336   9.160  71.264  1.00  0.00    -0.254 OA 
BRANCH   8  11
HETATM   11  C   UNL     1      -9.841   8.871  68.703  1.00  0.00    -0.167 A  
HETATM   12  C   UNL     1     -10.695   9.369  67.709  1.00  0.00    -0.290 A  
HETATM   13  C   UNL     1     -10.192   9.655  66.434  1.00  0.00    -0.288 A  
HETATM   14  C   UNL     1      -8.836   9.442  66.155  1.00  0.00    -0.178 A  
HETATM   15  C   UNL     1      -8.231   9.786  64.840  1.00  0.00    -0.142 C  
HETATM   16  C   UNL     1      -7.985   8.961  67.161  1.00  0.00    -0.096 A  
HETATM   17  O   UNL     1      -9.053   9.578  63.794  1.00  0.00    -0.224 OA 
HETATM   18  C   UNL     1      -8.485   8.674  68.435  1.00  0.00    -0.131 A  
HETATM   19  O   UNL     1      -7.082  10.174  64.718  1.00  0.00    -0.137 OA 
ENDBRANCH   8  11
ENDBRANCH   4   8
ENDBRANCH   3   4
ENDBRANCH   2   3
TORSDOF 6
ENDMDL
MODEL      202
REMARK 921   NORMALIZED FREE ENERGY PREDICTED BY IDOCK:   -3.09 KCAL/MOL
REMARK 922        TOTAL FREE ENERGY PREDICTED BY IDOCK:   -4.95 KCAL/MOL
REMARK 923 INTER-LIGAND FREE ENERGY PREDICTED BY IDOCK:   -4.19 KCAL/MOL
REMARK 924 INTRA-LIGAND FREE ENERGY PREDICTED BY IDOCK:   -0.76 KCAL/MOL
REMARK 927      BINDING AFFINITY PREDICTED BY RF-SCORE:    0.00 PKD
ROOT
HETATM    1  C   UNL     1      -9.631   5.949  66.586  1.00  0.00    -0.174 C  
HETATM    2  C   UNL     1     -10.901   6.597  67.104  1.00  0.00    -0.471 C  
ENDROOT
BRANCH   2   3
HETATM    3  C   UNL     1     -10.842   8.125  67.188  1.00  0.00    -0.050 C  
BRANCH   3   4
HETATM    4  N   UNL     1      -9.600   8.722  67.830  1.00  0.00    -0.145 N  
BRANCH   4   5
HETATM    5  C   UNL     1      -9.058   9.876  67.020  1.00  0.00    -0.138 C  
BRANCH   5   6
HETATM    6  C   UNL     1      -9.825  10.202  65.734  1.00  0.00    -0.331 C  
HETATM    7  C   UNL     1      -8.940  10.431  64.520  1.00  0.00    -0.241 C  
ENDBRANCH   5   6
ENDBRANCH   4   5
BRANCH   4   8
HETATM    8  S   UNL     1      -9.930   9.130  69.505  1.00  0.00    -0.198 S  
HETATM    9  O   UNL     1      -8.752   9.677  70.135  1.00  0.00    -0.211 OA 
HETATM   10  O   UNL     1     -11.189   9.848  69.540  1.00  0.00    -0.229 OA 
BRANCH   8  11
HETATM   11  C   UNL     1     -10.172   7.553  70.313  1.00  0.00    -0.204 A  
HETATM   12  C   UNL     1      -9.099   6.652  70.376  1.00  0.00    -0.152 A  
HETATM   13  C   UNL     1      -9.185   5.519  71.191  1.00  0.00    -0.173 A  
HETATM   14  C   UNL     1     -10.343   5.286  71.945  1.00  0.00    -0.275 A  
HETATM   15  C   UNL     1     -10.467   4.134  72.877  1.00  0.00    -0.172 C  
HETATM   16  C   UNL     1     -11.404   6.203  71.892  1.00  0.00    -0.350 A  
HETATM   17  O   UNL     1      -9.853   3.016  72.444  1.00  0.00    -0.137 OA 
HETATM   18  C   UNL     1     -11.321   7.336  71.076  1.00  0.00    -0.301 A  
HETATM   19  O   UNL     1     -11.107   4.183  73.914  1.00  0.00    -0.242 OA 
ENDBRANCH   8  11
ENDBRANCH   4   8
ENDBRANCH   3   4
ENDBRANCH   2   3
TORSDOF 6
ENDMDL
MODEL      203
REMARK 921   NORMALIZED FREE ENERGY PREDICTED BY IDOCK:   -3.07 KCAL/MOL
REMARK 922        TOTAL FREE ENERGY PREDICTED BY IDOCK:   -4.93 KCAL/MOL
REMARK 923 INTER-LIGAND FREE ENERGY PREDICTED BY IDOCK:   -4.24 KCAL/MOL
REMARK 924 INTRA-LIGAND FREE ENERGY PREDICTED BY IDOCK:   -0.69 KCAL/MOL
REMARK 927      BINDING AFFINITY PREDICTED BY RF-SCORE:    0.00 PKD
ROOT
HETATM    1  C   UNL     1      -7.289   8.391  70.850  1.00  0.00    -0.064 C  
HETATM    2  C   UNL     1      -8.419   9.236  70.292  1.00  0.00    -0.224 C  
ENDROOT
BRANCH   2   3
HETATM    3  C   UNL     1      -9.762   9.046  71.003  1.00  0.00    -0.278 C  
BRANCH   3   4
HETATM    4  N   UNL     1     -10.989   8.926  70.114  1.00  0.00    -0.238 N  
BRANCH   4   5
HETATM    5  C   UNL     1     -11.525   7.515  70.096  1.00  0.00    -0.095 C  
BRANCH   5   6
HETATM    6  C   UNL     1     -10.689   6.497  69.314  1.00  0.00    -0.329 C  
HETATM    7  C   UNL     1      -9.923   5.514  70.185  1.00  0.00    -0.287 C  
ENDBRANCH   5   6
ENDBRANCH   4   5
BRANCH   4   8
HETATM    8  S   UNL     1     -12.183  10.127  70.579  1.00  0.00    -0.239 S  
HETATM    9  O   UNL     1     -13.515   9.659  70.278  1.00  0.00     0.257 OA 
HETATM   10  O   UNL     1     -11.844  10.589  71.909  1.00  0.00     0.119 OA 
BRANCH   8  11
HETATM   11  C   UNL     1     -11.923  11.483  69.442  1.00  0.00    -0.325 A  
HETATM   12  C   UNL     1     -11.838  12.787  69.950  1.00  0.00    -0.371 A  
HETATM   13  C   UNL     1     -11.411  13.833  69.124  1.00  0.00    -0.346 A  
HETATM   14  C   UNL     1     -11.070  13.574  67.790  1.00  0.00    -0.291 A  
HETATM   15  C   UNL     1     -10.549  14.632  66.882  1.00  0.00    -0.281 C  
HETATM   16  C   UNL     1     -11.139  12.263  67.295  1.00  0.00    -0.326 A  
HETATM   17  O   UNL     1     -11.099  15.844  67.090  1.00  0.00    -0.270 OA 
HETATM   18  C   UNL     1     -11.567  11.217  68.118  1.00  0.00    -0.350 A  
HETATM   19  O   UNL     1      -9.737  14.412  66.001  1.00  0.00    -0.300 OA 
ENDBRANCH   8  11
ENDBRANCH   4   8
ENDBRANCH   3   4
ENDBRANCH   2   3
TORSDOF 6
ENDMDL
MODEL      204
REMARK 921   NORMALIZED FREE ENERGY PREDICTED BY IDOCK:   -3.06 KCAL/MOL
REMARK 922        TOTAL FREE ENERGY PREDICTED BY IDOCK:   -4.92 KCAL/MOL
REMARK 923 INTER-LIGAND FREE ENERGY PREDICTED BY IDOCK:   -4.38 KCAL/MOL
REMARK 924 INTRA-LIGAND FREE ENERGY PREDICTED BY IDOCK:   -0.54 KCAL/MOL
REMARK 927      BINDING AFFINITY PREDICTED BY RF-SCORE:    0.00 PKD
ROOT
HETATM    1  C   UNL     1      -8.082   8.018  74.358  1.00  0.00    -0.300 C  
HETATM    2  C   UNL     1      -8.215   8.310  72.875  1.00  0.00    -0.227 C  
ENDROOT
BRANCH   2   3
HETATM    3  C   UNL     1      -8.871   7.187  72.067  1.00  0.00    -0.126 C  
BRANCH   3   4
HETATM    4  N   UNL     1     -10.113   7.559  71.273  1.00  0.00    -0.188 N  
BRANCH   4   5
HETATM    5  C   UNL     1     -10.067   8.997  70.815  1.00  0.00    -0.241 C  
BRANCH   5   6
HETATM    6  C   UNL     1     -11.393   9.761  70.888  1.00  0.00    -0.439 C  
HETATM    7  C   UNL     1     -12.350   9.252  71.954  1.00  0.00    -0.454 C  
ENDBRANCH   5   6
ENDBRANCH   4   5
BRANCH   4   8
HETATM    8  S   UNL     1     -10.353   6.411  69.966  1.00  0.00    -0.213 S  
HETATM    9  O   UNL     1      -9.487   5.268  70.132  1.00  0.00    -0.145 OA 
HETATM   10  O   UNL     1     -11.781   6.239  69.791  1.00  0.00    -0.403 OA 
BRANCH   8  11
HETATM   11  C   UNL     1      -9.716   7.241  68.516  1.00  0.00    -0.149 A  
HETATM   12  C   UNL     1     -10.620   7.815  67.611  1.00  0.00    -0.283 A  
HETATM   13  C   UNL     1     -10.155   8.661  66.598  1.00  0.00    -0.364 A  
HETATM   14  C   UNL     1      -8.784   8.932  66.490  1.00  0.00    -0.145 A  
HETATM   15  C   UNL     1      -8.237   9.873  65.476  1.00  0.00    -0.136 C  
HETATM   16  C   UNL     1      -7.888   8.370  67.412  1.00  0.00    -0.099 A  
HETATM   17  O   UNL     1      -8.892   9.841  64.298  1.00  0.00    -0.196 OA 
HETATM   18  C   UNL     1      -8.351   7.523  68.424  1.00  0.00    -0.125 A  
HETATM   19  O   UNL     1      -7.258  10.570  65.674  1.00  0.00    -0.146 OA 
ENDBRANCH   8  11
ENDBRANCH   4   8
ENDBRANCH   3   4
ENDBRANCH   2   3
TORSDOF 6
ENDMDL
MODEL      205
REMARK 921   NORMALIZED FREE ENERGY PREDICTED BY IDOCK:   -3.06 KCAL/MOL
REMARK 922        TOTAL FREE ENERGY PREDICTED BY IDOCK:   -4.92 KCAL/MOL
REMARK 923 INTER-LIGAND FREE ENERGY PREDICTED BY IDOCK:   -3.94 KCAL/MOL
REMARK 924 INTRA-LIGAND FREE ENERGY PREDICTED BY IDOCK:   -0.98 KCAL/MOL
REMARK 927      BINDING AFFINITY PREDICTED BY RF-SCORE:    0.00 PKD
ROOT
HETATM    1  C   UNL     1      -6.421   6.667  64.243  1.00  0.00    -0.038 C  
HETATM    2  C   UNL     1      -6.758   7.138  65.645  1.00  0.00    -0.052 C  
ENDROOT
BRANCH   2   3
HETATM    3  C   UNL     1      -8.256   7.158  65.962  1.00  0.00    -0.129 C  
BRANCH   3   4
HETATM    4  N   UNL     1      -8.647   7.605  67.362  1.00  0.00    -0.124 N  
BRANCH   4   5
HETATM    5  C   UNL     1      -7.985   8.910  67.732  1.00  0.00    -0.102 C  
BRANCH   5   6
HETATM    6  C   UNL     1      -7.219   8.914  69.058  1.00  0.00    -0.072 C  
HETATM    7  C   UNL     1      -7.068   7.543  69.698  1.00  0.00    -0.064 C  
ENDBRANCH   5   6
ENDBRANCH   4   5
BRANCH   4   8
HETATM    8  S   UNL     1     -10.397   7.635  67.513  1.00  0.00    -0.273 S  
HETATM    9  O   UNL     1     -10.885   8.994  67.468  1.00  0.00    -0.232 OA 
HETATM   10  O   UNL     1     -10.930   6.627  66.619  1.00  0.00    -0.274 OA 
BRANCH   8  11
HETATM   11  C   UNL     1     -10.713   7.107  69.192  1.00  0.00    -0.198 A  
HETATM   12  C   UNL     1     -10.459   5.773  69.542  1.00  0.00    -0.364 A  
HETATM   13  C   UNL     1     -10.477   5.388  70.887  1.00  0.00    -0.307 A  
HETATM   14  C   UNL     1     -10.749   6.337  71.882  1.00  0.00    -0.271 A  
HETATM   15  C   UNL     1     -10.719   6.001  73.330  1.00  0.00    -0.262 C  
HETATM   16  C   UNL     1     -10.983   7.673  71.524  1.00  0.00    -0.263 A  
HETATM   17  O   UNL     1     -11.164   4.760  73.609  1.00  0.00    -0.319 OA 
HETATM   18  C   UNL     1     -10.967   8.060  70.181  1.00  0.00    -0.226 A  
HETATM   19  O   UNL     1     -10.371   6.792  74.190  1.00  0.00    -0.368 OA 
ENDBRANCH   8  11
ENDBRANCH   4   8
ENDBRANCH   3   4
ENDBRANCH   2   3
TORSDOF 6
ENDMDL
MODEL      206
REMARK 921   NORMALIZED FREE ENERGY PREDICTED BY IDOCK:   -3.06 KCAL/MOL
REMARK 922        TOTAL FREE ENERGY PREDICTED BY IDOCK:   -4.92 KCAL/MOL
REMARK 923 INTER-LIGAND FREE ENERGY PREDICTED BY IDOCK:   -4.43 KCAL/MOL
REMARK 924 INTRA-LIGAND FREE ENERGY PREDICTED BY IDOCK:   -0.49 KCAL/MOL
REMARK 927      BINDING AFFINITY PREDICTED BY RF-SCORE:    0.00 PKD
ROOT
HETATM    1  C   UNL     1     -13.138  10.559  71.912  1.00  0.00    -0.567 C  
HETATM    2  C   UNL     1     -12.434  11.174  70.716  1.00  0.00    -0.479 C  
ENDROOT
BRANCH   2   3
HETATM    3  C   UNL     1     -11.883  10.156  69.714  1.00  0.00    -0.088 C  
BRANCH   3   4
HETATM    4  N   UNL     1     -10.977  10.701  68.622  1.00  0.00    -0.227 N  
BRANCH   4   5
HETATM    5  C   UNL     1     -11.089  12.203  68.509  1.00  0.00    -0.252 C  
BRANCH   5   6
HETATM    6  C   UNL     1     -11.857  12.721  67.289  1.00  0.00    -0.414 C  
HETATM    7  C   UNL     1     -11.822  14.232  67.123  1.00  0.00    -0.454 C  
ENDBRANCH   5   6
ENDBRANCH   4   5
BRANCH   4   8
HETATM    8  S   UNL     1      -9.334  10.134  68.870  1.00  0.00    -0.189 S  
HETATM    9  O   UNL     1      -8.392  11.007  68.210  1.00  0.00    -0.120 OA 
HETATM   10  O   UNL     1      -9.188   9.816  70.276  1.00  0.00    -0.246 OA 
BRANCH   8  11
HETATM   11  C   UNL     1      -9.241   8.605  67.946  1.00  0.00    -0.139 A  
HETATM   12  C   UNL     1      -8.391   7.588  68.402  1.00  0.00    -0.125 A  
HETATM   13  C   UNL     1      -8.467   6.309  67.840  1.00  0.00    -0.117 A  
HETATM   14  C   UNL     1      -9.393   6.048  66.821  1.00  0.00    -0.148 A  
HETATM   15  C   UNL     1      -9.563   4.694  66.229  1.00  0.00    -0.184 C  
HETATM   16  C   UNL     1     -10.253   7.066  66.384  1.00  0.00    -0.006 A  
HETATM   17  O   UNL     1      -8.415   3.997  66.128  1.00  0.00    -0.108 OA 
HETATM   18  C   UNL     1     -10.179   8.345  66.944  1.00  0.00    -0.383 A  
HETATM   19  O   UNL     1     -10.635   4.273  65.829  1.00  0.00    -0.183 OA 
ENDBRANCH   8  11
ENDBRANCH   4   8
ENDBRANCH   3   4
ENDBRANCH   2   3
TORSDOF 6
ENDMDL
MODEL      207
REMARK 921   NORMALIZED FREE ENERGY PREDICTED BY IDOCK:   -3.04 KCAL/MOL
REMARK 922        TOTAL FREE ENERGY PREDICTED BY IDOCK:   -4.90 KCAL/MOL
REMARK 923 INTER-LIGAND FREE ENERGY PREDICTED BY IDOCK:   -4.42 KCAL/MOL
REMARK 924 INTRA-LIGAND FREE ENERGY PREDICTED BY IDOCK:   -0.48 KCAL/MOL
REMARK 927      BINDING AFFINITY PREDICTED BY RF-SCORE:    0.00 PKD
ROOT
HETATM    1  C   UNL     1      -8.262   6.014  65.654  1.00  0.00    -0.139 C  
HETATM    2  C   UNL     1      -7.497   5.949  66.963  1.00  0.00    -0.084 C  
ENDROOT
BRANCH   2   3
HETATM    3  C   UNL     1      -8.119   6.766  68.100  1.00  0.00    -0.115 C  
BRANCH   3   4
HETATM    4  N   UNL     1      -9.077   6.027  69.021  1.00  0.00    -0.123 N  
BRANCH   4   5
HETATM    5  C   UNL     1      -8.643   6.126  70.464  1.00  0.00    -0.138 C  
BRANCH   5   6
HETATM    6  C   UNL     1      -8.398   4.791  71.176  1.00  0.00    -0.107 C  
HETATM    7  C   UNL     1      -9.636   4.191  71.823  1.00  0.00    -0.223 C  
ENDBRANCH   5   6
ENDBRANCH   4   5
BRANCH   4   8
HETATM    8  S   UNL     1     -10.720   6.577  68.740  1.00  0.00    -0.293 S  
HETATM    9  O   UNL     1     -11.143   6.244  67.400  1.00  0.00    -0.350 OA 
HETATM   10  O   UNL     1     -11.515   6.185  69.886  1.00  0.00    -0.421 OA 
BRANCH   8  11
HETATM   11  C   UNL     1     -10.602   8.362  68.735  1.00  0.00    -0.125 A  
HETATM   12  C   UNL     1     -10.660   9.041  67.510  1.00  0.00    -0.306 A  
HETATM   13  C   UNL     1     -10.801  10.433  67.488  1.00  0.00    -0.358 A  
HETATM   14  C   UNL     1     -10.883  11.146  68.692  1.00  0.00    -0.251 A  
HETATM   15  C   UNL     1     -11.096  12.617  68.733  1.00  0.00    -0.263 C  
HETATM   16  C   UNL     1     -10.844  10.456  69.913  1.00  0.00    -0.353 A  
HETATM   17  O   UNL     1     -10.483  13.282  67.734  1.00  0.00    -0.232 OA 
HETATM   18  C   UNL     1     -10.702   9.065  69.937  1.00  0.00    -0.240 A  
HETATM   19  O   UNL     1     -11.727  13.174  69.614  1.00  0.00    -0.298 OA 
ENDBRANCH   8  11
ENDBRANCH   4   8
ENDBRANCH   3   4
ENDBRANCH   2   3
TORSDOF 6
ENDMDL
MODEL      208
REMARK 921   NORMALIZED FREE ENERGY PREDICTED BY IDOCK:   -3.04 KCAL/MOL
REMARK 922        TOTAL FREE ENERGY PREDICTED BY IDOCK:   -4.89 KCAL/MOL
REMARK 923 INTER-LIGAND FREE ENERGY PREDICTED BY IDOCK:   -4.10 KCAL/MOL
REMARK 924 INTRA-LIGAND FREE ENERGY PREDICTED BY IDOCK:   -0.80 KCAL/MOL
REMARK 927      BINDING AFFINITY PREDICTED BY RF-SCORE:    0.00 PKD
ROOT
HETATM    1  C   UNL     1     -10.858   6.412  69.857  1.00  0.00    -0.370 C  
HETATM    2  C   UNL     1     -11.258   6.558  68.400  1.00  0.00    -0.274 C  
ENDROOT
BRANCH   2   3
HETATM    3  C   UNL     1     -10.113   6.966  67.468  1.00  0.00    -0.174 C  
BRANCH   3   4
HETATM    4  N   UNL     1      -9.219   8.099  67.947  1.00  0.00    -0.132 N  
BRANCH   4   5
HETATM    5  C   UNL     1      -7.806   7.625  68.189  1.00  0.00    -0.121 C  
BRANCH   5   6
HETATM    6  C   UNL     1      -7.392   7.495  69.659  1.00  0.00    -0.090 C  
HETATM    7  C   UNL     1      -6.965   6.094  70.067  1.00  0.00    -0.070 C  
ENDBRANCH   5   6
ENDBRANCH   4   5
BRANCH   4   8
HETATM    8  S   UNL     1      -9.327   9.455  66.837  1.00  0.00    -0.154 S  
HETATM    9  O   UNL     1      -8.058  10.139  66.749  1.00  0.00    -0.116 OA 
HETATM   10  O   UNL     1     -10.001   8.989  65.642  1.00  0.00    -0.176 OA 
BRANCH   8  11
HETATM   11  C   UNL     1     -10.403  10.624  67.658  1.00  0.00    -0.209 A  
HETATM   12  C   UNL     1     -10.744  10.405  69.000  1.00  0.00    -0.260 A  
HETATM   13  C   UNL     1     -11.389  11.409  69.731  1.00  0.00    -0.332 A  
HETATM   14  C   UNL     1     -11.694  12.631  69.118  1.00  0.00    -0.375 A  
HETATM   15  C   UNL     1     -12.321  13.758  69.860  1.00  0.00    -0.275 C  
HETATM   16  C   UNL     1     -11.332  12.850  67.780  1.00  0.00    -0.343 A  
HETATM   17  O   UNL     1     -13.212  13.365  70.791  1.00  0.00    -0.047 OA 
HETATM   18  C   UNL     1     -10.688  11.848  67.048  1.00  0.00    -0.280 A  
HETATM   19  O   UNL     1     -12.086  14.929  69.615  1.00  0.00    -0.300 OA 
ENDBRANCH   8  11
ENDBRANCH   4   8
ENDBRANCH   3   4
ENDBRANCH   2   3
TORSDOF 6
ENDMDL
MODEL      209
REMARK 921   NORMALIZED FREE ENERGY PREDICTED BY IDOCK:   -3.04 KCAL/MOL
REMARK 922        TOTAL FREE ENERGY PREDICTED BY IDOCK:   -4.89 KCAL/MOL
REMARK 923 INTER-LIGAND FREE ENERGY PREDICTED BY IDOCK:   -4.57 KCAL/MOL
REMARK 924 INTRA-LIGAND FREE ENERGY PREDICTED BY IDOCK:   -0.32 KCAL/MOL
REMARK 927      BINDING AFFINITY PREDICTED BY RF-SCORE:    0.00 PKD
ROOT
HETATM    1  C   UNL     1     -11.560  12.405  67.271  1.00  0.00    -0.435 C  
HETATM    2  C   UNL     1     -11.265  11.901  68.671  1.00  0.00    -0.311 C  
ENDROOT
BRANCH   2   3
HETATM    3  C   UNL     1     -11.166  10.376  68.787  1.00  0.00    -0.241 C  
BRANCH   3   4
HETATM    4  N   UNL     1     -10.522   9.833  70.052  1.00  0.00    -0.250 N  
BRANCH   4   5
HETATM    5  C   UNL     1     -11.389   8.784  70.707  1.00  0.00    -0.272 C  
BRANCH   5   6
HETATM    6  C   UNL     1     -12.039   9.194  72.032  1.00  0.00    -0.431 C  
HETATM    7  C   UNL     1     -13.317  10.003  71.878  1.00  0.00    -0.516 C  
ENDBRANCH   5   6
ENDBRANCH   4   5
BRANCH   4   8
HETATM    8  S   UNL     1      -8.892   9.281  69.703  1.00  0.00    -0.169 S  
HETATM    9  O   UNL     1      -7.920  10.199  70.249  1.00  0.00    -0.156 OA 
HETATM   10  O   UNL     1      -8.831   7.868  70.015  1.00  0.00    -0.139 OA 
BRANCH   8  11
HETATM   11  C   UNL     1      -8.725   9.463  67.932  1.00  0.00    -0.120 A  
HETATM   12  C   UNL     1      -9.341   8.523  67.093  1.00  0.00    -0.191 A  
HETATM   13  C   UNL     1      -9.423   8.762  65.717  1.00  0.00    -0.239 A  
HETATM   14  C   UNL     1      -8.889   9.941  65.179  1.00  0.00    -0.209 A  
HETATM   15  C   UNL     1      -9.002  10.279  63.735  1.00  0.00    -0.239 C  
HETATM   16  C   UNL     1      -8.292  10.885  66.028  1.00  0.00    -0.165 A  
HETATM   17  O   UNL     1      -8.921   9.210  62.919  1.00  0.00    -0.185 OA 
HETATM   18  C   UNL     1      -8.208  10.648  67.404  1.00  0.00    -0.115 A  
HETATM   19  O   UNL     1      -9.109  11.422  63.326  1.00  0.00    -0.190 OA 
ENDBRANCH   8  11
ENDBRANCH   4   8
ENDBRANCH   3   4
ENDBRANCH   2   3
TORSDOF 6
ENDMDL
MODEL      210
REMARK 921   NORMALIZED FREE ENERGY PREDICTED BY IDOCK:   -3.03 KCAL/MOL
REMARK 922        TOTAL FREE ENERGY PREDICTED BY IDOCK:   -4.88 KCAL/MOL
REMARK 923 INTER-LIGAND FREE ENERGY PREDICTED BY IDOCK:   -4.24 KCAL/MOL
REMARK 924 INTRA-LIGAND FREE ENERGY PREDICTED BY IDOCK:   -0.64 KCAL/MOL
REMARK 927      BINDING AFFINITY PREDICTED BY RF-SCORE:    0.00 PKD
ROOT
HETATM    1  C   UNL     1     -10.621  12.416  63.765  1.00  0.00    -0.486 C  
HETATM    2  C   UNL     1     -10.570  11.015  64.346  1.00  0.00    -0.395 C  
ENDROOT
BRANCH   2   3
HETATM    3  C   UNL     1      -9.272  10.687  65.090  1.00  0.00    -0.207 C  
BRANCH   3   4
HETATM    4  N   UNL     1      -9.289   9.445  65.967  1.00  0.00    -0.200 N  
BRANCH   4   5
HETATM    5  C   UNL     1      -8.460   8.334  65.370  1.00  0.00    -0.172 C  
BRANCH   5   6
HETATM    6  C   UNL     1      -8.812   6.917  65.836  1.00  0.00    -0.125 C  
HETATM    7  C   UNL     1      -7.743   6.256  66.691  1.00  0.00    -0.100 C  
ENDBRANCH   5   6
ENDBRANCH   4   5
BRANCH   4   8
HETATM    8  S   UNL     1      -8.825   9.866  67.608  1.00  0.00    -0.124 S  
HETATM    9  O   UNL     1      -9.547   9.057  68.561  1.00  0.00    -0.149 OA 
HETATM   10  O   UNL     1      -7.379   9.943  67.647  1.00  0.00    -0.088 OA 
BRANCH   8  11
HETATM   11  C   UNL     1      -9.472  11.516  67.848  1.00  0.00    -0.178 A  
HETATM   12  C   UNL     1     -10.821  11.670  68.197  1.00  0.00    -0.260 A  
HETATM   13  C   UNL     1     -11.298  12.918  68.613  1.00  0.00    -0.327 A  
HETATM   14  C   UNL     1     -10.425  14.012  68.679  1.00  0.00    -0.249 A  
HETATM   15  C   UNL     1     -10.858  15.346  69.174  1.00  0.00    -0.249 C  
HETATM   16  C   UNL     1      -9.072  13.844  68.347  1.00  0.00    -0.184 A  
HETATM   17  O   UNL     1     -12.123  15.665  68.838  1.00  0.00    -0.319 OA 
HETATM   18  C   UNL     1      -8.594  12.598  67.930  1.00  0.00    -0.181 A  
HETATM   19  O   UNL     1     -10.120  16.101  69.784  1.00  0.00    -0.245 OA 
ENDBRANCH   8  11
ENDBRANCH   4   8
ENDBRANCH   3   4
ENDBRANCH   2   3
TORSDOF 6
ENDMDL
MODEL      211
REMARK 921   NORMALIZED FREE ENERGY PREDICTED BY IDOCK:   -3.02 KCAL/MOL
REMARK 922        TOTAL FREE ENERGY PREDICTED BY IDOCK:   -4.86 KCAL/MOL
REMARK 923 INTER-LIGAND FREE ENERGY PREDICTED BY IDOCK:   -4.09 KCAL/MOL
REMARK 924 INTRA-LIGAND FREE ENERGY PREDICTED BY IDOCK:   -0.77 KCAL/MOL
REMARK 927      BINDING AFFINITY PREDICTED BY RF-SCORE:    0.00 PKD
ROOT
HETATM    1  C   UNL     1      -7.313   7.683  63.104  1.00  0.00    -0.097 C  
HETATM    2  C   UNL     1      -7.519   7.878  64.595  1.00  0.00    -0.101 C  
ENDROOT
BRANCH   2   3
HETATM    3  C   UNL     1      -8.064   6.646  65.324  1.00  0.00    -0.130 C  
BRANCH   3   4
HETATM    4  N   UNL     1      -8.715   6.891  66.676  1.00  0.00    -0.123 N  
BRANCH   4   5
HETATM    5  C   UNL     1      -9.835   7.899  66.576  1.00  0.00    -0.202 C  
BRANCH   5   6
HETATM    6  C   UNL     1      -9.734   9.100  67.522  1.00  0.00    -0.204 C  
HETATM    7  C   UNL     1      -8.513   9.083  68.427  1.00  0.00    -0.129 C  
ENDBRANCH   5   6
ENDBRANCH   4   5
BRANCH   4   8
HETATM    8  S   UNL     1      -9.203   5.363  67.389  1.00  0.00    -0.113 S  
HETATM    9  O   UNL     1     -10.338   4.815  66.684  1.00  0.00    -0.246 OA 
HETATM   10  O   UNL     1      -8.006   4.573  67.593  1.00  0.00    -0.094 OA 
BRANCH   8  11
HETATM   11  C   UNL     1      -9.853   5.804  68.996  1.00  0.00    -0.158 A  
HETATM   12  C   UNL     1      -8.957   6.032  70.050  1.00  0.00    -0.149 A  
HETATM   13  C   UNL     1      -9.413   6.597  71.246  1.00  0.00    -0.166 A  
HETATM   14  C   UNL     1     -10.766   6.932  71.389  1.00  0.00    -0.247 A  
HETATM   15  C   UNL     1     -11.297   7.593  72.611  1.00  0.00    -0.370 C  
HETATM   16  C   UNL     1     -11.652   6.719  70.322  1.00  0.00    -0.417 A  
HETATM   17  O   UNL     1     -10.703   7.186  73.749  1.00  0.00    -0.361 OA 
HETATM   18  C   UNL     1     -11.199   6.154  69.126  1.00  0.00    -0.409 A  
HETATM   19  O   UNL     1     -12.217   8.392  72.589  1.00  0.00    -0.380 OA 
ENDBRANCH   8  11
ENDBRANCH   4   8
ENDBRANCH   3   4
ENDBRANCH   2   3
TORSDOF 6
ENDMDL
MODEL      212
REMARK 921   NORMALIZED FREE ENERGY PREDICTED BY IDOCK:   -3.02 KCAL/MOL
REMARK 922        TOTAL FREE ENERGY PREDICTED BY IDOCK:   -4.86 KCAL/MOL
REMARK 923 INTER-LIGAND FREE ENERGY PREDICTED BY IDOCK:   -4.52 KCAL/MOL
REMARK 924 INTRA-LIGAND FREE ENERGY PREDICTED BY IDOCK:   -0.35 KCAL/MOL
REMARK 927      BINDING AFFINITY PREDICTED BY RF-SCORE:    0.00 PKD
ROOT
HETATM    1  C   UNL     1      -8.135   7.648  73.498  1.00  0.00    -0.190 C  
HETATM    2  C   UNL     1      -8.710   8.448  72.345  1.00  0.00    -0.280 C  
ENDROOT
BRANCH   2   3
HETATM    3  C   UNL     1      -8.914   7.645  71.057  1.00  0.00    -0.146 C  
BRANCH   3   4
HETATM    4  N   UNL     1      -9.013   8.445  69.767  1.00  0.00    -0.144 N  
BRANCH   4   5
HETATM    5  C   UNL     1      -8.011   7.970  68.743  1.00  0.00    -0.119 C  
BRANCH   5   6
HETATM    6  C   UNL     1      -7.678   6.475  68.783  1.00  0.00    -0.109 C  
HETATM    7  C   UNL     1      -7.066   5.936  67.500  1.00  0.00    -0.074 C  
ENDBRANCH   5   6
ENDBRANCH   4   5
BRANCH   4   8
HETATM    8  S   UNL     1     -10.670   8.438  69.187  1.00  0.00    -0.034 S  
HETATM    9  O   UNL     1     -10.883   7.338  68.275  1.00  0.00    -0.157 OA 
HETATM   10  O   UNL     1     -11.536   8.627  70.333  1.00  0.00    -0.209 OA 
BRANCH   8  11
HETATM   11  C   UNL     1     -10.792   9.895  68.158  1.00  0.00    -0.234 A  
HETATM   12  C   UNL     1     -10.386   9.815  66.818  1.00  0.00    -0.289 A  
HETATM   13  C   UNL     1     -10.679  10.859  65.934  1.00  0.00    -0.193 A  
HETATM   14  C   UNL     1     -11.379  11.984  66.391  1.00  0.00    -0.411 A  
HETATM   15  C   UNL     1     -11.775  13.096  65.485  1.00  0.00    -0.357 C  
HETATM   16  C   UNL     1     -11.799  12.048  67.728  1.00  0.00    -0.308 A  
HETATM   17  O   UNL     1     -10.872  13.357  64.520  1.00  0.00    -0.365 OA 
HETATM   18  C   UNL     1     -11.506  11.006  68.613  1.00  0.00    -0.375 A  
HETATM   19  O   UNL     1     -12.797  13.743  65.633  1.00  0.00    -0.521 OA 
ENDBRANCH   8  11
ENDBRANCH   4   8
ENDBRANCH   3   4
ENDBRANCH   2   3
TORSDOF 6
ENDMDL
MODEL      213
REMARK 921   NORMALIZED FREE ENERGY PREDICTED BY IDOCK:   -3.01 KCAL/MOL
REMARK 922        TOTAL FREE ENERGY PREDICTED BY IDOCK:   -4.85 KCAL/MOL
REMARK 923 INTER-LIGAND FREE ENERGY PREDICTED BY IDOCK:   -4.27 KCAL/MOL
REMARK 924 INTRA-LIGAND FREE ENERGY PREDICTED BY IDOCK:   -0.58 KCAL/MOL
REMARK 927      BINDING AFFINITY PREDICTED BY RF-SCORE:    0.00 PKD
ROOT
HETATM    1  C   UNL     1     -10.133   9.003  66.459  1.00  0.00    -0.354 C  
HETATM    2  C   UNL     1     -10.442   8.631  67.898  1.00  0.00    -0.269 C  
ENDROOT
BRANCH   2   3
HETATM    3  C   UNL     1      -9.417   9.139  68.916  1.00  0.00    -0.151 C  
BRANCH   3   4
HETATM    4  N   UNL     1      -9.968   9.625  70.248  1.00  0.00    -0.257 N  
BRANCH   4   5
HETATM    5  C   UNL     1     -11.477   9.586  70.270  1.00  0.00    -0.206 C  
BRANCH   5   6
HETATM    6  C   UNL     1     -12.173  10.932  70.495  1.00  0.00    -0.459 C  
HETATM    7  C   UNL     1     -11.596  12.078  69.681  1.00  0.00    -0.371 C  
ENDBRANCH   5   6
ENDBRANCH   4   5
BRANCH   4   8
HETATM    8  S   UNL     1      -9.221   8.734  71.564  1.00  0.00    -0.256 S  
HETATM    9  O   UNL     1      -7.859   9.172  71.763  1.00  0.00    -0.343 OA 
HETATM   10  O   UNL     1     -10.160   8.712  72.666  1.00  0.00    -0.251 OA 
BRANCH   8  11
HETATM   11  C   UNL     1      -9.061   7.064  70.943  1.00  0.00    -0.153 A  
HETATM   12  C   UNL     1     -10.214   6.279  70.806  1.00  0.00    -0.238 A  
HETATM   13  C   UNL     1     -10.155   5.063  70.115  1.00  0.00    -0.338 A  
HETATM   14  C   UNL     1      -8.941   4.634  69.562  1.00  0.00    -0.137 A  
HETATM   15  C   UNL     1      -8.829   3.384  68.763  1.00  0.00    -0.113 C  
HETATM   16  C   UNL     1      -7.796   5.435  69.687  1.00  0.00    -0.078 A  
HETATM   17  O   UNL     1      -9.625   2.388  69.200  1.00  0.00    -0.114 OA 
HETATM   18  C   UNL     1      -7.853   6.649  70.378  1.00  0.00    -0.106 A  
HETATM   19  O   UNL     1      -8.055   3.257  67.831  1.00  0.00    -0.077 OA 
ENDBRANCH   8  11
ENDBRANCH   4   8
ENDBRANCH   3   4
ENDBRANCH   2   3
TORSDOF 6
ENDMDL
MODEL      214
REMARK 921   NORMALIZED FREE ENERGY PREDICTED BY IDOCK:   -3.00 KCAL/MOL
REMARK 922        TOTAL FREE ENERGY PREDICTED BY IDOCK:   -4.84 KCAL/MOL
REMARK 923 INTER-LIGAND FREE ENERGY PREDICTED BY IDOCK:   -4.06 KCAL/MOL
REMARK 924 INTRA-LIGAND FREE ENERGY PREDICTED BY IDOCK:   -0.78 KCAL/MOL
REMARK 927      BINDING AFFINITY PREDICTED BY RF-SCORE:    0.00 PKD
ROOT
HETATM    1  C   UNL     1      -7.941   7.794  62.871  1.00  0.00    -0.130 C  
HETATM    2  C   UNL     1      -7.210   8.727  63.818  1.00  0.00    -0.096 C  
ENDROOT
BRANCH   2   3
HETATM    3  C   UNL     1      -7.891   8.908  65.178  1.00  0.00    -0.106 C  
BRANCH   3   4
HETATM    4  N   UNL     1      -8.476  10.281  65.466  1.00  0.00    -0.156 N  
BRANCH   4   5
HETATM    5  C   UNL     1      -9.924  10.365  65.048  1.00  0.00    -0.330 C  
BRANCH   5   6
HETATM    6  C   UNL     1     -10.222  11.297  63.869  1.00  0.00    -0.420 C  
HETATM    7  C   UNL     1     -11.103  12.486  64.219  1.00  0.00    -0.403 C  
ENDBRANCH   5   6
ENDBRANCH   4   5
BRANCH   4   8
HETATM    8  S   UNL     1      -8.204  10.706  67.148  1.00  0.00    -0.123 S  
HETATM    9  O   UNL     1      -8.830   9.741  68.021  1.00  0.00    -0.119 OA 
HETATM   10  O   UNL     1      -6.800  11.035  67.295  1.00  0.00    -0.077 OA 
BRANCH   8  11
HETATM   11  C   UNL     1      -9.150  12.203  67.393  1.00  0.00    -0.181 A  
HETATM   12  C   UNL     1     -10.070  12.259  68.450  1.00  0.00    -0.215 A  
HETATM   13  C   UNL     1     -10.653  13.480  68.807  1.00  0.00    -0.237 A  
HETATM   14  C   UNL     1     -10.315  14.645  68.106  1.00  0.00    -0.230 A  
HETATM   15  C   UNL     1     -10.853  15.981  68.479  1.00  0.00    -0.304 C  
HETATM   16  C   UNL     1      -9.379  14.585  67.063  1.00  0.00    -0.249 A  
HETATM   17  O   UNL     1     -12.123  15.949  68.926  1.00  0.00    -0.315 OA 
HETATM   18  C   UNL     1      -8.797  13.365  66.704  1.00  0.00    -0.076 A  
HETATM   19  O   UNL     1     -10.219  17.014  68.347  1.00  0.00    -0.290 OA 
ENDBRANCH   8  11
ENDBRANCH   4   8
ENDBRANCH   3   4
ENDBRANCH   2   3
TORSDOF 6
ENDMDL
MODEL      215
REMARK 921   NORMALIZED FREE ENERGY PREDICTED BY IDOCK:   -2.98 KCAL/MOL
REMARK 922        TOTAL FREE ENERGY PREDICTED BY IDOCK:   -4.81 KCAL/MOL
REMARK 923 INTER-LIGAND FREE ENERGY PREDICTED BY IDOCK:   -3.71 KCAL/MOL
REMARK 924 INTRA-LIGAND FREE ENERGY PREDICTED BY IDOCK:   -1.10 KCAL/MOL
REMARK 927      BINDING AFFINITY PREDICTED BY RF-SCORE:    0.00 PKD
ROOT
HETATM    1  C   UNL     1      -6.946   8.217  69.768  1.00  0.00    -0.048 C  
HETATM    2  C   UNL     1      -7.424   7.785  71.141  1.00  0.00    -0.078 C  
ENDROOT
BRANCH   2   3
HETATM    3  C   UNL     1      -8.596   8.604  71.690  1.00  0.00    -0.189 C  
BRANCH   3   4
HETATM    4  N   UNL     1      -9.871   7.838  72.005  1.00  0.00    -0.167 N  
BRANCH   4   5
HETATM    5  C   UNL     1     -10.101   7.734  73.493  1.00  0.00    -0.192 C  
BRANCH   5   6
HETATM    6  C   UNL     1     -10.134   6.312  74.063  1.00  0.00    -0.302 C  
HETATM    7  C   UNL     1      -9.271   5.315  73.307  1.00  0.00    -0.128 C  
ENDBRANCH   5   6
ENDBRANCH   4   5
BRANCH   4   8
HETATM    8  S   UNL     1     -11.221   8.540  71.130  1.00  0.00    -0.280 S  
HETATM    9  O   UNL     1     -12.377   7.679  71.207  1.00  0.00    -0.314 OA 
HETATM   10  O   UNL     1     -11.311   9.935  71.511  1.00  0.00    -0.343 OA 
BRANCH   8  11
HETATM   11  C   UNL     1     -10.730   8.468  69.412  1.00  0.00    -0.156 A  
HETATM   12  C   UNL     1     -10.435   9.663  68.740  1.00  0.00    -0.238 A  
HETATM   13  C   UNL     1      -9.833   9.625  67.478  1.00  0.00    -0.213 A  
HETATM   14  C   UNL     1      -9.527   8.392  66.886  1.00  0.00    -0.239 A  
HETATM   15  C   UNL     1      -8.830   8.289  65.576  1.00  0.00    -0.110 C  
HETATM   16  C   UNL     1      -9.809   7.201  67.574  1.00  0.00    -0.192 A  
HETATM   17  O   UNL     1      -9.174   9.254  64.702  1.00  0.00    -0.190 OA 
HETATM   18  C   UNL     1     -10.411   7.237  68.835  1.00  0.00    -0.216 A  
HETATM   19  O   UNL     1      -8.058   7.387  65.303  1.00  0.00    -0.121 OA 
ENDBRANCH   8  11
ENDBRANCH   4   8
ENDBRANCH   3   4
ENDBRANCH   2   3
TORSDOF 6
ENDMDL
MODEL      216
REMARK 921   NORMALIZED FREE ENERGY PREDICTED BY IDOCK:   -2.90 KCAL/MOL
REMARK 922        TOTAL FREE ENERGY PREDICTED BY IDOCK:   -4.71 KCAL/MOL
REMARK 923 INTER-LIGAND FREE ENERGY PREDICTED BY IDOCK:   -4.33 KCAL/MOL
REMARK 924 INTRA-LIGAND FREE ENERGY PREDICTED BY IDOCK:   -0.38 KCAL/MOL
REMARK 927      BINDING AFFINITY PREDICTED BY RF-SCORE:    0.00 PKD
ROOT
HETATM    1  C   UNL     1      -7.312  15.205  68.238  1.00  0.00    -0.114 C  
HETATM    2  C   UNL     1      -8.638  14.794  67.624  1.00  0.00    -0.180 C  
ENDROOT
BRANCH   2   3
HETATM    3  C   UNL     1      -9.308  13.599  68.308  1.00  0.00    -0.204 C  
BRANCH   3   4
HETATM    4  N   UNL     1     -10.180  12.716  67.429  1.00  0.00    -0.216 N  
BRANCH   4   5
HETATM    5  C   UNL     1     -10.524  13.399  66.127  1.00  0.00    -0.295 C  
BRANCH   5   6
HETATM    6  C   UNL     1     -11.885  13.036  65.525  1.00  0.00    -0.438 C  
HETATM    7  C   UNL     1     -12.182  13.711  64.196  1.00  0.00    -0.450 C  
ENDBRANCH   5   6
ENDBRANCH   4   5
BRANCH   4   8
HETATM    8  S   UNL     1      -9.425  11.145  67.223  1.00  0.00    -0.165 S  
HETATM    9  O   UNL     1     -10.197  10.327  66.318  1.00  0.00    -0.231 OA 
HETATM   10  O   UNL     1      -8.011  11.366  66.997  1.00  0.00    -0.144 OA 
BRANCH   8  11
HETATM   11  C   UNL     1      -9.612  10.344  68.811  1.00  0.00    -0.177 A  
HETATM   12  C   UNL     1     -10.776   9.606  69.065  1.00  0.00    -0.232 A  
HETATM   13  C   UNL     1     -10.852   8.786  70.196  1.00  0.00    -0.241 A  
HETATM   14  C   UNL     1      -9.763   8.706  71.074  1.00  0.00    -0.266 A  
HETATM   15  C   UNL     1      -9.760   7.805  72.258  1.00  0.00    -0.186 C  
HETATM   16  C   UNL     1      -8.594   9.433  70.802  1.00  0.00    -0.201 A  
HETATM   17  O   UNL     1     -10.963   7.687  72.853  1.00  0.00    -0.341 OA 
HETATM   18  C   UNL     1      -8.516  10.253  69.673  1.00  0.00    -0.132 A  
HETATM   19  O   UNL     1      -8.752   7.263  72.679  1.00  0.00    -0.119 OA 
ENDBRANCH   8  11
ENDBRANCH   4   8
ENDBRANCH   3   4
ENDBRANCH   2   3
TORSDOF 6
ENDMDL
MODEL      217
REMARK 921   NORMALIZED FREE ENERGY PREDICTED BY IDOCK:   -2.90 KCAL/MOL
REMARK 922        TOTAL FREE ENERGY PREDICTED BY IDOCK:   -4.70 KCAL/MOL
REMARK 923 INTER-LIGAND FREE ENERGY PREDICTED BY IDOCK:   -3.98 KCAL/MOL
REMARK 924 INTRA-LIGAND FREE ENERGY PREDICTED BY IDOCK:   -0.71 KCAL/MOL
REMARK 927      BINDING AFFINITY PREDICTED BY RF-SCORE:    0.00 PKD
ROOT
HETATM    1  C   UNL     1      -7.669   9.388  65.441  1.00  0.00    -0.103 C  
HETATM    2  C   UNL     1      -8.948   8.600  65.655  1.00  0.00    -0.231 C  
ENDROOT
BRANCH   2   3
HETATM    3  C   UNL     1      -9.916   9.229  66.662  1.00  0.00    -0.264 C  
BRANCH   3   4
HETATM    4  N   UNL     1      -9.982   8.580  68.036  1.00  0.00    -0.175 N  
BRANCH   4   5
HETATM    5  C   UNL     1      -9.499   7.150  67.996  1.00  0.00    -0.130 C  
BRANCH   5   6
HETATM    6  C   UNL     1      -9.857   6.293  69.214  1.00  0.00    -0.167 C  
HETATM    7  C   UNL     1     -11.343   6.246  69.530  1.00  0.00    -0.475 C  
ENDBRANCH   5   6
ENDBRANCH   4   5
BRANCH   4   8
HETATM    8  S   UNL     1      -9.138   9.577  69.209  1.00  0.00    -0.172 S  
HETATM    9  O   UNL     1      -9.796   9.514  70.493  1.00  0.00    -0.248 OA 
HETATM   10  O   UNL     1      -7.723   9.292  69.087  1.00  0.00    -0.075 OA 
BRANCH   8  11
HETATM   11  C   UNL     1      -9.413  11.254  68.654  1.00  0.00    -0.175 A  
HETATM   12  C   UNL     1     -10.651  11.859  68.911  1.00  0.00    -0.205 A  
HETATM   13  C   UNL     1     -10.817  13.232  68.697  1.00  0.00    -0.285 A  
HETATM   14  C   UNL     1      -9.744  14.000  68.225  1.00  0.00    -0.225 A  
HETATM   15  C   UNL     1      -9.840  15.472  68.038  1.00  0.00    -0.212 C  
HETATM   16  C   UNL     1      -8.502  13.390  67.988  1.00  0.00    -0.173 A  
HETATM   17  O   UNL     1     -11.049  15.887  67.614  1.00  0.00    -0.323 OA 
HETATM   18  C   UNL     1      -8.335  12.018  68.200  1.00  0.00    -0.165 A  
HETATM   19  O   UNL     1      -8.898  16.227  68.207  1.00  0.00    -0.180 OA 
ENDBRANCH   8  11
ENDBRANCH   4   8
ENDBRANCH   3   4
ENDBRANCH   2   3
TORSDOF 6
ENDMDL
MODEL      218
REMARK 921   NORMALIZED FREE ENERGY PREDICTED BY IDOCK:   -2.89 KCAL/MOL
REMARK 922        TOTAL FREE ENERGY PREDICTED BY IDOCK:   -4.69 KCAL/MOL
REMARK 923 INTER-LIGAND FREE ENERGY PREDICTED BY IDOCK:   -4.12 KCAL/MOL
REMARK 924 INTRA-LIGAND FREE ENERGY PREDICTED BY IDOCK:   -0.57 KCAL/MOL
REMARK 927      BINDING AFFINITY PREDICTED BY RF-SCORE:    0.00 PKD
ROOT
HETATM    1  C   UNL     1     -12.570   8.818  71.355  1.00  0.00    -0.337 C  
HETATM    2  C   UNL     1     -13.189   7.433  71.373  1.00  0.00    -0.395 C  
ENDROOT
BRANCH   2   3
HETATM    3  C   UNL     1     -12.327   6.364  72.052  1.00  0.00    -0.216 C  
BRANCH   3   4
HETATM    4  N   UNL     1     -10.833   6.639  72.117  1.00  0.00    -0.222 N  
BRANCH   4   5
HETATM    5  C   UNL     1     -10.200   5.974  73.315  1.00  0.00    -0.206 C  
BRANCH   5   6
HETATM    6  C   UNL     1     -10.750   4.589  73.674  1.00  0.00    -0.344 C  
HETATM    7  C   UNL     1      -9.822   3.437  73.322  1.00  0.00    -0.170 C  
ENDBRANCH   5   6
ENDBRANCH   4   5
BRANCH   4   8
HETATM    8  S   UNL     1     -10.080   6.206  70.591  1.00  0.00    -0.200 S  
HETATM    9  O   UNL     1      -8.731   5.737  70.807  1.00  0.00    -0.127 OA 
HETATM   10  O   UNL     1     -11.030   5.408  69.844  1.00  0.00    -0.250 OA 
BRANCH   8  11
HETATM   11  C   UNL     1      -9.873   7.763  69.734  1.00  0.00    -0.178 A  
HETATM   12  C   UNL     1      -9.182   8.802  70.374  1.00  0.00    -0.204 A  
HETATM   13  C   UNL     1      -8.807   9.941  69.652  1.00  0.00    -0.224 A  
HETATM   14  C   UNL     1      -9.124  10.040  68.291  1.00  0.00    -0.122 A  
HETATM   15  C   UNL     1      -8.696  11.195  67.457  1.00  0.00    -0.129 C  
HETATM   16  C   UNL     1      -9.798   8.987  67.654  1.00  0.00    -0.220 A  
HETATM   17  O   UNL     1      -8.701  12.371  68.116  1.00  0.00    -0.179 OA 
HETATM   18  C   UNL     1     -10.174   7.849  68.373  1.00  0.00    -0.232 A  
HETATM   19  O   UNL     1      -8.415  11.096  66.276  1.00  0.00    -0.166 OA 
ENDBRANCH   8  11
ENDBRANCH   4   8
ENDBRANCH   3   4
ENDBRANCH   2   3
TORSDOF 6
ENDMDL
MODEL      219
REMARK 921   NORMALIZED FREE ENERGY PREDICTED BY IDOCK:   -2.89 KCAL/MOL
REMARK 922        TOTAL FREE ENERGY PREDICTED BY IDOCK:   -4.69 KCAL/MOL
REMARK 923 INTER-LIGAND FREE ENERGY PREDICTED BY IDOCK:   -4.47 KCAL/MOL
REMARK 924 INTRA-LIGAND FREE ENERGY PREDICTED BY IDOCK:   -0.22 KCAL/MOL
REMARK 927      BINDING AFFINITY PREDICTED BY RF-SCORE:    0.00 PKD
ROOT
HETATM    1  C   UNL     1     -10.442   8.177  72.645  1.00  0.00    -0.401 C  
HETATM    2  C   UNL     1     -11.100   7.171  71.720  1.00  0.00    -0.267 C  
ENDROOT
BRANCH   2   3
HETATM    3  C   UNL     1     -10.941   7.485  70.229  1.00  0.00    -0.250 C  
BRANCH   3   4
HETATM    4  N   UNL     1      -9.534   7.805  69.749  1.00  0.00    -0.160 N  
BRANCH   4   5
HETATM    5  C   UNL     1      -8.608   6.626  69.926  1.00  0.00    -0.140 C  
BRANCH   5   6
HETATM    6  C   UNL     1      -8.646   5.578  68.809  1.00  0.00    -0.100 C  
HETATM    7  C   UNL     1      -9.706   4.505  68.992  1.00  0.00    -0.235 C  
ENDBRANCH   5   6
ENDBRANCH   4   5
BRANCH   4   8
HETATM    8  S   UNL     1      -9.589   8.418  68.105  1.00  0.00    -0.146 S  
HETATM    9  O   UNL     1      -8.266   8.433  67.526  1.00  0.00    -0.122 OA 
HETATM   10  O   UNL     1     -10.685   7.756  67.428  1.00  0.00    -0.278 OA 
BRANCH   8  11
HETATM   11  C   UNL     1     -10.013  10.146  68.283  1.00  0.00    -0.148 A  
HETATM   12  C   UNL     1      -8.987  11.102  68.259  1.00  0.00    -0.166 A  
HETATM   13  C   UNL     1      -9.301  12.462  68.166  1.00  0.00    -0.209 A  
HETATM   14  C   UNL     1     -10.640  12.867  68.097  1.00  0.00    -0.249 A  
HETATM   15  C   UNL     1     -11.034  14.292  67.933  1.00  0.00    -0.267 C  
HETATM   16  C   UNL     1     -11.660  11.903  68.103  1.00  0.00    -0.400 A  
HETATM   17  O   UNL     1     -10.224  15.155  68.577  1.00  0.00    -0.221 OA 
HETATM   18  C   UNL     1     -11.349  10.543  68.197  1.00  0.00    -0.324 A  
HETATM   19  O   UNL     1     -12.023  14.642  67.314  1.00  0.00    -0.391 OA 
ENDBRANCH   8  11
ENDBRANCH   4   8
ENDBRANCH   3   4
ENDBRANCH   2   3
TORSDOF 6
ENDMDL
MODEL      220
REMARK 921   NORMALIZED FREE ENERGY PREDICTED BY IDOCK:   -2.87 KCAL/MOL
REMARK 922        TOTAL FREE ENERGY PREDICTED BY IDOCK:   -4.66 KCAL/MOL
REMARK 923 INTER-LIGAND FREE ENERGY PREDICTED BY IDOCK:   -4.20 KCAL/MOL
REMARK 924 INTRA-LIGAND FREE ENERGY PREDICTED BY IDOCK:   -0.46 KCAL/MOL
REMARK 927      BINDING AFFINITY PREDICTED BY RF-SCORE:    0.00 PKD
ROOT
HETATM    1  C   UNL     1     -10.723   6.553  67.014  1.00  0.00    -0.434 C  
HETATM    2  C   UNL     1     -10.715   8.069  66.967  1.00  0.00    -0.263 C  
ENDROOT
BRANCH   2   3
HETATM    3  C   UNL     1      -9.543   8.671  66.186  1.00  0.00    -0.235 C  
BRANCH   3   4
HETATM    4  N   UNL     1      -9.221  10.131  66.463  1.00  0.00    -0.151 N  
BRANCH   4   5
HETATM    5  C   UNL     1     -10.450  10.897  66.888  1.00  0.00    -0.249 C  
BRANCH   5   6
HETATM    6  C   UNL     1     -10.986  11.910  65.871  1.00  0.00    -0.354 C  
HETATM    7  C   UNL     1     -10.335  13.282  65.953  1.00  0.00    -0.293 C  
ENDBRANCH   5   6
ENDBRANCH   4   5
BRANCH   4   8
HETATM    8  S   UNL     1      -7.892  10.242  67.605  1.00  0.00    -0.098 S  
HETATM    9  O   UNL     1      -6.774   9.445  67.159  1.00  0.00    -0.073 OA 
HETATM   10  O   UNL     1      -7.717  11.641  67.938  1.00  0.00    -0.113 OA 
BRANCH   8  11
HETATM   11  C   UNL     1      -8.482   9.397  69.066  1.00  0.00    -0.129 A  
HETATM   12  C   UNL     1      -9.582   9.925  69.757  1.00  0.00    -0.261 A  
HETATM   13  C   UNL     1     -10.206   9.173  70.759  1.00  0.00    -0.325 A  
HETATM   14  C   UNL     1      -9.728   7.893  71.070  1.00  0.00    -0.178 A  
HETATM   15  C   UNL     1     -10.388   7.021  72.079  1.00  0.00    -0.198 C  
HETATM   16  C   UNL     1      -8.639   7.364  70.361  1.00  0.00    -0.144 A  
HETATM   17  O   UNL     1     -10.895   7.696  73.129  1.00  0.00    -0.382 OA 
HETATM   18  C   UNL     1      -8.013   8.114  69.360  1.00  0.00    -0.114 A  
HETATM   19  O   UNL     1     -10.422   5.806  71.988  1.00  0.00    -0.205 OA 
ENDBRANCH   8  11
ENDBRANCH   4   8
ENDBRANCH   3   4
ENDBRANCH   2   3
TORSDOF 6
ENDMDL
MODEL      221
REMARK 921   NORMALIZED FREE ENERGY PREDICTED BY IDOCK:   -2.86 KCAL/MOL
REMARK 922        TOTAL FREE ENERGY PREDICTED BY IDOCK:   -4.64 KCAL/MOL
REMARK 923 INTER-LIGAND FREE ENERGY PREDICTED BY IDOCK:   -4.41 KCAL/MOL
REMARK 924 INTRA-LIGAND FREE ENERGY PREDICTED BY IDOCK:   -0.23 KCAL/MOL
REMARK 927      BINDING AFFINITY PREDICTED BY RF-SCORE:    0.00 PKD
ROOT
HETATM    1  C   UNL     1     -10.262  13.672  66.884  1.00  0.00    -0.261 C  
HETATM    2  C   UNL     1     -10.051  12.888  68.166  1.00  0.00    -0.240 C  
ENDROOT
BRANCH   2   3
HETATM    3  C   UNL     1     -10.884  11.607  68.268  1.00  0.00    -0.219 C  
BRANCH   3   4
HETATM    4  N   UNL     1     -10.816  10.856  69.588  1.00  0.00    -0.239 N  
BRANCH   4   5
HETATM    5  C   UNL     1     -12.096  10.105  69.865  1.00  0.00    -0.034 C  
BRANCH   5   6
HETATM    6  C   UNL     1     -12.576  10.123  71.319  1.00  0.00    -0.508 C  
HETATM    7  C   UNL     1     -13.228   8.829  71.780  1.00  0.00    -0.410 C  
ENDBRANCH   5   6
ENDBRANCH   4   5
BRANCH   4   8
HETATM    8  S   UNL     1      -9.382   9.843  69.626  1.00  0.00    -0.223 S  
HETATM    9  O   UNL     1      -8.342  10.408  68.799  1.00  0.00    -0.117 OA 
HETATM   10  O   UNL     1      -9.124   9.502  71.010  1.00  0.00    -0.224 OA 
BRANCH   8  11
HETATM   11  C   UNL     1      -9.865   8.349  68.771  1.00  0.00    -0.173 A  
HETATM   12  C   UNL     1     -10.000   8.380  67.376  1.00  0.00    -0.274 A  
HETATM   13  C   UNL     1     -10.150   7.187  66.660  1.00  0.00    -0.229 A  
HETATM   14  C   UNL     1     -10.165   5.962  67.341  1.00  0.00    -0.237 A  
HETATM   15  C   UNL     1     -10.257   4.658  66.631  1.00  0.00    -0.213 C  
HETATM   16  C   UNL     1     -10.009   5.938  68.736  1.00  0.00    -0.195 A  
HETATM   17  O   UNL     1     -11.036   4.693  65.532  1.00  0.00    -0.255 OA 
HETATM   18  C   UNL     1      -9.861   7.130  69.452  1.00  0.00    -0.161 A  
HETATM   19  O   UNL     1      -9.717   3.642  67.033  1.00  0.00    -0.197 OA 
ENDBRANCH   8  11
ENDBRANCH   4   8
ENDBRANCH   3   4
ENDBRANCH   2   3
TORSDOF 6
ENDMDL
MODEL      222
REMARK 921   NORMALIZED FREE ENERGY PREDICTED BY IDOCK:   -2.84 KCAL/MOL
REMARK 922        TOTAL FREE ENERGY PREDICTED BY IDOCK:   -4.62 KCAL/MOL
REMARK 923 INTER-LIGAND FREE ENERGY PREDICTED BY IDOCK:   -3.78 KCAL/MOL
REMARK 924 INTRA-LIGAND FREE ENERGY PREDICTED BY IDOCK:   -0.83 KCAL/MOL
REMARK 927      BINDING AFFINITY PREDICTED BY RF-SCORE:    0.00 PKD
ROOT
HETATM    1  C   UNL     1      -6.825   8.178  69.716  1.00  0.00    -0.040 C  
HETATM    2  C   UNL     1      -7.069   6.747  69.275  1.00  0.00    -0.087 C  
ENDROOT
BRANCH   2   3
HETATM    3  C   UNL     1      -8.482   6.229  69.563  1.00  0.00    -0.129 C  
BRANCH   3   4
HETATM    4  N   UNL     1      -9.275   5.721  68.369  1.00  0.00    -0.117 N  
BRANCH   4   5
HETATM    5  C   UNL     1      -9.462   4.224  68.426  1.00  0.00    -0.155 C  
BRANCH   5   6
HETATM    6  C   UNL     1      -9.242   3.476  67.107  1.00  0.00    -0.217 C  
HETATM    7  C   UNL     1      -7.944   2.688  67.043  1.00  0.00    -0.075 C  
ENDBRANCH   5   6
ENDBRANCH   4   5
BRANCH   4   8
HETATM    8  S   UNL     1     -10.779   6.615  68.227  1.00  0.00    -0.260 S  
HETATM    9  O   UNL     1     -11.346   6.445  66.909  1.00  0.00    -0.304 OA 
HETATM   10  O   UNL     1     -11.565   6.340  69.412  1.00  0.00    -0.403 OA 
BRANCH   8  11
HETATM   11  C   UNL     1     -10.287   8.334  68.278  1.00  0.00    -0.198 A  
HETATM   12  C   UNL     1      -9.790   8.932  67.111  1.00  0.00    -0.267 A  
HETATM   13  C   UNL     1      -9.615  10.319  67.056  1.00  0.00    -0.205 A  
HETATM   14  C   UNL     1      -9.935  11.108  68.169  1.00  0.00    -0.189 A  
HETATM   15  C   UNL     1      -9.830  12.591  68.149  1.00  0.00    -0.221 C  
HETATM   16  C   UNL     1     -10.450  10.503  69.326  1.00  0.00    -0.258 A  
HETATM   17  O   UNL     1      -8.794  13.052  67.421  1.00  0.00    -0.183 OA 
HETATM   18  C   UNL     1     -10.626   9.117  69.383  1.00  0.00    -0.232 A  
HETATM   19  O   UNL     1     -10.582  13.320  68.773  1.00  0.00    -0.244 OA 
ENDBRANCH   8  11
ENDBRANCH   4   8
ENDBRANCH   3   4
ENDBRANCH   2   3
TORSDOF 6
ENDMDL
MODEL      223
REMARK 921   NORMALIZED FREE ENERGY PREDICTED BY IDOCK:   -2.84 KCAL/MOL
REMARK 922        TOTAL FREE ENERGY PREDICTED BY IDOCK:   -4.62 KCAL/MOL
REMARK 923 INTER-LIGAND FREE ENERGY PREDICTED BY IDOCK:   -4.02 KCAL/MOL
REMARK 924 INTRA-LIGAND FREE ENERGY PREDICTED BY IDOCK:   -0.60 KCAL/MOL
REMARK 927      BINDING AFFINITY PREDICTED BY RF-SCORE:    0.00 PKD
ROOT
HETATM    1  C   UNL     1      -9.973   4.363  66.647  1.00  0.00    -0.234 C  
HETATM    2  C   UNL     1     -10.361   5.795  66.965  1.00  0.00    -0.303 C  
ENDROOT
BRANCH   2   3
HETATM    3  C   UNL     1      -9.383   6.523  67.893  1.00  0.00    -0.111 C  
BRANCH   3   4
HETATM    4  N   UNL     1      -8.417   7.494  67.233  1.00  0.00    -0.118 N  
BRANCH   4   5
HETATM    5  C   UNL     1      -8.755   7.707  65.777  1.00  0.00    -0.125 C  
BRANCH   5   6
HETATM    6  C   UNL     1      -7.627   7.412  64.784  1.00  0.00    -0.103 C  
HETATM    7  C   UNL     1      -6.230   7.515  65.374  1.00  0.00    -0.038 C  
ENDBRANCH   5   6
ENDBRANCH   4   5
BRANCH   4   8
HETATM    8  S   UNL     1      -8.338   8.982  68.162  1.00  0.00    -0.121 S  
HETATM    9  O   UNL     1      -9.004   8.821  69.433  1.00  0.00    -0.141 OA 
HETATM   10  O   UNL     1      -6.975   9.467  68.097  1.00  0.00    -0.073 OA 
BRANCH   8  11
HETATM   11  C   UNL     1      -9.375  10.129  67.263  1.00  0.00    -0.152 A  
HETATM   12  C   UNL     1     -10.704  10.307  67.674  1.00  0.00    -0.339 A  
HETATM   13  C   UNL     1     -11.466  11.354  67.143  1.00  0.00    -0.268 A  
HETATM   14  C   UNL     1     -10.899  12.222  66.201  1.00  0.00    -0.314 A  
HETATM   15  C   UNL     1     -11.637  13.390  65.650  1.00  0.00    -0.327 C  
HETATM   16  C   UNL     1      -9.562  12.049  65.811  1.00  0.00    -0.227 A  
HETATM   17  O   UNL     1     -12.955  13.166  65.477  1.00  0.00    -0.536 OA 
HETATM   18  C   UNL     1      -8.799  11.003  66.339  1.00  0.00    -0.182 A  
HETATM   19  O   UNL     1     -11.093  14.435  65.338  1.00  0.00    -0.305 OA 
ENDBRANCH   8  11
ENDBRANCH   4   8
ENDBRANCH   3   4
ENDBRANCH   2   3
TORSDOF 6
ENDMDL
MODEL      224
REMARK 921   NORMALIZED FREE ENERGY PREDICTED BY IDOCK:   -2.81 KCAL/MOL
REMARK 922        TOTAL FREE ENERGY PREDICTED BY IDOCK:   -4.58 KCAL/MOL
REMARK 923 INTER-LIGAND FREE ENERGY PREDICTED BY IDOCK:   -4.00 KCAL/MOL
REMARK 924 INTRA-LIGAND FREE ENERGY PREDICTED BY IDOCK:   -0.58 KCAL/MOL
REMARK 927      BINDING AFFINITY PREDICTED BY RF-SCORE:    0.00 PKD
ROOT
HETATM    1  C   UNL     1     -12.062  11.490  69.899  1.00  0.00    -0.389 C  
HETATM    2  C   UNL     1     -10.884  10.558  70.113  1.00  0.00    -0.291 C  
ENDROOT
BRANCH   2   3
HETATM    3  C   UNL     1     -10.992   9.222  69.371  1.00  0.00    -0.120 C  
BRANCH   3   4
HETATM    4  N   UNL     1     -10.570   7.982  70.142  1.00  0.00    -0.233 N  
BRANCH   4   5
HETATM    5  C   UNL     1     -11.599   7.597  71.178  1.00  0.00    -0.280 C  
BRANCH   5   6
HETATM    6  C   UNL     1     -11.187   7.815  72.637  1.00  0.00    -0.438 C  
HETATM    7  C   UNL     1      -9.697   8.036  72.840  1.00  0.00    -0.353 C  
ENDBRANCH   5   6
ENDBRANCH   4   5
BRANCH   4   8
HETATM    8  S   UNL     1     -10.178   6.687  69.023  1.00  0.00    -0.189 S  
HETATM    9  O   UNL     1      -9.341   5.700  69.664  1.00  0.00    -0.133 OA 
HETATM   10  O   UNL     1     -11.405   6.298  68.358  1.00  0.00    -0.298 OA 
BRANCH   8  11
HETATM   11  C   UNL     1      -9.110   7.450  67.808  1.00  0.00    -0.129 A  
HETATM   12  C   UNL     1      -9.629   7.745  66.540  1.00  0.00    -0.270 A  
HETATM   13  C   UNL     1      -8.897   8.542  65.652  1.00  0.00    -0.214 A  
HETATM   14  C   UNL     1      -7.645   9.044  66.035  1.00  0.00    -0.094 A  
HETATM   15  C   UNL     1      -6.850   9.947  65.161  1.00  0.00    -0.124 C  
HETATM   16  C   UNL     1      -7.143   8.760  67.314  1.00  0.00    -0.079 A  
HETATM   17  O   UNL     1      -6.958   9.666  63.848  1.00  0.00    -0.103 OA 
HETATM   18  C   UNL     1      -7.872   7.963  68.201  1.00  0.00    -0.127 A  
HETATM   19  O   UNL     1      -6.130  10.829  65.595  1.00  0.00    -0.136 OA 
ENDBRANCH   8  11
ENDBRANCH   4   8
ENDBRANCH   3   4
ENDBRANCH   2   3
TORSDOF 6
ENDMDL
MODEL      225
REMARK 921   NORMALIZED FREE ENERGY PREDICTED BY IDOCK:   -2.79 KCAL/MOL
REMARK 922        TOTAL FREE ENERGY PREDICTED BY IDOCK:   -4.55 KCAL/MOL
REMARK 923 INTER-LIGAND FREE ENERGY PREDICTED BY IDOCK:   -3.90 KCAL/MOL
REMARK 924 INTRA-LIGAND FREE ENERGY PREDICTED BY IDOCK:   -0.65 KCAL/MOL
REMARK 927      BINDING AFFINITY PREDICTED BY RF-SCORE:    0.00 PKD
ROOT
HETATM    1  C   UNL     1      -9.538   7.588  68.188  1.00  0.00    -0.155 C  
HETATM    2  C   UNL     1     -10.761   8.190  68.855  1.00  0.00    -0.090 C  
ENDROOT
BRANCH   2   3
HETATM    3  C   UNL     1     -10.484   8.845  70.212  1.00  0.00    -0.210 C  
BRANCH   3   4
HETATM    4  N   UNL     1     -11.188   8.239  71.415  1.00  0.00    -0.246 N  
BRANCH   4   5
HETATM    5  C   UNL     1     -12.203   7.202  70.997  1.00  0.00    -0.343 C  
BRANCH   5   6
HETATM    6  C   UNL     1     -13.526   7.219  71.770  1.00  0.00    -0.373 C  
HETATM    7  C   UNL     1     -14.400   8.431  71.488  1.00  0.00    -0.499 C  
ENDBRANCH   5   6
ENDBRANCH   4   5
BRANCH   4   8
HETATM    8  S   UNL     1     -10.002   7.641  72.563  1.00  0.00    -0.230 S  
HETATM    9  O   UNL     1      -8.942   8.605  72.744  1.00  0.00    -0.356 OA 
HETATM   10  O   UNL     1     -10.723   7.112  73.702  1.00  0.00    -0.375 OA 
BRANCH   8  11
HETATM   11  C   UNL     1      -9.215   6.271  71.724  1.00  0.00    -0.144 A  
HETATM   12  C   UNL     1      -9.991   5.160  71.367  1.00  0.00    -0.252 A  
HETATM   13  C   UNL     1      -9.462   4.183  70.516  1.00  0.00    -0.243 A  
HETATM   14  C   UNL     1      -8.158   4.318  70.023  1.00  0.00    -0.061 A  
HETATM   15  C   UNL     1      -7.565   3.346  69.065  1.00  0.00    -0.052 C  
HETATM   16  C   UNL     1      -7.395   5.443  70.370  1.00  0.00    -0.070 A  
HETATM   17  O   UNL     1      -7.950   2.072  69.276  1.00  0.00    -0.045 OA 
HETATM   18  C   UNL     1      -7.921   6.420  71.221  1.00  0.00    -0.112 A  
HETATM   19  O   UNL     1      -6.767   3.666  68.201  1.00  0.00    -0.044 OA 
ENDBRANCH   8  11
ENDBRANCH   4   8
ENDBRANCH   3   4
ENDBRANCH   2   3
TORSDOF 6
ENDMDL
MODEL      226
REMARK 921   NORMALIZED FREE ENERGY PREDICTED BY IDOCK:   -2.79 KCAL/MOL
REMARK 922        TOTAL FREE ENERGY PREDICTED BY IDOCK:   -4.55 KCAL/MOL
REMARK 923 INTER-LIGAND FREE ENERGY PREDICTED BY IDOCK:   -5.54 KCAL/MOL
REMARK 924 INTRA-LIGAND FREE ENERGY PREDICTED BY IDOCK:    0.99 KCAL/MOL
REMARK 927      BINDING AFFINITY PREDICTED BY RF-SCORE:    0.00 PKD
ROOT
HETATM    1  C   UNL     1     -13.920  12.792  72.447  1.00  0.00    -0.236 C  
HETATM    2  C   UNL     1     -13.239  13.261  71.175  1.00  0.00    -0.145 C  
ENDROOT
BRANCH   2   3
HETATM    3  C   UNL     1     -13.530  14.718  70.803  1.00  0.00    -0.189 C  
BRANCH   3   4
HETATM    4  N   UNL     1     -12.323  15.618  70.593  1.00  0.00    -0.413 N  
BRANCH   4   5
HETATM    5  C   UNL     1     -12.009  16.421  71.833  1.00  0.00    -0.324 C  
BRANCH   5   6
HETATM    6  C   UNL     1     -12.976  16.234  73.007  1.00  0.00    -0.362 C  
HETATM    7  C   UNL     1     -12.345  15.622  74.247  1.00  0.00    -0.813 C  
ENDBRANCH   5   6
ENDBRANCH   4   5
BRANCH   4   8
HETATM    8  S   UNL     1     -10.966  14.671  70.006  1.00  0.00    -0.044 S  
HETATM    9  O   UNL     1      -9.726  15.385  70.206  1.00  0.00    -0.096 OA 
HETATM   10  O   UNL     1     -11.130  13.319  70.499  1.00  0.00     0.601 OA 
BRANCH   8  11
HETATM   11  C   UNL     1     -11.175  14.640  68.230  1.00  0.00    -0.285 A  
HETATM   12  C   UNL     1     -12.049  13.699  67.667  1.00  0.00    -0.328 A  
HETATM   13  C   UNL     1     -12.408  13.797  66.318  1.00  0.00    -0.479 A  
HETATM   14  C   UNL     1     -11.891  14.836  65.532  1.00  0.00    -0.231 A  
HETATM   15  C   UNL     1     -12.285  15.030  64.110  1.00  0.00    -0.211 C  
HETATM   16  C   UNL     1     -11.033  15.785  66.108  1.00  0.00    -0.169 A  
HETATM   17  O   UNL     1     -12.491  13.877  63.443  1.00  0.00    -0.833 OA 
HETATM   18  C   UNL     1     -10.672  15.688  67.455  1.00  0.00    -0.303 A  
HETATM   19  O   UNL     1     -12.366  16.127  63.586  1.00  0.00    -0.680 OA 
ENDBRANCH   8  11
ENDBRANCH   4   8
ENDBRANCH   3   4
ENDBRANCH   2   3
TORSDOF 6
ENDMDL
MODEL      227
REMARK 921   NORMALIZED FREE ENERGY PREDICTED BY IDOCK:   -2.77 KCAL/MOL
REMARK 922        TOTAL FREE ENERGY PREDICTED BY IDOCK:   -4.53 KCAL/MOL
REMARK 923 INTER-LIGAND FREE ENERGY PREDICTED BY IDOCK:   -4.23 KCAL/MOL
REMARK 924 INTRA-LIGAND FREE ENERGY PREDICTED BY IDOCK:   -0.30 KCAL/MOL
REMARK 927      BINDING AFFINITY PREDICTED BY RF-SCORE:    0.00 PKD
ROOT
HETATM    1  C   UNL     1      -5.438   7.393  69.139  1.00  0.00    -0.015 C  
HETATM    2  C   UNL     1      -6.869   7.163  69.588  1.00  0.00    -0.050 C  
ENDROOT
BRANCH   2   3
HETATM    3  C   UNL     1      -7.911   7.987  68.826  1.00  0.00    -0.114 C  
BRANCH   3   4
HETATM    4  N   UNL     1      -8.914   8.758  69.670  1.00  0.00    -0.143 N  
BRANCH   4   5
HETATM    5  C   UNL     1      -8.508  10.204  69.828  1.00  0.00    -0.128 C  
BRANCH   5   6
HETATM    6  C   UNL     1      -7.191  10.601  69.154  1.00  0.00    -0.102 C  
HETATM    7  C   UNL     1      -7.356  11.502  67.940  1.00  0.00    -0.094 C  
ENDBRANCH   5   6
ENDBRANCH   4   5
BRANCH   4   8
HETATM    8  S   UNL     1     -10.530   8.548  69.016  1.00  0.00    -0.164 S  
HETATM    9  O   UNL     1     -10.502   8.588  67.573  1.00  0.00    -0.249 OA 
HETATM   10  O   UNL     1     -11.143   7.436  69.714  1.00  0.00    -0.234 OA 
BRANCH   8  11
HETATM   11  C   UNL     1     -11.401  10.039  69.483  1.00  0.00    -0.169 A  
HETATM   12  C   UNL     1     -11.902  10.151  70.787  1.00  0.00    -0.443 A  
HETATM   13  C   UNL     1     -12.381  11.382  71.249  1.00  0.00    -0.344 A  
HETATM   14  C   UNL     1     -12.359  12.501  70.405  1.00  0.00    -0.311 A  
HETATM   15  C   UNL     1     -12.795  13.848  70.860  1.00  0.00    -0.300 C  
HETATM   16  C   UNL     1     -11.838  12.384  69.108  1.00  0.00    -0.352 A  
HETATM   17  O   UNL     1     -13.831  13.822  71.721  1.00  0.00    -0.370 OA 
HETATM   18  C   UNL     1     -11.360  11.155  68.644  1.00  0.00    -0.342 A  
HETATM   19  O   UNL     1     -12.294  14.882  70.453  1.00  0.00    -0.307 OA 
ENDBRANCH   8  11
ENDBRANCH   4   8
ENDBRANCH   3   4
ENDBRANCH   2   3
TORSDOF 6
ENDMDL
MODEL      228
REMARK 921   NORMALIZED FREE ENERGY PREDICTED BY IDOCK:   -2.76 KCAL/MOL
REMARK 922        TOTAL FREE ENERGY PREDICTED BY IDOCK:   -4.52 KCAL/MOL
REMARK 923 INTER-LIGAND FREE ENERGY PREDICTED BY IDOCK:   -4.83 KCAL/MOL
REMARK 924 INTRA-LIGAND FREE ENERGY PREDICTED BY IDOCK:    0.31 KCAL/MOL
REMARK 927      BINDING AFFINITY PREDICTED BY RF-SCORE:    0.00 PKD
ROOT
HETATM    1  C   UNL     1     -12.283  12.732  63.705  1.00  0.00    -0.597 C  
HETATM    2  C   UNL     1     -12.896  13.373  64.936  1.00  0.00    -0.292 C  
ENDROOT
BRANCH   2   3
HETATM    3  C   UNL     1     -12.155  13.069  66.242  1.00  0.00    -0.386 C  
BRANCH   3   4
HETATM    4  N   UNL     1     -11.944  14.240  67.189  1.00  0.00    -0.420 N  
BRANCH   4   5
HETATM    5  C   UNL     1     -11.984  13.798  68.632  1.00  0.00    -0.366 C  
BRANCH   5   6
HETATM    6  C   UNL     1     -11.367  12.426  68.924  1.00  0.00    -0.342 C  
HETATM    7  C   UNL     1     -12.285  11.473  69.671  1.00  0.00    -0.296 C  
ENDBRANCH   5   6
ENDBRANCH   4   5
BRANCH   4   8
HETATM    8  S   UNL     1     -10.476  15.102  66.757  1.00  0.00    -0.288 S  
HETATM    9  O   UNL     1     -10.518  15.509  65.373  1.00  0.00    -0.349 OA 
HETATM   10  O   UNL     1     -10.211  16.066  67.805  1.00  0.00    -0.249 OA 
BRANCH   8  11
HETATM   11  C   UNL     1      -9.192  13.858  66.813  1.00  0.00    -0.254 A  
HETATM   12  C   UNL     1      -8.078  14.071  67.637  1.00  0.00    -0.180 A  
HETATM   13  C   UNL     1      -7.177  13.028  67.878  1.00  0.00    -0.129 A  
HETATM   14  C   UNL     1      -7.390  11.773  67.294  1.00  0.00    -0.141 A  
HETATM   15  C   UNL     1      -6.503  10.609  67.563  1.00  0.00    -0.058 C  
HETATM   16  C   UNL     1      -8.518  11.562  66.487  1.00  0.00    -0.160 A  
HETATM   17  O   UNL     1      -5.205  10.939  67.713  1.00  0.00    -0.040 OA 
HETATM   18  C   UNL     1      -9.419  12.603  66.244  1.00  0.00    -0.207 A  
HETATM   19  O   UNL     1      -6.905   9.459  67.597  1.00  0.00    -0.074 OA 
ENDBRANCH   8  11
ENDBRANCH   4   8
ENDBRANCH   3   4
ENDBRANCH   2   3
TORSDOF 6
ENDMDL
MODEL      229
REMARK 921   NORMALIZED FREE ENERGY PREDICTED BY IDOCK:   -2.72 KCAL/MOL
REMARK 922        TOTAL FREE ENERGY PREDICTED BY IDOCK:   -4.45 KCAL/MOL
REMARK 923 INTER-LIGAND FREE ENERGY PREDICTED BY IDOCK:   -4.28 KCAL/MOL
REMARK 924 INTRA-LIGAND FREE ENERGY PREDICTED BY IDOCK:   -0.18 KCAL/MOL
REMARK 927      BINDING AFFINITY PREDICTED BY RF-SCORE:    0.00 PKD
ROOT
HETATM    1  C   UNL     1     -10.188  10.375  66.325  1.00  0.00    -0.286 C  
HETATM    2  C   UNL     1      -9.420  11.267  67.282  1.00  0.00    -0.184 C  
ENDROOT
BRANCH   2   3
HETATM    3  C   UNL     1     -10.116  12.592  67.608  1.00  0.00    -0.218 C  
BRANCH   3   4
HETATM    4  N   UNL     1      -9.428  13.858  67.120  1.00  0.00    -0.237 N  
BRANCH   4   5
HETATM    5  C   UNL     1     -10.430  14.928  66.759  1.00  0.00    -0.284 C  
BRANCH   5   6
HETATM    6  C   UNL     1     -11.903  14.546  66.935  1.00  0.00    -0.399 C  
HETATM    7  C   UNL     1     -12.621  14.205  65.640  1.00  0.00    -0.495 C  
ENDBRANCH   5   6
ENDBRANCH   4   5
BRANCH   4   8
HETATM    8  S   UNL     1      -8.234  14.379  68.297  1.00  0.00    -0.157 S  
HETATM    9  O   UNL     1      -8.855  14.611  69.580  1.00  0.00     0.038 OA 
HETATM   10  O   UNL     1      -7.089  13.500  68.178  1.00  0.00    -0.090 OA 
BRANCH   8  11
HETATM   11  C   UNL     1      -7.739  16.006  67.745  1.00  0.00    -0.138 A  
HETATM   12  C   UNL     1      -7.542  16.226  66.375  1.00  0.00    -0.131 A  
HETATM   13  C   UNL     1      -7.381  17.530  65.892  1.00  0.00    -0.180 A  
HETATM   14  C   UNL     1      -7.417  18.613  66.780  1.00  0.00    -0.240 A  
HETATM   15  C   UNL     1      -7.316  20.024  66.318  1.00  0.00    -0.289 C  
HETATM   16  C   UNL     1      -7.635  18.386  68.147  1.00  0.00    -0.287 A  
HETATM   17  O   UNL     1      -6.488  20.193  65.269  1.00  0.00    -0.244 OA 
HETATM   18  C   UNL     1      -7.795  17.084  68.632  1.00  0.00    -0.257 A  
HETATM   19  O   UNL     1      -7.890  20.947  66.869  1.00  0.00    -0.201 OA 
ENDBRANCH   8  11
ENDBRANCH   4   8
ENDBRANCH   3   4
ENDBRANCH   2   3
TORSDOF 6
ENDMDL
MODEL      230
REMARK 921   NORMALIZED FREE ENERGY PREDICTED BY IDOCK:   -2.71 KCAL/MOL
REMARK 922        TOTAL FREE ENERGY PREDICTED BY IDOCK:   -4.44 KCAL/MOL
REMARK 923 INTER-LIGAND FREE ENERGY PREDICTED BY IDOCK:   -4.91 KCAL/MOL
REMARK 924 INTRA-LIGAND FREE ENERGY PREDICTED BY IDOCK:    0.47 KCAL/MOL
REMARK 927      BINDING AFFINITY PREDICTED BY RF-SCORE:    0.00 PKD
ROOT
HETATM    1  C   UNL     1     -12.202  12.515  64.068  1.00  0.00    -0.566 C  
HETATM    2  C   UNL     1     -12.605  13.159  65.381  1.00  0.00    -0.512 C  
ENDROOT
BRANCH   2   3
HETATM    3  C   UNL     1     -11.886  12.593  66.610  1.00  0.00    -0.380 C  
BRANCH   3   4
HETATM    4  N   UNL     1     -11.449  13.600  67.662  1.00  0.00    -0.307 N  
BRANCH   4   5
HETATM    5  C   UNL     1     -11.689  13.079  69.059  1.00  0.00    -0.329 C  
BRANCH   5   6
HETATM    6  C   UNL     1     -11.793  11.556  69.191  1.00  0.00    -0.406 C  
HETATM    7  C   UNL     1     -12.356  11.081  70.521  1.00  0.00    -0.462 C  
ENDBRANCH   5   6
ENDBRANCH   4   5
BRANCH   4   8
HETATM    8  S   UNL     1      -9.788  14.088  67.368  1.00  0.00    -0.244 S  
HETATM    9  O   UNL     1      -9.687  14.813  66.123  1.00  0.00    -0.279 OA 
HETATM   10  O   UNL     1      -9.274  14.654  68.598  1.00  0.00    -0.189 OA 
BRANCH   8  11
HETATM   11  C   UNL     1      -8.917  12.556  67.059  1.00  0.00    -0.211 A  
HETATM   12  C   UNL     1      -9.534  11.573  66.272  1.00  0.00    -0.235 A  
HETATM   13  C   UNL     1      -8.796  10.471  65.826  1.00  0.00    -0.190 A  
HETATM   14  C   UNL     1      -7.442  10.352  66.167  1.00  0.00    -0.131 A  
HETATM   15  C   UNL     1      -6.591   9.238  65.670  1.00  0.00    -0.069 C  
HETATM   16  C   UNL     1      -6.828  11.351  66.938  1.00  0.00    -0.142 A  
HETATM   17  O   UNL     1      -7.243   8.063  65.564  1.00  0.00    -0.062 OA 
HETATM   18  C   UNL     1      -7.564  12.452  67.387  1.00  0.00    -0.160 A  
HETATM   19  O   UNL     1      -5.404   9.365  65.427  1.00  0.00    -0.039 OA 
ENDBRANCH   8  11
ENDBRANCH   4   8
ENDBRANCH   3   4
ENDBRANCH   2   3
TORSDOF 6
ENDMDL
MODEL      231
REMARK 921   NORMALIZED FREE ENERGY PREDICTED BY IDOCK:   -2.68 KCAL/MOL
REMARK 922        TOTAL FREE ENERGY PREDICTED BY IDOCK:   -4.41 KCAL/MOL
REMARK 923 INTER-LIGAND FREE ENERGY PREDICTED BY IDOCK:   -3.83 KCAL/MOL
REMARK 924 INTRA-LIGAND FREE ENERGY PREDICTED BY IDOCK:   -0.58 KCAL/MOL
REMARK 927      BINDING AFFINITY PREDICTED BY RF-SCORE:    0.00 PKD
ROOT
HETATM    1  C   UNL     1      -5.934   7.108  72.064  1.00  0.00    -0.037 C  
HETATM    2  C   UNL     1      -6.757   5.883  71.711  1.00  0.00    -0.059 C  
ENDROOT
BRANCH   2   3
HETATM    3  C   UNL     1      -8.039   5.724  72.535  1.00  0.00    -0.103 C  
BRANCH   3   4
HETATM    4  N   UNL     1      -9.351   5.804  71.771  1.00  0.00    -0.148 N  
BRANCH   4   5
HETATM    5  C   UNL     1     -10.278   4.672  72.142  1.00  0.00    -0.193 C  
BRANCH   5   6
HETATM    6  C   UNL     1      -9.661   3.563  73.001  1.00  0.00    -0.174 C  
HETATM    7  C   UNL     1     -10.677   2.663  73.684  1.00  0.00    -0.273 C  
ENDBRANCH   5   6
ENDBRANCH   4   5
BRANCH   4   8
HETATM    8  S   UNL     1     -10.065   7.396  71.976  1.00  0.00    -0.185 S  
HETATM    9  O   UNL     1     -11.488   7.287  72.192  1.00  0.00    -0.257 OA 
HETATM   10  O   UNL     1      -9.230   8.134  72.901  1.00  0.00    -0.231 OA 
BRANCH   8  11
HETATM   11  C   UNL     1      -9.919   8.164  70.368  1.00  0.00    -0.188 A  
HETATM   12  C   UNL     1     -10.125   7.383  69.222  1.00  0.00    -0.186 A  
HETATM   13  C   UNL     1     -10.244   7.996  67.970  1.00  0.00    -0.260 A  
HETATM   14  C   UNL     1     -10.157   9.390  67.864  1.00  0.00    -0.239 A  
HETATM   15  C   UNL     1     -10.340  10.103  66.571  1.00  0.00    -0.202 C  
HETATM   16  C   UNL     1      -9.972  10.166  69.018  1.00  0.00    -0.216 A  
HETATM   17  O   UNL     1      -9.850   9.433  65.509  1.00  0.00    -0.290 OA 
HETATM   18  C   UNL     1      -9.851   9.556  70.270  1.00  0.00    -0.313 A  
HETATM   19  O   UNL     1     -10.841  11.210  66.486  1.00  0.00    -0.274 OA 
ENDBRANCH   8  11
ENDBRANCH   4   8
ENDBRANCH   3   4
ENDBRANCH   2   3
TORSDOF 6
ENDMDL
MODEL      232
REMARK 921   NORMALIZED FREE ENERGY PREDICTED BY IDOCK:   -2.68 KCAL/MOL
REMARK 922        TOTAL FREE ENERGY PREDICTED BY IDOCK:   -4.40 KCAL/MOL
REMARK 923 INTER-LIGAND FREE ENERGY PREDICTED BY IDOCK:   -3.97 KCAL/MOL
REMARK 924 INTRA-LIGAND FREE ENERGY PREDICTED BY IDOCK:   -0.42 KCAL/MOL
REMARK 927      BINDING AFFINITY PREDICTED BY RF-SCORE:    0.00 PKD
ROOT
HETATM    1  C   UNL     1      -9.278   6.930  66.532  1.00  0.00    -0.195 C  
HETATM    2  C   UNL     1     -10.368   7.814  67.107  1.00  0.00    -0.389 C  
ENDROOT
BRANCH   2   3
HETATM    3  C   UNL     1     -10.163   9.312  66.860  1.00  0.00    -0.256 C  
BRANCH   3   4
HETATM    4  N   UNL     1      -8.774   9.862  67.146  1.00  0.00    -0.131 N  
BRANCH   4   5
HETATM    5  C   UNL     1      -8.263  10.698  65.998  1.00  0.00    -0.158 C  
BRANCH   5   6
HETATM    6  C   UNL     1      -7.183  10.044  65.130  1.00  0.00    -0.139 C  
HETATM    7  C   UNL     1      -7.723   9.245  63.955  1.00  0.00    -0.117 C  
ENDBRANCH   5   6
ENDBRANCH   4   5
BRANCH   4   8
HETATM    8  S   UNL     1      -8.771  10.704  68.687  1.00  0.00    -0.154 S  
HETATM    9  O   UNL     1     -10.019  10.492  69.382  1.00  0.00    -0.222 OA 
HETATM   10  O   UNL     1      -7.506  10.425  69.335  1.00  0.00    -0.107 OA 
BRANCH   8  11
HETATM   11  C   UNL     1      -8.797  12.438  68.251  1.00  0.00    -0.174 A  
HETATM   12  C   UNL     1      -7.613  13.181  68.356  1.00  0.00    -0.133 A  
HETATM   13  C   UNL     1      -7.544  14.468  67.811  1.00  0.00    -0.171 A  
HETATM   14  C   UNL     1      -8.661  15.012  67.162  1.00  0.00    -0.246 A  
HETATM   15  C   UNL     1      -8.628  16.348  66.508  1.00  0.00    -0.294 C  
HETATM   16  C   UNL     1      -9.836  14.254  67.044  1.00  0.00    -0.254 A  
HETATM   17  O   UNL     1      -7.868  17.251  67.158  1.00  0.00    -0.185 OA 
HETATM   18  C   UNL     1      -9.907  12.969  67.589  1.00  0.00    -0.212 A  
HETATM   19  O   UNL     1      -9.268  16.614  65.506  1.00  0.00    -0.438 OA 
ENDBRANCH   8  11
ENDBRANCH   4   8
ENDBRANCH   3   4
ENDBRANCH   2   3
TORSDOF 6
ENDMDL
MODEL      233
REMARK 921   NORMALIZED FREE ENERGY PREDICTED BY IDOCK:   -2.67 KCAL/MOL
REMARK 922        TOTAL FREE ENERGY PREDICTED BY IDOCK:   -4.40 KCAL/MOL
REMARK 923 INTER-LIGAND FREE ENERGY PREDICTED BY IDOCK:   -4.99 KCAL/MOL
REMARK 924 INTRA-LIGAND FREE ENERGY PREDICTED BY IDOCK:    0.60 KCAL/MOL
REMARK 927      BINDING AFFINITY PREDICTED BY RF-SCORE:    0.00 PKD
ROOT
HETATM    1  C   UNL     1      -9.428  15.977  65.946  1.00  0.00    -0.351 C  
HETATM    2  C   UNL     1     -10.605  15.726  66.871  1.00  0.00    -0.317 C  
ENDROOT
BRANCH   2   3
HETATM    3  C   UNL     1     -10.281  14.844  68.080  1.00  0.00    -0.226 C  
BRANCH   3   4
HETATM    4  N   UNL     1     -10.697  13.384  67.986  1.00  0.00    -0.242 N  
BRANCH   4   5
HETATM    5  C   UNL     1     -12.010  13.229  67.256  1.00  0.00    -0.343 C  
BRANCH   5   6
HETATM    6  C   UNL     1     -11.966  13.492  65.748  1.00  0.00    -0.439 C  
HETATM    7  C   UNL     1     -12.557  12.377  64.901  1.00  0.00    -0.372 C  
ENDBRANCH   5   6
ENDBRANCH   4   5
BRANCH   4   8
HETATM    8  S   UNL     1      -9.391  12.435  67.296  1.00  0.00    -0.190 S  
HETATM    9  O   UNL     1      -9.319  12.636  65.868  1.00  0.00    -0.147 OA 
HETATM   10  O   UNL     1      -8.223  12.627  68.131  1.00  0.00    -0.155 OA 
BRANCH   8  11
HETATM   11  C   UNL     1      -9.925  10.738  67.477  1.00  0.00    -0.174 A  
HETATM   12  C   UNL     1      -9.810   9.870  66.381  1.00  0.00    -0.288 A  
HETATM   13  C   UNL     1     -10.002   8.495  66.554  1.00  0.00    -0.350 A  
HETATM   14  C   UNL     1     -10.309   7.987  67.823  1.00  0.00    -0.294 A  
HETATM   15  C   UNL     1     -10.461   6.530  68.082  1.00  0.00    -0.217 C  
HETATM   16  C   UNL     1     -10.403   8.860  68.918  1.00  0.00    -0.229 A  
HETATM   17  O   UNL     1     -11.024   5.854  67.062  1.00  0.00    -0.297 OA 
HETATM   18  C   UNL     1     -10.213  10.234  68.747  1.00  0.00    -0.205 A  
HETATM   19  O   UNL     1     -10.150   6.006  69.137  1.00  0.00    -0.158 OA 
ENDBRANCH   8  11
ENDBRANCH   4   8
ENDBRANCH   3   4
ENDBRANCH   2   3
TORSDOF 6
ENDMDL
MODEL      234
REMARK 921   NORMALIZED FREE ENERGY PREDICTED BY IDOCK:   -2.67 KCAL/MOL
REMARK 922        TOTAL FREE ENERGY PREDICTED BY IDOCK:   -4.40 KCAL/MOL
REMARK 923 INTER-LIGAND FREE ENERGY PREDICTED BY IDOCK:   -3.80 KCAL/MOL
REMARK 924 INTRA-LIGAND FREE ENERGY PREDICTED BY IDOCK:   -0.60 KCAL/MOL
REMARK 927      BINDING AFFINITY PREDICTED BY RF-SCORE:    0.00 PKD
ROOT
HETATM    1  C   UNL     1      -6.895   5.876  67.567  1.00  0.00    -0.060 C  
HETATM    2  C   UNL     1      -7.064   7.002  68.570  1.00  0.00    -0.089 C  
ENDROOT
BRANCH   2   3
HETATM    3  C   UNL     1      -7.873   8.194  68.052  1.00  0.00    -0.122 C  
BRANCH   3   4
HETATM    4  N   UNL     1      -8.588   8.002  66.724  1.00  0.00    -0.126 N  
BRANCH   4   5
HETATM    5  C   UNL     1     -10.059   7.726  66.922  1.00  0.00    -0.286 C  
BRANCH   5   6
HETATM    6  C   UNL     1     -10.466   6.249  66.902  1.00  0.00    -0.337 C  
HETATM    7  C   UNL     1     -10.733   5.654  68.275  1.00  0.00    -0.227 C  
ENDBRANCH   5   6
ENDBRANCH   4   5
BRANCH   4   8
HETATM    8  S   UNL     1      -8.264   9.368  65.668  1.00  0.00    -0.125 S  
HETATM    9  O   UNL     1      -6.857   9.691  65.677  1.00  0.00    -0.084 OA 
HETATM   10  O   UNL     1      -8.961   9.131  64.420  1.00  0.00    -0.173 OA 
BRANCH   8  11
HETATM   11  C   UNL     1      -9.043  10.758  66.480  1.00  0.00    -0.165 A  
HETATM   12  C   UNL     1      -8.252  11.623  67.250  1.00  0.00    -0.159 A  
HETATM   13  C   UNL     1      -8.781  12.836  67.705  1.00  0.00    -0.180 A  
HETATM   14  C   UNL     1     -10.102  13.183  67.390  1.00  0.00    -0.229 A  
HETATM   15  C   UNL     1     -10.699  14.485  67.790  1.00  0.00    -0.256 C  
HETATM   16  C   UNL     1     -10.880  12.321  66.602  1.00  0.00    -0.296 A  
HETATM   17  O   UNL     1     -10.279  14.928  68.992  1.00  0.00    -0.232 OA 
HETATM   18  C   UNL     1     -10.354  11.108  66.148  1.00  0.00    -0.302 A  
HETATM   19  O   UNL     1     -11.527  15.073  67.116  1.00  0.00    -0.347 OA 
ENDBRANCH   8  11
ENDBRANCH   4   8
ENDBRANCH   3   4
ENDBRANCH   2   3
TORSDOF 6
ENDMDL
MODEL      235
REMARK 921   NORMALIZED FREE ENERGY PREDICTED BY IDOCK:   -2.66 KCAL/MOL
REMARK 922        TOTAL FREE ENERGY PREDICTED BY IDOCK:   -4.38 KCAL/MOL
REMARK 923 INTER-LIGAND FREE ENERGY PREDICTED BY IDOCK:   -4.25 KCAL/MOL
REMARK 924 INTRA-LIGAND FREE ENERGY PREDICTED BY IDOCK:   -0.13 KCAL/MOL
REMARK 927      BINDING AFFINITY PREDICTED BY RF-SCORE:    0.00 PKD
ROOT
HETATM    1  C   UNL     1      -7.993   8.142  74.401  1.00  0.00    -0.308 C  
HETATM    2  C   UNL     1      -8.092   8.428  72.914  1.00  0.00    -0.166 C  
ENDROOT
BRANCH   2   3
HETATM    3  C   UNL     1      -8.778   7.324  72.103  1.00  0.00    -0.120 C  
BRANCH   3   4
HETATM    4  N   UNL     1      -9.882   7.765  71.155  1.00  0.00    -0.169 N  
BRANCH   4   5
HETATM    5  C   UNL     1      -9.328   8.168  69.810  1.00  0.00    -0.159 C  
BRANCH   5   6
HETATM    6  C   UNL     1      -8.973   9.650  69.654  1.00  0.00    -0.215 C  
HETATM    7  C   UNL     1      -7.497   9.917  69.404  1.00  0.00    -0.108 C  
ENDBRANCH   5   6
ENDBRANCH   4   5
BRANCH   4   8
HETATM    8  S   UNL     1     -11.122   6.526  71.064  1.00  0.00    -0.304 S  
HETATM    9  O   UNL     1     -10.930   5.541  72.103  1.00  0.00    -0.240 OA 
HETATM   10  O   UNL     1     -12.398   7.194  70.905  1.00  0.00    -0.344 OA 
BRANCH   8  11
HETATM   11  C   UNL     1     -10.768   5.645  69.549  1.00  0.00    -0.310 A  
HETATM   12  C   UNL     1     -11.152   6.216  68.327  1.00  0.00    -0.336 A  
HETATM   13  C   UNL     1     -10.691   5.670  67.124  1.00  0.00    -0.316 A  
HETATM   14  C   UNL     1      -9.845   4.552  67.143  1.00  0.00    -0.225 A  
HETATM   15  C   UNL     1      -9.272   3.967  65.902  1.00  0.00    -0.152 C  
HETATM   16  C   UNL     1      -9.450   3.999  68.371  1.00  0.00    -0.211 A  
HETATM   17  O   UNL     1     -10.106   4.015  64.844  1.00  0.00    -0.200 OA 
HETATM   18  C   UNL     1      -9.910   4.542  69.574  1.00  0.00    -0.277 A  
HETATM   19  O   UNL     1      -8.170   3.449  65.857  1.00  0.00    -0.092 OA 
ENDBRANCH   8  11
ENDBRANCH   4   8
ENDBRANCH   3   4
ENDBRANCH   2   3
TORSDOF 6
ENDMDL
MODEL      236
REMARK 921   NORMALIZED FREE ENERGY PREDICTED BY IDOCK:   -2.59 KCAL/MOL
REMARK 922        TOTAL FREE ENERGY PREDICTED BY IDOCK:   -4.28 KCAL/MOL
REMARK 923 INTER-LIGAND FREE ENERGY PREDICTED BY IDOCK:   -3.80 KCAL/MOL
REMARK 924 INTRA-LIGAND FREE ENERGY PREDICTED BY IDOCK:   -0.48 KCAL/MOL
REMARK 927      BINDING AFFINITY PREDICTED BY RF-SCORE:    0.00 PKD
ROOT
HETATM    1  C   UNL     1     -10.668  12.851  68.139  1.00  0.00    -0.258 C  
HETATM    2  C   UNL     1     -11.053  11.719  67.204  1.00  0.00    -0.350 C  
ENDROOT
BRANCH   2   3
HETATM    3  C   UNL     1     -10.131  11.559  65.992  1.00  0.00    -0.232 C  
BRANCH   3   4
HETATM    4  N   UNL     1      -9.813  10.135  65.565  1.00  0.00    -0.279 N  
BRANCH   4   5
HETATM    5  C   UNL     1      -9.800   9.998  64.061  1.00  0.00     0.041 C  
BRANCH   5   6
HETATM    6  C   UNL     1      -8.469  10.322  63.375  1.00  0.00    -0.185 C  
HETATM    7  C   UNL     1      -7.954   9.225  62.459  1.00  0.00    -0.128 C  
ENDBRANCH   5   6
ENDBRANCH   4   5
BRANCH   4   8
HETATM    8  S   UNL     1      -8.328   9.599  66.333  1.00  0.00    -0.120 S  
HETATM    9  O   UNL     1      -7.862   8.371  65.733  1.00  0.00    -0.093 OA 
HETATM   10  O   UNL     1      -7.452  10.748  66.443  1.00  0.00    -0.131 OA 
BRANCH   8  11
HETATM   11  C   UNL     1      -8.823   9.123  67.985  1.00  0.00    -0.129 A  
HETATM   12  C   UNL     1      -8.133   9.662  69.080  1.00  0.00    -0.104 A  
HETATM   13  C   UNL     1      -8.636   9.493  70.375  1.00  0.00    -0.246 A  
HETATM   14  C   UNL     1      -9.829   8.784  70.574  1.00  0.00    -0.224 A  
HETATM   15  C   UNL     1     -10.446   8.625  71.918  1.00  0.00    -0.340 C  
HETATM   16  C   UNL     1     -10.522   8.264  69.470  1.00  0.00    -0.228 A  
HETATM   17  O   UNL     1      -9.548   8.494  72.915  1.00  0.00    -0.240 OA 
HETATM   18  C   UNL     1     -10.021   8.431  68.176  1.00  0.00    -0.224 A  
HETATM   19  O   UNL     1     -11.650   8.571  72.095  1.00  0.00    -0.332 OA 
ENDBRANCH   8  11
ENDBRANCH   4   8
ENDBRANCH   3   4
ENDBRANCH   2   3
TORSDOF 6
ENDMDL
MODEL      237
REMARK 921   NORMALIZED FREE ENERGY PREDICTED BY IDOCK:   -2.58 KCAL/MOL
REMARK 922        TOTAL FREE ENERGY PREDICTED BY IDOCK:   -4.27 KCAL/MOL
REMARK 923 INTER-LIGAND FREE ENERGY PREDICTED BY IDOCK:   -3.37 KCAL/MOL
REMARK 924 INTRA-LIGAND FREE ENERGY PREDICTED BY IDOCK:   -0.90 KCAL/MOL
REMARK 927      BINDING AFFINITY PREDICTED BY RF-SCORE:    0.00 PKD
ROOT
HETATM    1  C   UNL     1      -6.182   6.816  64.073  1.00  0.00    -0.035 C  
HETATM    2  C   UNL     1      -6.227   7.613  65.364  1.00  0.00    -0.038 C  
ENDROOT
BRANCH   2   3
HETATM    3  C   UNL     1      -7.153   7.029  66.436  1.00  0.00    -0.074 C  
BRANCH   3   4
HETATM    4  N   UNL     1      -8.647   7.179  66.195  1.00  0.00    -0.141 N  
BRANCH   4   5
HETATM    5  C   UNL     1      -9.326   5.836  66.080  1.00  0.00    -0.144 C  
BRANCH   5   6
HETATM    6  C   UNL     1      -8.550   4.648  66.658  1.00  0.00    -0.108 C  
HETATM    7  C   UNL     1      -9.416   3.621  67.370  1.00  0.00    -0.238 C  
ENDBRANCH   5   6
ENDBRANCH   4   5
BRANCH   4   8
HETATM    8  S   UNL     1      -9.348   8.220  67.424  1.00  0.00    -0.146 S  
HETATM    9  O   UNL     1      -8.357   9.139  67.934  1.00  0.00    -0.116 OA 
HETATM   10  O   UNL     1     -10.614   8.706  66.915  1.00  0.00    -0.287 OA 
BRANCH   8  11
HETATM   11  C   UNL     1      -9.687   7.128  68.798  1.00  0.00    -0.145 A  
HETATM   12  C   UNL     1      -8.663   6.855  69.716  1.00  0.00    -0.141 A  
HETATM   13  C   UNL     1      -8.956   6.197  70.916  1.00  0.00    -0.144 A  
HETATM   14  C   UNL     1     -10.273   5.811  71.197  1.00  0.00    -0.275 A  
HETATM   15  C   UNL     1     -10.656   5.166  72.481  1.00  0.00    -0.220 C  
HETATM   16  C   UNL     1     -11.295   6.105  70.281  1.00  0.00    -0.414 A  
HETATM   17  O   UNL     1      -9.717   4.334  72.971  1.00  0.00    -0.124 OA 
HETATM   18  C   UNL     1     -11.005   6.762  69.082  1.00  0.00    -0.290 A  
HETATM   19  O   UNL     1     -11.739   5.336  73.014  1.00  0.00    -0.294 OA 
ENDBRANCH   8  11
ENDBRANCH   4   8
ENDBRANCH   3   4
ENDBRANCH   2   3
TORSDOF 6
ENDMDL
MODEL      238
REMARK 921   NORMALIZED FREE ENERGY PREDICTED BY IDOCK:   -2.58 KCAL/MOL
REMARK 922        TOTAL FREE ENERGY PREDICTED BY IDOCK:   -4.27 KCAL/MOL
REMARK 923 INTER-LIGAND FREE ENERGY PREDICTED BY IDOCK:   -3.66 KCAL/MOL
REMARK 924 INTRA-LIGAND FREE ENERGY PREDICTED BY IDOCK:   -0.61 KCAL/MOL
REMARK 927      BINDING AFFINITY PREDICTED BY RF-SCORE:    0.00 PKD
ROOT
HETATM    1  C   UNL     1     -10.210   8.249  66.583  1.00  0.00    -0.333 C  
HETATM    2  C   UNL     1      -8.757   7.940  66.273  1.00  0.00    -0.174 C  
ENDROOT
BRANCH   2   3
HETATM    3  C   UNL     1      -7.825   8.001  67.487  1.00  0.00    -0.118 C  
BRANCH   3   4
HETATM    4  N   UNL     1      -8.215   8.969  68.593  1.00  0.00    -0.117 N  
BRANCH   4   5
HETATM    5  C   UNL     1      -8.381   8.260  69.916  1.00  0.00    -0.125 C  
BRANCH   5   6
HETATM    6  C   UNL     1      -8.922   6.829  69.839  1.00  0.00    -0.144 C  
HETATM    7  C   UNL     1     -10.438   6.729  69.905  1.00  0.00    -0.242 C  
ENDBRANCH   5   6
ENDBRANCH   4   5
BRANCH   4   8
HETATM    8  S   UNL     1      -7.075  10.304  68.648  1.00  0.00    -0.078 S  
HETATM    9  O   UNL     1      -6.939  10.798  69.998  1.00  0.00    -0.157 OA 
HETATM   10  O   UNL     1      -5.910   9.915  67.880  1.00  0.00    -0.040 OA 
BRANCH   8  11
HETATM   11  C   UNL     1      -7.895  11.630  67.772  1.00  0.00    -0.129 A  
HETATM   12  C   UNL     1      -8.641  11.326  66.625  1.00  0.00    -0.167 A  
HETATM   13  C   UNL     1      -9.474  12.295  66.054  1.00  0.00    -0.194 A  
HETATM   14  C   UNL     1      -9.560  13.569  66.632  1.00  0.00    -0.282 A  
HETATM   15  C   UNL     1     -10.475  14.619  66.109  1.00  0.00    -0.302 C  
HETATM   16  C   UNL     1      -8.825  13.859  67.791  1.00  0.00    -0.189 A  
HETATM   17  O   UNL     1     -10.605  14.607  64.768  1.00  0.00    -0.421 OA 
HETATM   18  C   UNL     1      -7.992  12.893  68.362  1.00  0.00    -0.137 A  
HETATM   19  O   UNL     1     -11.018  15.444  66.823  1.00  0.00    -0.314 OA 
ENDBRANCH   8  11
ENDBRANCH   4   8
ENDBRANCH   3   4
ENDBRANCH   2   3
TORSDOF 6
ENDMDL
MODEL      239
REMARK 921   NORMALIZED FREE ENERGY PREDICTED BY IDOCK:   -2.57 KCAL/MOL
REMARK 922        TOTAL FREE ENERGY PREDICTED BY IDOCK:   -4.26 KCAL/MOL
REMARK 923 INTER-LIGAND FREE ENERGY PREDICTED BY IDOCK:   -3.80 KCAL/MOL
REMARK 924 INTRA-LIGAND FREE ENERGY PREDICTED BY IDOCK:   -0.47 KCAL/MOL
REMARK 927      BINDING AFFINITY PREDICTED BY RF-SCORE:    0.00 PKD
ROOT
HETATM    1  C   UNL     1     -12.298   6.988  71.006  1.00  0.00    -0.402 C  
HETATM    2  C   UNL     1     -11.226   7.741  70.241  1.00  0.00    -0.215 C  
ENDROOT
BRANCH   2   3
HETATM    3  C   UNL     1     -11.309   9.265  70.369  1.00  0.00    -0.242 C  
BRANCH   3   4
HETATM    4  N   UNL     1     -10.091  10.051  69.913  1.00  0.00    -0.247 N  
BRANCH   4   5
HETATM    5  C   UNL     1      -8.904   9.148  69.680  1.00  0.00    -0.151 C  
BRANCH   5   6
HETATM    6  C   UNL     1      -7.840   9.151  70.783  1.00  0.00    -0.173 C  
HETATM    7  C   UNL     1      -7.585   7.791  71.411  1.00  0.00    -0.081 C  
ENDBRANCH   5   6
ENDBRANCH   4   5
BRANCH   4   8
HETATM    8  S   UNL     1     -10.505  11.041  68.523  1.00  0.00    -0.201 S  
HETATM    9  O   UNL     1     -11.836  10.728  68.057  1.00  0.00    -0.546 OA 
HETATM   10  O   UNL     1     -10.132  12.407  68.831  1.00  0.00    -0.111 OA 
BRANCH   8  11
HETATM   11  C   UNL     1      -9.432  10.457  67.218  1.00  0.00    -0.154 A  
HETATM   12  C   UNL     1      -9.962   9.617  66.228  1.00  0.00    -0.335 A  
HETATM   13  C   UNL     1      -9.216   9.331  65.080  1.00  0.00    -0.242 A  
HETATM   14  C   UNL     1      -7.939   9.884  64.921  1.00  0.00    -0.138 A  
HETATM   15  C   UNL     1      -7.125   9.669  63.695  1.00  0.00    -0.110 C  
HETATM   16  C   UNL     1      -7.423  10.739  65.907  1.00  0.00    -0.099 A  
HETATM   17  O   UNL     1      -7.270   8.442  63.156  1.00  0.00    -0.089 OA 
HETATM   18  C   UNL     1      -8.166  11.025  67.056  1.00  0.00    -0.138 A  
HETATM   19  O   UNL     1      -6.361  10.506  63.247  1.00  0.00    -0.123 OA 
ENDBRANCH   8  11
ENDBRANCH   4   8
ENDBRANCH   3   4
ENDBRANCH   2   3
TORSDOF 6
ENDMDL
MODEL      240
REMARK 921   NORMALIZED FREE ENERGY PREDICTED BY IDOCK:   -2.57 KCAL/MOL
REMARK 922        TOTAL FREE ENERGY PREDICTED BY IDOCK:   -4.26 KCAL/MOL
REMARK 923 INTER-LIGAND FREE ENERGY PREDICTED BY IDOCK:   -3.69 KCAL/MOL
REMARK 924 INTRA-LIGAND FREE ENERGY PREDICTED BY IDOCK:   -0.57 KCAL/MOL
REMARK 927      BINDING AFFINITY PREDICTED BY RF-SCORE:    0.00 PKD
ROOT
HETATM    1  C   UNL     1      -9.906   7.396  66.732  1.00  0.00    -0.290 C  
HETATM    2  C   UNL     1     -10.593   8.449  67.581  1.00  0.00    -0.265 C  
ENDROOT
BRANCH   2   3
HETATM    3  C   UNL     1      -9.648   9.495  68.179  1.00  0.00    -0.137 C  
BRANCH   3   4
HETATM    4  N   UNL     1      -9.503   9.491  69.693  1.00  0.00    -0.186 N  
BRANCH   4   5
HETATM    5  C   UNL     1     -10.630   8.736  70.354  1.00  0.00    -0.221 C  
BRANCH   5   6
HETATM    6  C   UNL     1     -11.428   9.517  71.403  1.00  0.00    -0.462 C  
HETATM    7  C   UNL     1     -12.091  10.778  70.873  1.00  0.00    -0.475 C  
ENDBRANCH   5   6
ENDBRANCH   4   5
BRANCH   4   8
HETATM    8  S   UNL     1      -7.907   8.909  70.139  1.00  0.00    -0.110 S  
HETATM    9  O   UNL     1      -7.179   8.482  68.967  1.00  0.00    -0.070 OA 
HETATM   10  O   UNL     1      -7.332   9.870  71.058  1.00  0.00    -0.312 OA 
BRANCH   8  11
HETATM   11  C   UNL     1      -8.217   7.397  71.042  1.00  0.00    -0.110 A  
HETATM   12  C   UNL     1      -8.292   7.447  72.442  1.00  0.00    -0.123 A  
HETATM   13  C   UNL     1      -8.755   6.337  73.157  1.00  0.00    -0.123 A  
HETATM   14  C   UNL     1      -9.143   5.178  72.473  1.00  0.00    -0.142 A  
HETATM   15  C   UNL     1      -9.703   3.991  73.173  1.00  0.00    -0.126 C  
HETATM   16  C   UNL     1      -9.083   5.143  71.071  1.00  0.00    -0.178 A  
HETATM   17  O   UNL     1      -9.153   3.765  74.382  1.00  0.00    -0.089 OA 
HETATM   18  C   UNL     1      -8.619   6.250  70.355  1.00  0.00    -0.142 A  
HETATM   19  O   UNL     1     -10.545   3.262  72.678  1.00  0.00    -0.134 OA 
ENDBRANCH   8  11
ENDBRANCH   4   8
ENDBRANCH   3   4
ENDBRANCH   2   3
TORSDOF 6
ENDMDL
MODEL      241
REMARK 921   NORMALIZED FREE ENERGY PREDICTED BY IDOCK:   -2.51 KCAL/MOL
REMARK 922        TOTAL FREE ENERGY PREDICTED BY IDOCK:   -4.18 KCAL/MOL
REMARK 923 INTER-LIGAND FREE ENERGY PREDICTED BY IDOCK:   -3.55 KCAL/MOL
REMARK 924 INTRA-LIGAND FREE ENERGY PREDICTED BY IDOCK:   -0.63 KCAL/MOL
REMARK 927      BINDING AFFINITY PREDICTED BY RF-SCORE:    0.00 PKD
ROOT
HETATM    1  C   UNL     1      -9.277   7.753  73.525  1.00  0.00    -0.350 C  
HETATM    2  C   UNL     1      -9.220   8.363  72.137  1.00  0.00    -0.313 C  
ENDROOT
BRANCH   2   3
HETATM    3  C   UNL     1      -8.750   7.400  71.043  1.00  0.00    -0.139 C  
BRANCH   3   4
HETATM    4  N   UNL     1      -9.636   7.289  69.811  1.00  0.00    -0.163 N  
BRANCH   4   5
HETATM    5  C   UNL     1     -11.030   7.799  70.085  1.00  0.00    -0.241 C  
BRANCH   5   6
HETATM    6  C   UNL     1     -12.105   6.723  70.274  1.00  0.00    -0.211 C  
HETATM    7  C   UNL     1     -12.988   6.928  71.494  1.00  0.00    -0.362 C  
ENDBRANCH   5   6
ENDBRANCH   4   5
BRANCH   4   8
HETATM    8  S   UNL     1      -8.857   8.069  68.444  1.00  0.00    -0.133 S  
HETATM    9  O   UNL     1      -9.564   9.273  68.078  1.00  0.00    -0.140 OA 
HETATM   10  O   UNL     1      -7.433   8.098  68.710  1.00  0.00    -0.086 OA 
BRANCH   8  11
HETATM   11  C   UNL     1      -9.138   6.957  67.072  1.00  0.00    -0.136 A  
HETATM   12  C   UNL     1      -8.169   6.866  66.063  1.00  0.00    -0.125 A  
HETATM   13  C   UNL     1      -8.250   5.849  65.105  1.00  0.00    -0.141 A  
HETATM   14  C   UNL     1      -9.300   4.923  65.157  1.00  0.00    -0.104 A  
HETATM   15  C   UNL     1      -9.404   3.784  64.206  1.00  0.00    -0.148 C  
HETATM   16  C   UNL     1     -10.255   5.009  66.181  1.00  0.00    -0.288 A  
HETATM   17  O   UNL     1      -8.982   4.077  62.960  1.00  0.00    -0.102 OA 
HETATM   18  C   UNL     1     -10.177   6.025  67.139  1.00  0.00    -0.248 A  
HETATM   19  O   UNL     1      -9.872   2.701  64.513  1.00  0.00    -0.123 OA 
ENDBRANCH   8  11
ENDBRANCH   4   8
ENDBRANCH   3   4
ENDBRANCH   2   3
TORSDOF 6
ENDMDL
MODEL      242
REMARK 921   NORMALIZED FREE ENERGY PREDICTED BY IDOCK:   -2.51 KCAL/MOL
REMARK 922        TOTAL FREE ENERGY PREDICTED BY IDOCK:   -4.17 KCAL/MOL
REMARK 923 INTER-LIGAND FREE ENERGY PREDICTED BY IDOCK:   -3.69 KCAL/MOL
REMARK 924 INTRA-LIGAND FREE ENERGY PREDICTED BY IDOCK:   -0.48 KCAL/MOL
REMARK 927      BINDING AFFINITY PREDICTED BY RF-SCORE:    0.00 PKD
ROOT
HETATM    1  C   UNL     1      -7.189  10.508  69.794  1.00  0.00    -0.152 C  
HETATM    2  C   UNL     1      -7.681   9.077  69.904  1.00  0.00    -0.076 C  
ENDROOT
BRANCH   2   3
HETATM    3  C   UNL     1      -9.086   8.936  70.499  1.00  0.00    -0.200 C  
BRANCH   3   4
HETATM    4  N   UNL     1     -10.174   8.440  69.560  1.00  0.00    -0.202 N  
BRANCH   4   5
HETATM    5  C   UNL     1      -9.892   8.834  68.130  1.00  0.00    -0.168 C  
BRANCH   5   6
HETATM    6  C   UNL     1     -10.709  10.013  67.592  1.00  0.00    -0.340 C  
HETATM    7  C   UNL     1      -9.878  11.103  66.936  1.00  0.00    -0.223 C  
ENDBRANCH   5   6
ENDBRANCH   4   5
BRANCH   4   8
HETATM    8  S   UNL     1     -10.413   6.714  69.781  1.00  0.00    -0.227 S  
HETATM    9  O   UNL     1      -9.441   6.184  70.708  1.00  0.00    -0.166 OA 
HETATM   10  O   UNL     1     -11.829   6.492  69.986  1.00  0.00    -0.404 OA 
BRANCH   8  11
HETATM   11  C   UNL     1      -9.963   5.993  68.208  1.00  0.00    -0.147 A  
HETATM   12  C   UNL     1      -8.755   5.288  68.106  1.00  0.00    -0.102 A  
HETATM   13  C   UNL     1      -8.485   4.524  66.965  1.00  0.00    -0.104 A  
HETATM   14  C   UNL     1      -9.423   4.466  65.926  1.00  0.00    -0.174 A  
HETATM   15  C   UNL     1      -9.221   3.621  64.718  1.00  0.00    -0.145 C  
HETATM   16  C   UNL     1     -10.638   5.158  66.044  1.00  0.00    -0.236 A  
HETATM   17  O   UNL     1      -7.938   3.553  64.313  1.00  0.00    -0.084 OA 
HETATM   18  C   UNL     1     -10.909   5.923  67.183  1.00  0.00    -0.373 A  
HETATM   19  O   UNL     1     -10.137   3.081  64.123  1.00  0.00    -0.162 OA 
ENDBRANCH   8  11
ENDBRANCH   4   8
ENDBRANCH   3   4
ENDBRANCH   2   3
TORSDOF 6
ENDMDL
MODEL      243
REMARK 921   NORMALIZED FREE ENERGY PREDICTED BY IDOCK:   -2.50 KCAL/MOL
REMARK 922        TOTAL FREE ENERGY PREDICTED BY IDOCK:   -4.16 KCAL/MOL
REMARK 923 INTER-LIGAND FREE ENERGY PREDICTED BY IDOCK:   -3.57 KCAL/MOL
REMARK 924 INTRA-LIGAND FREE ENERGY PREDICTED BY IDOCK:   -0.59 KCAL/MOL
REMARK 927      BINDING AFFINITY PREDICTED BY RF-SCORE:    0.00 PKD
ROOT
HETATM    1  C   UNL     1      -6.087   7.770  64.982  1.00  0.00    -0.038 C  
HETATM    2  C   UNL     1      -6.611   8.766  66.000  1.00  0.00    -0.057 C  
ENDROOT
BRANCH   2   3
HETATM    3  C   UNL     1      -8.091   8.590  66.352  1.00  0.00    -0.103 C  
BRANCH   3   4
HETATM    4  N   UNL     1      -8.733   9.706  67.161  1.00  0.00    -0.131 N  
BRANCH   4   5
HETATM    5  C   UNL     1      -8.656  11.029  66.437  1.00  0.00    -0.165 C  
BRANCH   5   6
HETATM    6  C   UNL     1      -7.780  12.098  67.098  1.00  0.00    -0.151 C  
HETATM    7  C   UNL     1      -8.135  12.389  68.548  1.00  0.00    -0.096 C  
ENDBRANCH   5   6
ENDBRANCH   4   5
BRANCH   4   8
HETATM    8  S   UNL     1     -10.364   9.249  67.621  1.00  0.00    -0.265 S  
HETATM    9  O   UNL     1     -11.187  10.422  67.800  1.00  0.00    -0.309 OA 
HETATM   10  O   UNL     1     -10.783   8.178  66.739  1.00  0.00    -0.278 OA 
BRANCH   8  11
HETATM   11  C   UNL     1     -10.194   8.572  69.268  1.00  0.00    -0.208 A  
HETATM   12  C   UNL     1      -9.601   7.312  69.425  1.00  0.00    -0.154 A  
HETATM   13  C   UNL     1      -9.248   6.859  70.701  1.00  0.00    -0.158 A  
HETATM   14  C   UNL     1      -9.488   7.667  71.820  1.00  0.00    -0.178 A  
HETATM   15  C   UNL     1      -9.077   7.268  73.192  1.00  0.00    -0.153 C  
HETATM   16  C   UNL     1     -10.064   8.935  71.652  1.00  0.00    -0.411 A  
HETATM   17  O   UNL     1      -9.186   5.946  73.428  1.00  0.00    -0.133 OA 
HETATM   18  C   UNL     1     -10.419   9.389  70.378  1.00  0.00    -0.311 A  
HETATM   19  O   UNL     1      -8.722   8.068  74.040  1.00  0.00    -0.269 OA 
ENDBRANCH   8  11
ENDBRANCH   4   8
ENDBRANCH   3   4
ENDBRANCH   2   3
TORSDOF 6
ENDMDL
MODEL      244
REMARK 921   NORMALIZED FREE ENERGY PREDICTED BY IDOCK:   -2.48 KCAL/MOL
REMARK 922        TOTAL FREE ENERGY PREDICTED BY IDOCK:   -4.14 KCAL/MOL
REMARK 923 INTER-LIGAND FREE ENERGY PREDICTED BY IDOCK:   -4.48 KCAL/MOL
REMARK 924 INTRA-LIGAND FREE ENERGY PREDICTED BY IDOCK:    0.34 KCAL/MOL
REMARK 927      BINDING AFFINITY PREDICTED BY RF-SCORE:    0.00 PKD
ROOT
HETATM    1  C   UNL     1     -11.378  11.601  67.347  1.00  0.00    -0.367 C  
HETATM    2  C   UNL     1      -9.922  11.936  67.082  1.00  0.00    -0.209 C  
ENDROOT
BRANCH   2   3
HETATM    3  C   UNL     1      -9.373  13.086  67.932  1.00  0.00    -0.212 C  
BRANCH   3   4
HETATM    4  N   UNL     1      -8.114  12.795  68.735  1.00  0.00     0.012 N  
BRANCH   4   5
HETATM    5  C   UNL     1      -7.670  11.362  68.567  1.00  0.00    -0.133 C  
BRANCH   5   6
HETATM    6  C   UNL     1      -6.964  10.740  69.776  1.00  0.00    -0.141 C  
HETATM    7  C   UNL     1      -5.903   9.711  69.420  1.00  0.00    -0.034 C  
ENDBRANCH   5   6
ENDBRANCH   4   5
BRANCH   4   8
HETATM    8  S   UNL     1      -6.870  13.970  68.342  1.00  0.00    -0.114 S  
HETATM    9  O   UNL     1      -6.212  14.431  69.542  1.00  0.00    -0.105 OA 
HETATM   10  O   UNL     1      -6.102  13.441  67.233  1.00  0.00    -0.330 OA 
BRANCH   8  11
HETATM   11  C   UNL     1      -7.771  15.400  67.756  1.00  0.00    -0.145 A  
HETATM   12  C   UNL     1      -8.528  15.289  66.581  1.00  0.00    -0.264 A  
HETATM   13  C   UNL     1      -9.419  16.308  66.224  1.00  0.00    -0.347 A  
HETATM   14  C   UNL     1      -9.550  17.438  67.041  1.00  0.00    -0.273 A  
HETATM   15  C   UNL     1     -10.525  18.523  66.748  1.00  0.00    -0.394 C  
HETATM   16  C   UNL     1      -8.803  17.532  68.225  1.00  0.00    -0.274 A  
HETATM   17  O   UNL     1     -10.685  18.767  65.433  1.00  0.00    -0.556 OA 
HETATM   18  C   UNL     1      -7.912  16.516  68.583  1.00  0.00    -0.232 A  
HETATM   19  O   UNL     1     -11.089  19.164  67.618  1.00  0.00    -0.362 OA 
ENDBRANCH   8  11
ENDBRANCH   4   8
ENDBRANCH   3   4
ENDBRANCH   2   3
TORSDOF 6
ENDMDL
MODEL      245
REMARK 921   NORMALIZED FREE ENERGY PREDICTED BY IDOCK:   -2.44 KCAL/MOL
REMARK 922        TOTAL FREE ENERGY PREDICTED BY IDOCK:   -4.07 KCAL/MOL
REMARK 923 INTER-LIGAND FREE ENERGY PREDICTED BY IDOCK:   -3.18 KCAL/MOL
REMARK 924 INTRA-LIGAND FREE ENERGY PREDICTED BY IDOCK:   -0.90 KCAL/MOL
REMARK 927      BINDING AFFINITY PREDICTED BY RF-SCORE:    0.00 PKD
ROOT
HETATM    1  C   UNL     1      -8.507   2.350  66.046  1.00  0.00    -0.100 C  
HETATM    2  C   UNL     1      -9.286   3.376  66.848  1.00  0.00    -0.201 C  
ENDROOT
BRANCH   2   3
HETATM    3  C   UNL     1      -8.414   4.352  67.643  1.00  0.00    -0.099 C  
BRANCH   3   4
HETATM    4  N   UNL     1      -8.694   5.833  67.438  1.00  0.00    -0.109 N  
BRANCH   4   5
HETATM    5  C   UNL     1      -9.128   6.123  66.022  1.00  0.00    -0.121 C  
BRANCH   5   6
HETATM    6  C   UNL     1      -8.077   6.792  65.130  1.00  0.00    -0.132 C  
HETATM    7  C   UNL     1      -7.243   7.852  65.832  1.00  0.00    -0.072 C  
ENDBRANCH   5   6
ENDBRANCH   4   5
BRANCH   4   8
HETATM    8  S   UNL     1      -9.828   6.399  68.653  1.00  0.00    -0.147 S  
HETATM    9  O   UNL     1     -11.175   6.006  68.310  1.00  0.00    -0.273 OA 
HETATM   10  O   UNL     1      -9.273   6.081  69.953  1.00  0.00    -0.145 OA 
BRANCH   8  11
HETATM   11  C   UNL     1      -9.829   8.178  68.473  1.00  0.00    -0.179 A  
HETATM   12  C   UNL     1      -8.790   8.918  69.055  1.00  0.00    -0.136 A  
HETATM   13  C   UNL     1      -8.636  10.274  68.742  1.00  0.00    -0.139 A  
HETATM   14  C   UNL     1      -9.522  10.889  67.848  1.00  0.00    -0.166 A  
HETATM   15  C   UNL     1      -9.372  12.308  67.429  1.00  0.00    -0.183 C  
HETATM   16  C   UNL     1     -10.548  10.136  67.256  1.00  0.00    -0.321 A  
HETATM   17  O   UNL     1      -8.917  13.117  68.405  1.00  0.00    -0.187 OA 
HETATM   18  C   UNL     1     -10.704   8.782  67.567  1.00  0.00    -0.213 A  
HETATM   19  O   UNL     1      -9.678  12.710  66.320  1.00  0.00    -0.253 OA 
ENDBRANCH   8  11
ENDBRANCH   4   8
ENDBRANCH   3   4
ENDBRANCH   2   3
TORSDOF 6
ENDMDL
MODEL      246
REMARK 921   NORMALIZED FREE ENERGY PREDICTED BY IDOCK:   -2.42 KCAL/MOL
REMARK 922        TOTAL FREE ENERGY PREDICTED BY IDOCK:   -4.05 KCAL/MOL
REMARK 923 INTER-LIGAND FREE ENERGY PREDICTED BY IDOCK:   -3.61 KCAL/MOL
REMARK 924 INTRA-LIGAND FREE ENERGY PREDICTED BY IDOCK:   -0.44 KCAL/MOL
REMARK 927      BINDING AFFINITY PREDICTED BY RF-SCORE:    0.00 PKD
ROOT
HETATM    1  C   UNL     1     -11.755  12.037  69.517  1.00  0.00    -0.408 C  
HETATM    2  C   UNL     1     -11.476  10.948  70.536  1.00  0.00    -0.314 C  
ENDROOT
BRANCH   2   3
HETATM    3  C   UNL     1     -11.893   9.543  70.091  1.00  0.00     0.014 C  
BRANCH   3   4
HETATM    4  N   UNL     1     -10.779   8.518  69.948  1.00  0.00    -0.229 N  
BRANCH   4   5
HETATM    5  C   UNL     1     -11.306   7.108  70.064  1.00  0.00    -0.206 C  
BRANCH   5   6
HETATM    6  C   UNL     1     -10.613   6.224  71.106  1.00  0.00    -0.289 C  
HETATM    7  C   UNL     1     -11.365   6.100  72.422  1.00  0.00    -0.340 C  
ENDBRANCH   5   6
ENDBRANCH   4   5
BRANCH   4   8
HETATM    8  S   UNL     1      -9.882   8.815  68.468  1.00  0.00    -0.173 S  
HETATM    9  O   UNL     1     -10.737   9.410  67.469  1.00  0.00    -0.280 OA 
HETATM   10  O   UNL     1      -8.627   9.439  68.835  1.00  0.00    -0.125 OA 
BRANCH   8  11
HETATM   11  C   UNL     1      -9.521   7.185  67.827  1.00  0.00    -0.126 A  
HETATM   12  C   UNL     1     -10.393   6.618  66.887  1.00  0.00    -0.324 A  
HETATM   13  C   UNL     1     -10.023   5.456  66.201  1.00  0.00    -0.164 A  
HETATM   14  C   UNL     1      -8.780   4.861  66.455  1.00  0.00    -0.112 A  
HETATM   15  C   UNL     1      -8.305   3.663  65.712  1.00  0.00    -0.106 C  
HETATM   16  C   UNL     1      -7.905   5.446  67.383  1.00  0.00    -0.101 A  
HETATM   17  O   UNL     1      -9.285   2.792  65.404  1.00  0.00    -0.151 OA 
HETATM   18  C   UNL     1      -8.273   6.606  68.071  1.00  0.00    -0.117 A  
HETATM   19  O   UNL     1      -7.131   3.465  65.451  1.00  0.00    -0.059 OA 
ENDBRANCH   8  11
ENDBRANCH   4   8
ENDBRANCH   3   4
ENDBRANCH   2   3
TORSDOF 6
ENDMDL
MODEL      247
REMARK 921   NORMALIZED FREE ENERGY PREDICTED BY IDOCK:   -2.42 KCAL/MOL
REMARK 922        TOTAL FREE ENERGY PREDICTED BY IDOCK:   -4.05 KCAL/MOL
REMARK 923 INTER-LIGAND FREE ENERGY PREDICTED BY IDOCK:   -3.36 KCAL/MOL
REMARK 924 INTRA-LIGAND FREE ENERGY PREDICTED BY IDOCK:   -0.69 KCAL/MOL
REMARK 927      BINDING AFFINITY PREDICTED BY RF-SCORE:    0.00 PKD
ROOT
HETATM    1  C   UNL     1      -9.220   7.938  73.314  1.00  0.00    -0.346 C  
HETATM    2  C   UNL     1      -8.271   7.311  72.310  1.00  0.00    -0.111 C  
ENDROOT
BRANCH   2   3
HETATM    3  C   UNL     1      -8.732   5.955  71.767  1.00  0.00    -0.139 C  
BRANCH   3   4
HETATM    4  N   UNL     1      -9.141   5.914  70.303  1.00  0.00    -0.145 N  
BRANCH   4   5
HETATM    5  C   UNL     1     -10.162   6.979  69.984  1.00  0.00    -0.194 C  
BRANCH   5   6
HETATM    6  C   UNL     1     -11.628   6.549  70.100  1.00  0.00    -0.466 C  
HETATM    7  C   UNL     1     -12.363   7.146  71.289  1.00  0.00    -0.418 C  
ENDBRANCH   5   6
ENDBRANCH   4   5
BRANCH   4   8
HETATM    8  S   UNL     1      -7.713   5.979  69.283  1.00  0.00    -0.096 S  
HETATM    9  O   UNL     1      -7.476   7.329  68.830  1.00  0.00    -0.096 OA 
HETATM   10  O   UNL     1      -6.667   5.226  69.945  1.00  0.00    -0.044 OA 
BRANCH   8  11
HETATM   11  C   UNL     1      -8.178   5.091  67.802  1.00  0.00    -0.098 A  
HETATM   12  C   UNL     1      -8.656   3.778  67.920  1.00  0.00    -0.113 A  
HETATM   13  C   UNL     1      -9.238   3.144  66.817  1.00  0.00    -0.175 A  
HETATM   14  C   UNL     1      -9.343   3.823  65.596  1.00  0.00    -0.162 A  
HETATM   15  C   UNL     1     -10.009   3.224  64.408  1.00  0.00    -0.145 C  
HETATM   16  C   UNL     1      -8.880   5.143  65.491  1.00  0.00    -0.148 A  
HETATM   17  O   UNL     1      -9.818   1.896  64.291  1.00  0.00    -0.123 OA 
HETATM   18  C   UNL     1      -8.297   5.779  66.592  1.00  0.00    -0.109 A  
HETATM   19  O   UNL     1     -10.628   3.883  63.590  1.00  0.00    -0.235 OA 
ENDBRANCH   8  11
ENDBRANCH   4   8
ENDBRANCH   3   4
ENDBRANCH   2   3
TORSDOF 6
ENDMDL
MODEL      248
REMARK 921   NORMALIZED FREE ENERGY PREDICTED BY IDOCK:   -2.38 KCAL/MOL
REMARK 922        TOTAL FREE ENERGY PREDICTED BY IDOCK:   -4.00 KCAL/MOL
REMARK 923 INTER-LIGAND FREE ENERGY PREDICTED BY IDOCK:   -3.49 KCAL/MOL
REMARK 924 INTRA-LIGAND FREE ENERGY PREDICTED BY IDOCK:   -0.51 KCAL/MOL
REMARK 927      BINDING AFFINITY PREDICTED BY RF-SCORE:    0.00 PKD
ROOT
HETATM    1  C   UNL     1      -6.830   8.404  69.772  1.00  0.00    -0.043 C  
HETATM    2  C   UNL     1      -7.110   6.927  69.564  1.00  0.00    -0.075 C  
ENDROOT
BRANCH   2   3
HETATM    3  C   UNL     1      -8.471   6.461  70.091  1.00  0.00    -0.135 C  
BRANCH   3   4
HETATM    4  N   UNL     1      -9.079   5.242  69.414  1.00  0.00    -0.103 N  
BRANCH   4   5
HETATM    5  C   UNL     1      -9.460   4.183  70.421  1.00  0.00    -0.177 C  
BRANCH   5   6
HETATM    6  C   UNL     1      -8.890   2.785  70.162  1.00  0.00    -0.148 C  
HETATM    7  C   UNL     1      -9.220   2.219  68.791  1.00  0.00    -0.222 C  
ENDBRANCH   5   6
ENDBRANCH   4   5
BRANCH   4   8
HETATM    8  S   UNL     1     -10.404   5.736  68.374  1.00  0.00    -0.217 S  
HETATM    9  O   UNL     1     -10.660   4.731  67.369  1.00  0.00    -0.023 OA 
HETATM   10  O   UNL     1     -11.472   6.220  69.225  1.00  0.00    -0.411 OA 
BRANCH   8  11
HETATM   11  C   UNL     1      -9.759   7.127  67.453  1.00  0.00    -0.148 A  
HETATM   12  C   UNL     1      -8.775   6.899  66.481  1.00  0.00    -0.137 A  
HETATM   13  C   UNL     1      -8.419   7.920  65.593  1.00  0.00    -0.160 A  
HETATM   14  C   UNL     1      -9.047   9.169  65.678  1.00  0.00    -0.273 A  
HETATM   15  C   UNL     1      -8.756  10.272  64.723  1.00  0.00    -0.188 C  
HETATM   16  C   UNL     1     -10.044   9.384  66.641  1.00  0.00    -0.332 A  
HETATM   17  O   UNL     1      -7.469  10.322  64.328  1.00  0.00    -0.136 OA 
HETATM   18  C   UNL     1     -10.401   8.365  67.530  1.00  0.00    -0.333 A  
HETATM   19  O   UNL     1      -9.593  11.084  64.369  1.00  0.00    -0.229 OA 
ENDBRANCH   8  11
ENDBRANCH   4   8
ENDBRANCH   3   4
ENDBRANCH   2   3
TORSDOF 6
ENDMDL
MODEL      249
REMARK 921   NORMALIZED FREE ENERGY PREDICTED BY IDOCK:   -2.37 KCAL/MOL
REMARK 922        TOTAL FREE ENERGY PREDICTED BY IDOCK:   -3.99 KCAL/MOL
REMARK 923 INTER-LIGAND FREE ENERGY PREDICTED BY IDOCK:   -3.95 KCAL/MOL
REMARK 924 INTRA-LIGAND FREE ENERGY PREDICTED BY IDOCK:   -0.04 KCAL/MOL
REMARK 927      BINDING AFFINITY PREDICTED BY RF-SCORE:    0.00 PKD
ROOT
HETATM    1  C   UNL     1      -5.770   6.254  65.474  1.00  0.00    -0.021 C  
HETATM    2  C   UNL     1      -6.035   7.299  66.541  1.00  0.00    -0.036 C  
ENDROOT
BRANCH   2   3
HETATM    3  C   UNL     1      -7.471   7.310  67.073  1.00  0.00    -0.105 C  
BRANCH   3   4
HETATM    4  N   UNL     1      -7.762   8.264  68.220  1.00  0.00    -0.104 N  
BRANCH   4   5
HETATM    5  C   UNL     1      -9.107   8.931  68.057  1.00  0.00    -0.139 C  
BRANCH   5   6
HETATM    6  C   UNL     1      -9.137  10.145  67.123  1.00  0.00    -0.149 C  
HETATM    7  C   UNL     1     -10.509  10.778  66.963  1.00  0.00    -0.297 C  
ENDBRANCH   5   6
ENDBRANCH   4   5
BRANCH   4   8
HETATM    8  S   UNL     1      -7.571   7.430  69.753  1.00  0.00    -0.096 S  
HETATM    9  O   UNL     1      -7.387   6.014  69.539  1.00  0.00    -0.072 OA 
HETATM   10  O   UNL     1      -6.626   8.187  70.549  1.00  0.00    -0.036 OA 
BRANCH   8  11
HETATM   11  C   UNL     1      -9.174   7.554  70.536  1.00  0.00    -0.157 A  
HETATM   12  C   UNL     1      -9.584   8.793  71.048  1.00  0.00    -0.290 A  
HETATM   13  C   UNL     1     -10.910   8.977  71.456  1.00  0.00    -0.416 A  
HETATM   14  C   UNL     1     -11.826   7.922  71.352  1.00  0.00    -0.328 A  
HETATM   15  C   UNL     1     -13.261   8.076  71.709  1.00  0.00    -0.341 C  
HETATM   16  C   UNL     1     -11.412   6.691  70.820  1.00  0.00    -0.407 A  
HETATM   17  O   UNL     1     -13.475   8.895  72.757  1.00  0.00    -0.408 OA 
HETATM   18  C   UNL     1     -10.087   6.504  70.413  1.00  0.00    -0.213 A  
HETATM   19  O   UNL     1     -14.157   7.478  71.138  1.00  0.00    -0.332 OA 
ENDBRANCH   8  11
ENDBRANCH   4   8
ENDBRANCH   3   4
ENDBRANCH   2   3
TORSDOF 6
ENDMDL
MODEL      250
REMARK 921   NORMALIZED FREE ENERGY PREDICTED BY IDOCK:   -2.31 KCAL/MOL
REMARK 922        TOTAL FREE ENERGY PREDICTED BY IDOCK:   -3.91 KCAL/MOL
REMARK 923 INTER-LIGAND FREE ENERGY PREDICTED BY IDOCK:   -3.54 KCAL/MOL
REMARK 924 INTRA-LIGAND FREE ENERGY PREDICTED BY IDOCK:   -0.37 KCAL/MOL
REMARK 927      BINDING AFFINITY PREDICTED BY RF-SCORE:    0.00 PKD
ROOT
HETATM    1  C   UNL     1      -6.836   8.373  69.853  1.00  0.00    -0.043 C  
HETATM    2  C   UNL     1      -6.487   6.900  69.752  1.00  0.00    -0.043 C  
ENDROOT
BRANCH   2   3
HETATM    3  C   UNL     1      -7.423   5.974  70.535  1.00  0.00    -0.090 C  
BRANCH   3   4
HETATM    4  N   UNL     1      -7.731   4.627  69.899  1.00  0.00    -0.057 N  
BRANCH   4   5
HETATM    5  C   UNL     1      -7.117   3.492  70.683  1.00  0.00    -0.034 C  
BRANCH   5   6
HETATM    6  C   UNL     1      -6.138   2.604  69.909  1.00  0.00    -0.024 C  
HETATM    7  C   UNL     1      -6.700   2.028  68.619  1.00  0.00    -0.029 C  
ENDBRANCH   5   6
ENDBRANCH   4   5
BRANCH   4   8
HETATM    8  S   UNL     1      -9.463   4.463  69.659  1.00  0.00    -0.197 S  
HETATM    9  O   UNL     1      -9.792   4.573  68.258  1.00  0.00    -0.147 OA 
HETATM   10  O   UNL     1      -9.906   3.323  70.436  1.00  0.00    -0.121 OA 
BRANCH   8  11
HETATM   11  C   UNL     1     -10.161   5.936  70.395  1.00  0.00    -0.201 A  
HETATM   12  C   UNL     1     -10.216   7.112  69.634  1.00  0.00    -0.215 A  
HETATM   13  C   UNL     1     -10.956   8.208  70.093  1.00  0.00    -0.223 A  
HETATM   14  C   UNL     1     -11.640   8.126  71.313  1.00  0.00    -0.305 A  
HETATM   15  C   UNL     1     -12.493   9.233  71.822  1.00  0.00    -0.381 C  
HETATM   16  C   UNL     1     -11.595   6.939  72.059  1.00  0.00    -0.322 A  
HETATM   17  O   UNL     1     -12.020  10.461  71.531  1.00  0.00    -0.333 OA 
HETATM   18  C   UNL     1     -10.855   5.843  71.603  1.00  0.00    -0.321 A  
HETATM   19  O   UNL     1     -13.500   9.047  72.483  1.00  0.00    -0.454 OA 
ENDBRANCH   8  11
ENDBRANCH   4   8
ENDBRANCH   3   4
ENDBRANCH   2   3
TORSDOF 6
ENDMDL
MODEL      251
REMARK 921   NORMALIZED FREE ENERGY PREDICTED BY IDOCK:   -2.30 KCAL/MOL
REMARK 922        TOTAL FREE ENERGY PREDICTED BY IDOCK:   -3.89 KCAL/MOL
REMARK 923 INTER-LIGAND FREE ENERGY PREDICTED BY IDOCK:   -3.20 KCAL/MOL
REMARK 924 INTRA-LIGAND FREE ENERGY PREDICTED BY IDOCK:   -0.70 KCAL/MOL
REMARK 927      BINDING AFFINITY PREDICTED BY RF-SCORE:    0.00 PKD
ROOT
HETATM    1  C   UNL     1      -6.020   6.200  67.828  1.00  0.00    -0.017 C  
HETATM    2  C   UNL     1      -6.153   7.396  66.905  1.00  0.00    -0.046 C  
ENDROOT
BRANCH   2   3
HETATM    3  C   UNL     1      -7.594   7.724  66.499  1.00  0.00    -0.096 C  
BRANCH   3   4
HETATM    4  N   UNL     1      -8.228   8.932  67.170  1.00  0.00    -0.103 N  
BRANCH   4   5
HETATM    5  C   UNL     1      -7.230  10.050  67.354  1.00  0.00    -0.085 C  
BRANCH   5   6
HETATM    6  C   UNL     1      -6.915  10.426  68.805  1.00  0.00    -0.068 C  
HETATM    7  C   UNL     1      -5.498  10.931  69.027  1.00  0.00    -0.040 C  
ENDBRANCH   5   6
ENDBRANCH   4   5
BRANCH   4   8
HETATM    8  S   UNL     1      -9.671   9.413  66.292  1.00  0.00    -0.282 S  
HETATM    9  O   UNL     1      -9.316  10.134  65.092  1.00  0.00    -0.195 OA 
HETATM   10  O   UNL     1     -10.550   8.263  66.232  1.00  0.00     0.115 OA 
BRANCH   8  11
HETATM   11  C   UNL     1     -10.443  10.643  67.335  1.00  0.00    -0.235 A  
HETATM   12  C   UNL     1     -10.577  10.382  68.706  1.00  0.00    -0.232 A  
HETATM   13  C   UNL     1     -10.962  11.406  69.579  1.00  0.00    -0.226 A  
HETATM   14  C   UNL     1     -11.215  12.690  69.080  1.00  0.00    -0.300 A  
HETATM   15  C   UNL     1     -11.566  13.833  69.966  1.00  0.00    -0.195 C  
HETATM   16  C   UNL     1     -11.060  12.948  67.710  1.00  0.00    -0.291 A  
HETATM   17  O   UNL     1     -12.328  13.487  71.021  1.00  0.00    -0.362 OA 
HETATM   18  C   UNL     1     -10.676  11.927  66.836  1.00  0.00    -0.285 A  
HETATM   19  O   UNL     1     -11.235  14.982  69.732  1.00  0.00    -0.252 OA 
ENDBRANCH   8  11
ENDBRANCH   4   8
ENDBRANCH   3   4
ENDBRANCH   2   3
TORSDOF 6
ENDMDL
MODEL      252
REMARK 921   NORMALIZED FREE ENERGY PREDICTED BY IDOCK:   -2.27 KCAL/MOL
REMARK 922        TOTAL FREE ENERGY PREDICTED BY IDOCK:   -3.85 KCAL/MOL
REMARK 923 INTER-LIGAND FREE ENERGY PREDICTED BY IDOCK:   -2.87 KCAL/MOL
REMARK 924 INTRA-LIGAND FREE ENERGY PREDICTED BY IDOCK:   -0.98 KCAL/MOL
REMARK 927      BINDING AFFINITY PREDICTED BY RF-SCORE:    0.00 PKD
ROOT
HETATM    1  C   UNL     1      -9.544   1.840  63.289  1.00  0.00    -0.098 C  
HETATM    2  C   UNL     1      -8.187   2.493  63.478  1.00  0.00    -0.081 C  
ENDROOT
BRANCH   2   3
HETATM    3  C   UNL     1      -7.899   2.948  64.912  1.00  0.00    -0.082 C  
BRANCH   3   4
HETATM    4  N   UNL     1      -8.333   4.359  65.275  1.00  0.00    -0.110 N  
BRANCH   4   5
HETATM    5  C   UNL     1      -8.371   5.257  64.062  1.00  0.00    -0.125 C  
BRANCH   5   6
HETATM    6  C   UNL     1      -7.884   6.693  64.283  1.00  0.00    -0.115 C  
HETATM    7  C   UNL     1      -6.483   6.797  64.862  1.00  0.00    -0.042 C  
ENDBRANCH   5   6
ENDBRANCH   4   5
BRANCH   4   8
HETATM    8  S   UNL     1      -9.849   4.309  66.161  1.00  0.00    -0.209 S  
HETATM    9  O   UNL     1     -10.968   4.409  65.254  1.00  0.00    -0.250 OA 
HETATM   10  O   UNL     1      -9.763   3.220  67.113  1.00  0.00    -0.127 OA 
BRANCH   8  11
HETATM   11  C   UNL     1      -9.885   5.843  67.079  1.00  0.00    -0.149 A  
HETATM   12  C   UNL     1      -8.818   6.145  67.937  1.00  0.00    -0.111 A  
HETATM   13  C   UNL     1      -8.704   7.426  68.488  1.00  0.00    -0.127 A  
HETATM   14  C   UNL     1      -9.658   8.405  68.181  1.00  0.00    -0.158 A  
HETATM   15  C   UNL     1      -9.556   9.801  68.684  1.00  0.00    -0.151 C  
HETATM   16  C   UNL     1     -10.712   8.101  67.305  1.00  0.00    -0.263 A  
HETATM   17  O   UNL     1      -9.046   9.893  69.928  1.00  0.00    -0.218 OA 
HETATM   18  C   UNL     1     -10.828   6.821  66.755  1.00  0.00    -0.296 A  
HETATM   19  O   UNL     1      -9.943  10.767  68.050  1.00  0.00    -0.159 OA 
ENDBRANCH   8  11
ENDBRANCH   4   8
ENDBRANCH   3   4
ENDBRANCH   2   3
TORSDOF 6
ENDMDL
MODEL      253
REMARK 921   NORMALIZED FREE ENERGY PREDICTED BY IDOCK:   -2.25 KCAL/MOL
REMARK 922        TOTAL FREE ENERGY PREDICTED BY IDOCK:   -3.82 KCAL/MOL
REMARK 923 INTER-LIGAND FREE ENERGY PREDICTED BY IDOCK:   -3.73 KCAL/MOL
REMARK 924 INTRA-LIGAND FREE ENERGY PREDICTED BY IDOCK:   -0.09 KCAL/MOL
REMARK 927      BINDING AFFINITY PREDICTED BY RF-SCORE:    0.00 PKD
ROOT
HETATM    1  C   UNL     1      -5.528   6.058  66.236  1.00  0.00    -0.010 C  
HETATM    2  C   UNL     1      -6.720   6.571  65.450  1.00  0.00    -0.047 C  
ENDROOT
BRANCH   2   3
HETATM    3  C   UNL     1      -7.927   6.955  66.310  1.00  0.00    -0.108 C  
BRANCH   3   4
HETATM    4  N   UNL     1      -8.072   8.429  66.657  1.00  0.00    -0.100 N  
BRANCH   4   5
HETATM    5  C   UNL     1      -7.137   8.829  67.773  1.00  0.00    -0.083 C  
BRANCH   5   6
HETATM    6  C   UNL     1      -7.810   9.268  69.078  1.00  0.00    -0.082 C  
HETATM    7  C   UNL     1      -7.945   8.164  70.114  1.00  0.00    -0.107 C  
ENDBRANCH   5   6
ENDBRANCH   4   5
BRANCH   4   8
HETATM    8  S   UNL     1      -7.896   9.403  65.207  1.00  0.00    -0.113 S  
HETATM    9  O   UNL     1      -6.620  10.077  65.202  1.00  0.00    -0.102 OA 
HETATM   10  O   UNL     1      -8.308   8.590  64.081  1.00  0.00    -0.157 OA 
BRANCH   8  11
HETATM   11  C   UNL     1      -9.091  10.720  65.403  1.00  0.00    -0.194 A  
HETATM   12  C   UNL     1      -8.893  11.668  66.416  1.00  0.00    -0.182 A  
HETATM   13  C   UNL     1      -9.675  12.829  66.450  1.00  0.00    -0.261 A  
HETATM   14  C   UNL     1     -10.654  13.039  65.470  1.00  0.00    -0.297 A  
HETATM   15  C   UNL     1     -11.471  14.281  65.416  1.00  0.00    -0.332 C  
HETATM   16  C   UNL     1     -10.832  12.094  64.448  1.00  0.00    -0.372 A  
HETATM   17  O   UNL     1     -11.783  14.778  66.629  1.00  0.00    -0.358 OA 
HETATM   18  C   UNL     1     -10.053  10.934  64.413  1.00  0.00    -0.402 A  
HETATM   19  O   UNL     1     -11.864  14.775  64.374  1.00  0.00    -0.422 OA 
ENDBRANCH   8  11
ENDBRANCH   4   8
ENDBRANCH   3   4
ENDBRANCH   2   3
TORSDOF 6
ENDMDL
MODEL      254
REMARK 921   NORMALIZED FREE ENERGY PREDICTED BY IDOCK:   -2.23 KCAL/MOL
REMARK 922        TOTAL FREE ENERGY PREDICTED BY IDOCK:   -3.79 KCAL/MOL
REMARK 923 INTER-LIGAND FREE ENERGY PREDICTED BY IDOCK:   -3.73 KCAL/MOL
REMARK 924 INTRA-LIGAND FREE ENERGY PREDICTED BY IDOCK:   -0.07 KCAL/MOL
REMARK 927      BINDING AFFINITY PREDICTED BY RF-SCORE:    0.00 PKD
ROOT
HETATM    1  C   UNL     1      -5.957  18.395  69.523  1.00  0.00    -0.257 C  
HETATM    2  C   UNL     1      -6.423  17.387  68.489  1.00  0.00    -0.180 C  
ENDROOT
BRANCH   2   3
HETATM    3  C   UNL     1      -7.834  16.843  68.727  1.00  0.00    -0.250 C  
BRANCH   3   4
HETATM    4  N   UNL     1      -8.916  17.320  67.772  1.00  0.00    -0.231 N  
BRANCH   4   5
HETATM    5  C   UNL     1      -8.867  18.817  67.584  1.00  0.00    -0.280 C  
BRANCH   5   6
HETATM    6  C   UNL     1     -10.213  19.543  67.683  1.00  0.00    -0.556 C  
HETATM    7  C   UNL     1     -10.124  21.051  67.513  1.00  0.00     0.112 C  
ENDBRANCH   5   6
ENDBRANCH   4   5
BRANCH   4   8
HETATM    8  S   UNL     1      -8.824  16.418  66.268  1.00  0.00    -0.326 S  
HETATM    9  O   UNL     1      -9.733  16.971  65.290  1.00  0.00    -0.284 OA 
HETATM   10  O   UNL     1      -7.422  16.233  65.953  1.00  0.00     0.334 OA 
BRANCH   8  11
HETATM   11  C   UNL     1      -9.518  14.818  66.660  1.00  0.00    -0.273 A  
HETATM   12  C   UNL     1      -8.786  13.665  66.341  1.00  0.00     0.103 A  
HETATM   13  C   UNL     1      -9.190  12.420  66.836  1.00  0.00    -0.209 A  
HETATM   14  C   UNL     1     -10.327  12.328  67.650  1.00  0.00    -0.214 A  
HETATM   15  C   UNL     1     -10.769  11.045  68.258  1.00  0.00    -0.196 C  
HETATM   16  C   UNL     1     -11.043  13.489  67.981  1.00  0.00    -0.283 A  
HETATM   17  O   UNL     1     -10.562   9.972  67.469  1.00  0.00    -0.242 OA 
HETATM   18  C   UNL     1     -10.641  14.734  67.486  1.00  0.00    -0.259 A  
HETATM   19  O   UNL     1     -11.312  10.976  69.346  1.00  0.00    -0.235 OA 
ENDBRANCH   8  11
ENDBRANCH   4   8
ENDBRANCH   3   4
ENDBRANCH   2   3
TORSDOF 6
ENDMDL
MODEL      255
REMARK 921   NORMALIZED FREE ENERGY PREDICTED BY IDOCK:   -2.21 KCAL/MOL
REMARK 922        TOTAL FREE ENERGY PREDICTED BY IDOCK:   -3.77 KCAL/MOL
REMARK 923 INTER-LIGAND FREE ENERGY PREDICTED BY IDOCK:   -3.38 KCAL/MOL
REMARK 924 INTRA-LIGAND FREE ENERGY PREDICTED BY IDOCK:   -0.40 KCAL/MOL
REMARK 927      BINDING AFFINITY PREDICTED BY RF-SCORE:    0.00 PKD
ROOT
HETATM    1  C   UNL     1      -6.458   8.050  70.038  1.00  0.00    -0.033 C  
HETATM    2  C   UNL     1      -6.515   6.806  70.906  1.00  0.00    -0.052 C  
ENDROOT
BRANCH   2   3
HETATM    3  C   UNL     1      -7.480   6.907  72.092  1.00  0.00    -0.091 C  
BRANCH   3   4
HETATM    4  N   UNL     1      -7.947   5.593  72.699  1.00  0.00    -0.102 N  
BRANCH   4   5
HETATM    5  C   UNL     1      -7.030   5.141  73.810  1.00  0.00    -0.081 C  
BRANCH   5   6
HETATM    6  C   UNL     1      -6.278   3.830  73.559  1.00  0.00    -0.023 C  
HETATM    7  C   UNL     1      -6.196   3.426  72.095  1.00  0.00    -0.014 C  
ENDBRANCH   5   6
ENDBRANCH   4   5
BRANCH   4   8
HETATM    8  S   UNL     1      -9.629   5.723  73.183  1.00  0.00    -0.147 S  
HETATM    9  O   UNL     1     -10.346   4.514  72.851  1.00  0.00    -0.169 OA 
HETATM   10  O   UNL     1      -9.657   6.254  74.530  1.00  0.00    -0.206 OA 
BRANCH   8  11
HETATM   11  C   UNL     1     -10.317   6.959  72.088  1.00  0.00    -0.199 A  
HETATM   12  C   UNL     1     -10.314   8.301  72.494  1.00  0.00    -0.401 A  
HETATM   13  C   UNL     1     -10.631   9.310  71.577  1.00  0.00    -0.405 A  
HETATM   14  C   UNL     1     -10.951   8.976  70.255  1.00  0.00    -0.274 A  
HETATM   15  C   UNL     1     -11.234  10.006  69.220  1.00  0.00    -0.166 C  
HETATM   16  C   UNL     1     -10.933   7.632  69.852  1.00  0.00    -0.208 A  
HETATM   17  O   UNL     1     -11.885  11.086  69.694  1.00  0.00    -0.285 OA 
HETATM   18  C   UNL     1     -10.618   6.622  70.767  1.00  0.00    -0.265 A  
HETATM   19  O   UNL     1     -10.947   9.865  68.044  1.00  0.00    -0.257 OA 
ENDBRANCH   8  11
ENDBRANCH   4   8
ENDBRANCH   3   4
ENDBRANCH   2   3
TORSDOF 6
ENDMDL
MODEL      256
REMARK 921   NORMALIZED FREE ENERGY PREDICTED BY IDOCK:   -2.20 KCAL/MOL
REMARK 922        TOTAL FREE ENERGY PREDICTED BY IDOCK:   -3.75 KCAL/MOL
REMARK 923 INTER-LIGAND FREE ENERGY PREDICTED BY IDOCK:   -3.81 KCAL/MOL
REMARK 924 INTRA-LIGAND FREE ENERGY PREDICTED BY IDOCK:    0.06 KCAL/MOL
REMARK 927      BINDING AFFINITY PREDICTED BY RF-SCORE:    0.00 PKD
ROOT
HETATM    1  C   UNL     1      -7.290   6.920  69.317  1.00  0.00    -0.092 C  
HETATM    2  C   UNL     1      -8.597   6.552  68.639  1.00  0.00    -0.124 C  
ENDROOT
BRANCH   2   3
HETATM    3  C   UNL     1      -9.461   7.752  68.241  1.00  0.00    -0.147 C  
BRANCH   3   4
HETATM    4  N   UNL     1     -10.742   7.959  69.035  1.00  0.00    -0.153 N  
BRANCH   4   5
HETATM    5  C   UNL     1     -11.226   6.668  69.650  1.00  0.00    -0.340 C  
BRANCH   5   6
HETATM    6  C   UNL     1     -11.725   6.768  71.095  1.00  0.00    -0.394 C  
HETATM    7  C   UNL     1     -11.042   5.812  72.060  1.00  0.00    -0.318 C  
ENDBRANCH   5   6
ENDBRANCH   4   5
BRANCH   4   8
HETATM    8  S   UNL     1     -10.519   9.255  70.199  1.00  0.00    -0.248 S  
HETATM    9  O   UNL     1     -11.794   9.810  70.588  1.00  0.00    -0.273 OA 
HETATM   10  O   UNL     1      -9.580   8.789  71.198  1.00  0.00    -0.196 OA 
BRANCH   8  11
HETATM   11  C   UNL     1      -9.732  10.564  69.270  1.00  0.00    -0.196 A  
HETATM   12  C   UNL     1     -10.510  11.642  68.824  1.00  0.00    -0.226 A  
HETATM   13  C   UNL     1      -9.892  12.782  68.299  1.00  0.00    -0.224 A  
HETATM   14  C   UNL     1      -8.494  12.844  68.220  1.00  0.00    -0.161 A  
HETATM   15  C   UNL     1      -7.778  14.053  67.732  1.00  0.00    -0.172 C  
HETATM   16  C   UNL     1      -7.722  11.769  68.686  1.00  0.00    -0.126 A  
HETATM   17  O   UNL     1      -8.420  14.700  66.740  1.00  0.00    -0.208 OA 
HETATM   18  C   UNL     1      -8.338  10.628  69.210  1.00  0.00    -0.112 A  
HETATM   19  O   UNL     1      -6.688  14.397  68.156  1.00  0.00    -0.099 OA 
ENDBRANCH   8  11
ENDBRANCH   4   8
ENDBRANCH   3   4
ENDBRANCH   2   3
TORSDOF 6
ENDMDL
MODEL      257
REMARK 921   NORMALIZED FREE ENERGY PREDICTED BY IDOCK:   -2.19 KCAL/MOL
REMARK 922        TOTAL FREE ENERGY PREDICTED BY IDOCK:   -3.74 KCAL/MOL
REMARK 923 INTER-LIGAND FREE ENERGY PREDICTED BY IDOCK:   -3.23 KCAL/MOL
REMARK 924 INTRA-LIGAND FREE ENERGY PREDICTED BY IDOCK:   -0.51 KCAL/MOL
REMARK 927      BINDING AFFINITY PREDICTED BY RF-SCORE:    0.00 PKD
ROOT
HETATM    1  C   UNL     1     -10.668   5.488  66.941  1.00  0.00    -0.310 C  
HETATM    2  C   UNL     1     -10.394   6.958  66.685  1.00  0.00    -0.214 C  
ENDROOT
BRANCH   2   3
HETATM    3  C   UNL     1      -9.002   7.251  66.116  1.00  0.00    -0.149 C  
BRANCH   3   4
HETATM    4  N   UNL     1      -8.714   8.696  65.741  1.00  0.00    -0.171 N  
BRANCH   4   5
HETATM    5  C   UNL     1      -9.920   9.576  65.961  1.00  0.00    -0.278 C  
BRANCH   5   6
HETATM    6  C   UNL     1     -10.237  10.563  64.833  1.00  0.00    -0.371 C  
HETATM    7  C   UNL     1     -11.132  11.720  65.246  1.00  0.00    -0.333 C  
ENDBRANCH   5   6
ENDBRANCH   4   5
BRANCH   4   8
HETATM    8  S   UNL     1      -7.273   9.253  66.576  1.00  0.00    -0.086 S  
HETATM    9  O   UNL     1      -6.115   8.510  66.139  1.00  0.00    -0.050 OA 
HETATM   10  O   UNL     1      -7.280  10.701  66.542  1.00  0.00    -0.118 OA 
BRANCH   8  11
HETATM   11  C   UNL     1      -7.511   8.741  68.273  1.00  0.00    -0.092 A  
HETATM   12  C   UNL     1      -6.855   7.590  68.732  1.00  0.00    -0.065 A  
HETATM   13  C   UNL     1      -6.836   7.294  70.100  1.00  0.00    -0.059 A  
HETATM   14  C   UNL     1      -7.475   8.148  71.008  1.00  0.00    -0.067 A  
HETATM   15  C   UNL     1      -7.435   7.921  72.477  1.00  0.00    -0.104 C  
HETATM   16  C   UNL     1      -8.113   9.308  70.542  1.00  0.00    -0.198 A  
HETATM   17  O   UNL     1      -7.462   6.619  72.826  1.00  0.00    -0.091 OA 
HETATM   18  C   UNL     1      -8.133   9.605  69.176  1.00  0.00    -0.104 A  
HETATM   19  O   UNL     1      -7.428   8.828  73.291  1.00  0.00    -0.367 OA 
ENDBRANCH   8  11
ENDBRANCH   4   8
ENDBRANCH   3   4
ENDBRANCH   2   3
TORSDOF 6
ENDMDL
MODEL      258
REMARK 921   NORMALIZED FREE ENERGY PREDICTED BY IDOCK:   -2.17 KCAL/MOL
REMARK 922        TOTAL FREE ENERGY PREDICTED BY IDOCK:   -3.72 KCAL/MOL
REMARK 923 INTER-LIGAND FREE ENERGY PREDICTED BY IDOCK:   -3.25 KCAL/MOL
REMARK 924 INTRA-LIGAND FREE ENERGY PREDICTED BY IDOCK:   -0.47 KCAL/MOL
REMARK 927      BINDING AFFINITY PREDICTED BY RF-SCORE:    0.00 PKD
ROOT
HETATM    1  C   UNL     1      -6.290   6.924  64.517  1.00  0.00    -0.036 C  
HETATM    2  C   UNL     1      -6.120   7.875  65.686  1.00  0.00    -0.038 C  
ENDROOT
BRANCH   2   3
HETATM    3  C   UNL     1      -7.234   7.794  66.734  1.00  0.00    -0.088 C  
BRANCH   3   4
HETATM    4  N   UNL     1      -8.503   8.579  66.438  1.00  0.00    -0.113 N  
BRANCH   4   5
HETATM    5  C   UNL     1      -9.709   7.674  66.362  1.00  0.00    -0.127 C  
BRANCH   5   6
HETATM    6  C   UNL     1      -9.417   6.172  66.437  1.00  0.00    -0.172 C  
HETATM    7  C   UNL     1     -10.554   5.341  67.010  1.00  0.00    -0.255 C  
ENDBRANCH   5   6
ENDBRANCH   4   5
BRANCH   4   8
HETATM    8  S   UNL     1      -8.677   9.890  67.592  1.00  0.00    -0.121 S  
HETATM    9  O   UNL     1      -7.387  10.443  67.929  1.00  0.00    -0.085 OA 
HETATM   10  O   UNL     1      -9.750  10.745  67.125  1.00  0.00    -0.167 OA 
BRANCH   8  11
HETATM   11  C   UNL     1      -9.223   9.094  69.098  1.00  0.00    -0.144 A  
HETATM   12  C   UNL     1      -8.367   9.086  70.209  1.00  0.00    -0.167 A  
HETATM   13  C   UNL     1      -8.848   8.679  71.458  1.00  0.00    -0.285 A  
HETATM   14  C   UNL     1     -10.183   8.278  71.596  1.00  0.00    -0.286 A  
HETATM   15  C   UNL     1     -10.768   7.896  72.910  1.00  0.00    -0.375 C  
HETATM   16  C   UNL     1     -11.038   8.308  70.484  1.00  0.00    -0.259 A  
HETATM   17  O   UNL     1      -9.907   7.247  73.718  1.00  0.00    -0.276 OA 
HETATM   18  C   UNL     1     -10.560   8.713  69.234  1.00  0.00    -0.204 A  
HETATM   19  O   UNL     1     -11.930   8.107  73.207  1.00  0.00    -0.057 OA 
ENDBRANCH   8  11
ENDBRANCH   4   8
ENDBRANCH   3   4
ENDBRANCH   2   3
TORSDOF 6
ENDMDL
MODEL      259
REMARK 921   NORMALIZED FREE ENERGY PREDICTED BY IDOCK:   -2.17 KCAL/MOL
REMARK 922        TOTAL FREE ENERGY PREDICTED BY IDOCK:   -3.71 KCAL/MOL
REMARK 923 INTER-LIGAND FREE ENERGY PREDICTED BY IDOCK:   -3.50 KCAL/MOL
REMARK 924 INTRA-LIGAND FREE ENERGY PREDICTED BY IDOCK:   -0.22 KCAL/MOL
REMARK 927      BINDING AFFINITY PREDICTED BY RF-SCORE:    0.00 PKD
ROOT
HETATM    1  C   UNL     1      -8.137   6.030  65.907  1.00  0.00    -0.119 C  
HETATM    2  C   UNL     1      -7.359   6.665  67.044  1.00  0.00    -0.082 C  
ENDROOT
BRANCH   2   3
HETATM    3  C   UNL     1      -8.130   7.740  67.816  1.00  0.00    -0.125 C  
BRANCH   3   4
HETATM    4  N   UNL     1      -8.930   7.268  69.020  1.00  0.00    -0.135 N  
BRANCH   4   5
HETATM    5  C   UNL     1      -8.412   7.876  70.301  1.00  0.00    -0.128 C  
BRANCH   5   6
HETATM    6  C   UNL     1      -7.042   7.374  70.768  1.00  0.00    -0.063 C  
HETATM    7  C   UNL     1      -6.828   7.448  72.271  1.00  0.00    -0.059 C  
ENDBRANCH   5   6
ENDBRANCH   4   5
BRANCH   4   8
HETATM    8  S   UNL     1     -10.642   7.550  68.747  1.00  0.00    -0.107 S  
HETATM    9  O   UNL     1     -11.078   6.886  67.541  1.00  0.00    -0.270 OA 
HETATM   10  O   UNL     1     -11.327   7.327  70.004  1.00  0.00    -0.247 OA 
BRANCH   8  11
HETATM   11  C   UNL     1     -10.754   9.292  68.359  1.00  0.00    -0.145 A  
HETATM   12  C   UNL     1     -10.877  10.213  69.408  1.00  0.00    -0.274 A  
HETATM   13  C   UNL     1     -10.738  11.583  69.156  1.00  0.00    -0.210 A  
HETATM   14  C   UNL     1     -10.476  12.030  67.854  1.00  0.00    -0.221 A  
HETATM   15  C   UNL     1     -10.255  13.466  67.536  1.00  0.00    -0.226 C  
HETATM   16  C   UNL     1     -10.335  11.099  66.813  1.00  0.00    -0.284 A  
HETATM   17  O   UNL     1     -11.008  14.307  68.271  1.00  0.00    -0.236 OA 
HETATM   18  C   UNL     1     -10.475   9.731  67.063  1.00  0.00    -0.295 A  
HETATM   19  O   UNL     1      -9.499  13.844  66.657  1.00  0.00    -0.270 OA 
ENDBRANCH   8  11
ENDBRANCH   4   8
ENDBRANCH   3   4
ENDBRANCH   2   3
TORSDOF 6
ENDMDL
MODEL      260
REMARK 921   NORMALIZED FREE ENERGY PREDICTED BY IDOCK:   -2.08 KCAL/MOL
REMARK 922        TOTAL FREE ENERGY PREDICTED BY IDOCK:   -3.59 KCAL/MOL
REMARK 923 INTER-LIGAND FREE ENERGY PREDICTED BY IDOCK:   -3.22 KCAL/MOL
REMARK 924 INTRA-LIGAND FREE ENERGY PREDICTED BY IDOCK:   -0.37 KCAL/MOL
REMARK 927      BINDING AFFINITY PREDICTED BY RF-SCORE:    0.00 PKD
ROOT
HETATM    1  C   UNL     1     -11.377  11.587  67.346  1.00  0.00    -0.367 C  
HETATM    2  C   UNL     1      -9.885  11.740  67.115  1.00  0.00    -0.207 C  
ENDROOT
BRANCH   2   3
HETATM    3  C   UNL     1      -9.219  12.816  67.977  1.00  0.00    -0.208 C  
BRANCH   3   4
HETATM    4  N   UNL     1      -8.090  12.355  68.885  1.00  0.00     0.090 N  
BRANCH   4   5
HETATM    5  C   UNL     1      -7.924  10.855  68.844  1.00  0.00    -0.146 C  
BRANCH   5   6
HETATM    6  C   UNL     1      -7.409  10.208  70.134  1.00  0.00    -0.157 C  
HETATM    7  C   UNL     1      -6.555   8.970  69.915  1.00  0.00    -0.042 C  
ENDBRANCH   5   6
ENDBRANCH   4   5
BRANCH   4   8
HETATM    8  S   UNL     1      -6.620  13.237  68.505  1.00  0.00    -0.099 S  
HETATM    9  O   UNL     1      -5.760  13.311  69.663  1.00  0.00    -0.093 OA 
HETATM   10  O   UNL     1      -6.120  12.730  67.243  1.00  0.00    -0.241 OA 
BRANCH   8  11
HETATM   11  C   UNL     1      -7.160  14.922  68.248  1.00  0.00    -0.112 A  
HETATM   12  C   UNL     1      -7.162  15.807  69.335  1.00  0.00    -0.217 A  
HETATM   13  C   UNL     1      -7.357  17.176  69.123  1.00  0.00    -0.172 A  
HETATM   14  C   UNL     1      -7.551  17.660  67.822  1.00  0.00    -0.209 A  
HETATM   15  C   UNL     1      -7.700  19.110  67.527  1.00  0.00    -0.237 C  
HETATM   16  C   UNL     1      -7.529  16.770  66.737  1.00  0.00    -0.279 A  
HETATM   17  O   UNL     1      -8.367  19.792  68.479  1.00  0.00    -0.313 OA 
HETATM   18  C   UNL     1      -7.335  15.402  66.947  1.00  0.00     0.016 A  
HETATM   19  O   UNL     1      -7.299  19.625  66.497  1.00  0.00    -0.228 OA 
ENDBRANCH   8  11
ENDBRANCH   4   8
ENDBRANCH   3   4
ENDBRANCH   2   3
TORSDOF 6
ENDMDL
MODEL      261
REMARK 921   NORMALIZED FREE ENERGY PREDICTED BY IDOCK:   -2.03 KCAL/MOL
REMARK 922        TOTAL FREE ENERGY PREDICTED BY IDOCK:   -3.53 KCAL/MOL
REMARK 923 INTER-LIGAND FREE ENERGY PREDICTED BY IDOCK:   -3.05 KCAL/MOL
REMARK 924 INTRA-LIGAND FREE ENERGY PREDICTED BY IDOCK:   -0.48 KCAL/MOL
REMARK 927      BINDING AFFINITY PREDICTED BY RF-SCORE:    0.00 PKD
ROOT
HETATM    1  C   UNL     1      -8.212   7.976  74.286  1.00  0.00    -0.308 C  
HETATM    2  C   UNL     1      -8.101   8.179  72.786  1.00  0.00    -0.221 C  
ENDROOT
BRANCH   2   3
HETATM    3  C   UNL     1      -8.581   6.989  71.950  1.00  0.00    -0.120 C  
BRANCH   3   4
HETATM    4  N   UNL     1      -9.562   7.298  70.830  1.00  0.00    -0.171 N  
BRANCH   4   5
HETATM    5  C   UNL     1      -8.882   7.999  69.678  1.00  0.00    -0.141 C  
BRANCH   5   6
HETATM    6  C   UNL     1      -9.135   9.507  69.577  1.00  0.00    -0.193 C  
HETATM    7  C   UNL     1      -7.872  10.352  69.534  1.00  0.00    -0.161 C  
ENDBRANCH   5   6
ENDBRANCH   4   5
BRANCH   4   8
HETATM    8  S   UNL     1     -10.413   5.836  70.361  1.00  0.00    -0.293 S  
HETATM    9  O   UNL     1     -10.431   4.889  71.451  1.00  0.00    -0.182 OA 
HETATM   10  O   UNL     1     -11.643   6.236  69.708  1.00  0.00    -0.436 OA 
BRANCH   8  11
HETATM   11  C   UNL     1      -9.359   5.076  69.133  1.00  0.00    -0.122 A  
HETATM   12  C   UNL     1      -8.281   4.287  69.560  1.00  0.00    -0.066 A  
HETATM   13  C   UNL     1      -7.582   3.500  68.638  1.00  0.00    -0.053 A  
HETATM   14  C   UNL     1      -7.961   3.502  67.289  1.00  0.00    -0.082 A  
HETATM   15  C   UNL     1      -7.298   2.638  66.275  1.00  0.00    -0.067 C  
HETATM   16  C   UNL     1      -9.053   4.278  66.874  1.00  0.00    -0.144 A  
HETATM   17  O   UNL     1      -5.976   2.477  66.481  1.00  0.00    -0.022 OA 
HETATM   18  C   UNL     1      -9.752   5.067  67.793  1.00  0.00    -0.192 A  
HETATM   19  O   UNL     1      -7.887   2.161  65.321  1.00  0.00    -0.075 OA 
ENDBRANCH   8  11
ENDBRANCH   4   8
ENDBRANCH   3   4
ENDBRANCH   2   3
TORSDOF 6
ENDMDL
MODEL      262
REMARK 921   NORMALIZED FREE ENERGY PREDICTED BY IDOCK:   -1.89 KCAL/MOL
REMARK 922        TOTAL FREE ENERGY PREDICTED BY IDOCK:   -3.34 KCAL/MOL
REMARK 923 INTER-LIGAND FREE ENERGY PREDICTED BY IDOCK:   -2.83 KCAL/MOL
REMARK 924 INTRA-LIGAND FREE ENERGY PREDICTED BY IDOCK:   -0.51 KCAL/MOL
REMARK 927      BINDING AFFINITY PREDICTED BY RF-SCORE:    0.00 PKD
ROOT
HETATM    1  C   UNL     1      -5.305   5.551  65.497  1.00  0.00    -0.013 C  
HETATM    2  C   UNL     1      -5.389   6.968  66.032  1.00  0.00    -0.023 C  
ENDROOT
BRANCH   2   3
HETATM    3  C   UNL     1      -6.809   7.433  66.368  1.00  0.00    -0.061 C  
BRANCH   3   4
HETATM    4  N   UNL     1      -7.038   8.936  66.412  1.00  0.00    -0.082 N  
BRANCH   4   5
HETATM    5  C   UNL     1      -7.932   9.393  65.285  1.00  0.00    -0.110 C  
BRANCH   5   6
HETATM    6  C   UNL     1      -7.225   9.713  63.964  1.00  0.00    -0.118 C  
HETATM    7  C   UNL     1      -7.515   8.727  62.844  1.00  0.00    -0.101 C  
ENDBRANCH   5   6
ENDBRANCH   4   5
BRANCH   4   8
HETATM    8  S   UNL     1      -7.613   9.406  68.003  1.00  0.00    -0.083 S  
HETATM    9  O   UNL     1      -8.553   8.433  68.509  1.00  0.00    -0.134 OA 
HETATM   10  O   UNL     1      -6.460   9.798  68.787  1.00  0.00    -0.046 OA 
BRANCH   8  11
HETATM   11  C   UNL     1      -8.603  10.866  67.710  1.00  0.00    -0.128 A  
HETATM   12  C   UNL     1      -9.996  10.779  67.849  1.00  0.00    -0.196 A  
HETATM   13  C   UNL     1     -10.772  11.944  67.852  1.00  0.00    -0.239 A  
HETATM   14  C   UNL     1     -10.155  13.194  67.715  1.00  0.00    -0.226 A  
HETATM   15  C   UNL     1     -10.920  14.469  67.775  1.00  0.00    -0.275 C  
HETATM   16  C   UNL     1      -8.759  13.273  67.596  1.00  0.00    -0.195 A  
HETATM   17  O   UNL     1     -12.147  14.392  67.225  1.00  0.00    -0.406 OA 
HETATM   18  C   UNL     1      -7.982  12.111  67.592  1.00  0.00    -0.157 A  
HETATM   19  O   UNL     1     -10.460  15.500  68.235  1.00  0.00    -0.234 OA 
ENDBRANCH   8  11
ENDBRANCH   4   8
ENDBRANCH   3   4
ENDBRANCH   2   3
TORSDOF 6
ENDMDL
MODEL      263
REMARK 921   NORMALIZED FREE ENERGY PREDICTED BY IDOCK:   -1.85 KCAL/MOL
REMARK 922        TOTAL FREE ENERGY PREDICTED BY IDOCK:   -3.29 KCAL/MOL
REMARK 923 INTER-LIGAND FREE ENERGY PREDICTED BY IDOCK:   -2.70 KCAL/MOL
REMARK 924 INTRA-LIGAND FREE ENERGY PREDICTED BY IDOCK:   -0.59 KCAL/MOL
REMARK 927      BINDING AFFINITY PREDICTED BY RF-SCORE:    0.00 PKD
ROOT
HETATM    1  C   UNL     1      -6.266   5.967  64.649  1.00  0.00    -0.030 C  
HETATM    2  C   UNL     1      -6.807   5.773  66.053  1.00  0.00    -0.058 C  
ENDROOT
BRANCH   2   3
HETATM    3  C   UNL     1      -7.956   4.765  66.154  1.00  0.00    -0.103 C  
BRANCH   3   4
HETATM    4  N   UNL     1      -9.361   5.318  65.968  1.00  0.00    -0.156 N  
BRANCH   4   5
HETATM    5  C   UNL     1     -10.293   4.278  65.394  1.00  0.00    -0.197 C  
BRANCH   5   6
HETATM    6  C   UNL     1      -9.654   2.928  65.056  1.00  0.00    -0.049 C  
HETATM    7  C   UNL     1      -9.580   2.625  63.568  1.00  0.00    -0.104 C  
ENDBRANCH   5   6
ENDBRANCH   4   5
BRANCH   4   8
HETATM    8  S   UNL     1      -9.930   6.021  67.473  1.00  0.00    -0.154 S  
HETATM    9  O   UNL     1     -11.372   6.000  67.528  1.00  0.00    -0.103 OA 
HETATM   10  O   UNL     1      -9.140   5.454  68.547  1.00  0.00    -0.107 OA 
BRANCH   8  11
HETATM   11  C   UNL     1      -9.518   7.756  67.343  1.00  0.00    -0.144 A  
HETATM   12  C   UNL     1     -10.142   8.528  66.352  1.00  0.00    -0.271 A  
HETATM   13  C   UNL     1     -10.017   9.922  66.369  1.00  0.00    -0.309 A  
HETATM   14  C   UNL     1      -9.268  10.543  67.377  1.00  0.00    -0.154 A  
HETATM   15  C   UNL     1      -9.152  12.022  67.485  1.00  0.00    -0.177 C  
HETATM   16  C   UNL     1      -8.664   9.765  68.376  1.00  0.00    -0.120 A  
HETATM   17  O   UNL     1      -9.111  12.652  66.294  1.00  0.00    -0.167 OA 
HETATM   18  C   UNL     1      -8.786   8.372  68.360  1.00  0.00    -0.140 A  
HETATM   19  O   UNL     1      -9.055  12.607  68.550  1.00  0.00    -0.156 OA 
ENDBRANCH   8  11
ENDBRANCH   4   8
ENDBRANCH   3   4
ENDBRANCH   2   3
TORSDOF 6
ENDMDL
MODEL      264
REMARK 921   NORMALIZED FREE ENERGY PREDICTED BY IDOCK:   -1.82 KCAL/MOL
REMARK 922        TOTAL FREE ENERGY PREDICTED BY IDOCK:   -3.25 KCAL/MOL
REMARK 923 INTER-LIGAND FREE ENERGY PREDICTED BY IDOCK:   -2.88 KCAL/MOL
REMARK 924 INTRA-LIGAND FREE ENERGY PREDICTED BY IDOCK:   -0.37 KCAL/MOL
REMARK 927      BINDING AFFINITY PREDICTED BY RF-SCORE:    0.00 PKD
ROOT
HETATM    1  C   UNL     1      -6.121  10.377  70.686  1.00  0.00    -0.096 C  
HETATM    2  C   UNL     1      -6.359   8.907  70.974  1.00  0.00    -0.056 C  
ENDROOT
BRANCH   2   3
HETATM    3  C   UNL     1      -7.027   8.627  72.323  1.00  0.00    -0.025 C  
BRANCH   3   4
HETATM    4  N   UNL     1      -8.403   7.980  72.277  1.00  0.00    -0.131 N  
BRANCH   4   5
HETATM    5  C   UNL     1      -9.241   8.540  71.154  1.00  0.00    -0.197 C  
BRANCH   5   6
HETATM    6  C   UNL     1     -10.604   9.107  71.561  1.00  0.00    -0.428 C  
HETATM    7  C   UNL     1     -11.065  10.291  70.727  1.00  0.00    -0.303 C  
ENDBRANCH   5   6
ENDBRANCH   4   5
BRANCH   4   8
HETATM    8  S   UNL     1      -8.238   6.232  72.229  1.00  0.00    -0.107 S  
HETATM    9  O   UNL     1      -6.886   5.842  72.551  1.00  0.00    -0.074 OA 
HETATM   10  O   UNL     1      -9.362   5.667  72.948  1.00  0.00    -0.141 OA 
BRANCH   8  11
HETATM   11  C   UNL     1      -8.421   5.810  70.501  1.00  0.00    -0.127 A  
HETATM   12  C   UNL     1      -9.702   5.539  70.001  1.00  0.00    -0.238 A  
HETATM   13  C   UNL     1      -9.906   5.433  68.621  1.00  0.00    -0.204 A  
HETATM   14  C   UNL     1      -8.828   5.597  67.741  1.00  0.00    -0.105 A  
HETATM   15  C   UNL     1      -8.995   5.558  66.263  1.00  0.00    -0.140 C  
HETATM   16  C   UNL     1      -7.553   5.887  68.249  1.00  0.00    -0.090 A  
HETATM   17  O   UNL     1      -9.925   4.678  65.845  1.00  0.00    -0.197 OA 
HETATM   18  C   UNL     1      -7.346   5.993  69.627  1.00  0.00    -0.079 A  
HETATM   19  O   UNL     1      -8.319   6.226  65.500  1.00  0.00    -0.139 OA 
ENDBRANCH   8  11
ENDBRANCH   4   8
ENDBRANCH   3   4
ENDBRANCH   2   3
TORSDOF 6
ENDMDL
MODEL      265
REMARK 921   NORMALIZED FREE ENERGY PREDICTED BY IDOCK:   -1.78 KCAL/MOL
REMARK 922        TOTAL FREE ENERGY PREDICTED BY IDOCK:   -3.20 KCAL/MOL
REMARK 923 INTER-LIGAND FREE ENERGY PREDICTED BY IDOCK:   -3.61 KCAL/MOL
REMARK 924 INTRA-LIGAND FREE ENERGY PREDICTED BY IDOCK:    0.41 KCAL/MOL
REMARK 927      BINDING AFFINITY PREDICTED BY RF-SCORE:    0.00 PKD
ROOT
HETATM    1  C   UNL     1     -13.641   8.602  72.668  1.00  0.00    -0.284 C  
HETATM    2  C   UNL     1     -12.575   8.260  71.643  1.00  0.00    -0.355 C  
ENDROOT
BRANCH   2   3
HETATM    3  C   UNL     1     -11.298   7.659  72.237  1.00  0.00    -0.306 C  
BRANCH   3   4
HETATM    4  N   UNL     1     -10.165   7.376  71.263  1.00  0.00    -0.189 N  
BRANCH   4   5
HETATM    5  C   UNL     1     -10.423   6.121  70.465  1.00  0.00    -0.234 C  
BRANCH   5   6
HETATM    6  C   UNL     1      -9.355   5.028  70.582  1.00  0.00    -0.216 C  
HETATM    7  C   UNL     1      -9.636   3.787  69.750  1.00  0.00    -0.253 C  
ENDBRANCH   5   6
ENDBRANCH   4   5
BRANCH   4   8
HETATM    8  S   UNL     1      -9.863   8.793  70.271  1.00  0.00    -0.184 S  
HETATM    9  O   UNL     1     -11.108   9.390  69.850  1.00  0.00    -0.238 OA 
HETATM   10  O   UNL     1      -8.849   9.585  70.937  1.00  0.00    -0.229 OA 
BRANCH   8  11
HETATM   11  C   UNL     1      -9.152   8.143  68.764  1.00  0.00    -0.144 A  
HETATM   12  C   UNL     1      -7.769   7.918  68.709  1.00  0.00    -0.112 A  
HETATM   13  C   UNL     1      -7.219   7.203  67.639  1.00  0.00    -0.091 A  
HETATM   14  C   UNL     1      -8.053   6.714  66.624  1.00  0.00    -0.110 A  
HETATM   15  C   UNL     1      -7.535   5.894  65.496  1.00  0.00    -0.082 C  
HETATM   16  C   UNL     1      -9.438   6.927  66.697  1.00  0.00    -0.209 A  
HETATM   17  O   UNL     1      -6.307   6.259  65.079  1.00  0.00    -0.032 OA 
HETATM   18  C   UNL     1      -9.989   7.642  67.764  1.00  0.00    -0.219 A  
HETATM   19  O   UNL     1      -8.182   5.007  64.966  1.00  0.00    -0.120 OA 
ENDBRANCH   8  11
ENDBRANCH   4   8
ENDBRANCH   3   4
ENDBRANCH   2   3
TORSDOF 6
ENDMDL
MODEL      266
REMARK 921   NORMALIZED FREE ENERGY PREDICTED BY IDOCK:   -1.73 KCAL/MOL
REMARK 922        TOTAL FREE ENERGY PREDICTED BY IDOCK:   -3.13 KCAL/MOL
REMARK 923 INTER-LIGAND FREE ENERGY PREDICTED BY IDOCK:   -3.71 KCAL/MOL
REMARK 924 INTRA-LIGAND FREE ENERGY PREDICTED BY IDOCK:    0.58 KCAL/MOL
REMARK 927      BINDING AFFINITY PREDICTED BY RF-SCORE:    0.00 PKD
ROOT
HETATM    1  C   UNL     1      -9.420   8.316  66.331  1.00  0.00    -0.287 C  
HETATM    2  C   UNL     1      -8.126   9.080  66.118  1.00  0.00    -0.111 C  
ENDROOT
BRANCH   2   3
HETATM    3  C   UNL     1      -7.221   9.146  67.352  1.00  0.00    -0.080 C  
BRANCH   3   4
HETATM    4  N   UNL     1      -6.493  10.460  67.589  1.00  0.00    -0.058 N  
BRANCH   4   5
HETATM    5  C   UNL     1      -7.086  11.578  66.765  1.00  0.00    -0.112 C  
BRANCH   5   6
HETATM    6  C   UNL     1      -8.588  11.816  66.951  1.00  0.00    -0.177 C  
HETATM    7  C   UNL     1      -8.988  13.281  67.001  1.00  0.00    -0.230 C  
ENDBRANCH   5   6
ENDBRANCH   4   5
BRANCH   4   8
HETATM    8  S   UNL     1      -6.434  10.809  69.310  1.00  0.00    -0.077 S  
HETATM    9  O   UNL     1      -5.278  10.189  69.912  1.00  0.00    -0.037 OA 
HETATM   10  O   UNL     1      -6.687  12.225  69.478  1.00  0.00    -0.088 OA 
BRANCH   8  11
HETATM   11  C   UNL     1      -7.823   9.915  69.997  1.00  0.00    -0.180 A  
HETATM   12  C   UNL     1      -7.619   9.113  71.129  1.00  0.00    -0.093 A  
HETATM   13  C   UNL     1      -8.717   8.589  71.821  1.00  0.00    -0.266 A  
HETATM   14  C   UNL     1     -10.017   8.866  71.380  1.00  0.00    -0.378 A  
HETATM   15  C   UNL     1     -11.223   8.390  72.110  1.00  0.00    -0.361 C  
HETATM   16  C   UNL     1     -10.213   9.685  70.258  1.00  0.00    -0.333 A  
HETATM   17  O   UNL     1     -11.073   7.174  72.670  1.00  0.00    -0.260 OA 
HETATM   18  C   UNL     1      -9.118  10.209  69.564  1.00  0.00    -0.213 A  
HETATM   19  O   UNL     1     -12.265   9.021  72.156  1.00  0.00    -0.365 OA 
ENDBRANCH   8  11
ENDBRANCH   4   8
ENDBRANCH   3   4
ENDBRANCH   2   3
TORSDOF 6
ENDMDL
MODEL      267
REMARK 921   NORMALIZED FREE ENERGY PREDICTED BY IDOCK:   -1.71 KCAL/MOL
REMARK 922        TOTAL FREE ENERGY PREDICTED BY IDOCK:   -3.09 KCAL/MOL
REMARK 923 INTER-LIGAND FREE ENERGY PREDICTED BY IDOCK:   -2.64 KCAL/MOL
REMARK 924 INTRA-LIGAND FREE ENERGY PREDICTED BY IDOCK:   -0.45 KCAL/MOL
REMARK 927      BINDING AFFINITY PREDICTED BY RF-SCORE:    0.00 PKD
ROOT
HETATM    1  C   UNL     1      -6.533  10.133  70.606  1.00  0.00    -0.086 C  
HETATM    2  C   UNL     1      -7.364   8.909  70.944  1.00  0.00    -0.100 C  
ENDROOT
BRANCH   2   3
HETATM    3  C   UNL     1      -8.279   9.083  72.161  1.00  0.00     0.365 C  
BRANCH   3   4
HETATM    4  N   UNL     1      -9.706   8.578  72.014  1.00  0.00    -0.280 N  
BRANCH   4   5
HETATM    5  C   UNL     1     -10.179   8.663  70.583  1.00  0.00    -0.198 C  
BRANCH   5   6
HETATM    6  C   UNL     1     -11.558   9.296  70.376  1.00  0.00    -0.215 C  
HETATM    7  C   UNL     1     -11.790  10.567  71.178  1.00  0.00    -0.391 C  
ENDBRANCH   5   6
ENDBRANCH   4   5
BRANCH   4   8
HETATM    8  S   UNL     1      -9.844   6.970  72.708  1.00  0.00    -0.183 S  
HETATM    9  O   UNL     1      -8.911   6.808  73.798  1.00  0.00    -0.130 OA 
HETATM   10  O   UNL     1     -11.253   6.693  72.893  1.00  0.00    -0.252 OA 
BRANCH   8  11
HETATM   11  C   UNL     1      -9.229   5.877  71.433  1.00  0.00    -0.146 A  
HETATM   12  C   UNL     1      -8.000   5.231  71.629  1.00  0.00    -0.115 A  
HETATM   13  C   UNL     1      -7.604   4.204  70.765  1.00  0.00    -0.048 A  
HETATM   14  C   UNL     1      -8.438   3.823  69.705  1.00  0.00    -0.092 A  
HETATM   15  C   UNL     1      -8.101   2.697  68.793  1.00  0.00    -0.052 C  
HETATM   16  C   UNL     1      -9.675   4.461  69.528  1.00  0.00    -0.280 A  
HETATM   17  O   UNL     1      -6.784   2.585  68.532  1.00  0.00    -0.035 OA 
HETATM   18  C   UNL     1     -10.072   5.488  70.389  1.00  0.00    -0.297 A  
HETATM   19  O   UNL     1      -8.943   1.973  68.291  1.00  0.00    -0.105 OA 
ENDBRANCH   8  11
ENDBRANCH   4   8
ENDBRANCH   3   4
ENDBRANCH   2   3
TORSDOF 6
ENDMDL
MODEL      268
REMARK 921   NORMALIZED FREE ENERGY PREDICTED BY IDOCK:   -1.68 KCAL/MOL
REMARK 922        TOTAL FREE ENERGY PREDICTED BY IDOCK:   -3.06 KCAL/MOL
REMARK 923 INTER-LIGAND FREE ENERGY PREDICTED BY IDOCK:   -2.48 KCAL/MOL
REMARK 924 INTRA-LIGAND FREE ENERGY PREDICTED BY IDOCK:   -0.58 KCAL/MOL
REMARK 927      BINDING AFFINITY PREDICTED BY RF-SCORE:    0.00 PKD
ROOT
HETATM    1  C   UNL     1     -10.050   7.943  73.138  1.00  0.00    -0.362 C  
HETATM    2  C   UNL     1     -10.856   7.016  72.246  1.00  0.00    -0.262 C  
ENDROOT
BRANCH   2   3
HETATM    3  C   UNL     1     -10.809   7.373  70.757  1.00  0.00    -0.241 C  
BRANCH   3   4
HETATM    4  N   UNL     1      -9.659   6.785  69.955  1.00  0.00    -0.157 N  
BRANCH   4   5
HETATM    5  C   UNL     1      -9.522   5.300  70.190  1.00  0.00    -0.160 C  
BRANCH   5   6
HETATM    6  C   UNL     1      -8.172   4.837  70.746  1.00  0.00    -0.086 C  
HETATM    7  C   UNL     1      -7.353   3.997  69.780  1.00  0.00    -0.049 C  
ENDBRANCH   5   6
ENDBRANCH   4   5
BRANCH   4   8
HETATM    8  S   UNL     1      -9.829   7.218  68.262  1.00  0.00    -0.159 S  
HETATM    9  O   UNL     1     -11.197   7.049  67.832  1.00  0.00    -0.100 OA 
HETATM   10  O   UNL     1      -9.140   8.476  68.060  1.00  0.00    -0.140 OA 
BRANCH   8  11
HETATM   11  C   UNL     1      -8.929   5.949  67.381  1.00  0.00    -0.108 A  
HETATM   12  C   UNL     1      -9.648   4.965  66.688  1.00  0.00    -0.171 A  
HETATM   13  C   UNL     1      -8.984   4.102  65.809  1.00  0.00    -0.129 A  
HETATM   14  C   UNL     1      -7.600   4.223  65.624  1.00  0.00    -0.085 A  
HETATM   15  C   UNL     1      -6.850   3.378  64.656  1.00  0.00    -0.048 C  
HETATM   16  C   UNL     1      -6.891   5.223  66.306  1.00  0.00    -0.059 A  
HETATM   17  O   UNL     1      -7.315   2.117  64.564  1.00  0.00    -0.055 OA 
HETATM   18  C   UNL     1      -7.552   6.085  67.186  1.00  0.00    -0.092 A  
HETATM   19  O   UNL     1      -5.875   3.775  64.041  1.00  0.00    -0.013 OA 
ENDBRANCH   8  11
ENDBRANCH   4   8
ENDBRANCH   3   4
ENDBRANCH   2   3
TORSDOF 6
ENDMDL
MODEL      269
REMARK 921   NORMALIZED FREE ENERGY PREDICTED BY IDOCK:   -1.48 KCAL/MOL
REMARK 922        TOTAL FREE ENERGY PREDICTED BY IDOCK:   -2.79 KCAL/MOL
REMARK 923 INTER-LIGAND FREE ENERGY PREDICTED BY IDOCK:   -2.19 KCAL/MOL
REMARK 924 INTRA-LIGAND FREE ENERGY PREDICTED BY IDOCK:   -0.60 KCAL/MOL
REMARK 927      BINDING AFFINITY PREDICTED BY RF-SCORE:    0.00 PKD
ROOT
HETATM    1  C   UNL     1      -5.828   5.826  64.118  1.00  0.00    -0.024 C  
HETATM    2  C   UNL     1      -5.966   5.087  65.437  1.00  0.00    -0.025 C  
ENDROOT
BRANCH   2   3
HETATM    3  C   UNL     1      -6.796   3.802  65.358  1.00  0.00    -0.053 C  
BRANCH   3   4
HETATM    4  N   UNL     1      -8.223   3.884  65.878  1.00  0.00    -0.104 N  
BRANCH   4   5
HETATM    5  C   UNL     1      -9.149   2.985  65.095  1.00  0.00    -0.148 C  
BRANCH   5   6
HETATM    6  C   UNL     1      -8.505   2.213  63.939  1.00  0.00    -0.082 C  
HETATM    7  C   UNL     1      -8.943   2.674  62.558  1.00  0.00    -0.081 C  
ENDBRANCH   5   6
ENDBRANCH   4   5
BRANCH   4   8
HETATM    8  S   UNL     1      -8.245   3.583  67.608  1.00  0.00    -0.086 S  
HETATM    9  O   UNL     1      -9.511   3.013  68.006  1.00  0.00    -0.204 OA 
HETATM   10  O   UNL     1      -6.998   2.933  67.955  1.00  0.00    -0.047 OA 
BRANCH   8  11
HETATM   11  C   UNL     1      -8.243   5.211  68.347  1.00  0.00    -0.090 A  
HETATM   12  C   UNL     1      -9.333   6.062  68.117  1.00  0.00    -0.115 A  
HETATM   13  C   UNL     1      -9.469   7.242  68.858  1.00  0.00    -0.143 A  
HETATM   14  C   UNL     1      -8.514   7.570  69.829  1.00  0.00    -0.135 A  
HETATM   15  C   UNL     1      -8.638   8.775  70.691  1.00  0.00    -0.178 C  
HETATM   16  C   UNL     1      -7.436   6.703  70.067  1.00  0.00    -0.094 A  
HETATM   17  O   UNL     1      -9.180   9.837  70.064  1.00  0.00    -0.222 OA 
HETATM   18  C   UNL     1      -7.298   5.525  69.327  1.00  0.00    -0.070 A  
HETATM   19  O   UNL     1      -8.242   8.814  71.843  1.00  0.00    -0.292 OA 
ENDBRANCH   8  11
ENDBRANCH   4   8
ENDBRANCH   3   4
ENDBRANCH   2   3
TORSDOF 6
ENDMDL
MODEL      270
REMARK 921   NORMALIZED FREE ENERGY PREDICTED BY IDOCK:   -1.42 KCAL/MOL
REMARK 922        TOTAL FREE ENERGY PREDICTED BY IDOCK:   -2.70 KCAL/MOL
REMARK 923 INTER-LIGAND FREE ENERGY PREDICTED BY IDOCK:   -3.50 KCAL/MOL
REMARK 924 INTRA-LIGAND FREE ENERGY PREDICTED BY IDOCK:    0.80 KCAL/MOL
REMARK 927      BINDING AFFINITY PREDICTED BY RF-SCORE:    0.00 PKD
ROOT
HETATM    1  C   UNL     1     -10.591   7.564  67.118  1.00  0.00    -0.415 C  
HETATM    2  C   UNL     1      -9.747   8.774  67.476  1.00  0.00    -0.214 C  
ENDROOT
BRANCH   2   3
HETATM    3  C   UNL     1      -9.589   9.012  68.981  1.00  0.00    -0.160 C  
BRANCH   3   4
HETATM    4  N   UNL     1      -9.693  10.453  69.454  1.00  0.00    -0.219 N  
BRANCH   4   5
HETATM    5  C   UNL     1      -8.663  11.331  68.785  1.00  0.00    -0.103 C  
BRANCH   5   6
HETATM    6  C   UNL     1      -7.258  10.730  68.662  1.00  0.00    -0.089 C  
HETATM    7  C   UNL     1      -6.503  11.156  67.413  1.00  0.00    -0.071 C  
ENDBRANCH   5   6
ENDBRANCH   4   5
BRANCH   4   8
HETATM    8  S   UNL     1     -11.341  11.028  69.260  1.00  0.00    -0.310 S  
HETATM    9  O   UNL     1     -12.157  10.021  68.623  1.00  0.00     0.200 OA 
HETATM   10  O   UNL     1     -11.747  11.624  70.516  1.00  0.00    -0.292 OA 
BRANCH   8  11
HETATM   11  C   UNL     1     -11.221  12.333  68.043  1.00  0.00    -0.269 A  
HETATM   12  C   UNL     1     -10.429  12.128  66.904  1.00  0.00    -0.250 A  
HETATM   13  C   UNL     1     -10.496  13.028  65.834  1.00  0.00    -0.293 A  
HETATM   14  C   UNL     1     -11.355  14.133  65.904  1.00  0.00    -0.323 A  
HETATM   15  C   UNL     1     -11.517  15.087  64.774  1.00  0.00    -0.403 C  
HETATM   16  C   UNL     1     -12.159  14.320  67.039  1.00  0.00    -0.424 A  
HETATM   17  O   UNL     1     -10.381  15.308  64.085  1.00  0.00     0.429 OA 
HETATM   18  C   UNL     1     -12.092  13.423  68.110  1.00  0.00    -0.267 A  
HETATM   19  O   UNL     1     -12.567  15.653  64.526  1.00  0.00    -0.024 OA 
ENDBRANCH   8  11
ENDBRANCH   4   8
ENDBRANCH   3   4
ENDBRANCH   2   3
TORSDOF 6
ENDMDL
MODEL      271
REMARK 921   NORMALIZED FREE ENERGY PREDICTED BY IDOCK:   -1.11 KCAL/MOL
REMARK 922        TOTAL FREE ENERGY PREDICTED BY IDOCK:   -2.29 KCAL/MOL
REMARK 923 INTER-LIGAND FREE ENERGY PREDICTED BY IDOCK:   -3.01 KCAL/MOL
REMARK 924 INTRA-LIGAND FREE ENERGY PREDICTED BY IDOCK:    0.72 KCAL/MOL
REMARK 927      BINDING AFFINITY PREDICTED BY RF-SCORE:    0.00 PKD
ROOT
HETATM    1  C   UNL     1      -5.606   6.429  67.039  1.00  0.00    -0.013 C  
HETATM    2  C   UNL     1      -5.650   7.462  68.150  1.00  0.00    -0.026 C  
ENDROOT
BRANCH   2   3
HETATM    3  C   UNL     1      -6.631   8.613  67.903  1.00  0.00    -0.061 C  
BRANCH   3   4
HETATM    4  N   UNL     1      -8.067   8.225  67.590  1.00  0.00    -0.124 N  
BRANCH   4   5
HETATM    5  C   UNL     1      -9.022   8.745  68.637  1.00  0.00    -0.138 C  
BRANCH   5   6
HETATM    6  C   UNL     1      -9.503   7.717  69.666  1.00  0.00    -0.156 C  
HETATM    7  C   UNL     1      -8.584   7.554  70.865  1.00  0.00    -0.130 C  
ENDBRANCH   5   6
ENDBRANCH   4   5
BRANCH   4   8
HETATM    8  S   UNL     1      -8.476   8.719  65.955  1.00  0.00    -0.143 S  
HETATM    9  O   UNL     1      -7.283   8.846  65.152  1.00  0.00    -0.085 OA 
HETATM   10  O   UNL     1      -9.582   7.895  65.512  1.00  0.00     0.269 OA 
BRANCH   8  11
HETATM   11  C   UNL     1      -9.072  10.396  66.129  1.00  0.00    -0.160 A  
HETATM   12  C   UNL     1      -9.587  11.053  65.002  1.00  0.00    -0.291 A  
HETATM   13  C   UNL     1     -10.265  12.267  65.149  1.00  0.00    -0.305 A  
HETATM   14  C   UNL     1     -10.429  12.826  66.424  1.00  0.00    -0.265 A  
HETATM   15  C   UNL     1     -11.195  14.081  66.650  1.00  0.00    -0.323 C  
HETATM   16  C   UNL     1      -9.928  12.153  67.548  1.00  0.00    -0.202 A  
HETATM   17  O   UNL     1     -11.060  14.985  65.661  1.00  0.00    -0.337 OA 
HETATM   18  C   UNL     1      -9.248  10.939  67.403  1.00  0.00    -0.155 A  
HETATM   19  O   UNL     1     -11.845  14.290  67.660  1.00  0.00    -0.363 OA 
ENDBRANCH   8  11
ENDBRANCH   4   8
ENDBRANCH   3   4
ENDBRANCH   2   3
TORSDOF 6
ENDMDL
MODEL      272
REMARK 921   NORMALIZED FREE ENERGY PREDICTED BY IDOCK:   -0.88 KCAL/MOL
REMARK 922        TOTAL FREE ENERGY PREDICTED BY IDOCK:   -1.97 KCAL/MOL
REMARK 923 INTER-LIGAND FREE ENERGY PREDICTED BY IDOCK:   -2.45 KCAL/MOL
REMARK 924 INTRA-LIGAND FREE ENERGY PREDICTED BY IDOCK:    0.48 KCAL/MOL
REMARK 927      BINDING AFFINITY PREDICTED BY RF-SCORE:    0.00 PKD
ROOT
HETATM    1  C   UNL     1      -5.622   5.525  65.130  1.00  0.00    -0.017 C  
HETATM    2  C   UNL     1      -6.976   5.472  65.813  1.00  0.00    -0.066 C  
ENDROOT
BRANCH   2   3
HETATM    3  C   UNL     1      -7.241   6.629  66.782  1.00  0.00    -0.077 C  
BRANCH   3   4
HETATM    4  N   UNL     1      -7.786   6.254  68.151  1.00  0.00    -0.102 N  
BRANCH   4   5
HETATM    5  C   UNL     1      -6.952   6.850  69.260  1.00  0.00    -0.074 C  
BRANCH   5   6
HETATM    6  C   UNL     1      -6.395   5.852  70.281  1.00  0.00    -0.032 C  
HETATM    7  C   UNL     1      -6.470   4.399  69.841  1.00  0.00    -0.032 C  
ENDBRANCH   5   6
ENDBRANCH   4   5
BRANCH   4   8
HETATM    8  S   UNL     1      -9.489   6.669  68.250  1.00  0.00    -0.122 S  
HETATM    9  O   UNL     1     -10.151   6.392  66.996  1.00  0.00    -0.145 OA 
HETATM   10  O   UNL     1     -10.000   6.128  69.492  1.00  0.00    -0.156 OA 
BRANCH   8  11
HETATM   11  C   UNL     1      -9.511   8.453  68.375  1.00  0.00    -0.139 A  
HETATM   12  C   UNL     1      -8.323   9.163  68.151  1.00  0.00    -0.120 A  
HETATM   13  C   UNL     1      -8.354  10.555  68.016  1.00  0.00    -0.116 A  
HETATM   14  C   UNL     1      -9.575  11.238  68.106  1.00  0.00    -0.186 A  
HETATM   15  C   UNL     1      -9.680  12.708  67.908  1.00  0.00    -0.216 C  
HETATM   16  C   UNL     1     -10.762  10.518  68.311  1.00  0.00    -0.270 A  
HETATM   17  O   UNL     1      -8.623  13.397  68.380  1.00  0.00    -0.171 OA 
HETATM   18  C   UNL     1     -10.732   9.127  68.448  1.00  0.00    -0.163 A  
HETATM   19  O   UNL     1     -10.655  13.244  67.410  1.00  0.00    -0.244 OA 
ENDBRANCH   8  11
ENDBRANCH   4   8
ENDBRANCH   3   4
ENDBRANCH   2   3
TORSDOF 6
ENDMDL
MODEL      273
REMARK 921   NORMALIZED FREE ENERGY PREDICTED BY IDOCK:    0.92 KCAL/MOL
REMARK 922        TOTAL FREE ENERGY PREDICTED BY IDOCK:    0.46 KCAL/MOL
REMARK 923 INTER-LIGAND FREE ENERGY PREDICTED BY IDOCK:   -1.11 KCAL/MOL
REMARK 924 INTRA-LIGAND FREE ENERGY PREDICTED BY IDOCK:    1.56 KCAL/MOL
REMARK 927      BINDING AFFINITY PREDICTED BY RF-SCORE:    0.00 PKD
ROOT
HETATM    1  C   UNL     1     -11.480   7.886  67.411  1.00  0.00     1.297 C  
HETATM    2  C   UNL     1     -10.052   8.310  67.120  1.00  0.00    -0.334 C  
ENDROOT
BRANCH   2   3
HETATM    3  C   UNL     1      -9.021   7.183  67.238  1.00  0.00    -0.123 C  
BRANCH   3   4
HETATM    4  N   UNL     1      -8.490   6.893  68.633  1.00  0.00    -0.121 N  
BRANCH   4   5
HETATM    5  C   UNL     1      -7.759   8.084  69.204  1.00  0.00    -0.099 C  
BRANCH   5   6
HETATM    6  C   UNL     1      -7.760   9.345  68.333  1.00  0.00    -0.086 C  
HETATM    7  C   UNL     1      -7.905  10.643  69.111  1.00  0.00    -0.142 C  
ENDBRANCH   5   6
ENDBRANCH   4   5
BRANCH   4   8
HETATM    8  S   UNL     1      -9.789   6.305  69.657  1.00  0.00    -0.167 S  
HETATM    9  O   UNL     1     -10.157   7.305  70.631  1.00  0.00    -0.194 OA 
HETATM   10  O   UNL     1     -10.789   5.708  68.795  1.00  0.00    -0.239 OA 
BRANCH   8  11
HETATM   11  C   UNL     1      -9.043   4.999  70.624  1.00  0.00    -0.133 A  
HETATM   12  C   UNL     1      -7.853   5.264  71.317  1.00  0.00    -0.107 A  
HETATM   13  C   UNL     1      -7.371   4.346  72.256  1.00  0.00    -0.068 A  
HETATM   14  C   UNL     1      -8.080   3.162  72.503  1.00  0.00    -0.064 A  
HETATM   15  C   UNL     1      -7.652   2.179  73.534  1.00  0.00    -0.041 C  
HETATM   16  C   UNL     1      -9.280   2.914  71.820  1.00  0.00    -0.178 A  
HETATM   17  O   UNL     1      -6.315   2.060  73.649  1.00  0.00    -0.011 OA 
HETATM   18  C   UNL     1      -9.762   3.830  70.880  1.00  0.00    -0.248 A  
HETATM   19  O   UNL     1      -8.438   1.508  74.180  1.00  0.00    -0.048 OA 
ENDBRANCH   8  11
ENDBRANCH   4   8
ENDBRANCH   3   4
ENDBRANCH   2   3
TORSDOF 6
ENDMDL
MODEL      274
REMARK 921   NORMALIZED FREE ENERGY PREDICTED BY IDOCK:    1.70 KCAL/MOL
REMARK 922        TOTAL FREE ENERGY PREDICTED BY IDOCK:    1.51 KCAL/MOL
REMARK 923 INTER-LIGAND FREE ENERGY PREDICTED BY IDOCK:   -2.20 KCAL/MOL
REMARK 924 INTRA-LIGAND FREE ENERGY PREDICTED BY IDOCK:    3.71 KCAL/MOL
REMARK 927      BINDING AFFINITY PREDICTED BY RF-SCORE:    0.00 PKD
ROOT
HETATM    1  C   UNL     1      -5.693   8.464  71.129  1.00  0.00    -0.034 C  
HETATM    2  C   UNL     1      -5.848   6.994  70.785  1.00  0.00    -0.027 C  
ENDROOT
BRANCH   2   3
HETATM    3  C   UNL     1      -7.102   6.337  71.369  1.00  0.00    -0.078 C  
BRANCH   3   4
HETATM    4  N   UNL     1      -8.246   6.079  70.400  1.00  0.00    -0.114 N  
BRANCH   4   5
HETATM    5  C   UNL     1      -9.519   5.723  71.129  1.00  0.00    -0.158 C  
BRANCH   5   6
HETATM    6  C   UNL     1     -10.464   6.892  71.424  1.00  0.00    -0.230 C  
HETATM    7  C   UNL     1     -11.940   6.555  71.279  1.00  0.00    -0.364 C  
ENDBRANCH   5   6
ENDBRANCH   4   5
BRANCH   4   8
HETATM    8  S   UNL     1      -8.418   7.440  69.304  1.00  0.00    -0.137 S  
HETATM    9  O   UNL     1      -9.775   7.935  69.321  1.00  0.00    -0.157 OA 
HETATM   10  O   UNL     1      -7.301   8.333  69.536  1.00  0.00    -0.070 OA 
BRANCH   8  11
HETATM   11  C   UNL     1      -8.227   6.731  67.673  1.00  0.00    -0.119 A  
HETATM   12  C   UNL     1      -8.656   5.414  67.452  1.00  0.00    -0.108 A  
HETATM   13  C   UNL     1      -8.733   4.913  66.148  1.00  0.00    -0.117 A  
HETATM   14  C   UNL     1      -8.379   5.729  65.065  1.00  0.00    -0.138 A  
HETATM   15  C   UNL     1      -8.500   5.274  63.654  1.00  0.00    -0.091 C  
HETATM   16  C   UNL     1      -7.970   7.051  65.293  1.00  0.00    -0.127 A  
HETATM   17  O   UNL     1      -8.222   3.967  63.479  1.00  0.00    -0.087 OA 
HETATM   18  C   UNL     1      -7.892   7.554  66.595  1.00  0.00    -0.106 A  
HETATM   19  O   UNL     1      -8.777   6.024  62.734  1.00  0.00     0.063 OA 
ENDBRANCH   8  11
ENDBRANCH   4   8
ENDBRANCH   3   4
ENDBRANCH   2   3
TORSDOF 6
ENDMDL
MODEL      275
REMARK 921   NORMALIZED FREE ENERGY PREDICTED BY IDOCK:    3.17 KCAL/MOL
REMARK 922        TOTAL FREE ENERGY PREDICTED BY IDOCK:    3.50 KCAL/MOL
REMARK 923 INTER-LIGAND FREE ENERGY PREDICTED BY IDOCK:    1.25 KCAL/MOL
REMARK 924 INTRA-LIGAND FREE ENERGY PREDICTED BY IDOCK:    2.25 KCAL/MOL
REMARK 927      BINDING AFFINITY PREDICTED BY RF-SCORE:    0.00 PKD
ROOT
HETATM    1  C   UNL     1      -7.223  19.980  71.473  1.00  0.00     1.079 C  
HETATM    2  C   UNL     1      -6.247  18.944  70.949  1.00  0.00     0.446 C  
ENDROOT
BRANCH   2   3
HETATM    3  C   UNL     1      -5.987  19.026  69.441  1.00  0.00    -0.254 C  
BRANCH   3   4
HETATM    4  N   UNL     1      -6.863  18.156  68.554  1.00  0.00    -0.230 N  
BRANCH   4   5
HETATM    5  C   UNL     1      -6.238  16.802  68.318  1.00  0.00    -0.132 C  
BRANCH   5   6
HETATM    6  C   UNL     1      -6.463  15.765  69.423  1.00  0.00    -0.165 C  
HETATM    7  C   UNL     1      -5.305  15.628  70.398  1.00  0.00    -0.150 C  
ENDBRANCH   5   6
ENDBRANCH   4   5
BRANCH   4   8
HETATM    8  S   UNL     1      -8.489  18.077  69.212  1.00  0.00     0.434 S  
HETATM    9  O   UNL     1      -8.597  16.998  70.165  1.00  0.00     1.588 OA 
HETATM   10  O   UNL     1      -8.881  19.424  69.572  1.00  0.00    -0.018 OA 
BRANCH   8  11
HETATM   11  C   UNL     1      -9.506  17.555  67.837  1.00  0.00    -0.277 A  
HETATM   12  C   UNL     1      -8.969  17.599  66.542  1.00  0.00    -0.283 A  
HETATM   13  C   UNL     1      -9.649  16.989  65.482  1.00  0.00     0.305 A  
HETATM   14  C   UNL     1     -10.866  16.335  65.717  1.00  0.00    -0.173 A  
HETATM   15  C   UNL     1     -11.602  15.614  64.644  1.00  0.00    -0.249 C  
HETATM   16  C   UNL     1     -11.386  16.278  67.019  1.00  0.00     0.277 A  
HETATM   17  O   UNL     1     -11.512  16.202  63.435  1.00  0.00    -0.179 OA 
HETATM   18  C   UNL     1     -10.709  16.888  68.079  1.00  0.00    -0.364 A  
HETATM   19  O   UNL     1     -12.265  14.612  64.849  1.00  0.00    -0.401 OA 
ENDBRANCH   8  11
ENDBRANCH   4   8
ENDBRANCH   3   4
ENDBRANCH   2   3
TORSDOF 6
ENDMDL
MODEL      276
REMARK 921   NORMALIZED FREE ENERGY PREDICTED BY IDOCK:    4.10 KCAL/MOL
REMARK 922        TOTAL FREE ENERGY PREDICTED BY IDOCK:    4.76 KCAL/MOL
REMARK 923 INTER-LIGAND FREE ENERGY PREDICTED BY IDOCK:    3.16 KCAL/MOL
REMARK 924 INTRA-LIGAND FREE ENERGY PREDICTED BY IDOCK:    1.59 KCAL/MOL
REMARK 927      BINDING AFFINITY PREDICTED BY RF-SCORE:    0.00 PKD
ROOT
HETATM    1  C   UNL     1     -10.169  12.535  64.066  1.00  0.00    -0.390 C  
HETATM    2  C   UNL     1      -9.214  13.675  64.369  1.00  0.00     2.520 C  
ENDROOT
BRANCH   2   3
HETATM    3  C   UNL     1      -8.104  13.322  65.364  1.00  0.00     3.923 C  
BRANCH   3   4
HETATM    4  N   UNL     1      -8.517  13.187  66.821  1.00  0.00    -0.062 N  
BRANCH   4   5
HETATM    5  C   UNL     1      -7.328  13.298  67.745  1.00  0.00    -0.147 C  
BRANCH   5   6
HETATM    6  C   UNL     1      -5.960  13.048  67.101  1.00  0.00     0.283 C  
HETATM    7  C   UNL     1      -5.199  11.869  67.685  1.00  0.00    -0.071 C  
ENDBRANCH   5   6
ENDBRANCH   4   5
BRANCH   4   8
HETATM    8  S   UNL     1      -9.801  14.328  67.186  1.00  0.00    -0.258 S  
HETATM    9  O   UNL     1     -10.636  14.538  66.027  1.00  0.00    -0.290 OA 
HETATM   10  O   UNL     1     -10.382  13.941  68.456  1.00  0.00    -0.236 OA 
BRANCH   8  11
HETATM   11  C   UNL     1      -8.963  15.891  67.416  1.00  0.00    -0.192 A  
HETATM   12  C   UNL     1      -9.000  16.500  68.678  1.00  0.00    -0.236 A  
HETATM   13  C   UNL     1      -8.172  17.595  68.950  1.00  0.00    -0.151 A  
HETATM   14  C   UNL     1      -7.308  18.080  67.960  1.00  0.00    -0.232 A  
HETATM   15  C   UNL     1      -6.360  19.199  68.210  1.00  0.00    -0.229 C  
HETATM   16  C   UNL     1      -7.263  17.452  66.706  1.00  0.00    -0.254 A  
HETATM   17  O   UNL     1      -6.844  20.146  69.037  1.00  0.00    -0.287 OA 
HETATM   18  C   UNL     1      -8.090  16.359  66.431  1.00  0.00    -0.357 A  
HETATM   19  O   UNL     1      -5.266  19.276  67.677  1.00  0.00    -0.169 OA 
ENDBRANCH   8  11
ENDBRANCH   4   8
ENDBRANCH   3   4
ENDBRANCH   2   3
TORSDOF 6
ENDMDL
MODEL      277
REMARK 921   NORMALIZED FREE ENERGY PREDICTED BY IDOCK:    5.66 KCAL/MOL
REMARK 922        TOTAL FREE ENERGY PREDICTED BY IDOCK:    6.87 KCAL/MOL
REMARK 923 INTER-LIGAND FREE ENERGY PREDICTED BY IDOCK:    2.31 KCAL/MOL
REMARK 924 INTRA-LIGAND FREE ENERGY PREDICTED BY IDOCK:    4.55 KCAL/MOL
REMARK 927      BINDING AFFINITY PREDICTED BY RF-SCORE:    0.00 PKD
ROOT
HETATM    1  C   UNL     1     -12.002   8.040  67.330  1.00  0.00     4.197 C  
HETATM    2  C   UNL     1     -10.894   8.968  66.866  1.00  0.00    -0.002 C  
ENDROOT
BRANCH   2   3
HETATM    3  C   UNL     1      -9.523   8.298  66.736  1.00  0.00    -0.198 C  
BRANCH   3   4
HETATM    4  N   UNL     1      -8.778   8.019  68.032  1.00  0.00    -0.125 N  
BRANCH   4   5
HETATM    5  C   UNL     1      -8.139   9.271  68.583  1.00  0.00    -0.105 C  
BRANCH   5   6
HETATM    6  C   UNL     1      -8.020  10.443  67.603  1.00  0.00    -0.106 C  
HETATM    7  C   UNL     1      -9.352  11.038  67.176  1.00  0.00    -0.177 C  
ENDBRANCH   5   6
ENDBRANCH   4   5
BRANCH   4   8
HETATM    8  S   UNL     1      -9.844   7.213  69.171  1.00  0.00    -0.163 S  
HETATM    9  O   UNL     1     -10.221   8.112  70.236  1.00  0.00    -0.195 OA 
HETATM   10  O   UNL     1     -10.852   6.509  68.404  1.00  0.00    -0.250 OA 
BRANCH   8  11
HETATM   11  C   UNL     1      -8.808   5.993  69.969  1.00  0.00    -0.139 A  
HETATM   12  C   UNL     1      -7.810   5.356  69.219  1.00  0.00    -0.089 A  
HETATM   13  C   UNL     1      -6.843   4.574  69.862  1.00  0.00    -0.041 A  
HETATM   14  C   UNL     1      -6.875   4.430  71.255  1.00  0.00    -0.035 A  
HETATM   15  C   UNL     1      -5.839   3.665  72.000  1.00  0.00    -0.009 C  
HETATM   16  C   UNL     1      -7.866   5.087  72.000  1.00  0.00    -0.110 A  
HETATM   17  O   UNL     1      -5.385   2.582  71.339  1.00  0.00    -0.004 OA 
HETATM   18  C   UNL     1      -8.834   5.867  71.360  1.00  0.00    -0.137 A  
HETATM   19  O   UNL     1      -5.472   3.963  73.123  1.00  0.00     0.000 OA 
ENDBRANCH   8  11
ENDBRANCH   4   8
ENDBRANCH   3   4
ENDBRANCH   2   3
TORSDOF 6
ENDMDL
MODEL      278
REMARK 921   NORMALIZED FREE ENERGY PREDICTED BY IDOCK:   44.06 KCAL/MOL
REMARK 922        TOTAL FREE ENERGY PREDICTED BY IDOCK:   58.73 KCAL/MOL
REMARK 923 INTER-LIGAND FREE ENERGY PREDICTED BY IDOCK:   49.74 KCAL/MOL
REMARK 924 INTRA-LIGAND FREE ENERGY PREDICTED BY IDOCK:    8.99 KCAL/MOL
REMARK 927      BINDING AFFINITY PREDICTED BY RF-SCORE:    0.00 PKD
ROOT
HETATM    1  C   UNL     1     -13.658  13.992  73.588  1.00  0.00     2.184 C  
HETATM    2  C   UNL     1     -13.180  15.146  72.727  1.00  0.00    -0.577 C  
ENDROOT
BRANCH   2   3
HETATM    3  C   UNL     1     -14.085  16.381  72.765  1.00  0.00     0.643 C  
BRANCH   3   4
HETATM    4  N   UNL     1     -13.391  17.733  72.712  1.00  0.00     6.957 N  
BRANCH   4   5
HETATM    5  C   UNL     1     -13.787  18.604  73.881  1.00  0.00    10.476 C  
BRANCH   5   6
HETATM    6  C   UNL     1     -12.754  19.652  74.307  1.00  0.00    11.065 C  
HETATM    7  C   UNL     1     -11.578  19.795  73.355  1.00  0.00     9.228 C  
ENDBRANCH   5   6
ENDBRANCH   4   5
BRANCH   4   8
HETATM    8  S   UNL     1     -11.657  17.508  72.557  1.00  0.00     2.369 S  
HETATM    9  O   UNL     1     -10.963  18.755  72.777  1.00  0.00     1.791 OA 
HETATM   10  O   UNL     1     -11.301  16.320  73.306  1.00  0.00     0.243 OA 
BRANCH   8  11
HETATM   11  C   UNL     1     -11.402  17.161  70.821  1.00  0.00     1.169 A  
HETATM   12  C   UNL     1     -11.897  15.962  70.289  1.00  0.00    -0.343 A  
HETATM   13  C   UNL     1     -11.918  15.767  68.904  1.00  0.00    -0.268 A  
HETATM   14  C   UNL     1     -11.442  16.771  68.050  1.00  0.00     0.166 A  
HETATM   15  C   UNL     1     -11.496  16.648  66.569  1.00  0.00     0.866 C  
HETATM   16  C   UNL     1     -10.966  17.976  68.590  1.00  0.00     0.429 A  
HETATM   17  O   UNL     1     -11.290  15.394  66.121  1.00  0.00    -0.233 OA 
HETATM   18  C   UNL     1     -10.944  18.173  69.974  1.00  0.00     2.049 A  
HETATM   19  O   UNL     1     -11.663  17.601  65.827  1.00  0.00     1.521 OA 
ENDBRANCH   8  11
ENDBRANCH   4   8
ENDBRANCH   3   4
ENDBRANCH   2   3
TORSDOF 6
ENDMDL
