MODEL        1
REMARK 921   NORMALIZED FREE ENERGY PREDICTED BY IDOCK:   -5.54 KCAL/MOL
REMARK 922        TOTAL FREE ENERGY PREDICTED BY IDOCK:   -7.55 KCAL/MOL
REMARK 923 INTER-LIGAND FREE ENERGY PREDICTED BY IDOCK:   -7.16 KCAL/MOL
REMARK 924 INTRA-LIGAND FREE ENERGY PREDICTED BY IDOCK:   -0.39 KCAL/MOL
REMARK 927      BINDING AFFINITY PREDICTED BY RF-SCORE:    0.00 PKD
ROOT
HETATM    1  C   UNL     1     -11.927  12.751  63.334  1.00  0.00    -0.535 C  
HETATM    2  N   UNL     1     -12.371  14.108  63.661  1.00  0.00    -1.092 NA 
HETATM    3  H   UNL     1     -13.091  14.451  63.024  1.00  0.00     0.000 HD 
ENDROOT
BRANCH   2   4
HETATM    4  N   UNL     1     -12.799  14.123  65.050  1.00  0.00    -0.713 NA 
HETATM    5  H   UNL     1     -13.324  13.284  65.299  1.00  0.00     0.000 HD 
BRANCH   4   6
HETATM    6  C   UNL     1     -11.634  14.329  65.930  1.00  0.00    -0.358 C  
BRANCH   6   7
HETATM    7  C   UNL     1     -11.686  13.385  67.114  1.00  0.00    -0.424 A  
HETATM    8  C   UNL     1     -11.447  12.013  66.940  1.00  0.00    -0.402 A  
HETATM    9  C   UNL     1     -11.559  11.130  68.015  1.00  0.00    -0.337 A  
HETATM   10  C   UNL     1     -11.906  11.603  69.287  1.00  0.00    -0.396 A  
HETATM   11  C   UNL     1     -11.986  13.860  68.400  1.00  0.00    -0.391 A  
HETATM   12  C   UNL     1     -12.091  12.978  69.482  1.00  0.00    -0.289 A  
BRANCH  10  13
HETATM   13  C   UNL     1     -12.053  10.611  70.389  1.00  0.00    -0.341 C  
HETATM   14  O   UNL     1     -12.551  10.952  71.457  1.00  0.00    -0.384 OA 
HETATM   15  N   UNL     1     -11.558   9.344  70.149  1.00  0.00    -0.439 N  
HETATM   16  H   UNL     1     -11.228   9.102  69.214  1.00  0.00     0.000 HD 
BRANCH  15  17
HETATM   17  C   UNL     1     -11.499   8.345  71.210  1.00  0.00    -0.280 C  
HETATM   18  C   UNL     1     -11.661   6.946  70.626  1.00  0.00    -0.417 C  
HETATM   19  C   UNL     1     -10.186   8.455  71.985  1.00  0.00    -0.364 C  
ENDBRANCH  15  17
ENDBRANCH  10  13
ENDBRANCH   6   7
ENDBRANCH   4   6
ENDBRANCH   2   4
TORSDOF 5
ENDMDL
MODEL        2
REMARK 921   NORMALIZED FREE ENERGY PREDICTED BY IDOCK:   -5.51 KCAL/MOL
REMARK 922        TOTAL FREE ENERGY PREDICTED BY IDOCK:   -7.52 KCAL/MOL
REMARK 923 INTER-LIGAND FREE ENERGY PREDICTED BY IDOCK:   -7.10 KCAL/MOL
REMARK 924 INTRA-LIGAND FREE ENERGY PREDICTED BY IDOCK:   -0.42 KCAL/MOL
REMARK 927      BINDING AFFINITY PREDICTED BY RF-SCORE:    0.00 PKD
ROOT
HETATM    1  C   UNL     1      -9.104  10.301  63.306  1.00  0.00    -0.265 C  
HETATM    2  N   UNL     1      -9.862  11.307  62.557  1.00  0.00    -0.575 NA 
HETATM    3  H   UNL     1      -9.869  11.127  61.553  1.00  0.00     0.000 HD 
ENDROOT
BRANCH   2   4
HETATM    4  N   UNL     1     -11.199  11.381  63.122  1.00  0.00    -0.854 NA 
HETATM    5  H   UNL     1     -11.329  10.721  63.890  1.00  0.00     0.000 HD 
BRANCH   4   6
HETATM    6  C   UNL     1     -11.494  12.768  63.529  1.00  0.00    -0.459 C  
BRANCH   6   7
HETATM    7  C   UNL     1     -11.675  12.857  65.030  1.00  0.00    -0.381 A  
HETATM    8  C   UNL     1     -12.173  14.031  65.617  1.00  0.00    -0.462 A  
HETATM    9  C   UNL     1     -12.279  14.142  67.004  1.00  0.00    -0.374 A  
HETATM   10  C   UNL     1     -11.894  13.079  67.831  1.00  0.00    -0.389 A  
HETATM   11  C   UNL     1     -11.337  11.779  65.861  1.00  0.00    -0.324 A  
HETATM   12  C   UNL     1     -11.449  11.884  67.253  1.00  0.00    -0.385 A  
BRANCH  10  13
HETATM   13  C   UNL     1     -11.988  13.267  69.307  1.00  0.00    -0.303 C  
HETATM   14  O   UNL     1     -11.734  12.334  70.060  1.00  0.00    -0.306 OA 
HETATM   15  N   UNL     1     -12.418  14.506  69.744  1.00  0.00    -0.523 N  
HETATM   16  H   UNL     1     -12.538  15.263  69.071  1.00  0.00     0.000 HD 
BRANCH  15  17
HETATM   17  C   UNL     1     -12.704  14.748  71.154  1.00  0.00    -0.334 C  
HETATM   18  C   UNL     1     -11.795  15.847  71.694  1.00  0.00    -0.565 C  
HETATM   19  C   UNL     1     -14.173  15.120  71.352  1.00  0.00    -0.597 C  
ENDBRANCH  15  17
ENDBRANCH  10  13
ENDBRANCH   6   7
ENDBRANCH   4   6
ENDBRANCH   2   4
TORSDOF 5
ENDMDL
MODEL        3
REMARK 921   NORMALIZED FREE ENERGY PREDICTED BY IDOCK:   -5.50 KCAL/MOL
REMARK 922        TOTAL FREE ENERGY PREDICTED BY IDOCK:   -7.50 KCAL/MOL
REMARK 923 INTER-LIGAND FREE ENERGY PREDICTED BY IDOCK:   -7.09 KCAL/MOL
REMARK 924 INTRA-LIGAND FREE ENERGY PREDICTED BY IDOCK:   -0.41 KCAL/MOL
REMARK 927      BINDING AFFINITY PREDICTED BY RF-SCORE:    0.00 PKD
ROOT
HETATM    1  C   UNL     1     -12.332  15.479  74.222  1.00  0.00    -0.671 C  
HETATM    2  N   UNL     1     -13.533  16.082  73.639  1.00  0.00    -0.872 NA 
HETATM    3  H   UNL     1     -13.541  17.099  73.719  1.00  0.00     0.000 HD 
ENDROOT
BRANCH   2   4
HETATM    4  N   UNL     1     -13.648  15.628  72.263  1.00  0.00    -0.498 NA 
HETATM    5  H   UNL     1     -14.476  16.007  71.801  1.00  0.00     0.000 HD 
BRANCH   4   6
HETATM    6  C   UNL     1     -12.410  15.945  71.527  1.00  0.00    -0.448 C  
BRANCH   6   7
HETATM    7  C   UNL     1     -12.178  14.942  70.415  1.00  0.00    -0.393 A  
HETATM    8  C   UNL     1     -11.914  15.378  69.108  1.00  0.00    -0.324 A  
HETATM    9  C   UNL     1     -11.766  14.459  68.068  1.00  0.00    -0.374 A  
HETATM   10  C   UNL     1     -11.874  13.085  68.317  1.00  0.00    -0.381 A  
HETATM   11  C   UNL     1     -12.237  13.563  70.667  1.00  0.00    -0.434 A  
HETATM   12  C   UNL     1     -12.081  12.638  69.628  1.00  0.00    -0.277 A  
BRANCH  10  13
HETATM   13  C   UNL     1     -11.749  12.150  67.163  1.00  0.00    -0.302 C  
HETATM   14  O   UNL     1     -11.577  10.952  67.361  1.00  0.00    -0.509 OA 
HETATM   15  N   UNL     1     -11.787  12.718  65.903  1.00  0.00    -0.416 N  
HETATM   16  H   UNL     1     -12.011  13.708  65.804  1.00  0.00     0.000 HD 
BRANCH  15  17
HETATM   17  C   UNL     1     -11.510  11.922  64.711  1.00  0.00    -0.260 C  
HETATM   18  C   UNL     1     -12.543  12.219  63.629  1.00  0.00    -0.599 C  
HETATM   19  C   UNL     1     -10.097  12.194  64.195  1.00  0.00    -0.335 C  
ENDBRANCH  15  17
ENDBRANCH  10  13
ENDBRANCH   6   7
ENDBRANCH   4   6
ENDBRANCH   2   4
TORSDOF 5
ENDMDL
MODEL        4
REMARK 921   NORMALIZED FREE ENERGY PREDICTED BY IDOCK:   -5.44 KCAL/MOL
REMARK 922        TOTAL FREE ENERGY PREDICTED BY IDOCK:   -7.42 KCAL/MOL
REMARK 923 INTER-LIGAND FREE ENERGY PREDICTED BY IDOCK:   -7.05 KCAL/MOL
REMARK 924 INTRA-LIGAND FREE ENERGY PREDICTED BY IDOCK:   -0.37 KCAL/MOL
REMARK 927      BINDING AFFINITY PREDICTED BY RF-SCORE:    0.00 PKD
ROOT
HETATM    1  C   UNL     1     -12.371  15.530  74.446  1.00  0.00    -0.649 C  
HETATM    2  N   UNL     1     -13.374  16.384  73.805  1.00  0.00    -0.829 NA 
HETATM    3  H   UNL     1     -12.964  17.201  73.351  1.00  0.00     0.000 HD 
ENDROOT
BRANCH   2   4
HETATM    4  N   UNL     1     -14.150  15.565  72.888  1.00  0.00    -0.497 NA 
HETATM    5  H   UNL     1     -15.110  15.898  72.795  1.00  0.00     0.000 HD 
BRANCH   4   6
HETATM    6  C   UNL     1     -13.463  15.483  71.586  1.00  0.00    -0.494 C  
BRANCH   6   7
HETATM    7  C   UNL     1     -13.067  14.054  71.280  1.00  0.00    -0.399 A  
HETATM    8  C   UNL     1     -13.530  13.000  72.083  1.00  0.00    -0.638 A  
HETATM    9  C   UNL     1     -13.115  11.689  71.845  1.00  0.00    -0.490 A  
HETATM   10  C   UNL     1     -12.231  11.406  70.795  1.00  0.00    -0.475 A  
HETATM   11  C   UNL     1     -12.220  13.758  70.201  1.00  0.00    -0.425 A  
HETATM   12  C   UNL     1     -11.808  12.443  69.954  1.00  0.00    -0.376 A  
BRANCH  10  13
HETATM   13  C   UNL     1     -11.786   9.995  70.613  1.00  0.00    -0.325 C  
HETATM   14  O   UNL     1     -11.227   9.659  69.574  1.00  0.00    -0.205 OA 
HETATM   15  N   UNL     1     -12.087   9.116  71.636  1.00  0.00    -0.338 N  
HETATM   16  H   UNL     1     -12.483   9.475  72.506  1.00  0.00     0.000 HD 
BRANCH  15  17
HETATM   17  C   UNL     1     -11.848   7.685  71.493  1.00  0.00    -0.295 C  
HETATM   18  C   UNL     1     -11.141   7.143  72.731  1.00  0.00    -0.339 C  
HETATM   19  C   UNL     1     -13.159   6.938  71.253  1.00  0.00    -0.273 C  
ENDBRANCH  15  17
ENDBRANCH  10  13
ENDBRANCH   6   7
ENDBRANCH   4   6
ENDBRANCH   2   4
TORSDOF 5
ENDMDL
MODEL        5
REMARK 921   NORMALIZED FREE ENERGY PREDICTED BY IDOCK:   -5.37 KCAL/MOL
REMARK 922        TOTAL FREE ENERGY PREDICTED BY IDOCK:   -7.34 KCAL/MOL
REMARK 923 INTER-LIGAND FREE ENERGY PREDICTED BY IDOCK:   -7.05 KCAL/MOL
REMARK 924 INTRA-LIGAND FREE ENERGY PREDICTED BY IDOCK:   -0.28 KCAL/MOL
REMARK 927      BINDING AFFINITY PREDICTED BY RF-SCORE:    0.00 PKD
ROOT
HETATM    1  C   UNL     1     -12.060  12.663  63.331  1.00  0.00    -0.525 C  
HETATM    2  N   UNL     1     -12.543  13.996  63.702  1.00  0.00    -0.956 NA 
HETATM    3  H   UNL     1     -13.402  14.253  63.214  1.00  0.00     0.000 HD 
ENDROOT
BRANCH   2   4
HETATM    4  N   UNL     1     -12.685  14.041  65.148  1.00  0.00    -0.685 NA 
HETATM    5  H   UNL     1     -13.371  13.366  65.487  1.00  0.00     0.000 HD 
BRANCH   4   6
HETATM    6  C   UNL     1     -11.368  13.860  65.786  1.00  0.00    -0.307 C  
BRANCH   6   7
HETATM    7  C   UNL     1     -11.459  12.868  66.927  1.00  0.00    -0.393 A  
HETATM    8  C   UNL     1     -11.886  13.283  68.198  1.00  0.00    -0.388 A  
HETATM    9  C   UNL     1     -11.908  12.388  69.268  1.00  0.00    -0.361 A  
HETATM   10  C   UNL     1     -11.508  11.058  69.087  1.00  0.00    -0.370 A  
HETATM   11  C   UNL     1     -11.105  11.523  66.740  1.00  0.00    -0.361 A  
HETATM   12  C   UNL     1     -11.133  10.620  67.810  1.00  0.00    -0.385 A  
BRANCH  10  13
HETATM   13  C   UNL     1     -11.509  10.156  70.273  1.00  0.00    -0.306 C  
HETATM   14  O   UNL     1     -10.450   9.841  70.805  1.00  0.00    -0.303 OA 
HETATM   15  N   UNL     1     -12.740   9.675  70.681  1.00  0.00    -0.526 N  
HETATM   16  H   UNL     1     -13.589  10.036  70.246  1.00  0.00     0.000 HD 
BRANCH  15  17
HETATM   17  C   UNL     1     -12.843   8.659  71.723  1.00  0.00    -0.359 C  
HETATM   18  C   UNL     1     -14.207   8.737  72.401  1.00  0.00    -0.464 C  
HETATM   19  C   UNL     1     -12.610   7.264  71.143  1.00  0.00    -0.362 C  
ENDBRANCH  15  17
ENDBRANCH  10  13
ENDBRANCH   6   7
ENDBRANCH   4   6
ENDBRANCH   2   4
TORSDOF 5
ENDMDL
MODEL        6
REMARK 921   NORMALIZED FREE ENERGY PREDICTED BY IDOCK:   -5.34 KCAL/MOL
REMARK 922        TOTAL FREE ENERGY PREDICTED BY IDOCK:   -7.30 KCAL/MOL
REMARK 923 INTER-LIGAND FREE ENERGY PREDICTED BY IDOCK:   -7.00 KCAL/MOL
REMARK 924 INTRA-LIGAND FREE ENERGY PREDICTED BY IDOCK:   -0.30 KCAL/MOL
REMARK 927      BINDING AFFINITY PREDICTED BY RF-SCORE:    0.00 PKD
ROOT
HETATM    1  C   UNL     1      -8.775   9.933  62.983  1.00  0.00    -0.218 C  
HETATM    2  N   UNL     1      -9.747  10.912  62.488  1.00  0.00    -0.577 NA 
HETATM    3  H   UNL     1     -10.680  10.515  62.369  1.00  0.00     0.000 HD 
ENDROOT
BRANCH   2   4
HETATM    4  N   UNL     1      -9.736  12.056  63.385  1.00  0.00    -0.597 NA 
HETATM    5  H   UNL     1      -9.149  12.813  63.033  1.00  0.00     0.000 HD 
BRANCH   4   6
HETATM    6  C   UNL     1     -11.117  12.501  63.645  1.00  0.00    -0.467 C  
BRANCH   6   7
HETATM    7  C   UNL     1     -11.192  13.279  64.943  1.00  0.00    -0.338 A  
HETATM    8  C   UNL     1     -11.851  12.738  66.058  1.00  0.00    -0.495 A  
HETATM    9  C   UNL     1     -11.981  13.478  67.235  1.00  0.00    -0.408 A  
HETATM   10  C   UNL     1     -11.448  14.770  67.321  1.00  0.00    -0.378 A  
HETATM   11  C   UNL     1     -10.618  14.555  65.052  1.00  0.00    -0.458 A  
HETATM   12  C   UNL     1     -10.739  15.296  66.233  1.00  0.00    -0.315 A  
BRANCH  10  13
HETATM   13  C   UNL     1     -11.652  15.531  68.586  1.00  0.00    -0.368 C  
HETATM   14  O   UNL     1     -11.046  16.581  68.774  1.00  0.00    -0.332 OA 
HETATM   15  N   UNL     1     -12.498  14.962  69.519  1.00  0.00    -0.570 N  
HETATM   16  H   UNL     1     -13.031  14.128  69.270  1.00  0.00     0.000 HD 
BRANCH  15  17
HETATM   17  C   UNL     1     -12.642  15.534  70.853  1.00  0.00    -0.456 C  
HETATM   18  C   UNL     1     -14.020  15.210  71.419  1.00  0.00    -0.595 C  
HETATM   19  C   UNL     1     -11.544  15.019  71.784  1.00  0.00    -0.425 C  
ENDBRANCH  15  17
ENDBRANCH  10  13
ENDBRANCH   6   7
ENDBRANCH   4   6
ENDBRANCH   2   4
TORSDOF 5
ENDMDL
MODEL        7
REMARK 921   NORMALIZED FREE ENERGY PREDICTED BY IDOCK:   -5.33 KCAL/MOL
REMARK 922        TOTAL FREE ENERGY PREDICTED BY IDOCK:   -7.29 KCAL/MOL
REMARK 923 INTER-LIGAND FREE ENERGY PREDICTED BY IDOCK:   -6.98 KCAL/MOL
REMARK 924 INTRA-LIGAND FREE ENERGY PREDICTED BY IDOCK:   -0.31 KCAL/MOL
REMARK 927      BINDING AFFINITY PREDICTED BY RF-SCORE:    0.00 PKD
ROOT
HETATM    1  C   UNL     1     -14.309   7.922  71.731  1.00  0.00    -0.475 C  
HETATM    2  N   UNL     1     -14.333   8.784  72.915  1.00  0.00    -1.104 NA 
HETATM    3  H   UNL     1     -13.905   8.345  73.731  1.00  0.00     0.000 HD 
ENDROOT
BRANCH   2   4
HETATM    4  N   UNL     1     -13.708  10.050  72.568  1.00  0.00    -0.571 NA 
HETATM    5  H   UNL     1     -13.539  10.633  73.389  1.00  0.00     0.000 HD 
BRANCH   4   6
HETATM    6  C   UNL     1     -12.474   9.806  71.800  1.00  0.00    -0.398 C  
BRANCH   6   7
HETATM    7  C   UNL     1     -12.197  10.955  70.853  1.00  0.00    -0.485 A  
HETATM    8  C   UNL     1     -12.464  12.277  71.243  1.00  0.00    -0.281 A  
HETATM    9  C   UNL     1     -12.273  13.333  70.350  1.00  0.00    -0.404 A  
HETATM   10  C   UNL     1     -11.807  13.088  69.053  1.00  0.00    -0.362 A  
HETATM   11  C   UNL     1     -11.685  10.721  69.568  1.00  0.00    -0.384 A  
HETATM   12  C   UNL     1     -11.485  11.780  68.673  1.00  0.00    -0.346 A  
BRANCH  10  13
HETATM   13  C   UNL     1     -11.662  14.248  68.128  1.00  0.00    -0.350 C  
HETATM   14  O   UNL     1     -11.726  15.392  68.565  1.00  0.00    -0.352 OA 
HETATM   15  N   UNL     1     -11.512  13.952  66.786  1.00  0.00    -0.336 N  
HETATM   16  H   UNL     1     -11.388  12.982  66.497  1.00  0.00     0.000 HD 
BRANCH  15  17
HETATM   17  C   UNL     1     -11.528  15.005  65.777  1.00  0.00    -0.236 C  
HETATM   18  C   UNL     1     -10.127  15.577  65.591  1.00  0.00    -0.406 C  
HETATM   19  C   UNL     1     -12.072  14.475  64.450  1.00  0.00    -0.492 C  
ENDBRANCH  15  17
ENDBRANCH  10  13
ENDBRANCH   6   7
ENDBRANCH   4   6
ENDBRANCH   2   4
TORSDOF 5
ENDMDL
MODEL        8
REMARK 921   NORMALIZED FREE ENERGY PREDICTED BY IDOCK:   -5.33 KCAL/MOL
REMARK 922        TOTAL FREE ENERGY PREDICTED BY IDOCK:   -7.28 KCAL/MOL
REMARK 923 INTER-LIGAND FREE ENERGY PREDICTED BY IDOCK:   -7.00 KCAL/MOL
REMARK 924 INTRA-LIGAND FREE ENERGY PREDICTED BY IDOCK:   -0.29 KCAL/MOL
REMARK 927      BINDING AFFINITY PREDICTED BY RF-SCORE:    0.00 PKD
ROOT
HETATM    1  C   UNL     1     -11.028  17.043  65.136  1.00  0.00    -0.010 C  
HETATM    2  N   UNL     1     -11.396  16.411  63.866  1.00  0.00    -1.535 NA 
HETATM    3  H   UNL     1     -10.583  16.155  63.304  1.00  0.00     0.000 HD 
ENDROOT
BRANCH   2   4
HETATM    4  N   UNL     1     -12.257  15.276  64.156  1.00  0.00    -0.845 NA 
HETATM    5  H   UNL     1     -13.023  15.195  63.487  1.00  0.00     0.000 HD 
BRANCH   4   6
HETATM    6  C   UNL     1     -11.452  14.042  64.227  1.00  0.00    -0.297 C  
BRANCH   6   7
HETATM    7  C   UNL     1     -11.606  13.382  65.581  1.00  0.00    -0.350 A  
HETATM    8  C   UNL     1     -12.150  14.094  66.662  1.00  0.00    -0.480 A  
HETATM    9  C   UNL     1     -12.232  13.511  67.928  1.00  0.00    -0.168 A  
HETATM   10  C   UNL     1     -11.776  12.203  68.136  1.00  0.00    -0.402 A  
HETATM   11  C   UNL     1     -11.195  12.056  65.786  1.00  0.00    -0.383 A  
HETATM   12  C   UNL     1     -11.283  11.466  67.053  1.00  0.00    -0.350 A  
BRANCH  10  13
HETATM   13  C   UNL     1     -11.848  11.646  69.517  1.00  0.00    -0.348 C  
HETATM   14  O   UNL     1     -11.796  12.398  70.484  1.00  0.00    -0.272 OA 
HETATM   15  N   UNL     1     -11.919  10.270  69.623  1.00  0.00    -0.481 N  
HETATM   16  H   UNL     1     -12.038   9.706  68.781  1.00  0.00     0.000 HD 
BRANCH  15  17
HETATM   17  C   UNL     1     -11.827   9.610  70.921  1.00  0.00    -0.323 C  
HETATM   18  C   UNL     1     -13.212   9.481  71.545  1.00  0.00    -0.468 C  
HETATM   19  C   UNL     1     -11.169   8.237  70.785  1.00  0.00    -0.284 C  
ENDBRANCH  15  17
ENDBRANCH  10  13
ENDBRANCH   6   7
ENDBRANCH   4   6
ENDBRANCH   2   4
TORSDOF 5
ENDMDL
MODEL        9
REMARK 921   NORMALIZED FREE ENERGY PREDICTED BY IDOCK:   -5.28 KCAL/MOL
REMARK 922        TOTAL FREE ENERGY PREDICTED BY IDOCK:   -7.22 KCAL/MOL
REMARK 923 INTER-LIGAND FREE ENERGY PREDICTED BY IDOCK:   -6.84 KCAL/MOL
REMARK 924 INTRA-LIGAND FREE ENERGY PREDICTED BY IDOCK:   -0.38 KCAL/MOL
REMARK 927      BINDING AFFINITY PREDICTED BY RF-SCORE:    0.00 PKD
ROOT
HETATM    1  C   UNL     1      -9.859  10.730  63.977  1.00  0.00    -0.332 C  
HETATM    2  N   UNL     1     -10.876  11.004  62.958  1.00  0.00    -0.787 NA 
HETATM    3  H   UNL     1     -11.666  10.360  63.008  1.00  0.00     0.000 HD 
ENDROOT
BRANCH   2   4
HETATM    4  N   UNL     1     -11.279  12.396  63.080  1.00  0.00    -0.709 NA 
HETATM    5  H   UNL     1     -11.622  12.774  62.197  1.00  0.00     0.000 HD 
BRANCH   4   6
HETATM    6  C   UNL     1     -12.267  12.538  64.165  1.00  0.00    -0.467 C  
BRANCH   6   7
HETATM    7  C   UNL     1     -11.790  13.543  65.193  1.00  0.00    -0.363 A  
HETATM    8  C   UNL     1     -12.251  13.478  66.518  1.00  0.00    -0.433 A  
HETATM    9  C   UNL     1     -11.867  14.441  67.452  1.00  0.00    -0.430 A  
HETATM   10  C   UNL     1     -11.010  15.485  67.081  1.00  0.00    -0.295 A  
HETATM   11  C   UNL     1     -10.894  14.563  64.840  1.00  0.00    -0.436 A  
HETATM   12  C   UNL     1     -10.501  15.526  65.777  1.00  0.00    -0.378 A  
BRANCH  10  13
HETATM   13  C   UNL     1     -10.667  16.510  68.107  1.00  0.00    -0.343 C  
HETATM   14  O   UNL     1     -11.172  16.452  69.223  1.00  0.00    -0.315 OA 
HETATM   15  N   UNL     1      -9.814  17.522  67.707  1.00  0.00    -0.276 N  
HETATM   16  H   UNL     1      -9.367  17.469  66.791  1.00  0.00     0.000 HD 
BRANCH  15  17
HETATM   17  C   UNL     1      -9.543  18.664  68.573  1.00  0.00    -0.361 C  
HETATM   18  C   UNL     1      -8.043  18.937  68.629  1.00  0.00    -0.382 C  
HETATM   19  C   UNL     1     -10.297  19.902  68.090  1.00  0.00    -0.533 C  
ENDBRANCH  15  17
ENDBRANCH  10  13
ENDBRANCH   6   7
ENDBRANCH   4   6
ENDBRANCH   2   4
TORSDOF 5
ENDMDL
MODEL       10
REMARK 921   NORMALIZED FREE ENERGY PREDICTED BY IDOCK:   -5.28 KCAL/MOL
REMARK 922        TOTAL FREE ENERGY PREDICTED BY IDOCK:   -7.21 KCAL/MOL
REMARK 923 INTER-LIGAND FREE ENERGY PREDICTED BY IDOCK:   -6.86 KCAL/MOL
REMARK 924 INTRA-LIGAND FREE ENERGY PREDICTED BY IDOCK:   -0.35 KCAL/MOL
REMARK 927      BINDING AFFINITY PREDICTED BY RF-SCORE:    0.00 PKD
ROOT
HETATM    1  C   UNL     1     -14.259   8.008  71.813  1.00  0.00    -0.456 C  
HETATM    2  N   UNL     1     -14.148   9.047  72.840  1.00  0.00    -1.110 NA 
HETATM    3  H   UNL     1     -13.780   8.690  73.722  1.00  0.00     0.000 HD 
ENDROOT
BRANCH   2   4
HETATM    4  N   UNL     1     -13.351  10.136  72.300  1.00  0.00    -0.590 NA 
HETATM    5  H   UNL     1     -13.127  10.836  73.008  1.00  0.00     0.000 HD 
BRANCH   4   6
HETATM    6  C   UNL     1     -12.141   9.598  71.652  1.00  0.00    -0.402 C  
BRANCH   6   7
HETATM    7  C   UNL     1     -11.852  10.336  70.361  1.00  0.00    -0.396 A  
HETATM    8  C   UNL     1     -12.173  11.697  70.234  1.00  0.00    -0.401 A  
HETATM    9  C   UNL     1     -11.971  12.365  69.025  1.00  0.00    -0.291 A  
HETATM   10  C   UNL     1     -11.438  11.686  67.922  1.00  0.00    -0.381 A  
HETATM   11  C   UNL     1     -11.275   9.674  69.267  1.00  0.00    -0.083 A  
HETATM   12  C   UNL     1     -11.063  10.344  68.056  1.00  0.00    -0.359 A  
BRANCH  10  13
HETATM   13  C   UNL     1     -11.283  12.436  66.643  1.00  0.00    -0.315 C  
HETATM   14  O   UNL     1     -11.481  13.646  66.616  1.00  0.00    -0.319 OA 
HETATM   15  N   UNL     1     -10.965  11.689  65.524  1.00  0.00    -0.291 N  
HETATM   16  H   UNL     1     -10.737  10.701  65.629  1.00  0.00     0.000 HD 
BRANCH  15  17
HETATM   17  C   UNL     1     -10.952  12.293  64.196  1.00  0.00    -0.363 C  
HETATM   18  C   UNL     1      -9.852  11.668  63.345  1.00  0.00    -0.424 C  
HETATM   19  C   UNL     1     -12.312  12.135  63.516  1.00  0.00    -0.682 C  
ENDBRANCH  15  17
ENDBRANCH  10  13
ENDBRANCH   6   7
ENDBRANCH   4   6
ENDBRANCH   2   4
TORSDOF 5
ENDMDL
MODEL       11
REMARK 921   NORMALIZED FREE ENERGY PREDICTED BY IDOCK:   -5.28 KCAL/MOL
REMARK 922        TOTAL FREE ENERGY PREDICTED BY IDOCK:   -7.21 KCAL/MOL
REMARK 923 INTER-LIGAND FREE ENERGY PREDICTED BY IDOCK:   -6.89 KCAL/MOL
REMARK 924 INTRA-LIGAND FREE ENERGY PREDICTED BY IDOCK:   -0.32 KCAL/MOL
REMARK 927      BINDING AFFINITY PREDICTED BY RF-SCORE:    0.00 PKD
ROOT
HETATM    1  C   UNL     1     -14.172   8.021  71.663  1.00  0.00    -0.452 C  
HETATM    2  N   UNL     1     -14.303   8.950  72.789  1.00  0.00    -1.055 NA 
HETATM    3  H   UNL     1     -13.958   8.557  73.665  1.00  0.00     0.000 HD 
ENDROOT
BRANCH   2   4
HETATM    4  N   UNL     1     -13.640  10.193  72.433  1.00  0.00    -0.578 NA 
HETATM    5  H   UNL     1     -13.424  10.761  73.252  1.00  0.00     0.000 HD 
BRANCH   4   6
HETATM    6  C   UNL     1     -12.440   9.907  71.626  1.00  0.00    -0.415 C  
BRANCH   6   7
HETATM    7  C   UNL     1     -12.198  11.011  70.617  1.00  0.00    -0.481 A  
HETATM    8  C   UNL     1     -12.414  12.353  70.967  1.00  0.00    -0.353 A  
HETATM    9  C   UNL     1     -12.257  13.368  70.022  1.00  0.00    -0.367 A  
HETATM   10  C   UNL     1     -11.875  13.061  68.710  1.00  0.00    -0.355 A  
HETATM   11  C   UNL     1     -11.770  10.714  69.315  1.00  0.00    -0.336 A  
HETATM   12  C   UNL     1     -11.604  11.731  68.366  1.00  0.00    -0.380 A  
BRANCH  10  13
HETATM   13  C   UNL     1     -11.764  14.179  67.731  1.00  0.00    -0.373 C  
HETATM   14  O   UNL     1     -12.353  14.114  66.657  1.00  0.00    -0.455 OA 
HETATM   15  N   UNL     1     -10.937  15.229  68.085  1.00  0.00    -0.280 N  
HETATM   16  H   UNL     1     -10.539  15.260  69.024  1.00  0.00     0.000 HD 
BRANCH  15  17
HETATM   17  C   UNL     1     -10.626  16.293  67.138  1.00  0.00    -0.291 C  
HETATM   18  C   UNL     1     -10.345  17.595  67.881  1.00  0.00    -0.371 C  
HETATM   19  C   UNL     1      -9.433  15.907  66.263  1.00  0.00    -0.350 C  
ENDBRANCH  15  17
ENDBRANCH  10  13
ENDBRANCH   6   7
ENDBRANCH   4   6
ENDBRANCH   2   4
TORSDOF 5
ENDMDL
MODEL       12
REMARK 921   NORMALIZED FREE ENERGY PREDICTED BY IDOCK:   -5.24 KCAL/MOL
REMARK 922        TOTAL FREE ENERGY PREDICTED BY IDOCK:   -7.16 KCAL/MOL
REMARK 923 INTER-LIGAND FREE ENERGY PREDICTED BY IDOCK:   -6.80 KCAL/MOL
REMARK 924 INTRA-LIGAND FREE ENERGY PREDICTED BY IDOCK:   -0.36 KCAL/MOL
REMARK 927      BINDING AFFINITY PREDICTED BY RF-SCORE:    0.00 PKD
ROOT
HETATM    1  C   UNL     1     -12.467  15.803  73.945  1.00  0.00    -0.628 C  
HETATM    2  N   UNL     1     -13.824  16.100  73.478  1.00  0.00    -0.797 NA 
HETATM    3  H   UNL     1     -14.005  17.102  73.405  1.00  0.00     0.000 HD 
ENDROOT
BRANCH   2   4
HETATM    4  N   UNL     1     -14.035  15.400  72.221  1.00  0.00    -0.530 NA 
HETATM    5  H   UNL     1     -13.906  16.012  71.415  1.00  0.00     0.000 HD 
BRANCH   4   6
HETATM    6  C   UNL     1     -13.165  14.212  72.159  1.00  0.00    -0.420 C  
BRANCH   6   7
HETATM    7  C   UNL     1     -12.546  14.075  70.783  1.00  0.00    -0.431 A  
HETATM    8  C   UNL     1     -12.261  15.215  70.016  1.00  0.00    -0.379 A  
HETATM    9  C   UNL     1     -11.752  15.091  68.722  1.00  0.00    -0.360 A  
HETATM   10  C   UNL     1     -11.513  13.825  68.173  1.00  0.00    -0.348 A  
HETATM   11  C   UNL     1     -12.260  12.811  70.246  1.00  0.00    -0.351 A  
HETATM   12  C   UNL     1     -11.741  12.684  68.951  1.00  0.00    -0.370 A  
BRANCH  10  13
HETATM   13  C   UNL     1     -11.010  13.751  66.771  1.00  0.00    -0.304 C  
HETATM   14  O   UNL     1     -10.474  14.729  66.260  1.00  0.00    -0.281 OA 
HETATM   15  N   UNL     1     -11.231  12.563  66.099  1.00  0.00    -0.305 N  
HETATM   16  H   UNL     1     -11.611  11.763  66.605  1.00  0.00     0.000 HD 
BRANCH  15  17
HETATM   17  C   UNL     1     -10.931  12.437  64.677  1.00  0.00    -0.305 C  
HETATM   18  C   UNL     1     -10.382  11.046  64.377  1.00  0.00    -0.424 C  
HETATM   19  C   UNL     1     -12.175  12.717  63.834  1.00  0.00    -0.565 C  
ENDBRANCH  15  17
ENDBRANCH  10  13
ENDBRANCH   6   7
ENDBRANCH   4   6
ENDBRANCH   2   4
TORSDOF 5
ENDMDL
MODEL       13
REMARK 921   NORMALIZED FREE ENERGY PREDICTED BY IDOCK:   -5.19 KCAL/MOL
REMARK 922        TOTAL FREE ENERGY PREDICTED BY IDOCK:   -7.10 KCAL/MOL
REMARK 923 INTER-LIGAND FREE ENERGY PREDICTED BY IDOCK:   -6.70 KCAL/MOL
REMARK 924 INTRA-LIGAND FREE ENERGY PREDICTED BY IDOCK:   -0.40 KCAL/MOL
REMARK 927      BINDING AFFINITY PREDICTED BY RF-SCORE:    0.00 PKD
ROOT
HETATM    1  C   UNL     1     -12.018  10.808  70.209  1.00  0.00    -0.351 C  
HETATM    2  N   UNL     1     -11.421  10.061  69.098  1.00  0.00    -0.462 NA 
HETATM    3  H   UNL     1     -11.610   9.060  69.151  1.00  0.00     0.000 HD 
ENDROOT
BRANCH   2   4
HETATM    4  N   UNL     1     -11.881  10.654  67.853  1.00  0.00    -0.715 NA 
HETATM    5  H   UNL     1     -12.427  11.502  68.011  1.00  0.00     0.000 HD 
BRANCH   4   6
HETATM    6  C   UNL     1     -10.734  10.892  66.958  1.00  0.00    -0.271 C  
BRANCH   6   7
HETATM    7  C   UNL     1     -10.648  12.355  66.578  1.00  0.00    -0.261 A  
HETATM    8  C   UNL     1     -10.790  13.353  67.555  1.00  0.00    -0.276 A  
HETATM    9  C   UNL     1     -10.777  14.703  67.199  1.00  0.00    -0.292 A  
HETATM   10  C   UNL     1     -10.617  15.081  65.860  1.00  0.00    -0.338 A  
HETATM   11  C   UNL     1     -10.440  12.741  65.245  1.00  0.00    -0.312 A  
HETATM   12  C   UNL     1     -10.418  14.094  64.886  1.00  0.00    -0.461 A  
BRANCH  10  13
HETATM   13  C   UNL     1     -10.654  16.534  65.531  1.00  0.00    -0.295 C  
HETATM   14  O   UNL     1     -11.056  16.903  64.433  1.00  0.00    -1.128 OA 
HETATM   15  N   UNL     1     -10.170  17.397  66.497  1.00  0.00    -0.323 N  
HETATM   16  H   UNL     1      -9.925  17.034  67.417  1.00  0.00     0.000 HD 
BRANCH  15  17
HETATM   17  C   UNL     1     -10.006  18.820  66.219  1.00  0.00    -0.385 C  
HETATM   18  C   UNL     1     -10.800  19.648  67.224  1.00  0.00    -0.519 C  
HETATM   19  C   UNL     1      -8.529  19.210  66.249  1.00  0.00    -0.311 C  
ENDBRANCH  15  17
ENDBRANCH  10  13
ENDBRANCH   6   7
ENDBRANCH   4   6
ENDBRANCH   2   4
TORSDOF 5
ENDMDL
MODEL       14
REMARK 921   NORMALIZED FREE ENERGY PREDICTED BY IDOCK:   -5.17 KCAL/MOL
REMARK 922        TOTAL FREE ENERGY PREDICTED BY IDOCK:   -7.07 KCAL/MOL
REMARK 923 INTER-LIGAND FREE ENERGY PREDICTED BY IDOCK:   -6.70 KCAL/MOL
REMARK 924 INTRA-LIGAND FREE ENERGY PREDICTED BY IDOCK:   -0.37 KCAL/MOL
REMARK 927      BINDING AFFINITY PREDICTED BY RF-SCORE:    0.00 PKD
ROOT
HETATM    1  C   UNL     1     -12.509  16.097  73.983  1.00  0.00    -0.595 C  
HETATM    2  N   UNL     1     -12.393  16.480  72.573  1.00  0.00    -0.425 NA 
HETATM    3  H   UNL     1     -12.079  17.442  72.451  1.00  0.00     0.000 HD 
ENDROOT
BRANCH   2   4
HETATM    4  N   UNL     1     -11.525  15.519  71.911  1.00  0.00    -0.423 NA 
HETATM    5  H   UNL     1     -11.190  14.800  72.553  1.00  0.00     0.000 HD 
BRANCH   4   6
HETATM    6  C   UNL     1     -12.217  14.941  70.744  1.00  0.00    -0.325 C  
BRANCH   6   7
HETATM    7  C   UNL     1     -12.399  13.447  70.917  1.00  0.00    -0.436 A  
HETATM    8  C   UNL     1     -11.813  12.550  70.011  1.00  0.00    -0.363 A  
HETATM    9  C   UNL     1     -12.034  11.177  70.127  1.00  0.00    -0.449 A  
HETATM   10  C   UNL     1     -12.840  10.674  71.156  1.00  0.00    -0.518 A  
HETATM   11  C   UNL     1     -13.166  12.934  71.974  1.00  0.00    -0.549 A  
HETATM   12  C   UNL     1     -13.383  11.556  72.098  1.00  0.00    -0.284 A  
BRANCH  10  13
HETATM   13  C   UNL     1     -13.077   9.203  71.208  1.00  0.00    -0.240 C  
HETATM   14  O   UNL     1     -14.113   8.767  71.697  1.00  0.00    -0.401 OA 
HETATM   15  N   UNL     1     -12.058   8.397  70.734  1.00  0.00    -0.485 N  
HETATM   16  H   UNL     1     -11.256   8.823  70.269  1.00  0.00     0.000 HD 
BRANCH  15  17
HETATM   17  C   UNL     1     -12.112   6.948  70.888  1.00  0.00    -0.373 C  
HETATM   18  C   UNL     1     -11.306   6.271  69.785  1.00  0.00    -0.506 C  
HETATM   19  C   UNL     1     -11.596   6.530  72.265  1.00  0.00    -0.330 C  
ENDBRANCH  15  17
ENDBRANCH  10  13
ENDBRANCH   6   7
ENDBRANCH   4   6
ENDBRANCH   2   4
TORSDOF 5
ENDMDL
MODEL       15
REMARK 921   NORMALIZED FREE ENERGY PREDICTED BY IDOCK:   -5.15 KCAL/MOL
REMARK 922        TOTAL FREE ENERGY PREDICTED BY IDOCK:   -7.05 KCAL/MOL
REMARK 923 INTER-LIGAND FREE ENERGY PREDICTED BY IDOCK:   -6.70 KCAL/MOL
REMARK 924 INTRA-LIGAND FREE ENERGY PREDICTED BY IDOCK:   -0.35 KCAL/MOL
REMARK 927      BINDING AFFINITY PREDICTED BY RF-SCORE:    0.00 PKD
ROOT
HETATM    1  C   UNL     1     -12.326  12.089  63.352  1.00  0.00    -0.523 C  
HETATM    2  N   UNL     1     -10.900  12.314  63.105  1.00  0.00    -0.643 NA 
HETATM    3  H   UNL     1     -10.731  13.037  62.406  1.00  0.00     0.000 HD 
ENDROOT
BRANCH   2   4
HETATM    4  N   UNL     1     -10.258  12.603  64.377  1.00  0.00    -0.485 NA 
HETATM    5  H   UNL     1     -10.652  13.430  64.826  1.00  0.00     0.000 HD 
BRANCH   4   6
HETATM    6  C   UNL     1     -10.320  11.417  65.250  1.00  0.00    -0.282 C  
BRANCH   6   7
HETATM    7  C   UNL     1     -10.890  11.780  66.605  1.00  0.00    -0.318 A  
HETATM    8  C   UNL     1     -11.337  13.085  66.861  1.00  0.00    -0.352 A  
HETATM    9  C   UNL     1     -11.801  13.442  68.129  1.00  0.00    -0.396 A  
HETATM   10  C   UNL     1     -11.831  12.498  69.163  1.00  0.00    -0.348 A  
HETATM   11  C   UNL     1     -10.967  10.827  67.632  1.00  0.00    -0.365 A  
HETATM   12  C   UNL     1     -11.440  11.179  68.902  1.00  0.00    -0.363 A  
BRANCH  10  13
HETATM   13  C   UNL     1     -12.296  12.943  70.508  1.00  0.00    -0.283 C  
HETATM   14  O   UNL     1     -12.775  12.130  71.290  1.00  0.00    -0.366 OA 
HETATM   15  N   UNL     1     -12.200  14.296  70.776  1.00  0.00    -0.330 N  
HETATM   16  H   UNL     1     -11.720  14.907  70.115  1.00  0.00     0.000 HD 
BRANCH  15  17
HETATM   17  C   UNL     1     -12.774  14.864  71.990  1.00  0.00    -0.324 C  
HETATM   18  C   UNL     1     -12.032  16.139  72.378  1.00  0.00    -0.649 C  
HETATM   19  C   UNL     1     -14.265  15.147  71.803  1.00  0.00    -0.674 C  
ENDBRANCH  15  17
ENDBRANCH  10  13
ENDBRANCH   6   7
ENDBRANCH   4   6
ENDBRANCH   2   4
TORSDOF 5
ENDMDL
MODEL       16
REMARK 921   NORMALIZED FREE ENERGY PREDICTED BY IDOCK:   -5.15 KCAL/MOL
REMARK 922        TOTAL FREE ENERGY PREDICTED BY IDOCK:   -7.04 KCAL/MOL
REMARK 923 INTER-LIGAND FREE ENERGY PREDICTED BY IDOCK:   -6.68 KCAL/MOL
REMARK 924 INTRA-LIGAND FREE ENERGY PREDICTED BY IDOCK:   -0.36 KCAL/MOL
REMARK 927      BINDING AFFINITY PREDICTED BY RF-SCORE:    0.00 PKD
ROOT
HETATM    1  C   UNL     1     -14.410   8.036  71.702  1.00  0.00    -0.473 C  
HETATM    2  N   UNL     1     -14.154   8.965  72.806  1.00  0.00    -1.021 NA 
HETATM    3  H   UNL     1     -13.804   8.497  73.642  1.00  0.00     0.000 HD 
ENDROOT
BRANCH   2   4
HETATM    4  N   UNL     1     -13.256  10.003  72.328  1.00  0.00    -0.560 NA 
HETATM    5  H   UNL     1     -13.109  10.734  73.024  1.00  0.00     0.000 HD 
BRANCH   4   6
HETATM    6  C   UNL     1     -11.987   9.401  71.882  1.00  0.00    -0.346 C  
BRANCH   6   7
HETATM    7  C   UNL     1     -11.608   9.908  70.506  1.00  0.00    -0.386 A  
HETATM    8  C   UNL     1     -11.990  11.194  70.093  1.00  0.00    -0.449 A  
HETATM    9  C   UNL     1     -11.702  11.641  68.802  1.00  0.00    -0.392 A  
HETATM   10  C   UNL     1     -11.021  10.812  67.902  1.00  0.00    -0.344 A  
HETATM   11  C   UNL     1     -10.885   9.100  69.615  1.00  0.00    -0.210 A  
HETATM   12  C   UNL     1     -10.587   9.549  68.323  1.00  0.00    -0.260 A  
BRANCH  10  13
HETATM   13  C   UNL     1     -10.777  11.323  66.523  1.00  0.00    -0.271 C  
HETATM   14  O   UNL     1      -9.766  10.987  65.915  1.00  0.00    -0.206 OA 
HETATM   15  N   UNL     1     -11.709  12.212  66.021  1.00  0.00    -0.373 N  
HETATM   16  H   UNL     1     -12.566  12.390  66.544  1.00  0.00     0.000 HD 
BRANCH  15  17
HETATM   17  C   UNL     1     -11.486  12.900  64.754  1.00  0.00    -0.321 C  
HETATM   18  C   UNL     1     -12.396  12.324  63.675  1.00  0.00    -0.664 C  
HETATM   19  C   UNL     1     -11.718  14.403  64.907  1.00  0.00    -0.408 C  
ENDBRANCH  15  17
ENDBRANCH  10  13
ENDBRANCH   6   7
ENDBRANCH   4   6
ENDBRANCH   2   4
TORSDOF 5
ENDMDL
MODEL       17
REMARK 921   NORMALIZED FREE ENERGY PREDICTED BY IDOCK:   -5.14 KCAL/MOL
REMARK 922        TOTAL FREE ENERGY PREDICTED BY IDOCK:   -7.03 KCAL/MOL
REMARK 923 INTER-LIGAND FREE ENERGY PREDICTED BY IDOCK:   -6.68 KCAL/MOL
REMARK 924 INTRA-LIGAND FREE ENERGY PREDICTED BY IDOCK:   -0.36 KCAL/MOL
REMARK 927      BINDING AFFINITY PREDICTED BY RF-SCORE:    0.00 PKD
ROOT
HETATM    1  C   UNL     1     -10.003  20.095  67.517  1.00  0.00    -0.430 C  
HETATM    2  N   UNL     1     -10.301  19.738  68.907  1.00  0.00    -0.594 NA 
HETATM    3  H   UNL     1     -11.199  20.106  69.223  1.00  0.00     0.000 HD 
ENDROOT
BRANCH   2   4
HETATM    4  N   UNL     1     -10.212  18.293  69.035  1.00  0.00    -0.449 NA 
HETATM    5  H   UNL     1     -10.715  17.948  69.853  1.00  0.00     0.000 HD 
BRANCH   4   6
HETATM    6  C   UNL     1     -10.672  17.651  67.790  1.00  0.00    -0.332 C  
BRANCH   6   7
HETATM    7  C   UNL     1     -11.031  16.201  68.039  1.00  0.00    -0.338 A  
HETATM    8  C   UNL     1     -11.601  15.808  69.260  1.00  0.00    -0.380 A  
HETATM    9  C   UNL     1     -11.872  14.464  69.518  1.00  0.00    -0.376 A  
HETATM   10  C   UNL     1     -11.583  13.486  68.558  1.00  0.00    -0.368 A  
HETATM   11  C   UNL     1     -10.788  15.222  67.063  1.00  0.00    -0.321 A  
HETATM   12  C   UNL     1     -11.066  13.873  67.316  1.00  0.00    -0.312 A  
BRANCH  10  13
HETATM   13  C   UNL     1     -11.852  12.061  68.904  1.00  0.00    -0.299 C  
HETATM   14  O   UNL     1     -12.184  11.271  68.027  1.00  0.00    -0.621 OA 
HETATM   15  N   UNL     1     -11.758  11.722  70.241  1.00  0.00    -0.501 N  
HETATM   16  H   UNL     1     -11.402  12.406  70.908  1.00  0.00     0.000 HD 
BRANCH  15  17
HETATM   17  C   UNL     1     -12.160  10.401  70.712  1.00  0.00    -0.364 C  
HETATM   18  C   UNL     1     -10.930   9.568  71.053  1.00  0.00    -0.424 C  
HETATM   19  C   UNL     1     -13.084  10.517  71.924  1.00  0.00    -0.567 C  
ENDBRANCH  15  17
ENDBRANCH  10  13
ENDBRANCH   6   7
ENDBRANCH   4   6
ENDBRANCH   2   4
TORSDOF 5
ENDMDL
MODEL       18
REMARK 921   NORMALIZED FREE ENERGY PREDICTED BY IDOCK:   -5.14 KCAL/MOL
REMARK 922        TOTAL FREE ENERGY PREDICTED BY IDOCK:   -7.03 KCAL/MOL
REMARK 923 INTER-LIGAND FREE ENERGY PREDICTED BY IDOCK:   -6.64 KCAL/MOL
REMARK 924 INTRA-LIGAND FREE ENERGY PREDICTED BY IDOCK:   -0.39 KCAL/MOL
REMARK 927      BINDING AFFINITY PREDICTED BY RF-SCORE:    0.00 PKD
ROOT
HETATM    1  C   UNL     1     -10.039  15.664  68.287  1.00  0.00    -0.218 C  
HETATM    2  N   UNL     1     -11.254  16.445  68.538  1.00  0.00    -0.363 NA 
HETATM    3  H   UNL     1     -11.505  17.044  67.752  1.00  0.00     0.000 HD 
ENDROOT
BRANCH   2   4
HETATM    4  N   UNL     1     -12.318  15.524  68.903  1.00  0.00    -0.590 NA 
HETATM    5  H   UNL     1     -12.253  14.641  68.396  1.00  0.00     0.000 HD 
BRANCH   4   6
HETATM    6  C   UNL     1     -12.327  15.324  70.364  1.00  0.00    -0.380 C  
BRANCH   6   7
HETATM    7  C   UNL     1     -12.521  13.860  70.701  1.00  0.00    -0.436 A  
HETATM    8  C   UNL     1     -13.279  13.482  71.820  1.00  0.00    -0.490 A  
HETATM    9  C   UNL     1     -13.405  12.138  72.173  1.00  0.00    -0.438 A  
HETATM   10  C   UNL     1     -12.779  11.144  71.410  1.00  0.00    -0.524 A  
HETATM   11  C   UNL     1     -11.936  12.857  69.914  1.00  0.00    -0.377 A  
HETATM   12  C   UNL     1     -12.066  11.507  70.260  1.00  0.00    -0.444 A  
BRANCH  10  13
HETATM   13  C   UNL     1     -12.911   9.728  71.857  1.00  0.00    -0.427 C  
HETATM   14  O   UNL     1     -13.969   9.332  72.333  1.00  0.00    -0.460 OA 
HETATM   15  N   UNL     1     -11.780   8.940  71.750  1.00  0.00    -0.337 N  
HETATM   16  H   UNL     1     -10.956   9.306  71.273  1.00  0.00     0.000 HD 
BRANCH  15  17
HETATM   17  C   UNL     1     -11.747   7.592  72.307  1.00  0.00    -0.324 C  
HETATM   18  C   UNL     1     -11.591   6.565  71.192  1.00  0.00    -0.390 C  
HETATM   19  C   UNL     1     -10.615   7.456  73.325  1.00  0.00    -0.442 C  
ENDBRANCH  15  17
ENDBRANCH  10  13
ENDBRANCH   6   7
ENDBRANCH   4   6
ENDBRANCH   2   4
TORSDOF 5
ENDMDL
MODEL       19
REMARK 921   NORMALIZED FREE ENERGY PREDICTED BY IDOCK:   -5.13 KCAL/MOL
REMARK 922        TOTAL FREE ENERGY PREDICTED BY IDOCK:   -7.01 KCAL/MOL
REMARK 923 INTER-LIGAND FREE ENERGY PREDICTED BY IDOCK:   -6.83 KCAL/MOL
REMARK 924 INTRA-LIGAND FREE ENERGY PREDICTED BY IDOCK:   -0.18 KCAL/MOL
REMARK 927      BINDING AFFINITY PREDICTED BY RF-SCORE:    0.00 PKD
ROOT
HETATM    1  C   UNL     1     -12.038  12.881  63.214  1.00  0.00    -0.440 C  
HETATM    2  N   UNL     1     -12.355  14.188  63.796  1.00  0.00    -1.027 NA 
HETATM    3  H   UNL     1     -12.934  14.762  63.183  1.00  0.00     0.000 HD 
ENDROOT
BRANCH   2   4
HETATM    4  N   UNL     1     -12.962  13.971  65.099  1.00  0.00    -0.771 NA 
HETATM    5  H   UNL     1     -13.314  13.018  65.204  1.00  0.00     0.000 HD 
BRANCH   4   6
HETATM    6  C   UNL     1     -12.006  14.328  66.163  1.00  0.00    -0.407 C  
BRANCH   6   7
HETATM    7  C   UNL     1     -11.725  13.133  67.051  1.00  0.00    -0.431 A  
HETATM    8  C   UNL     1     -11.308  11.915  66.492  1.00  0.00    -0.403 A  
HETATM    9  C   UNL     1     -11.111  10.793  67.299  1.00  0.00    -0.339 A  
HETATM   10  C   UNL     1     -11.322  10.870  68.682  1.00  0.00    -0.360 A  
HETATM   11  C   UNL     1     -11.888  13.217  68.442  1.00  0.00    -0.386 A  
HETATM   12  C   UNL     1     -11.684  12.095  69.255  1.00  0.00    -0.386 A  
BRANCH  10  13
HETATM   13  C   UNL     1     -11.140   9.631  69.490  1.00  0.00    -0.168 C  
HETATM   14  O   UNL     1     -10.196   8.883  69.258  1.00  0.00    -0.198 OA 
HETATM   15  N   UNL     1     -12.104   9.371  70.446  1.00  0.00    -0.473 N  
HETATM   16  H   UNL     1     -12.818  10.072  70.643  1.00  0.00     0.000 HD 
BRANCH  15  17
HETATM   17  C   UNL     1     -12.115   8.109  71.178  1.00  0.00    -0.260 C  
HETATM   18  C   UNL     1     -11.070   8.135  72.288  1.00  0.00    -0.410 C  
HETATM   19  C   UNL     1     -13.503   7.830  71.754  1.00  0.00    -0.373 C  
ENDBRANCH  15  17
ENDBRANCH  10  13
ENDBRANCH   6   7
ENDBRANCH   4   6
ENDBRANCH   2   4
TORSDOF 5
ENDMDL
MODEL       20
REMARK 921   NORMALIZED FREE ENERGY PREDICTED BY IDOCK:   -5.12 KCAL/MOL
REMARK 922        TOTAL FREE ENERGY PREDICTED BY IDOCK:   -7.01 KCAL/MOL
REMARK 923 INTER-LIGAND FREE ENERGY PREDICTED BY IDOCK:   -6.65 KCAL/MOL
REMARK 924 INTRA-LIGAND FREE ENERGY PREDICTED BY IDOCK:   -0.37 KCAL/MOL
REMARK 927      BINDING AFFINITY PREDICTED BY RF-SCORE:    0.00 PKD
ROOT
HETATM    1  C   UNL     1      -9.048   9.865  62.915  1.00  0.00    -0.273 C  
HETATM    2  N   UNL     1      -9.585  11.180  62.557  1.00  0.00    -0.585 NA 
HETATM    3  H   UNL     1      -9.471  11.395  61.566  1.00  0.00     0.000 HD 
ENDROOT
BRANCH   2   4
HETATM    4  N   UNL     1     -10.972  11.237  62.987  1.00  0.00    -0.836 NA 
HETATM    5  H   UNL     1     -11.215  10.462  63.604  1.00  0.00     0.000 HD 
BRANCH   4   6
HETATM    6  C   UNL     1     -11.251  12.546  63.606  1.00  0.00    -0.483 C  
BRANCH   6   7
HETATM    7  C   UNL     1     -11.366  12.411  65.110  1.00  0.00    -0.367 A  
HETATM    8  C   UNL     1     -10.973  11.225  65.750  1.00  0.00    -0.211 A  
HETATM    9  C   UNL     1     -11.140  11.071  67.127  1.00  0.00    -0.333 A  
HETATM   10  C   UNL     1     -11.698  12.103  67.892  1.00  0.00    -0.403 A  
HETATM   11  C   UNL     1     -11.881  13.459  65.889  1.00  0.00    -0.414 A  
HETATM   12  C   UNL     1     -12.042  13.311  67.272  1.00  0.00    -0.341 A  
BRANCH  10  13
HETATM   13  C   UNL     1     -11.893  11.869  69.352  1.00  0.00    -0.327 C  
HETATM   14  O   UNL     1     -11.828  12.810  70.136  1.00  0.00    -0.319 OA 
HETATM   15  N   UNL     1     -12.089  10.559  69.745  1.00  0.00    -0.478 N  
HETATM   16  H   UNL     1     -12.211   9.835  69.037  1.00  0.00     0.000 HD 
BRANCH  15  17
HETATM   17  C   UNL     1     -12.125  10.195  71.157  1.00  0.00    -0.388 C  
HETATM   18  C   UNL     1     -13.438   9.493  71.487  1.00  0.00    -0.444 C  
HETATM   19  C   UNL     1     -10.935   9.306  71.518  1.00  0.00    -0.446 C  
ENDBRANCH  15  17
ENDBRANCH  10  13
ENDBRANCH   6   7
ENDBRANCH   4   6
ENDBRANCH   2   4
TORSDOF 5
ENDMDL
MODEL       21
REMARK 921   NORMALIZED FREE ENERGY PREDICTED BY IDOCK:   -5.12 KCAL/MOL
REMARK 922        TOTAL FREE ENERGY PREDICTED BY IDOCK:   -7.00 KCAL/MOL
REMARK 923 INTER-LIGAND FREE ENERGY PREDICTED BY IDOCK:   -6.71 KCAL/MOL
REMARK 924 INTRA-LIGAND FREE ENERGY PREDICTED BY IDOCK:   -0.30 KCAL/MOL
REMARK 927      BINDING AFFINITY PREDICTED BY RF-SCORE:    0.00 PKD
ROOT
HETATM    1  C   UNL     1     -12.425  16.162  73.645  1.00  0.00    -0.576 C  
HETATM    2  N   UNL     1     -13.882  16.196  73.496  1.00  0.00    -0.797 NA 
HETATM    3  H   UNL     1     -14.248  17.146  73.427  1.00  0.00     0.000 HD 
ENDROOT
BRANCH   2   4
HETATM    4  N   UNL     1     -14.241  15.374  72.352  1.00  0.00    -0.543 NA 
HETATM    5  H   UNL     1     -15.091  15.704  71.894  1.00  0.00     0.000 HD 
BRANCH   4   6
HETATM    6  C   UNL     1     -13.104  15.292  71.417  1.00  0.00    -0.454 C  
BRANCH   6   7
HETATM    7  C   UNL     1     -12.784  13.849  71.090  1.00  0.00    -0.441 A  
HETATM    8  C   UNL     1     -13.245  12.813  71.918  1.00  0.00    -0.511 A  
HETATM    9  C   UNL     1     -12.896  11.487  71.658  1.00  0.00    -0.475 A  
HETATM   10  C   UNL     1     -12.084  11.170  70.562  1.00  0.00    -0.474 A  
HETATM   11  C   UNL     1     -12.010  13.520  69.967  1.00  0.00    -0.410 A  
HETATM   12  C   UNL     1     -11.665  12.190  69.699  1.00  0.00    -0.396 A  
BRANCH  10  13
HETATM   13  C   UNL     1     -11.707   9.742  70.356  1.00  0.00    -0.231 C  
HETATM   14  O   UNL     1     -11.904   8.923  71.247  1.00  0.00    -0.285 OA 
HETATM   15  N   UNL     1     -11.094   9.433  69.156  1.00  0.00    -0.433 N  
HETATM   16  H   UNL     1     -11.030  10.144  68.427  1.00  0.00     0.000 HD 
BRANCH  15  17
HETATM   17  C   UNL     1     -10.536   8.107  68.917  1.00  0.00    -0.185 C  
HETATM   18  C   UNL     1     -10.585   7.776  67.429  1.00  0.00    -0.345 C  
HETATM   19  C   UNL     1      -9.102   8.020  69.439  1.00  0.00    -0.148 C  
ENDBRANCH  15  17
ENDBRANCH  10  13
ENDBRANCH   6   7
ENDBRANCH   4   6
ENDBRANCH   2   4
TORSDOF 5
ENDMDL
MODEL       22
REMARK 921   NORMALIZED FREE ENERGY PREDICTED BY IDOCK:   -5.11 KCAL/MOL
REMARK 922        TOTAL FREE ENERGY PREDICTED BY IDOCK:   -7.00 KCAL/MOL
REMARK 923 INTER-LIGAND FREE ENERGY PREDICTED BY IDOCK:   -6.64 KCAL/MOL
REMARK 924 INTRA-LIGAND FREE ENERGY PREDICTED BY IDOCK:   -0.36 KCAL/MOL
REMARK 927      BINDING AFFINITY PREDICTED BY RF-SCORE:    0.00 PKD
ROOT
HETATM    1  C   UNL     1      -8.810  11.075  62.334  1.00  0.00    -0.307 C  
HETATM    2  N   UNL     1      -9.975  10.254  62.671  1.00  0.00    -0.650 NA 
HETATM    3  H   UNL     1      -9.748   9.492  63.311  1.00  0.00     0.000 HD 
ENDROOT
BRANCH   2   4
HETATM    4  N   UNL     1     -11.014  11.130  63.189  1.00  0.00    -0.823 NA 
HETATM    5  H   UNL     1     -11.950  10.787  62.967  1.00  0.00     0.000 HD 
BRANCH   4   6
HETATM    6  C   UNL     1     -10.826  11.327  64.638  1.00  0.00    -0.265 C  
BRANCH   6   7
HETATM    7  C   UNL     1     -10.802  12.803  64.977  1.00  0.00    -0.319 A  
HETATM    8  C   UNL     1     -11.635  13.703  64.294  1.00  0.00    -0.413 A  
HETATM    9  C   UNL     1     -11.568  15.072  64.557  1.00  0.00    -0.346 A  
HETATM   10  C   UNL     1     -10.671  15.567  65.511  1.00  0.00    -0.395 A  
HETATM   11  C   UNL     1      -9.939  13.300  65.966  1.00  0.00    -0.297 A  
HETATM   12  C   UNL     1      -9.876  14.672  66.237  1.00  0.00    -0.320 A  
BRANCH  10  13
HETATM   13  C   UNL     1     -10.611  17.042  65.721  1.00  0.00    -0.211 C  
HETATM   14  O   UNL     1     -11.019  17.801  64.849  1.00  0.00    -0.866 OA 
HETATM   15  N   UNL     1     -10.034  17.474  66.901  1.00  0.00    -0.300 N  
HETATM   16  H   UNL     1      -9.787  16.793  67.618  1.00  0.00     0.000 HD 
BRANCH  15  17
HETATM   17  C   UNL     1      -9.774  18.890  67.136  1.00  0.00    -0.303 C  
HETATM   18  C   UNL     1      -9.831  19.195  68.629  1.00  0.00    -0.485 C  
HETATM   19  C   UNL     1      -8.420  19.295  66.556  1.00  0.00    -0.336 C  
ENDBRANCH  15  17
ENDBRANCH  10  13
ENDBRANCH   6   7
ENDBRANCH   4   6
ENDBRANCH   2   4
TORSDOF 5
ENDMDL
MODEL       23
REMARK 921   NORMALIZED FREE ENERGY PREDICTED BY IDOCK:   -5.09 KCAL/MOL
REMARK 922        TOTAL FREE ENERGY PREDICTED BY IDOCK:   -6.97 KCAL/MOL
REMARK 923 INTER-LIGAND FREE ENERGY PREDICTED BY IDOCK:   -6.60 KCAL/MOL
REMARK 924 INTRA-LIGAND FREE ENERGY PREDICTED BY IDOCK:   -0.37 KCAL/MOL
REMARK 927      BINDING AFFINITY PREDICTED BY RF-SCORE:    0.00 PKD
ROOT
HETATM    1  C   UNL     1     -11.076  16.139  64.762  1.00  0.00    -0.333 C  
HETATM    2  N   UNL     1     -12.130  15.824  63.794  1.00  0.00    -1.173 NA 
HETATM    3  H   UNL     1     -11.797  15.844  62.830  1.00  0.00     0.000 HD 
ENDROOT
BRANCH   2   4
HETATM    4  N   UNL     1     -12.713  14.543  64.158  1.00  0.00    -0.707 NA 
HETATM    5  H   UNL     1     -13.718  14.515  63.985  1.00  0.00     0.000 HD 
BRANCH   4   6
HETATM    6  C   UNL     1     -12.001  13.454  63.465  1.00  0.00    -0.407 C  
BRANCH   6   7
HETATM    7  C   UNL     1     -11.409  12.481  64.463  1.00  0.00    -0.379 A  
HETATM    8  C   UNL     1     -10.606  11.416  64.027  1.00  0.00    -0.444 A  
HETATM    9  C   UNL     1     -10.113  10.478  64.937  1.00  0.00    -0.403 A  
HETATM   10  C   UNL     1     -10.410  10.592  66.301  1.00  0.00    -0.276 A  
HETATM   11  C   UNL     1     -11.664  12.616  65.836  1.00  0.00    -0.470 A  
HETATM   12  C   UNL     1     -11.164  11.682  66.752  1.00  0.00    -0.371 A  
BRANCH  10  13
HETATM   13  C   UNL     1      -9.894   9.539  67.222  1.00  0.00    -0.177 C  
HETATM   14  O   UNL     1      -8.700   9.498  67.497  1.00  0.00    -0.125 OA 
HETATM   15  N   UNL     1     -10.815   8.617  67.682  1.00  0.00    -0.493 N  
HETATM   16  H   UNL     1     -11.806   8.753  67.480  1.00  0.00     0.000 HD 
BRANCH  15  17
HETATM   17  C   UNL     1     -10.393   7.452  68.452  1.00  0.00    -0.194 C  
HETATM   18  C   UNL     1     -10.780   7.621  69.917  1.00  0.00    -0.253 C  
HETATM   19  C   UNL     1     -11.004   6.174  67.879  1.00  0.00    -0.399 C  
ENDBRANCH  15  17
ENDBRANCH  10  13
ENDBRANCH   6   7
ENDBRANCH   4   6
ENDBRANCH   2   4
TORSDOF 5
ENDMDL
MODEL       24
REMARK 921   NORMALIZED FREE ENERGY PREDICTED BY IDOCK:   -5.09 KCAL/MOL
REMARK 922        TOTAL FREE ENERGY PREDICTED BY IDOCK:   -6.97 KCAL/MOL
REMARK 923 INTER-LIGAND FREE ENERGY PREDICTED BY IDOCK:   -6.66 KCAL/MOL
REMARK 924 INTRA-LIGAND FREE ENERGY PREDICTED BY IDOCK:   -0.31 KCAL/MOL
REMARK 927      BINDING AFFINITY PREDICTED BY RF-SCORE:    0.00 PKD
ROOT
HETATM    1  C   UNL     1     -11.049  16.070  64.806  1.00  0.00    -0.365 C  
HETATM    2  N   UNL     1     -12.033  15.884  63.736  1.00  0.00    -1.266 NA 
HETATM    3  H   UNL     1     -11.749  16.321  62.859  1.00  0.00     0.000 HD 
ENDROOT
BRANCH   2   4
HETATM    4  N   UNL     1     -12.289  14.460  63.595  1.00  0.00    -1.106 NA 
HETATM    5  H   UNL     1     -11.504  13.970  63.164  1.00  0.00     0.000 HD 
BRANCH   4   6
HETATM    6  C   UNL     1     -12.647  13.884  64.904  1.00  0.00    -0.347 C  
BRANCH   6   7
HETATM    7  C   UNL     1     -11.794  12.669  65.206  1.00  0.00    -0.452 A  
HETATM    8  C   UNL     1     -11.584  12.260  66.532  1.00  0.00    -0.440 A  
HETATM    9  C   UNL     1     -10.745  11.182  66.818  1.00  0.00    -0.326 A  
HETATM   10  C   UNL     1     -10.104  10.489  65.783  1.00  0.00    -0.329 A  
HETATM   11  C   UNL     1     -11.187  11.942  64.171  1.00  0.00    -0.446 A  
HETATM   12  C   UNL     1     -10.352  10.855  64.454  1.00  0.00    -0.430 A  
BRANCH  10  13
HETATM   13  C   UNL     1      -9.186   9.373  66.148  1.00  0.00    -0.190 C  
HETATM   14  O   UNL     1      -8.163   9.605  66.783  1.00  0.00    -0.112 OA 
HETATM   15  N   UNL     1      -9.530   8.116  65.688  1.00  0.00    -0.422 N  
HETATM   16  H   UNL     1     -10.432   7.977  65.234  1.00  0.00     0.000 HD 
BRANCH  15  17
HETATM   17  C   UNL     1      -8.623   6.984  65.844  1.00  0.00    -0.145 C  
HETATM   18  C   UNL     1      -9.388   5.760  66.338  1.00  0.00    -0.168 C  
HETATM   19  C   UNL     1      -7.910   6.677  64.528  1.00  0.00    -0.115 C  
ENDBRANCH  15  17
ENDBRANCH  10  13
ENDBRANCH   6   7
ENDBRANCH   4   6
ENDBRANCH   2   4
TORSDOF 5
ENDMDL
MODEL       25
REMARK 921   NORMALIZED FREE ENERGY PREDICTED BY IDOCK:   -5.06 KCAL/MOL
REMARK 922        TOTAL FREE ENERGY PREDICTED BY IDOCK:   -6.93 KCAL/MOL
REMARK 923 INTER-LIGAND FREE ENERGY PREDICTED BY IDOCK:   -7.37 KCAL/MOL
REMARK 924 INTRA-LIGAND FREE ENERGY PREDICTED BY IDOCK:    0.44 KCAL/MOL
REMARK 927      BINDING AFFINITY PREDICTED BY RF-SCORE:    0.00 PKD
ROOT
HETATM    1  C   UNL     1     -11.326  12.237  63.356  1.00  0.00    -0.428 C  
HETATM    2  N   UNL     1     -12.601  12.955  63.426  1.00  0.00    -0.712 NA 
HETATM    3  H   UNL     1     -13.279  12.495  64.033  1.00  0.00     0.000 HD 
ENDROOT
BRANCH   2   4
HETATM    4  N   UNL     1     -12.328  14.326  63.828  1.00  0.00    -1.063 NA 
HETATM    5  H   UNL     1     -13.094  14.726  64.371  1.00  0.00     0.000 HD 
BRANCH   4   6
HETATM    6  C   UNL     1     -11.045  14.389  64.552  1.00  0.00    -0.291 C  
BRANCH   6   7
HETATM    7  C   UNL     1     -11.279  14.522  66.043  1.00  0.00    -0.337 A  
HETATM    8  C   UNL     1     -11.857  13.469  66.769  1.00  0.00    -0.450 A  
HETATM    9  C   UNL     1     -12.135  13.612  68.129  1.00  0.00    -0.310 A  
HETATM   10  C   UNL     1     -11.836  14.810  68.791  1.00  0.00    -0.330 A  
HETATM   11  C   UNL     1     -10.938  15.702  66.721  1.00  0.00    -0.230 A  
HETATM   12  C   UNL     1     -11.209  15.846  68.088  1.00  0.00    -0.339 A  
BRANCH  10  13
HETATM   13  C   UNL     1     -12.194  14.923  70.233  1.00  0.00    -0.335 C  
HETATM   14  O   UNL     1     -11.397  14.562  71.092  1.00  0.00    -0.153 OA 
HETATM   15  N   UNL     1     -13.461  15.396  70.519  1.00  0.00    -0.793 N  
HETATM   16  H   UNL     1     -14.046  15.753  69.763  1.00  0.00     0.000 HD 
BRANCH  15  17
HETATM   17  C   UNL     1     -13.976  15.393  71.884  1.00  0.00    -0.528 C  
HETATM   18  C   UNL     1     -14.317  13.970  72.314  1.00  0.00    -0.520 C  
HETATM   19  C   UNL     1     -12.963  16.016  72.845  1.00  0.00    -0.555 C  
ENDBRANCH  15  17
ENDBRANCH  10  13
ENDBRANCH   6   7
ENDBRANCH   4   6
ENDBRANCH   2   4
TORSDOF 5
ENDMDL
MODEL       26
REMARK 921   NORMALIZED FREE ENERGY PREDICTED BY IDOCK:   -5.00 KCAL/MOL
REMARK 922        TOTAL FREE ENERGY PREDICTED BY IDOCK:   -6.85 KCAL/MOL
REMARK 923 INTER-LIGAND FREE ENERGY PREDICTED BY IDOCK:   -6.55 KCAL/MOL
REMARK 924 INTRA-LIGAND FREE ENERGY PREDICTED BY IDOCK:   -0.30 KCAL/MOL
REMARK 927      BINDING AFFINITY PREDICTED BY RF-SCORE:    0.00 PKD
ROOT
HETATM    1  C   UNL     1     -12.478   7.112  71.476  1.00  0.00    -0.381 C  
HETATM    2  N   UNL     1     -13.856   7.345  71.036  1.00  0.00    -0.609 NA 
HETATM    3  H   UNL     1     -14.540   6.842  71.601  1.00  0.00     0.000 HD 
ENDROOT
BRANCH   2   4
HETATM    4  N   UNL     1     -14.091   8.780  71.019  1.00  0.00    -0.590 NA 
HETATM    5  H   UNL     1     -15.058   9.013  71.246  1.00  0.00     0.000 HD 
BRANCH   4   6
HETATM    6  C   UNL     1     -13.133   9.455  71.914  1.00  0.00    -0.424 C  
BRANCH   6   7
HETATM    7  C   UNL     1     -12.831  10.853  71.416  1.00  0.00    -0.554 A  
HETATM    8  C   UNL     1     -13.338  11.973  72.093  1.00  0.00    -0.396 A  
HETATM    9  C   UNL     1     -13.118  13.261  71.600  1.00  0.00    -0.453 A  
HETATM   10  C   UNL     1     -12.382  13.453  70.424  1.00  0.00    -0.382 A  
HETATM   11  C   UNL     1     -12.054  11.054  70.266  1.00  0.00    -0.448 A  
HETATM   12  C   UNL     1     -11.825  12.345  69.773  1.00  0.00    -0.387 A  
BRANCH  10  13
HETATM   13  C   UNL     1     -12.213  14.845  69.920  1.00  0.00    -0.309 C  
HETATM   14  O   UNL     1     -12.928  15.743  70.353  1.00  0.00    -0.409 OA 
HETATM   15  N   UNL     1     -11.269  15.032  68.929  1.00  0.00    -0.261 N  
HETATM   16  H   UNL     1     -10.654  14.261  68.669  1.00  0.00     0.000 HD 
BRANCH  15  17
HETATM   17  C   UNL     1     -11.136  16.316  68.249  1.00  0.00    -0.346 C  
HETATM   18  C   UNL     1     -10.226  17.243  69.047  1.00  0.00    -0.318 C  
HETATM   19  C   UNL     1     -10.598  16.124  66.831  1.00  0.00    -0.283 C  
ENDBRANCH  15  17
ENDBRANCH  10  13
ENDBRANCH   6   7
ENDBRANCH   4   6
ENDBRANCH   2   4
TORSDOF 5
ENDMDL
MODEL       27
REMARK 921   NORMALIZED FREE ENERGY PREDICTED BY IDOCK:   -5.00 KCAL/MOL
REMARK 922        TOTAL FREE ENERGY PREDICTED BY IDOCK:   -6.85 KCAL/MOL
REMARK 923 INTER-LIGAND FREE ENERGY PREDICTED BY IDOCK:   -6.53 KCAL/MOL
REMARK 924 INTRA-LIGAND FREE ENERGY PREDICTED BY IDOCK:   -0.32 KCAL/MOL
REMARK 927      BINDING AFFINITY PREDICTED BY RF-SCORE:    0.00 PKD
ROOT
HETATM    1  C   UNL     1     -12.253  13.454  63.503  1.00  0.00    -0.400 C  
HETATM    2  N   UNL     1     -11.234  12.480  63.102  1.00  0.00    -0.738 NA 
HETATM    3  H   UNL     1     -10.941  12.593  62.131  1.00  0.00     0.000 HD 
ENDROOT
BRANCH   2   4
HETATM    4  N   UNL     1     -10.124  12.573  64.036  1.00  0.00    -0.569 NA 
HETATM    5  H   UNL     1     -10.304  13.249  64.779  1.00  0.00     0.000 HD 
BRANCH   4   6
HETATM    6  C   UNL     1      -9.805  11.236  64.569  1.00  0.00    -0.270 C  
BRANCH   6   7
HETATM    7  C   UNL     1     -10.399  11.056  65.951  1.00  0.00    -0.315 A  
HETATM    8  C   UNL     1     -11.076  12.114  66.577  1.00  0.00    -0.352 A  
HETATM    9  C   UNL     1     -11.566  11.974  67.876  1.00  0.00    -0.405 A  
HETATM   10  C   UNL     1     -11.394  10.771  68.572  1.00  0.00    -0.360 A  
HETATM   11  C   UNL     1     -10.271   9.838  66.635  1.00  0.00    -0.296 A  
HETATM   12  C   UNL     1     -10.769   9.692  67.936  1.00  0.00    -0.302 A  
BRANCH  10  13
HETATM   13  C   UNL     1     -11.899  10.691  69.972  1.00  0.00    -0.322 C  
HETATM   14  O   UNL     1     -12.097  11.719  70.611  1.00  0.00    -0.368 OA 
HETATM   15  N   UNL     1     -12.069   9.423  70.495  1.00  0.00    -0.467 N  
HETATM   16  H   UNL     1     -11.962   8.611  69.887  1.00  0.00     0.000 HD 
BRANCH  15  17
HETATM   17  C   UNL     1     -12.399   9.227  71.903  1.00  0.00    -0.382 C  
HETATM   18  C   UNL     1     -13.876   8.879  72.053  1.00  0.00    -0.511 C  
HETATM   19  C   UNL     1     -11.524   8.135  72.517  1.00  0.00    -0.470 C  
ENDBRANCH  15  17
ENDBRANCH  10  13
ENDBRANCH   6   7
ENDBRANCH   4   6
ENDBRANCH   2   4
TORSDOF 5
ENDMDL
MODEL       28
REMARK 921   NORMALIZED FREE ENERGY PREDICTED BY IDOCK:   -4.99 KCAL/MOL
REMARK 922        TOTAL FREE ENERGY PREDICTED BY IDOCK:   -6.85 KCAL/MOL
REMARK 923 INTER-LIGAND FREE ENERGY PREDICTED BY IDOCK:   -6.41 KCAL/MOL
REMARK 924 INTRA-LIGAND FREE ENERGY PREDICTED BY IDOCK:   -0.44 KCAL/MOL
REMARK 927      BINDING AFFINITY PREDICTED BY RF-SCORE:    0.00 PKD
ROOT
HETATM    1  C   UNL     1     -14.341   7.476  71.589  1.00  0.00    -0.477 C  
HETATM    2  N   UNL     1     -13.010   6.947  71.899  1.00  0.00    -0.524 NA 
HETATM    3  H   UNL     1     -12.522   6.600  71.072  1.00  0.00     0.000 HD 
ENDROOT
BRANCH   2   4
HETATM    4  N   UNL     1     -12.262   7.978  72.599  1.00  0.00    -0.599 NA 
HETATM    5  H   UNL     1     -12.061   7.716  73.565  1.00  0.00     0.000 HD 
BRANCH   4   6
HETATM    6  C   UNL     1     -11.037   8.306  71.848  1.00  0.00    -0.292 C  
BRANCH   6   7
HETATM    7  C   UNL     1     -11.307   9.402  70.838  1.00  0.00    -0.386 A  
HETATM    8  C   UNL     1     -10.803   9.304  69.532  1.00  0.00    -0.211 A  
HETATM    9  C   UNL     1     -10.992  10.342  68.618  1.00  0.00    -0.288 A  
HETATM   10  C   UNL     1     -11.694  11.495  68.991  1.00  0.00    -0.400 A  
HETATM   11  C   UNL     1     -12.049  10.538  71.192  1.00  0.00    -0.473 A  
HETATM   12  C   UNL     1     -12.248  11.578  70.274  1.00  0.00    -0.415 A  
BRANCH  10  13
HETATM   13  C   UNL     1     -11.829  12.591  67.989  1.00  0.00    -0.325 C  
HETATM   14  O   UNL     1     -12.163  13.714  68.351  1.00  0.00    -0.332 OA 
HETATM   15  N   UNL     1     -11.613  12.247  66.668  1.00  0.00    -0.378 N  
HETATM   16  H   UNL     1     -11.262  11.317  66.441  1.00  0.00     0.000 HD 
BRANCH  15  17
HETATM   17  C   UNL     1     -11.879  13.196  65.591  1.00  0.00    -0.387 C  
HETATM   18  C   UNL     1     -10.586  13.882  65.163  1.00  0.00    -0.391 C  
HETATM   19  C   UNL     1     -12.535  12.494  64.402  1.00  0.00    -0.530 C  
ENDBRANCH  15  17
ENDBRANCH  10  13
ENDBRANCH   6   7
ENDBRANCH   4   6
ENDBRANCH   2   4
TORSDOF 5
ENDMDL
MODEL       29
REMARK 921   NORMALIZED FREE ENERGY PREDICTED BY IDOCK:   -4.96 KCAL/MOL
REMARK 922        TOTAL FREE ENERGY PREDICTED BY IDOCK:   -6.80 KCAL/MOL
REMARK 923 INTER-LIGAND FREE ENERGY PREDICTED BY IDOCK:   -6.44 KCAL/MOL
REMARK 924 INTRA-LIGAND FREE ENERGY PREDICTED BY IDOCK:   -0.36 KCAL/MOL
REMARK 927      BINDING AFFINITY PREDICTED BY RF-SCORE:    0.00 PKD
ROOT
HETATM    1  C   UNL     1     -12.152  12.796  63.381  1.00  0.00    -0.534 C  
HETATM    2  N   UNL     1     -12.894  12.421  64.588  1.00  0.00    -0.774 NA 
HETATM    3  H   UNL     1     -12.455  11.653  65.097  1.00  0.00     0.000 HD 
ENDROOT
BRANCH   2   4
HETATM    4  N   UNL     1     -13.063  13.611  65.406  1.00  0.00    -0.678 NA 
HETATM    5  H   UNL     1     -14.046  13.815  65.588  1.00  0.00     0.000 HD 
BRANCH   4   6
HETATM    6  C   UNL     1     -12.285  13.478  66.651  1.00  0.00    -0.358 C  
BRANCH   6   7
HETATM    7  C   UNL     1     -11.565  14.771  66.973  1.00  0.00    -0.352 A  
HETATM    8  C   UNL     1     -11.634  15.321  68.262  1.00  0.00    -0.357 A  
HETATM    9  C   UNL     1     -11.028  16.546  68.546  1.00  0.00    -0.350 A  
HETATM   10  C   UNL     1     -10.337  17.242  67.546  1.00  0.00    -0.346 A  
HETATM   11  C   UNL     1     -10.831  15.449  65.988  1.00  0.00    -0.315 A  
HETATM   12  C   UNL     1     -10.215  16.675  66.272  1.00  0.00    -0.344 A  
BRANCH  10  13
HETATM   13  C   UNL     1      -9.745  18.566  67.893  1.00  0.00    -0.314 C  
HETATM   14  O   UNL     1     -10.434  19.578  67.831  1.00  0.00    -0.417 OA 
HETATM   15  N   UNL     1      -8.403  18.574  68.223  1.00  0.00    -0.312 N  
HETATM   16  H   UNL     1      -7.907  17.689  68.332  1.00  0.00     0.000 HD 
BRANCH  15  17
HETATM   17  C   UNL     1      -7.684  19.828  68.417  1.00  0.00    -0.301 C  
HETATM   18  C   UNL     1      -6.681  19.689  69.557  1.00  0.00    -0.379 C  
HETATM   19  C   UNL     1      -6.978  20.253  67.129  1.00  0.00    -0.304 C  
ENDBRANCH  15  17
ENDBRANCH  10  13
ENDBRANCH   6   7
ENDBRANCH   4   6
ENDBRANCH   2   4
TORSDOF 5
ENDMDL
MODEL       30
REMARK 921   NORMALIZED FREE ENERGY PREDICTED BY IDOCK:   -4.92 KCAL/MOL
REMARK 922        TOTAL FREE ENERGY PREDICTED BY IDOCK:   -6.75 KCAL/MOL
REMARK 923 INTER-LIGAND FREE ENERGY PREDICTED BY IDOCK:   -6.39 KCAL/MOL
REMARK 924 INTRA-LIGAND FREE ENERGY PREDICTED BY IDOCK:   -0.36 KCAL/MOL
REMARK 927      BINDING AFFINITY PREDICTED BY RF-SCORE:    0.00 PKD
ROOT
HETATM    1  C   UNL     1     -11.359   6.220  71.373  1.00  0.00    -0.296 C  
HETATM    2  N   UNL     1     -11.927   6.518  72.690  1.00  0.00    -0.509 NA 
HETATM    3  H   UNL     1     -11.507   5.962  73.435  1.00  0.00     0.000 HD 
ENDROOT
BRANCH   2   4
HETATM    4  N   UNL     1     -11.808   7.948  72.923  1.00  0.00    -0.616 NA 
HETATM    5  H   UNL     1     -10.957   8.334  72.513  1.00  0.00     0.000 HD 
BRANCH   4   6
HETATM    6  C   UNL     1     -13.018   8.637  72.439  1.00  0.00    -0.351 C  
BRANCH   6   7
HETATM    7  C   UNL     1     -12.647   9.847  71.606  1.00  0.00    -0.519 A  
HETATM    8  C   UNL     1     -13.185  11.108  71.907  1.00  0.00    -0.488 A  
HETATM    9  C   UNL     1     -12.899  12.213  71.103  1.00  0.00    -0.313 A  
HETATM   10  C   UNL     1     -12.064  12.078  69.986  1.00  0.00    -0.355 A  
HETATM   11  C   UNL     1     -11.774   9.729  70.515  1.00  0.00    -0.343 A  
HETATM   12  C   UNL     1     -11.478  10.837  69.711  1.00  0.00    -0.386 A  
BRANCH  10  13
HETATM   13  C   UNL     1     -11.827  13.281  69.138  1.00  0.00    -0.329 C  
HETATM   14  O   UNL     1     -11.706  14.384  69.660  1.00  0.00    -0.272 OA 
HETATM   15  N   UNL     1     -11.808  13.077  67.771  1.00  0.00    -0.358 N  
HETATM   16  H   UNL     1     -11.835  12.126  67.404  1.00  0.00     0.000 HD 
BRANCH  15  17
HETATM   17  C   UNL     1     -11.749  14.202  66.844  1.00  0.00    -0.414 C  
HETATM   18  C   UNL     1     -10.305  14.467  66.428  1.00  0.00    -0.289 C  
HETATM   19  C   UNL     1     -12.621  13.938  65.617  1.00  0.00    -0.553 C  
ENDBRANCH  15  17
ENDBRANCH  10  13
ENDBRANCH   6   7
ENDBRANCH   4   6
ENDBRANCH   2   4
TORSDOF 5
ENDMDL
MODEL       31
REMARK 921   NORMALIZED FREE ENERGY PREDICTED BY IDOCK:   -4.91 KCAL/MOL
REMARK 922        TOTAL FREE ENERGY PREDICTED BY IDOCK:   -6.74 KCAL/MOL
REMARK 923 INTER-LIGAND FREE ENERGY PREDICTED BY IDOCK:   -6.42 KCAL/MOL
REMARK 924 INTRA-LIGAND FREE ENERGY PREDICTED BY IDOCK:   -0.32 KCAL/MOL
REMARK 927      BINDING AFFINITY PREDICTED BY RF-SCORE:    0.00 PKD
ROOT
HETATM    1  C   UNL     1     -10.195  19.844  66.652  1.00  0.00    -0.485 C  
HETATM    2  N   UNL     1     -10.460  18.848  65.610  1.00  0.00    -0.562 NA 
HETATM    3  H   UNL     1     -10.173  19.161  64.683  1.00  0.00     0.000 HD 
ENDROOT
BRANCH   2   4
HETATM    4  N   UNL     1      -9.825  17.601  66.003  1.00  0.00    -0.524 NA 
HETATM    5  H   UNL     1      -8.894  17.500  65.595  1.00  0.00     0.000 HD 
BRANCH   4   6
HETATM    6  C   UNL     1      -9.800  17.492  67.473  1.00  0.00    -0.293 C  
BRANCH   6   7
HETATM    7  C   UNL     1     -10.264  16.120  67.915  1.00  0.00    -0.261 A  
HETATM    8  C   UNL     1      -9.485  14.984  67.642  1.00  0.00    -0.195 A  
HETATM    9  C   UNL     1      -9.940  13.711  67.988  1.00  0.00    -0.247 A  
HETATM   10  C   UNL     1     -11.180  13.549  68.620  1.00  0.00    -0.311 A  
HETATM   11  C   UNL     1     -11.482  15.956  68.591  1.00  0.00    -0.391 A  
HETATM   12  C   UNL     1     -11.937  14.681  68.947  1.00  0.00    -0.309 A  
BRANCH  10  13
HETATM   13  C   UNL     1     -11.636  12.164  68.929  1.00  0.00    -0.324 C  
HETATM   14  O   UNL     1     -12.093  11.457  68.037  1.00  0.00    -0.629 OA 
HETATM   15  N   UNL     1     -11.558  11.770  70.252  1.00  0.00    -0.517 N  
HETATM   16  H   UNL     1     -11.096  12.375  70.930  1.00  0.00     0.000 HD 
BRANCH  15  17
HETATM   17  C   UNL     1     -12.128  10.502  70.693  1.00  0.00    -0.356 C  
HETATM   18  C   UNL     1     -11.020   9.555  71.141  1.00  0.00    -0.438 C  
HETATM   19  C   UNL     1     -13.134  10.724  71.822  1.00  0.00    -0.573 C  
ENDBRANCH  15  17
ENDBRANCH  10  13
ENDBRANCH   6   7
ENDBRANCH   4   6
ENDBRANCH   2   4
TORSDOF 5
ENDMDL
MODEL       32
REMARK 921   NORMALIZED FREE ENERGY PREDICTED BY IDOCK:   -4.90 KCAL/MOL
REMARK 922        TOTAL FREE ENERGY PREDICTED BY IDOCK:   -6.73 KCAL/MOL
REMARK 923 INTER-LIGAND FREE ENERGY PREDICTED BY IDOCK:   -6.39 KCAL/MOL
REMARK 924 INTRA-LIGAND FREE ENERGY PREDICTED BY IDOCK:   -0.34 KCAL/MOL
REMARK 927      BINDING AFFINITY PREDICTED BY RF-SCORE:    0.00 PKD
ROOT
HETATM    1  C   UNL     1     -10.578   4.598  72.407  1.00  0.00    -0.157 C  
HETATM    2  N   UNL     1     -11.645   5.286  73.139  1.00  0.00    -0.522 NA 
HETATM    3  H   UNL     1     -11.636   5.076  74.137  1.00  0.00     0.000 HD 
ENDROOT
BRANCH   2   4
HETATM    4  N   UNL     1     -11.539   6.710  72.865  1.00  0.00    -0.492 NA 
HETATM    5  H   UNL     1     -10.603   7.069  73.056  1.00  0.00     0.000 HD 
BRANCH   4   6
HETATM    6  C   UNL     1     -11.965   6.986  71.481  1.00  0.00    -0.334 C  
BRANCH   6   7
HETATM    7  C   UNL     1     -12.000   8.478  71.220  1.00  0.00    -0.334 A  
HETATM    8  C   UNL     1     -12.793   9.320  72.016  1.00  0.00    -0.495 A  
HETATM    9  C   UNL     1     -12.880  10.685  71.739  1.00  0.00    -0.549 A  
HETATM   10  C   UNL     1     -12.172  11.235  70.662  1.00  0.00    -0.489 A  
HETATM   11  C   UNL     1     -11.256   9.043  70.174  1.00  0.00    -0.191 A  
HETATM   12  C   UNL     1     -11.336  10.413  69.897  1.00  0.00    -0.370 A  
BRANCH  10  13
HETATM   13  C   UNL     1     -12.336  12.691  70.385  1.00  0.00    -0.237 C  
HETATM   14  O   UNL     1     -11.934  13.161  69.326  1.00  0.00    -0.311 OA 
HETATM   15  N   UNL     1     -12.901  13.451  71.392  1.00  0.00    -0.355 N  
HETATM   16  H   UNL     1     -13.285  12.988  72.215  1.00  0.00     0.000 HD 
BRANCH  15  17
HETATM   17  C   UNL     1     -12.957  14.905  71.295  1.00  0.00    -0.363 C  
HETATM   18  C   UNL     1     -14.303  15.415  71.799  1.00  0.00    -0.639 C  
HETATM   19  C   UNL     1     -11.812  15.544  72.080  1.00  0.00    -0.551 C  
ENDBRANCH  15  17
ENDBRANCH  10  13
ENDBRANCH   6   7
ENDBRANCH   4   6
ENDBRANCH   2   4
TORSDOF 5
ENDMDL
MODEL       33
REMARK 921   NORMALIZED FREE ENERGY PREDICTED BY IDOCK:   -4.90 KCAL/MOL
REMARK 922        TOTAL FREE ENERGY PREDICTED BY IDOCK:   -6.72 KCAL/MOL
REMARK 923 INTER-LIGAND FREE ENERGY PREDICTED BY IDOCK:   -6.40 KCAL/MOL
REMARK 924 INTRA-LIGAND FREE ENERGY PREDICTED BY IDOCK:   -0.31 KCAL/MOL
REMARK 927      BINDING AFFINITY PREDICTED BY RF-SCORE:    0.00 PKD
ROOT
HETATM    1  C   UNL     1     -10.395   5.263  74.022  1.00  0.00    -0.269 C  
HETATM    2  N   UNL     1     -11.707   5.025  73.413  1.00  0.00    -0.449 NA 
HETATM    3  H   UNL     1     -12.419   4.774  74.099  1.00  0.00     0.000 HD 
ENDROOT
BRANCH   2   4
HETATM    4  N   UNL     1     -12.067   6.200  72.636  1.00  0.00    -0.530 NA 
HETATM    5  H   UNL     1     -13.042   6.468  72.775  1.00  0.00     0.000 HD 
BRANCH   4   6
HETATM    6  C   UNL     1     -11.140   7.305  72.941  1.00  0.00    -0.325 C  
BRANCH   6   7
HETATM    7  C   UNL     1     -11.367   8.468  71.998  1.00  0.00    -0.425 A  
HETATM    8  C   UNL     1     -10.359   8.867  71.106  1.00  0.00    -0.338 A  
HETATM    9  C   UNL     1     -10.539   9.980  70.282  1.00  0.00    -0.354 A  
HETATM   10  C   UNL     1     -11.732  10.711  70.331  1.00  0.00    -0.446 A  
HETATM   11  C   UNL     1     -12.578   9.176  72.007  1.00  0.00    -0.463 A  
HETATM   12  C   UNL     1     -12.765  10.288  71.177  1.00  0.00    -0.502 A  
BRANCH  10  13
HETATM   13  C   UNL     1     -11.854  11.916  69.461  1.00  0.00    -0.331 C  
HETATM   14  O   UNL     1     -12.102  11.786  68.267  1.00  0.00    -0.525 OA 
HETATM   15  N   UNL     1     -11.621  13.138  70.063  1.00  0.00    -0.520 N  
HETATM   16  H   UNL     1     -11.497  13.183  71.075  1.00  0.00     0.000 HD 
BRANCH  15  17
HETATM   17  C   UNL     1     -11.551  14.363  69.275  1.00  0.00    -0.304 C  
HETATM   18  C   UNL     1     -12.125  15.533  70.068  1.00  0.00    -0.391 C  
HETATM   19  C   UNL     1     -10.110  14.655  68.856  1.00  0.00    -0.234 C  
ENDBRANCH  15  17
ENDBRANCH  10  13
ENDBRANCH   6   7
ENDBRANCH   4   6
ENDBRANCH   2   4
TORSDOF 5
ENDMDL
MODEL       34
REMARK 921   NORMALIZED FREE ENERGY PREDICTED BY IDOCK:   -4.87 KCAL/MOL
REMARK 922        TOTAL FREE ENERGY PREDICTED BY IDOCK:   -6.68 KCAL/MOL
REMARK 923 INTER-LIGAND FREE ENERGY PREDICTED BY IDOCK:   -6.59 KCAL/MOL
REMARK 924 INTRA-LIGAND FREE ENERGY PREDICTED BY IDOCK:   -0.09 KCAL/MOL
REMARK 927      BINDING AFFINITY PREDICTED BY RF-SCORE:    0.00 PKD
ROOT
HETATM    1  C   UNL     1      -9.901  11.213  63.712  1.00  0.00    -0.331 C  
HETATM    2  N   UNL     1     -11.157  10.995  62.990  1.00  0.00    -0.725 NA 
HETATM    3  H   UNL     1     -11.655  10.164  63.309  1.00  0.00     0.000 HD 
ENDROOT
BRANCH   2   4
HETATM    4  N   UNL     1     -11.959  12.204  63.098  1.00  0.00    -0.739 NA 
HETATM    5  H   UNL     1     -12.784  12.171  62.499  1.00  0.00     0.000 HD 
BRANCH   4   6
HETATM    6  C   UNL     1     -12.309  12.448  64.510  1.00  0.00    -0.438 C  
BRANCH   6   7
HETATM    7  C   UNL     1     -11.645  13.712  65.014  1.00  0.00    -0.345 A  
HETATM    8  C   UNL     1     -11.892  14.943  64.386  1.00  0.00    -0.372 A  
HETATM    9  C   UNL     1     -11.231  16.100  64.805  1.00  0.00    -0.313 A  
HETATM   10  C   UNL     1     -10.315  16.048  65.863  1.00  0.00    -0.386 A  
HETATM   11  C   UNL     1     -10.762  13.676  66.104  1.00  0.00    -0.286 A  
HETATM   12  C   UNL     1     -10.104  14.836  66.531  1.00  0.00    -0.281 A  
BRANCH  10  13
HETATM   13  C   UNL     1      -9.607  17.304  66.241  1.00  0.00    -0.248 C  
HETATM   14  O   UNL     1      -8.484  17.528  65.803  1.00  0.00    -0.530 OA 
HETATM   15  N   UNL     1     -10.260  18.137  67.129  1.00  0.00    -0.350 N  
HETATM   16  H   UNL     1     -11.224  17.933  67.394  1.00  0.00     0.000 HD 
BRANCH  15  17
HETATM   17  C   UNL     1      -9.594  19.306  67.693  1.00  0.00    -0.315 C  
HETATM   18  C   UNL     1      -9.890  20.540  66.847  1.00  0.00    -0.506 C  
HETATM   19  C   UNL     1     -10.028  19.530  69.141  1.00  0.00    -0.429 C  
ENDBRANCH  15  17
ENDBRANCH  10  13
ENDBRANCH   6   7
ENDBRANCH   4   6
ENDBRANCH   2   4
TORSDOF 5
ENDMDL
MODEL       35
REMARK 921   NORMALIZED FREE ENERGY PREDICTED BY IDOCK:   -4.85 KCAL/MOL
REMARK 922        TOTAL FREE ENERGY PREDICTED BY IDOCK:   -6.66 KCAL/MOL
REMARK 923 INTER-LIGAND FREE ENERGY PREDICTED BY IDOCK:   -6.30 KCAL/MOL
REMARK 924 INTRA-LIGAND FREE ENERGY PREDICTED BY IDOCK:   -0.36 KCAL/MOL
REMARK 927      BINDING AFFINITY PREDICTED BY RF-SCORE:    0.00 PKD
ROOT
HETATM    1  C   UNL     1     -12.395   6.687  71.479  1.00  0.00    -0.313 C  
HETATM    2  N   UNL     1     -13.779   6.935  71.890  1.00  0.00    -0.495 NA 
HETATM    3  H   UNL     1     -13.916   6.830  72.895  1.00  0.00     0.000 HD 
ENDROOT
BRANCH   2   4
HETATM    4  N   UNL     1     -14.168   8.250  71.405  1.00  0.00    -0.615 NA 
HETATM    5  H   UNL     1     -15.178   8.329  71.281  1.00  0.00     0.000 HD 
BRANCH   4   6
HETATM    6  C   UNL     1     -13.638   9.291  72.303  1.00  0.00    -0.480 C  
BRANCH   6   7
HETATM    7  C   UNL     1     -13.034  10.428  71.505  1.00  0.00    -0.562 A  
HETATM    8  C   UNL     1     -13.276  11.761  71.872  1.00  0.00    -0.468 A  
HETATM    9  C   UNL     1     -12.778  12.812  71.100  1.00  0.00    -0.355 A  
HETATM   10  C   UNL     1     -12.022  12.550  69.950  1.00  0.00    -0.371 A  
HETATM   11  C   UNL     1     -12.237  10.172  70.379  1.00  0.00    -0.300 A  
HETATM   12  C   UNL     1     -11.728  11.225  69.608  1.00  0.00    -0.420 A  
BRANCH  10  13
HETATM   13  C   UNL     1     -11.551  13.709  69.140  1.00  0.00    -0.309 C  
HETATM   14  O   UNL     1     -11.966  13.866  67.997  1.00  0.00    -0.361 OA 
HETATM   15  N   UNL     1     -10.608  14.531  69.730  1.00  0.00    -0.449 N  
HETATM   16  H   UNL     1     -10.363  14.392  70.710  1.00  0.00     0.000 HD 
BRANCH  15  17
HETATM   17  C   UNL     1      -9.957  15.594  68.971  1.00  0.00    -0.233 C  
HETATM   18  C   UNL     1     -10.655  16.925  69.227  1.00  0.00    -0.325 C  
HETATM   19  C   UNL     1      -8.475  15.686  69.332  1.00  0.00    -0.244 C  
ENDBRANCH  15  17
ENDBRANCH  10  13
ENDBRANCH   6   7
ENDBRANCH   4   6
ENDBRANCH   2   4
TORSDOF 5
ENDMDL
MODEL       36
REMARK 921   NORMALIZED FREE ENERGY PREDICTED BY IDOCK:   -4.84 KCAL/MOL
REMARK 922        TOTAL FREE ENERGY PREDICTED BY IDOCK:   -6.64 KCAL/MOL
REMARK 923 INTER-LIGAND FREE ENERGY PREDICTED BY IDOCK:   -6.43 KCAL/MOL
REMARK 924 INTRA-LIGAND FREE ENERGY PREDICTED BY IDOCK:   -0.21 KCAL/MOL
REMARK 927      BINDING AFFINITY PREDICTED BY RF-SCORE:    0.00 PKD
ROOT
HETATM    1  C   UNL     1      -9.995   5.558  70.271  1.00  0.00    -0.216 C  
HETATM    2  N   UNL     1     -11.009   5.985  69.303  1.00  0.00    -0.357 NA 
HETATM    3  H   UNL     1     -11.361   5.213  68.736  1.00  0.00     0.000 HD 
ENDROOT
BRANCH   2   4
HETATM    4  N   UNL     1     -12.064   6.677  70.024  1.00  0.00    -0.596 NA 
HETATM    5  H   UNL     1     -12.784   6.037  70.359  1.00  0.00     0.000 HD 
BRANCH   4   6
HETATM    6  C   UNL     1     -11.481   7.475  71.119  1.00  0.00    -0.273 C  
BRANCH   6   7
HETATM    7  C   UNL     1     -11.786   8.946  70.929  1.00  0.00    -0.312 A  
HETATM    8  C   UNL     1     -11.109   9.692  69.951  1.00  0.00    -0.268 A  
HETATM    9  C   UNL     1     -11.339  11.062  69.817  1.00  0.00    -0.366 A  
HETATM   10  C   UNL     1     -12.253  11.712  70.656  1.00  0.00    -0.461 A  
HETATM   11  C   UNL     1     -12.735   9.593  71.734  1.00  0.00    -0.510 A  
HETATM   12  C   UNL     1     -12.973  10.966  71.597  1.00  0.00    -0.569 A  
BRANCH  10  13
HETATM   13  C   UNL     1     -12.427  13.184  70.498  1.00  0.00    -0.248 C  
HETATM   14  O   UNL     1     -12.117  13.728  69.444  1.00  0.00    -0.326 OA 
HETATM   15  N   UNL     1     -12.894  13.872  71.603  1.00  0.00    -0.342 N  
HETATM   16  H   UNL     1     -13.208  13.352  72.422  1.00  0.00     0.000 HD 
BRANCH  15  17
HETATM   17  C   UNL     1     -12.945  15.329  71.615  1.00  0.00    -0.408 C  
HETATM   18  C   UNL     1     -13.782  15.817  72.793  1.00  0.00    -0.639 C  
HETATM   19  C   UNL     1     -11.537  15.920  71.675  1.00  0.00    -0.541 C  
ENDBRANCH  15  17
ENDBRANCH  10  13
ENDBRANCH   6   7
ENDBRANCH   4   6
ENDBRANCH   2   4
TORSDOF 5
ENDMDL
MODEL       37
REMARK 921   NORMALIZED FREE ENERGY PREDICTED BY IDOCK:   -4.83 KCAL/MOL
REMARK 922        TOTAL FREE ENERGY PREDICTED BY IDOCK:   -6.63 KCAL/MOL
REMARK 923 INTER-LIGAND FREE ENERGY PREDICTED BY IDOCK:   -6.35 KCAL/MOL
REMARK 924 INTRA-LIGAND FREE ENERGY PREDICTED BY IDOCK:   -0.27 KCAL/MOL
REMARK 927      BINDING AFFINITY PREDICTED BY RF-SCORE:    0.00 PKD
ROOT
HETATM    1  C   UNL     1     -12.118  16.260  73.133  1.00  0.00    -0.509 C  
HETATM    2  N   UNL     1     -13.441  15.631  73.154  1.00  0.00    -0.593 NA 
HETATM    3  H   UNL     1     -14.042  15.953  72.396  1.00  0.00     0.000 HD 
ENDROOT
BRANCH   2   4
HETATM    4  N   UNL     1     -13.259  14.188  73.150  1.00  0.00    -0.569 NA 
HETATM    5  H   UNL     1     -13.565  13.760  74.024  1.00  0.00     0.000 HD 
BRANCH   4   6
HETATM    6  C   UNL     1     -13.936  13.602  71.979  1.00  0.00    -0.428 C  
BRANCH   6   7
HETATM    7  C   UNL     1     -13.124  12.456  71.411  1.00  0.00    -0.299 A  
HETATM    8  C   UNL     1     -12.245  12.672  70.338  1.00  0.00    -0.368 A  
HETATM    9  C   UNL     1     -11.545  11.608  69.768  1.00  0.00    -0.389 A  
HETATM   10  C   UNL     1     -11.707  10.308  70.262  1.00  0.00    -0.388 A  
HETATM   11  C   UNL     1     -13.246  11.160  71.932  1.00  0.00    -0.488 A  
HETATM   12  C   UNL     1     -12.539  10.091  71.367  1.00  0.00    -0.518 A  
BRANCH  10  13
HETATM   13  C   UNL     1     -10.968   9.202  69.588  1.00  0.00    -0.153 C  
HETATM   14  O   UNL     1     -10.352   8.380  70.257  1.00  0.00    -0.197 OA 
HETATM   15  N   UNL     1     -10.983   9.205  68.206  1.00  0.00    -0.477 N  
HETATM   16  H   UNL     1     -11.578   9.869  67.711  1.00  0.00     0.000 HD 
BRANCH  15  17
HETATM   17  C   UNL     1     -10.161   8.271  67.443  1.00  0.00    -0.233 C  
HETATM   18  C   UNL     1     -10.911   6.960  67.232  1.00  0.00    -0.406 C  
HETATM   19  C   UNL     1      -9.754   8.880  66.102  1.00  0.00    -0.338 C  
ENDBRANCH  15  17
ENDBRANCH  10  13
ENDBRANCH   6   7
ENDBRANCH   4   6
ENDBRANCH   2   4
TORSDOF 5
ENDMDL
MODEL       38
REMARK 921   NORMALIZED FREE ENERGY PREDICTED BY IDOCK:   -4.81 KCAL/MOL
REMARK 922        TOTAL FREE ENERGY PREDICTED BY IDOCK:   -6.61 KCAL/MOL
REMARK 923 INTER-LIGAND FREE ENERGY PREDICTED BY IDOCK:   -6.30 KCAL/MOL
REMARK 924 INTRA-LIGAND FREE ENERGY PREDICTED BY IDOCK:   -0.31 KCAL/MOL
REMARK 927      BINDING AFFINITY PREDICTED BY RF-SCORE:    0.00 PKD
ROOT
HETATM    1  C   UNL     1     -11.522  10.267  70.736  1.00  0.00    -0.351 C  
HETATM    2  N   UNL     1     -11.597   9.860  69.330  1.00  0.00    -0.460 NA 
HETATM    3  H   UNL     1     -12.073   8.967  69.204  1.00  0.00     0.000 HD 
ENDROOT
BRANCH   2   4
HETATM    4  N   UNL     1     -12.218  10.938  68.577  1.00  0.00    -0.809 NA 
HETATM    5  H   UNL     1     -12.264  11.804  69.115  1.00  0.00     0.000 HD 
BRANCH   4   6
HETATM    6  C   UNL     1     -11.517  11.121  67.293  1.00  0.00    -0.136 C  
BRANCH   6   7
HETATM    7  C   UNL     1     -11.135  12.573  67.095  1.00  0.00    -0.321 A  
HETATM    8  C   UNL     1     -10.246  12.941  66.073  1.00  0.00    -0.293 A  
HETATM    9  C   UNL     1      -9.839  14.268  65.929  1.00  0.00    -0.322 A  
HETATM   10  C   UNL     1     -10.319  15.255  66.799  1.00  0.00    -0.279 A  
HETATM   11  C   UNL     1     -11.649  13.573  67.934  1.00  0.00    -0.377 A  
HETATM   12  C   UNL     1     -11.250  14.907  67.786  1.00  0.00    -0.329 A  
BRANCH  10  13
HETATM   13  C   UNL     1      -9.820  16.648  66.627  1.00  0.00    -0.274 C  
HETATM   14  O   UNL     1      -8.938  16.885  65.808  1.00  0.00    -0.524 OA 
HETATM   15  N   UNL     1     -10.363  17.606  67.462  1.00  0.00    -0.351 N  
HETATM   16  H   UNL     1     -11.147  17.360  68.066  1.00  0.00     0.000 HD 
BRANCH  15  17
HETATM   17  C   UNL     1      -9.832  18.965  67.494  1.00  0.00    -0.327 C  
HETATM   18  C   UNL     1     -10.504  19.818  66.424  1.00  0.00    -0.618 C  
HETATM   19  C   UNL     1     -10.023  19.588  68.876  1.00  0.00    -0.529 C  
ENDBRANCH  15  17
ENDBRANCH  10  13
ENDBRANCH   6   7
ENDBRANCH   4   6
ENDBRANCH   2   4
TORSDOF 5
ENDMDL
MODEL       39
REMARK 921   NORMALIZED FREE ENERGY PREDICTED BY IDOCK:   -4.80 KCAL/MOL
REMARK 922        TOTAL FREE ENERGY PREDICTED BY IDOCK:   -6.60 KCAL/MOL
REMARK 923 INTER-LIGAND FREE ENERGY PREDICTED BY IDOCK:   -6.35 KCAL/MOL
REMARK 924 INTRA-LIGAND FREE ENERGY PREDICTED BY IDOCK:   -0.25 KCAL/MOL
REMARK 927      BINDING AFFINITY PREDICTED BY RF-SCORE:    0.00 PKD
ROOT
HETATM    1  C   UNL     1     -12.138  14.566  64.322  1.00  0.00    -0.425 C  
HETATM    2  N   UNL     1     -12.388  13.815  63.089  1.00  0.00    -1.106 NA 
HETATM    3  H   UNL     1     -11.991  14.266  62.266  1.00  0.00     0.000 HD 
ENDROOT
BRANCH   2   4
HETATM    4  N   UNL     1     -11.899  12.459  63.277  1.00  0.00    -0.723 NA 
HETATM    5  H   UNL     1     -11.894  11.929  62.404  1.00  0.00     0.000 HD 
BRANCH   4   6
HETATM    6  C   UNL     1     -10.569  12.490  63.912  1.00  0.00    -0.440 C  
BRANCH   6   7
HETATM    7  C   UNL     1     -10.513  11.529  65.082  1.00  0.00    -0.340 A  
HETATM    8  C   UNL     1      -9.906  10.272  64.940  1.00  0.00    -0.404 A  
HETATM    9  C   UNL     1      -9.911   9.357  65.994  1.00  0.00    -0.366 A  
HETATM   10  C   UNL     1     -10.518   9.685  67.213  1.00  0.00    -0.323 A  
HETATM   11  C   UNL     1     -11.077  11.870  66.320  1.00  0.00    -0.364 A  
HETATM   12  C   UNL     1     -11.076  10.958  67.383  1.00  0.00    -0.373 A  
BRANCH  10  13
HETATM   13  C   UNL     1     -10.531   8.655  68.291  1.00  0.00    -0.184 C  
HETATM   14  O   UNL     1     -10.599   7.466  68.000  1.00  0.00    -0.208 OA 
HETATM   15  N   UNL     1     -10.518   9.123  69.591  1.00  0.00    -0.217 N  
HETATM   16  H   UNL     1     -10.382  10.119  69.765  1.00  0.00     0.000 HD 
BRANCH  15  17
HETATM   17  C   UNL     1     -10.695   8.215  70.719  1.00  0.00    -0.222 C  
HETATM   18  C   UNL     1      -9.754   8.598  71.856  1.00  0.00    -0.383 C  
HETATM   19  C   UNL     1     -12.147   8.224  71.198  1.00  0.00    -0.274 C  
ENDBRANCH  15  17
ENDBRANCH  10  13
ENDBRANCH   6   7
ENDBRANCH   4   6
ENDBRANCH   2   4
TORSDOF 5
ENDMDL
MODEL       40
REMARK 921   NORMALIZED FREE ENERGY PREDICTED BY IDOCK:   -4.79 KCAL/MOL
REMARK 922        TOTAL FREE ENERGY PREDICTED BY IDOCK:   -6.59 KCAL/MOL
REMARK 923 INTER-LIGAND FREE ENERGY PREDICTED BY IDOCK:   -6.32 KCAL/MOL
REMARK 924 INTRA-LIGAND FREE ENERGY PREDICTED BY IDOCK:   -0.26 KCAL/MOL
REMARK 927      BINDING AFFINITY PREDICTED BY RF-SCORE:    0.00 PKD
ROOT
HETATM    1  C   UNL     1     -10.042  16.523  67.114  1.00  0.00    -0.274 C  
HETATM    2  N   UNL     1     -10.900  16.918  68.234  1.00  0.00    -0.372 NA 
HETATM    3  H   UNL     1     -11.255  17.870  68.141  1.00  0.00     0.000 HD 
ENDROOT
BRANCH   2   4
HETATM    4  N   UNL     1     -11.962  15.934  68.362  1.00  0.00    -0.386 NA 
HETATM    5  H   UNL     1     -12.850  16.278  67.994  1.00  0.00     0.000 HD 
BRANCH   4   6
HETATM    6  C   UNL     1     -11.552  14.669  67.726  1.00  0.00    -0.359 C  
BRANCH   6   7
HETATM    7  C   UNL     1     -11.802  13.498  68.653  1.00  0.00    -0.404 A  
HETATM    8  C   UNL     1     -11.732  12.182  68.172  1.00  0.00    -0.402 A  
HETATM    9  C   UNL     1     -12.027  11.103  69.006  1.00  0.00    -0.389 A  
HETATM   10  C   UNL     1     -12.392  11.319  70.341  1.00  0.00    -0.415 A  
HETATM   11  C   UNL     1     -12.122  13.706  70.003  1.00  0.00    -0.417 A  
HETATM   12  C   UNL     1     -12.411  12.625  70.846  1.00  0.00    -0.368 A  
BRANCH  10  13
HETATM   13  C   UNL     1     -12.739  10.134  71.176  1.00  0.00    -0.396 C  
HETATM   14  O   UNL     1     -13.253  10.290  72.278  1.00  0.00    -0.409 OA 
HETATM   15  N   UNL     1     -12.400   8.897  70.660  1.00  0.00    -0.486 N  
HETATM   16  H   UNL     1     -12.047   8.830  69.705  1.00  0.00     0.000 HD 
BRANCH  15  17
HETATM   17  C   UNL     1     -12.541   7.685  71.459  1.00  0.00    -0.343 C  
HETATM   18  C   UNL     1     -13.998   7.237  71.484  1.00  0.00    -0.486 C  
HETATM   19  C   UNL     1     -11.646   6.571  70.916  1.00  0.00    -0.417 C  
ENDBRANCH  15  17
ENDBRANCH  10  13
ENDBRANCH   6   7
ENDBRANCH   4   6
ENDBRANCH   2   4
TORSDOF 5
ENDMDL
MODEL       41
REMARK 921   NORMALIZED FREE ENERGY PREDICTED BY IDOCK:   -4.77 KCAL/MOL
REMARK 922        TOTAL FREE ENERGY PREDICTED BY IDOCK:   -6.56 KCAL/MOL
REMARK 923 INTER-LIGAND FREE ENERGY PREDICTED BY IDOCK:   -6.20 KCAL/MOL
REMARK 924 INTRA-LIGAND FREE ENERGY PREDICTED BY IDOCK:   -0.36 KCAL/MOL
REMARK 927      BINDING AFFINITY PREDICTED BY RF-SCORE:    0.00 PKD
ROOT
HETATM    1  C   UNL     1     -12.253  15.615  74.070  1.00  0.00    -0.587 C  
HETATM    2  N   UNL     1     -13.613  15.835  73.572  1.00  0.00    -0.663 NA 
HETATM    3  H   UNL     1     -14.044  16.674  73.960  1.00  0.00     0.000 HD 
ENDROOT
BRANCH   2   4
HETATM    4  N   UNL     1     -13.569  15.848  72.119  1.00  0.00    -0.344 NA 
HETATM    5  H   UNL     1     -14.049  16.659  71.728  1.00  0.00     0.000 HD 
BRANCH   4   6
HETATM    6  C   UNL     1     -12.170  15.758  71.660  1.00  0.00    -0.456 C  
BRANCH   6   7
HETATM    7  C   UNL     1     -12.071  14.907  70.411  1.00  0.00    -0.386 A  
HETATM    8  C   UNL     1     -12.167  13.509  70.494  1.00  0.00    -0.433 A  
HETATM    9  C   UNL     1     -12.010  12.718  69.355  1.00  0.00    -0.321 A  
HETATM   10  C   UNL     1     -11.759  13.309  68.110  1.00  0.00    -0.397 A  
HETATM   11  C   UNL     1     -11.868  15.496  69.154  1.00  0.00    -0.373 A  
HETATM   12  C   UNL     1     -11.717  14.705  68.009  1.00  0.00    -0.371 A  
BRANCH  10  13
HETATM   13  C   UNL     1     -11.557  12.415  66.935  1.00  0.00    -0.370 C  
HETATM   14  O   UNL     1     -12.399  12.374  66.045  1.00  0.00    -0.627 OA 
HETATM   15  N   UNL     1     -10.422  11.625  66.950  1.00  0.00    -0.220 N  
HETATM   16  H   UNL     1      -9.723  11.764  67.679  1.00  0.00     0.000 HD 
BRANCH  15  17
HETATM   17  C   UNL     1     -10.208  10.598  65.937  1.00  0.00    -0.251 C  
HETATM   18  C   UNL     1      -8.800  10.709  65.363  1.00  0.00    -0.204 C  
HETATM   19  C   UNL     1     -10.441   9.205  66.521  1.00  0.00    -0.197 C  
ENDBRANCH  15  17
ENDBRANCH  10  13
ENDBRANCH   6   7
ENDBRANCH   4   6
ENDBRANCH   2   4
TORSDOF 5
ENDMDL
MODEL       42
REMARK 921   NORMALIZED FREE ENERGY PREDICTED BY IDOCK:   -4.76 KCAL/MOL
REMARK 922        TOTAL FREE ENERGY PREDICTED BY IDOCK:   -6.54 KCAL/MOL
REMARK 923 INTER-LIGAND FREE ENERGY PREDICTED BY IDOCK:   -6.18 KCAL/MOL
REMARK 924 INTRA-LIGAND FREE ENERGY PREDICTED BY IDOCK:   -0.37 KCAL/MOL
REMARK 927      BINDING AFFINITY PREDICTED BY RF-SCORE:    0.00 PKD
ROOT
HETATM    1  C   UNL     1     -12.342  15.626  74.182  1.00  0.00    -0.662 C  
HETATM    2  N   UNL     1     -13.637  16.097  73.684  1.00  0.00    -0.878 NA 
HETATM    3  H   UNL     1     -13.631  17.090  73.450  1.00  0.00     0.000 HD 
ENDROOT
BRANCH   2   4
HETATM    4  N   UNL     1     -14.025  15.259  72.562  1.00  0.00    -0.515 NA 
HETATM    5  H   UNL     1     -15.034  15.267  72.409  1.00  0.00     0.000 HD 
BRANCH   4   6
HETATM    6  C   UNL     1     -13.278  15.660  71.356  1.00  0.00    -0.465 C  
BRANCH   6   7
HETATM    7  C   UNL     1     -12.659  14.451  70.685  1.00  0.00    -0.424 A  
HETATM    8  C   UNL     1     -11.949  14.592  69.482  1.00  0.00    -0.363 A  
HETATM    9  C   UNL     1     -11.434  13.473  68.826  1.00  0.00    -0.349 A  
HETATM   10  C   UNL     1     -11.614  12.192  69.363  1.00  0.00    -0.381 A  
HETATM   11  C   UNL     1     -12.795  13.171  71.242  1.00  0.00    -0.384 A  
HETATM   12  C   UNL     1     -12.272  12.047  70.591  1.00  0.00    -0.409 A  
BRANCH  10  13
HETATM   13  C   UNL     1     -11.080  11.029  68.599  1.00  0.00    -0.240 C  
HETATM   14  O   UNL     1     -11.620  10.683  67.554  1.00  0.00    -0.482 OA 
HETATM   15  N   UNL     1     -10.008  10.361  69.161  1.00  0.00    -0.213 N  
HETATM   16  H   UNL     1      -9.556  10.746  69.991  1.00  0.00     0.000 HD 
BRANCH  15  17
HETATM   17  C   UNL     1      -9.512   9.115  68.587  1.00  0.00    -0.143 C  
HETATM   18  C   UNL     1      -8.314   9.391  67.685  1.00  0.00    -0.119 C  
HETATM   19  C   UNL     1      -9.140   8.122  69.687  1.00  0.00    -0.151 C  
ENDBRANCH  15  17
ENDBRANCH  10  13
ENDBRANCH   6   7
ENDBRANCH   4   6
ENDBRANCH   2   4
TORSDOF 5
ENDMDL
MODEL       43
REMARK 921   NORMALIZED FREE ENERGY PREDICTED BY IDOCK:   -4.71 KCAL/MOL
REMARK 922        TOTAL FREE ENERGY PREDICTED BY IDOCK:   -6.48 KCAL/MOL
REMARK 923 INTER-LIGAND FREE ENERGY PREDICTED BY IDOCK:   -6.09 KCAL/MOL
REMARK 924 INTRA-LIGAND FREE ENERGY PREDICTED BY IDOCK:   -0.39 KCAL/MOL
REMARK 927      BINDING AFFINITY PREDICTED BY RF-SCORE:    0.00 PKD
ROOT
HETATM    1  C   UNL     1      -7.579  20.318  67.567  1.00  0.00    -0.306 C  
HETATM    2  N   UNL     1      -8.790  20.947  67.035  1.00  0.00    -0.587 NA 
HETATM    3  H   UNL     1      -8.619  21.467  66.174  1.00  0.00     0.000 HD 
ENDROOT
BRANCH   2   4
HETATM    4  N   UNL     1      -9.804  19.917  66.875  1.00  0.00    -0.384 NA 
HETATM    5  H   UNL     1      -9.743  19.457  65.966  1.00  0.00     0.000 HD 
BRANCH   4   6
HETATM    6  C   UNL     1      -9.720  18.955  67.989  1.00  0.00    -0.337 C  
BRANCH   6   7
HETATM    7  C   UNL     1     -10.082  17.561  67.520  1.00  0.00    -0.326 A  
HETATM    8  C   UNL     1      -9.822  17.167  66.198  1.00  0.00    -0.280 A  
HETATM    9  C   UNL     1     -10.213  15.907  65.743  1.00  0.00    -0.389 A  
HETATM   10  C   UNL     1     -10.867  15.015  66.602  1.00  0.00    -0.318 A  
HETATM   11  C   UNL     1     -10.694  16.646  68.389  1.00  0.00    -0.353 A  
HETATM   12  C   UNL     1     -11.081  15.378  67.937  1.00  0.00    -0.323 A  
BRANCH  10  13
HETATM   13  C   UNL     1     -11.301  13.699  66.052  1.00  0.00    -0.312 C  
HETATM   14  O   UNL     1     -11.955  12.930  66.748  1.00  0.00    -0.391 OA 
HETATM   15  N   UNL     1     -10.883  13.399  64.769  1.00  0.00    -0.352 N  
HETATM   16  H   UNL     1     -10.409  14.113  64.215  1.00  0.00     0.000 HD 
BRANCH  15  17
HETATM   17  C   UNL     1     -11.108  12.078  64.194  1.00  0.00    -0.368 C  
HETATM   18  C   UNL     1     -12.376  12.082  63.347  1.00  0.00    -0.635 C  
HETATM   19  C   UNL     1      -9.906  11.638  63.359  1.00  0.00    -0.424 C  
ENDBRANCH  15  17
ENDBRANCH  10  13
ENDBRANCH   6   7
ENDBRANCH   4   6
ENDBRANCH   2   4
TORSDOF 5
ENDMDL
MODEL       44
REMARK 921   NORMALIZED FREE ENERGY PREDICTED BY IDOCK:   -4.65 KCAL/MOL
REMARK 922        TOTAL FREE ENERGY PREDICTED BY IDOCK:   -6.39 KCAL/MOL
REMARK 923 INTER-LIGAND FREE ENERGY PREDICTED BY IDOCK:   -6.06 KCAL/MOL
REMARK 924 INTRA-LIGAND FREE ENERGY PREDICTED BY IDOCK:   -0.33 KCAL/MOL
REMARK 927      BINDING AFFINITY PREDICTED BY RF-SCORE:    0.00 PKD
ROOT
HETATM    1  C   UNL     1      -9.781   6.923  73.195  1.00  0.00    -0.174 C  
HETATM    2  N   UNL     1     -11.211   6.640  73.342  1.00  0.00    -0.477 NA 
HETATM    3  H   UNL     1     -11.446   6.268  74.262  1.00  0.00     0.000 HD 
ENDROOT
BRANCH   2   4
HETATM    4  N   UNL     1     -11.949   7.851  73.022  1.00  0.00    -0.646 NA 
HETATM    5  H   UNL     1     -11.573   8.668  73.505  1.00  0.00     0.000 HD 
BRANCH   4   6
HETATM    6  C   UNL     1     -11.988   8.042  71.560  1.00  0.00    -0.297 C  
BRANCH   6   7
HETATM    7  C   UNL     1     -12.148   9.508  71.217  1.00  0.00    -0.443 A  
HETATM    8  C   UNL     1     -11.450  10.065  70.134  1.00  0.00    -0.344 A  
HETATM    9  C   UNL     1     -11.542  11.429  69.854  1.00  0.00    -0.402 A  
HETATM   10  C   UNL     1     -12.338  12.262  70.649  1.00  0.00    -0.375 A  
HETATM   11  C   UNL     1     -12.981  10.339  71.981  1.00  0.00    -0.503 A  
HETATM   12  C   UNL     1     -13.082  11.707  71.698  1.00  0.00    -0.456 A  
BRANCH  10  13
HETATM   13  C   UNL     1     -12.366  13.719  70.332  1.00  0.00    -0.353 C  
HETATM   14  O   UNL     1     -13.172  14.452  70.895  1.00  0.00    -0.357 OA 
HETATM   15  N   UNL     1     -11.489  14.154  69.357  1.00  0.00    -0.273 N  
HETATM   16  H   UNL     1     -10.792  13.510  68.985  1.00  0.00     0.000 HD 
BRANCH  15  17
HETATM   17  C   UNL     1     -11.545  15.522  68.851  1.00  0.00    -0.373 C  
HETATM   18  C   UNL     1     -10.639  16.426  69.680  1.00  0.00    -0.307 C  
HETATM   19  C   UNL     1     -11.149  15.570  67.376  1.00  0.00    -0.285 C  
ENDBRANCH  15  17
ENDBRANCH  10  13
ENDBRANCH   6   7
ENDBRANCH   4   6
ENDBRANCH   2   4
TORSDOF 5
ENDMDL
MODEL       45
REMARK 921   NORMALIZED FREE ENERGY PREDICTED BY IDOCK:   -4.62 KCAL/MOL
REMARK 922        TOTAL FREE ENERGY PREDICTED BY IDOCK:   -6.36 KCAL/MOL
REMARK 923 INTER-LIGAND FREE ENERGY PREDICTED BY IDOCK:   -6.05 KCAL/MOL
REMARK 924 INTRA-LIGAND FREE ENERGY PREDICTED BY IDOCK:   -0.30 KCAL/MOL
REMARK 927      BINDING AFFINITY PREDICTED BY RF-SCORE:    0.00 PKD
ROOT
HETATM    1  C   UNL     1      -9.669   3.861  63.879  1.00  0.00    -0.164 C  
HETATM    2  N   UNL     1     -11.117   3.914  64.100  1.00  0.00    -0.646 NA 
HETATM    3  H   UNL     1     -11.550   2.991  64.091  1.00  0.00     0.000 HD 
ENDROOT
BRANCH   2   4
HETATM    4  N   UNL     1     -11.362   4.636  65.338  1.00  0.00    -1.028 NA 
HETATM    5  H   UNL     1     -12.064   4.175  65.917  1.00  0.00     0.000 HD 
BRANCH   4   6
HETATM    6  C   UNL     1     -10.093   4.836  66.060  1.00  0.00    -0.257 C  
BRANCH   6   7
HETATM    7  C   UNL     1     -10.282   5.796  67.216  1.00  0.00    -0.248 A  
HETATM    8  C   UNL     1     -10.545   5.312  68.507  1.00  0.00    -0.084 A  
HETATM    9  C   UNL     1     -10.786   6.194  69.562  1.00  0.00    -0.428 A  
HETATM   10  C   UNL     1     -10.762   7.578  69.347  1.00  0.00    -0.200 A  
HETATM   11  C   UNL     1     -10.212   7.183  67.017  1.00  0.00    -0.339 A  
HETATM   12  C   UNL     1     -10.445   8.071  68.075  1.00  0.00    -0.243 A  
BRANCH  10  13
HETATM   13  C   UNL     1     -11.069   8.473  70.499  1.00  0.00    -0.244 C  
HETATM   14  O   UNL     1     -10.167   8.846  71.241  1.00  0.00    -0.237 OA 
HETATM   15  N   UNL     1     -12.399   8.795  70.693  1.00  0.00    -0.482 N  
HETATM   16  H   UNL     1     -13.090   8.518  69.995  1.00  0.00     0.000 HD 
BRANCH  15  17
HETATM   17  C   UNL     1     -12.831   9.525  71.880  1.00  0.00    -0.420 C  
HETATM   18  C   UNL     1     -12.953  11.012  71.567  1.00  0.00    -0.553 C  
HETATM   19  C   UNL     1     -14.158   8.974  72.400  1.00  0.00    -0.478 C  
ENDBRANCH  15  17
ENDBRANCH  10  13
ENDBRANCH   6   7
ENDBRANCH   4   6
ENDBRANCH   2   4
TORSDOF 5
ENDMDL
MODEL       46
REMARK 921   NORMALIZED FREE ENERGY PREDICTED BY IDOCK:   -4.54 KCAL/MOL
REMARK 922        TOTAL FREE ENERGY PREDICTED BY IDOCK:   -6.26 KCAL/MOL
REMARK 923 INTER-LIGAND FREE ENERGY PREDICTED BY IDOCK:   -5.83 KCAL/MOL
REMARK 924 INTRA-LIGAND FREE ENERGY PREDICTED BY IDOCK:   -0.43 KCAL/MOL
REMARK 927      BINDING AFFINITY PREDICTED BY RF-SCORE:    0.00 PKD
ROOT
HETATM    1  C   UNL     1     -11.391  10.158  70.653  1.00  0.00    -0.352 C  
HETATM    2  N   UNL     1     -11.469   9.770  69.243  1.00  0.00    -0.452 NA 
HETATM    3  H   UNL     1     -11.902   8.856  69.109  1.00  0.00     0.000 HD 
ENDROOT
BRANCH   2   4
HETATM    4  N   UNL     1     -12.156  10.827  68.518  1.00  0.00    -0.826 NA 
HETATM    5  H   UNL     1     -12.453  11.584  69.134  1.00  0.00     0.000 HD 
BRANCH   4   6
HETATM    6  C   UNL     1     -11.306  11.312  67.415  1.00  0.00    -0.276 C  
BRANCH   6   7
HETATM    7  C   UNL     1     -11.057  12.800  67.547  1.00  0.00    -0.300 A  
HETATM    8  C   UNL     1     -10.306  13.483  66.578  1.00  0.00    -0.282 A  
HETATM    9  C   UNL     1     -10.017  14.841  66.730  1.00  0.00    -0.256 A  
HETATM   10  C   UNL     1     -10.479  15.541  67.852  1.00  0.00    -0.266 A  
HETATM   11  C   UNL     1     -11.556  13.518  68.644  1.00  0.00    -0.365 A  
HETATM   12  C   UNL     1     -11.275  14.881  68.795  1.00  0.00    -0.288 A  
BRANCH  10  13
HETATM   13  C   UNL     1     -10.105  16.978  67.985  1.00  0.00    -0.305 C  
HETATM   14  O   UNL     1     -10.383  17.591  69.010  1.00  0.00    -0.356 OA 
HETATM   15  N   UNL     1      -9.495  17.561  66.889  1.00  0.00    -0.265 N  
HETATM   16  H   UNL     1      -9.220  16.978  66.098  1.00  0.00     0.000 HD 
BRANCH  15  17
HETATM   17  C   UNL     1      -9.237  18.996  66.847  1.00  0.00    -0.303 C  
HETATM   18  C   UNL     1      -7.889  19.269  66.188  1.00  0.00    -0.313 C  
HETATM   19  C   UNL     1     -10.356  19.725  66.104  1.00  0.00    -0.627 C  
ENDBRANCH  15  17
ENDBRANCH  10  13
ENDBRANCH   6   7
ENDBRANCH   4   6
ENDBRANCH   2   4
TORSDOF 5
ENDMDL
MODEL       47
REMARK 921   NORMALIZED FREE ENERGY PREDICTED BY IDOCK:   -4.54 KCAL/MOL
REMARK 922        TOTAL FREE ENERGY PREDICTED BY IDOCK:   -6.26 KCAL/MOL
REMARK 923 INTER-LIGAND FREE ENERGY PREDICTED BY IDOCK:   -5.95 KCAL/MOL
REMARK 924 INTRA-LIGAND FREE ENERGY PREDICTED BY IDOCK:   -0.31 KCAL/MOL
REMARK 927      BINDING AFFINITY PREDICTED BY RF-SCORE:    0.00 PKD
ROOT
HETATM    1  C   UNL     1     -10.137   4.598  66.458  1.00  0.00    -0.250 C  
HETATM    2  N   UNL     1     -11.260   5.428  66.013  1.00  0.00    -0.774 NA 
HETATM    3  H   UNL     1     -12.141   4.915  65.982  1.00  0.00     0.000 HD 
ENDROOT
BRANCH   2   4
HETATM    4  N   UNL     1     -11.326   6.601  66.870  1.00  0.00    -0.824 NA 
HETATM    5  H   UNL     1     -11.630   6.369  67.816  1.00  0.00     0.000 HD 
BRANCH   4   6
HETATM    6  C   UNL     1     -10.027   7.299  66.863  1.00  0.00    -0.232 C  
BRANCH   6   7
HETATM    7  C   UNL     1     -10.228   8.801  66.855  1.00  0.00    -0.357 A  
HETATM    8  C   UNL     1     -10.692   9.462  68.003  1.00  0.00    -0.246 A  
HETATM    9  C   UNL     1     -10.942  10.835  67.981  1.00  0.00    -0.336 A  
HETATM   10  C   UNL     1     -10.727  11.574  66.811  1.00  0.00    -0.311 A  
HETATM   11  C   UNL     1      -9.969   9.555  65.701  1.00  0.00    -0.269 A  
HETATM   12  C   UNL     1     -10.211  10.934  65.677  1.00  0.00    -0.323 A  
BRANCH  10  13
HETATM   13  C   UNL     1     -11.051  13.029  66.830  1.00  0.00    -0.286 C  
HETATM   14  O   UNL     1     -12.101  13.416  67.332  1.00  0.00    -0.355 OA 
HETATM   15  N   UNL     1     -10.142  13.871  66.216  1.00  0.00    -0.292 N  
HETATM   16  H   UNL     1      -9.252  13.496  65.888  1.00  0.00     0.000 HD 
BRANCH  15  17
HETATM   17  C   UNL     1     -10.437  15.288  66.031  1.00  0.00    -0.317 C  
HETATM   18  C   UNL     1      -9.150  16.104  66.087  1.00  0.00    -0.382 C  
HETATM   19  C   UNL     1     -11.164  15.521  64.707  1.00  0.00    -0.399 C  
ENDBRANCH  15  17
ENDBRANCH  10  13
ENDBRANCH   6   7
ENDBRANCH   4   6
ENDBRANCH   2   4
TORSDOF 5
ENDMDL
MODEL       48
REMARK 921   NORMALIZED FREE ENERGY PREDICTED BY IDOCK:   -4.53 KCAL/MOL
REMARK 922        TOTAL FREE ENERGY PREDICTED BY IDOCK:   -6.25 KCAL/MOL
REMARK 923 INTER-LIGAND FREE ENERGY PREDICTED BY IDOCK:   -5.92 KCAL/MOL
REMARK 924 INTRA-LIGAND FREE ENERGY PREDICTED BY IDOCK:   -0.33 KCAL/MOL
REMARK 927      BINDING AFFINITY PREDICTED BY RF-SCORE:    0.00 PKD
ROOT
HETATM    1  C   UNL     1     -12.410  15.604  74.403  1.00  0.00    -0.652 C  
HETATM    2  N   UNL     1     -13.661  16.058  73.789  1.00  0.00    -0.814 NA 
HETATM    3  H   UNL     1     -13.841  17.049  73.950  1.00  0.00     0.000 HD 
ENDROOT
BRANCH   2   4
HETATM    4  N   UNL     1     -13.622  15.718  72.376  1.00  0.00    -0.489 NA 
HETATM    5  H   UNL     1     -12.684  15.809  71.985  1.00  0.00     0.000 HD 
BRANCH   4   6
HETATM    6  C   UNL     1     -14.179  14.368  72.171  1.00  0.00    -0.538 C  
BRANCH   6   7
HETATM    7  C   UNL     1     -13.312  13.572  71.217  1.00  0.00    -0.227 A  
HETATM    8  C   UNL     1     -13.048  12.215  71.461  1.00  0.00    -0.357 A  
HETATM    9  C   UNL     1     -12.197  11.495  70.622  1.00  0.00    -0.473 A  
HETATM   10  C   UNL     1     -11.597  12.117  69.519  1.00  0.00    -0.382 A  
HETATM   11  C   UNL     1     -12.747  14.177  70.084  1.00  0.00    -0.227 A  
HETATM   12  C   UNL     1     -11.898  13.455  69.236  1.00  0.00    -0.385 A  
BRANCH  10  13
HETATM   13  C   UNL     1     -10.663  11.312  68.682  1.00  0.00    -0.205 C  
HETATM   14  O   UNL     1      -9.503  11.147  69.045  1.00  0.00    -0.159 OA 
HETATM   15  N   UNL     1     -11.164  10.832  67.486  1.00  0.00    -0.311 N  
HETATM   16  H   UNL     1     -12.158  10.936  67.280  1.00  0.00     0.000 HD 
BRANCH  15  17
HETATM   17  C   UNL     1     -10.295  10.176  66.516  1.00  0.00    -0.202 C  
HETATM   18  C   UNL     1     -10.411   8.661  66.645  1.00  0.00    -0.303 C  
HETATM   19  C   UNL     1     -10.638  10.622  65.094  1.00  0.00    -0.190 C  
ENDBRANCH  15  17
ENDBRANCH  10  13
ENDBRANCH   6   7
ENDBRANCH   4   6
ENDBRANCH   2   4
TORSDOF 5
ENDMDL
MODEL       49
REMARK 921   NORMALIZED FREE ENERGY PREDICTED BY IDOCK:   -4.51 KCAL/MOL
REMARK 922        TOTAL FREE ENERGY PREDICTED BY IDOCK:   -6.22 KCAL/MOL
REMARK 923 INTER-LIGAND FREE ENERGY PREDICTED BY IDOCK:   -5.84 KCAL/MOL
REMARK 924 INTRA-LIGAND FREE ENERGY PREDICTED BY IDOCK:   -0.38 KCAL/MOL
REMARK 927      BINDING AFFINITY PREDICTED BY RF-SCORE:    0.00 PKD
ROOT
HETATM    1  C   UNL     1      -5.823  20.950  65.368  1.00  0.00    -0.238 C  
HETATM    2  N   UNL     1      -6.795  21.358  66.386  1.00  0.00    -0.714 NA 
HETATM    3  H   UNL     1      -6.967  22.364  66.385  1.00  0.00     0.000 HD 
ENDROOT
BRANCH   2   4
HETATM    4  N   UNL     1      -8.008  20.581  66.194  1.00  0.00    -0.520 NA 
HETATM    5  H   UNL     1      -7.895  19.865  65.476  1.00  0.00     0.000 HD 
BRANCH   4   6
HETATM    6  C   UNL     1      -8.446  20.011  67.481  1.00  0.00    -0.339 C  
BRANCH   6   7
HETATM    7  C   UNL     1      -9.009  18.619  67.285  1.00  0.00    -0.283 A  
HETATM    8  C   UNL     1      -8.319  17.677  66.505  1.00  0.00    -0.300 A  
HETATM    9  C   UNL     1      -8.866  16.415  66.267  1.00  0.00    -0.367 A  
HETATM   10  C   UNL     1     -10.110  16.068  66.808  1.00  0.00    -0.272 A  
HETATM   11  C   UNL     1     -10.232  18.249  67.864  1.00  0.00    -0.400 A  
HETATM   12  C   UNL     1     -10.779  16.981  67.633  1.00  0.00    -0.295 A  
BRANCH  10  13
HETATM   13  C   UNL     1     -10.666  14.723  66.487  1.00  0.00    -0.319 C  
HETATM   14  O   UNL     1     -11.607  14.279  67.135  1.00  0.00    -0.342 OA 
HETATM   15  N   UNL     1     -10.033  14.019  65.479  1.00  0.00    -0.477 N  
HETATM   16  H   UNL     1      -9.308  14.476  64.927  1.00  0.00     0.000 HD 
BRANCH  15  17
HETATM   17  C   UNL     1     -10.387  12.633  65.194  1.00  0.00    -0.292 C  
HETATM   18  C   UNL     1     -10.346  12.378  63.691  1.00  0.00    -0.434 C  
HETATM   19  C   UNL     1      -9.450  11.674  65.928  1.00  0.00    -0.246 C  
ENDBRANCH  15  17
ENDBRANCH  10  13
ENDBRANCH   6   7
ENDBRANCH   4   6
ENDBRANCH   2   4
TORSDOF 5
ENDMDL
MODEL       50
REMARK 921   NORMALIZED FREE ENERGY PREDICTED BY IDOCK:   -4.49 KCAL/MOL
REMARK 922        TOTAL FREE ENERGY PREDICTED BY IDOCK:   -6.19 KCAL/MOL
REMARK 923 INTER-LIGAND FREE ENERGY PREDICTED BY IDOCK:   -5.85 KCAL/MOL
REMARK 924 INTRA-LIGAND FREE ENERGY PREDICTED BY IDOCK:   -0.34 KCAL/MOL
REMARK 927      BINDING AFFINITY PREDICTED BY RF-SCORE:    0.00 PKD
ROOT
HETATM    1  C   UNL     1      -9.775  20.800  67.274  1.00  0.00    -0.347 C  
HETATM    2  N   UNL     1      -9.964  20.285  65.915  1.00  0.00    -0.612 NA 
HETATM    3  H   UNL     1      -9.391  20.773  65.226  1.00  0.00     0.000 HD 
ENDROOT
BRANCH   2   4
HETATM    4  N   UNL     1      -9.719  18.852  65.934  1.00  0.00    -0.458 NA 
HETATM    5  H   UNL     1      -8.827  18.609  65.503  1.00  0.00     0.000 HD 
BRANCH   4   6
HETATM    6  C   UNL     1      -9.822  18.346  67.315  1.00  0.00    -0.317 C  
BRANCH   6   7
HETATM    7  C   UNL     1     -10.332  16.919  67.324  1.00  0.00    -0.309 A  
HETATM    8  C   UNL     1     -10.945  16.391  68.471  1.00  0.00    -0.350 A  
HETATM    9  C   UNL     1     -11.356  15.058  68.507  1.00  0.00    -0.317 A  
HETATM   10  C   UNL     1     -11.167  14.228  67.394  1.00  0.00    -0.330 A  
HETATM   11  C   UNL     1     -10.188  16.097  66.197  1.00  0.00    -0.351 A  
HETATM   12  C   UNL     1     -10.607  14.761  66.227  1.00  0.00    -0.306 A  
BRANCH  10  13
HETATM   13  C   UNL     1     -11.585  12.802  67.502  1.00  0.00    -0.356 C  
HETATM   14  O   UNL     1     -12.095  12.239  66.540  1.00  0.00    -0.616 OA 
HETATM   15  N   UNL     1     -11.413  12.200  68.735  1.00  0.00    -0.281 N  
HETATM   16  H   UNL     1     -10.912  12.698  69.471  1.00  0.00     0.000 HD 
BRANCH  15  17
HETATM   17  C   UNL     1     -11.938  10.865  69.000  1.00  0.00    -0.251 C  
HETATM   18  C   UNL     1     -10.856   9.817  68.759  1.00  0.00    -0.219 C  
HETATM   19  C   UNL     1     -12.471  10.767  70.429  1.00  0.00    -0.430 C  
ENDBRANCH  15  17
ENDBRANCH  10  13
ENDBRANCH   6   7
ENDBRANCH   4   6
ENDBRANCH   2   4
TORSDOF 5
ENDMDL
MODEL       51
REMARK 921   NORMALIZED FREE ENERGY PREDICTED BY IDOCK:   -4.46 KCAL/MOL
REMARK 922        TOTAL FREE ENERGY PREDICTED BY IDOCK:   -6.16 KCAL/MOL
REMARK 923 INTER-LIGAND FREE ENERGY PREDICTED BY IDOCK:   -5.87 KCAL/MOL
REMARK 924 INTRA-LIGAND FREE ENERGY PREDICTED BY IDOCK:   -0.28 KCAL/MOL
REMARK 927      BINDING AFFINITY PREDICTED BY RF-SCORE:    0.00 PKD
ROOT
HETATM    1  C   UNL     1      -8.970   9.426  62.537  1.00  0.00    -0.229 C  
HETATM    2  N   UNL     1      -8.900   9.044  63.950  1.00  0.00    -0.426 NA 
HETATM    3  H   UNL     1      -7.977   8.703  64.220  1.00  0.00     0.000 HD 
ENDROOT
BRANCH   2   4
HETATM    4  N   UNL     1      -9.334  10.177  64.750  1.00  0.00    -0.244 NA 
HETATM    5  H   UNL     1      -9.833  10.871  64.192  1.00  0.00     0.000 HD 
BRANCH   4   6
HETATM    6  C   UNL     1     -10.136   9.705  65.893  1.00  0.00    -0.234 C  
BRANCH   6   7
HETATM    7  C   UNL     1     -10.679  10.877  66.685  1.00  0.00    -0.289 A  
HETATM    8  C   UNL     1     -11.167  12.015  66.026  1.00  0.00    -0.385 A  
HETATM    9  C   UNL     1     -11.606  13.124  66.752  1.00  0.00    -0.414 A  
HETATM   10  C   UNL     1     -11.570  13.112  68.152  1.00  0.00    -0.375 A  
HETATM   11  C   UNL     1     -10.690  10.853  68.088  1.00  0.00    -0.256 A  
HETATM   12  C   UNL     1     -11.137  11.960  68.819  1.00  0.00    -0.296 A  
BRANCH  10  13
HETATM   13  C   UNL     1     -12.010  14.339  68.876  1.00  0.00    -0.320 C  
HETATM   14  O   UNL     1     -11.724  15.446  68.434  1.00  0.00    -0.352 OA 
HETATM   15  N   UNL     1     -12.690  14.143  70.064  1.00  0.00    -0.421 N  
HETATM   16  H   UNL     1     -12.964  13.199  70.336  1.00  0.00     0.000 HD 
BRANCH  15  17
HETATM   17  C   UNL     1     -13.021  15.265  70.935  1.00  0.00    -0.462 C  
HETATM   18  C   UNL     1     -14.259  14.941  71.764  1.00  0.00    -0.635 C  
HETATM   19  C   UNL     1     -11.841  15.612  71.843  1.00  0.00    -0.536 C  
ENDBRANCH  15  17
ENDBRANCH  10  13
ENDBRANCH   6   7
ENDBRANCH   4   6
ENDBRANCH   2   4
TORSDOF 5
ENDMDL
MODEL       52
REMARK 921   NORMALIZED FREE ENERGY PREDICTED BY IDOCK:   -4.46 KCAL/MOL
REMARK 922        TOTAL FREE ENERGY PREDICTED BY IDOCK:   -6.15 KCAL/MOL
REMARK 923 INTER-LIGAND FREE ENERGY PREDICTED BY IDOCK:   -5.82 KCAL/MOL
REMARK 924 INTRA-LIGAND FREE ENERGY PREDICTED BY IDOCK:   -0.33 KCAL/MOL
REMARK 927      BINDING AFFINITY PREDICTED BY RF-SCORE:    0.00 PKD
ROOT
HETATM    1  C   UNL     1      -9.945   4.955  67.175  1.00  0.00    -0.197 C  
HETATM    2  N   UNL     1     -10.997   5.573  66.364  1.00  0.00    -0.720 NA 
HETATM    3  H   UNL     1     -11.799   4.958  66.225  1.00  0.00     0.000 HD 
ENDROOT
BRANCH   2   4
HETATM    4  N   UNL     1     -11.361   6.838  66.981  1.00  0.00    -0.778 NA 
HETATM    5  H   UNL     1     -11.905   6.706  67.835  1.00  0.00     0.000 HD 
BRANCH   4   6
HETATM    6  C   UNL     1     -10.152   7.648  67.214  1.00  0.00    -0.237 C  
BRANCH   6   7
HETATM    7  C   UNL     1     -10.517   9.100  67.443  1.00  0.00    -0.339 A  
HETATM    8  C   UNL     1     -10.895   9.545  68.720  1.00  0.00    -0.173 A  
HETATM    9  C   UNL     1     -11.297  10.867  68.922  1.00  0.00    -0.354 A  
HETATM   10  C   UNL     1     -11.323  11.770  67.852  1.00  0.00    -0.362 A  
HETATM   11  C   UNL     1     -10.500  10.022  66.386  1.00  0.00    -0.199 A  
HETATM   12  C   UNL     1     -10.894  11.350  66.586  1.00  0.00    -0.339 A  
BRANCH  10  13
HETATM   13  C   UNL     1     -11.801  13.157  68.115  1.00  0.00    -0.348 C  
HETATM   14  O   UNL     1     -12.152  13.871  67.182  1.00  0.00    -0.407 OA 
HETATM   15  N   UNL     1     -11.769  13.581  69.430  1.00  0.00    -0.306 N  
HETATM   16  H   UNL     1     -11.542  12.914  70.167  1.00  0.00     0.000 HD 
BRANCH  15  17
HETATM   17  C   UNL     1     -12.056  14.968  69.780  1.00  0.00    -0.314 C  
HETATM   18  C   UNL     1     -12.776  15.034  71.123  1.00  0.00    -0.431 C  
HETATM   19  C   UNL     1     -10.770  15.793  69.819  1.00  0.00    -0.317 C  
ENDBRANCH  15  17
ENDBRANCH  10  13
ENDBRANCH   6   7
ENDBRANCH   4   6
ENDBRANCH   2   4
TORSDOF 5
ENDMDL
MODEL       53
REMARK 921   NORMALIZED FREE ENERGY PREDICTED BY IDOCK:   -4.44 KCAL/MOL
REMARK 922        TOTAL FREE ENERGY PREDICTED BY IDOCK:   -6.13 KCAL/MOL
REMARK 923 INTER-LIGAND FREE ENERGY PREDICTED BY IDOCK:   -5.74 KCAL/MOL
REMARK 924 INTRA-LIGAND FREE ENERGY PREDICTED BY IDOCK:   -0.39 KCAL/MOL
REMARK 927      BINDING AFFINITY PREDICTED BY RF-SCORE:    0.00 PKD
ROOT
HETATM    1  C   UNL     1     -11.038   5.894  71.820  1.00  0.00    -0.265 C  
HETATM    2  N   UNL     1     -12.179   6.454  72.549  1.00  0.00    -0.532 NA 
HETATM    3  H   UNL     1     -12.453   5.884  73.349  1.00  0.00     0.000 HD 
ENDROOT
BRANCH   2   4
HETATM    4  N   UNL     1     -11.856   7.822  72.919  1.00  0.00    -0.618 NA 
HETATM    5  H   UNL     1     -10.962   8.123  72.528  1.00  0.00     0.000 HD 
BRANCH   4   6
HETATM    6  C   UNL     1     -12.960   8.719  72.533  1.00  0.00    -0.321 C  
BRANCH   6   7
HETATM    7  C   UNL     1     -12.486   9.747  71.526  1.00  0.00    -0.495 A  
HETATM    8  C   UNL     1     -11.567   9.391  70.527  1.00  0.00    -0.291 A  
HETATM    9  C   UNL     1     -11.077  10.350  69.638  1.00  0.00    -0.328 A  
HETATM   10  C   UNL     1     -11.501  11.682  69.729  1.00  0.00    -0.339 A  
HETATM   11  C   UNL     1     -12.944  11.072  71.581  1.00  0.00    -0.561 A  
HETATM   12  C   UNL     1     -12.460  12.034  70.686  1.00  0.00    -0.335 A  
BRANCH  10  13
HETATM   13  C   UNL     1     -10.914  12.672  68.782  1.00  0.00    -0.249 C  
HETATM   14  O   UNL     1      -9.816  12.461  68.279  1.00  0.00    -0.218 OA 
HETATM   15  N   UNL     1     -11.643  13.826  68.566  1.00  0.00    -0.314 N  
HETATM   16  H   UNL     1     -12.583  13.906  68.953  1.00  0.00     0.000 HD 
BRANCH  15  17
HETATM   17  C   UNL     1     -11.089  14.932  67.792  1.00  0.00    -0.309 C  
HETATM   18  C   UNL     1     -11.630  14.899  66.367  1.00  0.00    -0.238 C  
HETATM   19  C   UNL     1     -11.408  16.271  68.457  1.00  0.00    -0.330 C  
ENDBRANCH  15  17
ENDBRANCH  10  13
ENDBRANCH   6   7
ENDBRANCH   4   6
ENDBRANCH   2   4
TORSDOF 5
ENDMDL
MODEL       54
REMARK 921   NORMALIZED FREE ENERGY PREDICTED BY IDOCK:   -4.42 KCAL/MOL
REMARK 922        TOTAL FREE ENERGY PREDICTED BY IDOCK:   -6.10 KCAL/MOL
REMARK 923 INTER-LIGAND FREE ENERGY PREDICTED BY IDOCK:   -5.73 KCAL/MOL
REMARK 924 INTRA-LIGAND FREE ENERGY PREDICTED BY IDOCK:   -0.37 KCAL/MOL
REMARK 927      BINDING AFFINITY PREDICTED BY RF-SCORE:    0.00 PKD
ROOT
HETATM    1  C   UNL     1     -12.033  11.182  69.901  1.00  0.00    -0.363 C  
HETATM    2  N   UNL     1     -12.085  10.681  68.524  1.00  0.00    -0.819 NA 
HETATM    3  H   UNL     1     -13.027  10.702  68.133  1.00  0.00     0.000 HD 
ENDROOT
BRANCH   2   4
HETATM    4  N   UNL     1     -11.131  11.436  67.729  1.00  0.00    -0.244 NA 
HETATM    5  H   UNL     1     -10.481  10.827  67.231  1.00  0.00     0.000 HD 
BRANCH   4   6
HETATM    6  C   UNL     1     -11.848  12.345  66.817  1.00  0.00    -0.315 C  
BRANCH   6   7
HETATM    7  C   UNL     1     -11.342  13.765  66.972  1.00  0.00    -0.345 A  
HETATM    8  C   UNL     1     -11.559  14.471  68.165  1.00  0.00    -0.359 A  
HETATM    9  C   UNL     1     -11.154  15.801  68.288  1.00  0.00    -0.342 A  
HETATM   10  C   UNL     1     -10.519  16.449  67.221  1.00  0.00    -0.303 A  
HETATM   11  C   UNL     1     -10.663  14.404  65.923  1.00  0.00    -0.308 A  
HETATM   12  C   UNL     1     -10.248  15.736  66.046  1.00  0.00    -0.352 A  
BRANCH  10  13
HETATM   13  C   UNL     1     -10.146  17.882  67.391  1.00  0.00    -0.340 C  
HETATM   14  O   UNL     1     -11.011  18.750  67.341  1.00  0.00    -0.422 OA 
HETATM   15  N   UNL     1      -8.800  18.154  67.548  1.00  0.00    -0.255 N  
HETATM   16  H   UNL     1      -8.141  17.384  67.659  1.00  0.00     0.000 HD 
BRANCH  15  17
HETATM   17  C   UNL     1      -8.307  19.527  67.557  1.00  0.00    -0.297 C  
HETATM   18  C   UNL     1      -7.097  19.646  68.478  1.00  0.00    -0.356 C  
HETATM   19  C   UNL     1      -7.951  19.983  66.142  1.00  0.00    -0.315 C  
ENDBRANCH  15  17
ENDBRANCH  10  13
ENDBRANCH   6   7
ENDBRANCH   4   6
ENDBRANCH   2   4
TORSDOF 5
ENDMDL
MODEL       55
REMARK 921   NORMALIZED FREE ENERGY PREDICTED BY IDOCK:   -4.40 KCAL/MOL
REMARK 922        TOTAL FREE ENERGY PREDICTED BY IDOCK:   -6.07 KCAL/MOL
REMARK 923 INTER-LIGAND FREE ENERGY PREDICTED BY IDOCK:   -5.69 KCAL/MOL
REMARK 924 INTRA-LIGAND FREE ENERGY PREDICTED BY IDOCK:   -0.38 KCAL/MOL
REMARK 927      BINDING AFFINITY PREDICTED BY RF-SCORE:    0.00 PKD
ROOT
HETATM    1  C   UNL     1      -8.998  10.467  64.755  1.00  0.00    -0.205 C  
HETATM    2  N   UNL     1      -8.875   9.235  65.538  1.00  0.00    -0.174 NA 
HETATM    3  H   UNL     1      -8.108   9.270  66.209  1.00  0.00     0.000 HD 
ENDROOT
BRANCH   2   4
HETATM    4  N   UNL     1     -10.158   8.965  66.166  1.00  0.00    -0.408 NA 
HETATM    5  H   UNL     1     -10.720   8.309  65.623  1.00  0.00     0.000 HD 
BRANCH   4   6
HETATM    6  C   UNL     1      -9.950   8.503  67.550  1.00  0.00    -0.200 C  
BRANCH   6   7
HETATM    7  C   UNL     1     -10.639   9.428  68.532  1.00  0.00    -0.234 A  
HETATM    8  C   UNL     1     -10.668   9.117  69.900  1.00  0.00    -0.246 A  
HETATM    9  C   UNL     1     -11.359   9.932  70.799  1.00  0.00    -0.430 A  
HETATM   10  C   UNL     1     -12.029  11.076  70.347  1.00  0.00    -0.459 A  
HETATM   11  C   UNL     1     -11.271  10.600  68.092  1.00  0.00    -0.366 A  
HETATM   12  C   UNL     1     -11.958  11.424  68.993  1.00  0.00    -0.387 A  
BRANCH  10  13
HETATM   13  C   UNL     1     -12.786  11.886  71.343  1.00  0.00    -0.307 C  
HETATM   14  O   UNL     1     -13.507  11.329  72.165  1.00  0.00    -0.390 OA 
HETATM   15  N   UNL     1     -12.664  13.259  71.242  1.00  0.00    -0.358 N  
HETATM   16  H   UNL     1     -11.989  13.656  70.589  1.00  0.00     0.000 HD 
BRANCH  15  17
HETATM   17  C   UNL     1     -13.486  14.149  72.055  1.00  0.00    -0.431 C  
HETATM   18  C   UNL     1     -12.685  14.662  73.247  1.00  0.00    -0.552 C  
HETATM   19  C   UNL     1     -14.011  15.315  71.218  1.00  0.00    -0.548 C  
ENDBRANCH  15  17
ENDBRANCH  10  13
ENDBRANCH   6   7
ENDBRANCH   4   6
ENDBRANCH   2   4
TORSDOF 5
ENDMDL
MODEL       56
REMARK 921   NORMALIZED FREE ENERGY PREDICTED BY IDOCK:   -4.40 KCAL/MOL
REMARK 922        TOTAL FREE ENERGY PREDICTED BY IDOCK:   -6.07 KCAL/MOL
REMARK 923 INTER-LIGAND FREE ENERGY PREDICTED BY IDOCK:   -5.82 KCAL/MOL
REMARK 924 INTRA-LIGAND FREE ENERGY PREDICTED BY IDOCK:   -0.25 KCAL/MOL
REMARK 927      BINDING AFFINITY PREDICTED BY RF-SCORE:    0.00 PKD
ROOT
HETATM    1  C   UNL     1     -12.074  12.737  63.355  1.00  0.00    -0.534 C  
HETATM    2  N   UNL     1     -10.633  13.002  63.352  1.00  0.00    -0.442 NA 
HETATM    3  H   UNL     1     -10.366  13.717  62.675  1.00  0.00     0.000 HD 
ENDROOT
BRANCH   2   4
HETATM    4  N   UNL     1     -10.229  13.334  64.708  1.00  0.00    -0.529 NA 
HETATM    5  H   UNL     1      -9.729  14.223  64.753  1.00  0.00     0.000 HD 
BRANCH   4   6
HETATM    6  C   UNL     1     -11.403  13.314  65.599  1.00  0.00    -0.304 C  
BRANCH   6   7
HETATM    7  C   UNL     1     -11.264  12.222  66.641  1.00  0.00    -0.367 A  
HETATM    8  C   UNL     1     -10.509  11.071  66.367  1.00  0.00    -0.312 A  
HETATM    9  C   UNL     1     -10.434  10.033  67.298  1.00  0.00    -0.313 A  
HETATM   10  C   UNL     1     -11.107  10.130  68.522  1.00  0.00    -0.266 A  
HETATM   11  C   UNL     1     -11.898  12.334  67.887  1.00  0.00    -0.358 A  
HETATM   12  C   UNL     1     -11.817  11.298  68.826  1.00  0.00    -0.396 A  
BRANCH  10  13
HETATM   13  C   UNL     1     -11.028   8.974  69.460  1.00  0.00    -0.106 C  
HETATM   14  O   UNL     1     -10.142   8.137  69.326  1.00  0.00    -0.191 OA 
HETATM   15  N   UNL     1     -12.018   8.891  70.421  1.00  0.00    -0.472 N  
HETATM   16  H   UNL     1     -12.679   9.660  70.530  1.00  0.00     0.000 HD 
BRANCH  15  17
HETATM   17  C   UNL     1     -12.133   7.719  71.283  1.00  0.00    -0.306 C  
HETATM   18  C   UNL     1     -11.410   7.964  72.603  1.00  0.00    -0.468 C  
HETATM   19  C   UNL     1     -13.601   7.371  71.530  1.00  0.00    -0.454 C  
ENDBRANCH  15  17
ENDBRANCH  10  13
ENDBRANCH   6   7
ENDBRANCH   4   6
ENDBRANCH   2   4
TORSDOF 5
ENDMDL
MODEL       57
REMARK 921   NORMALIZED FREE ENERGY PREDICTED BY IDOCK:   -4.38 KCAL/MOL
REMARK 922        TOTAL FREE ENERGY PREDICTED BY IDOCK:   -6.05 KCAL/MOL
REMARK 923 INTER-LIGAND FREE ENERGY PREDICTED BY IDOCK:   -5.75 KCAL/MOL
REMARK 924 INTRA-LIGAND FREE ENERGY PREDICTED BY IDOCK:   -0.30 KCAL/MOL
REMARK 927      BINDING AFFINITY PREDICTED BY RF-SCORE:    0.00 PKD
ROOT
HETATM    1  C   UNL     1     -10.319  19.707  65.972  1.00  0.00    -0.523 C  
HETATM    2  N   UNL     1     -11.003  18.667  65.199  1.00  0.00    -0.382 NA 
HETATM    3  H   UNL     1     -10.930  18.813  64.192  1.00  0.00     0.000 HD 
ENDROOT
BRANCH   2   4
HETATM    4  N   UNL     1     -10.485  17.375  65.618  1.00  0.00    -0.601 NA 
HETATM    5  H   UNL     1     -10.741  17.153  66.580  1.00  0.00     0.000 HD 
BRANCH   4   6
HETATM    6  C   UNL     1     -10.921  16.331  64.673  1.00  0.00    -0.194 C  
BRANCH   6   7
HETATM    7  C   UNL     1     -10.992  14.984  65.362  1.00  0.00    -0.380 A  
HETATM    8  C   UNL     1     -12.172  14.224  65.317  1.00  0.00    -0.414 A  
HETATM    9  C   UNL     1     -12.265  13.013  66.006  1.00  0.00    -0.463 A  
HETATM   10  C   UNL     1     -11.177  12.536  66.748  1.00  0.00    -0.347 A  
HETATM   11  C   UNL     1      -9.891  14.477  66.068  1.00  0.00    -0.342 A  
HETATM   12  C   UNL     1      -9.978  13.259  66.753  1.00  0.00    -0.263 A  
BRANCH  10  13
HETATM   13  C   UNL     1     -11.345  11.259  67.499  1.00  0.00    -0.288 C  
HETATM   14  O   UNL     1     -12.225  11.159  68.347  1.00  0.00    -0.610 OA 
HETATM   15  N   UNL     1     -10.437  10.255  67.218  1.00  0.00    -0.236 N  
HETATM   16  H   UNL     1      -9.780  10.373  66.447  1.00  0.00     0.000 HD 
BRANCH  15  17
HETATM   17  C   UNL     1     -10.405   9.029  68.007  1.00  0.00    -0.224 C  
HETATM   18  C   UNL     1     -10.125   7.830  67.106  1.00  0.00    -0.328 C  
HETATM   19  C   UNL     1      -9.355   9.125  69.114  1.00  0.00    -0.152 C  
ENDBRANCH  15  17
ENDBRANCH  10  13
ENDBRANCH   6   7
ENDBRANCH   4   6
ENDBRANCH   2   4
TORSDOF 5
ENDMDL
MODEL       58
REMARK 921   NORMALIZED FREE ENERGY PREDICTED BY IDOCK:   -4.37 KCAL/MOL
REMARK 922        TOTAL FREE ENERGY PREDICTED BY IDOCK:   -6.04 KCAL/MOL
REMARK 923 INTER-LIGAND FREE ENERGY PREDICTED BY IDOCK:   -5.79 KCAL/MOL
REMARK 924 INTRA-LIGAND FREE ENERGY PREDICTED BY IDOCK:   -0.25 KCAL/MOL
REMARK 927      BINDING AFFINITY PREDICTED BY RF-SCORE:    0.00 PKD
ROOT
HETATM    1  C   UNL     1     -11.557  11.982  66.112  1.00  0.00    -0.304 C  
HETATM    2  N   UNL     1     -12.157  12.316  67.407  1.00  0.00    -0.503 NA 
HETATM    3  H   UNL     1     -13.097  12.702  67.317  1.00  0.00     0.000 HD 
ENDROOT
BRANCH   2   4
HETATM    4  N   UNL     1     -12.116  11.130  68.246  1.00  0.00    -0.735 NA 
HETATM    5  H   UNL     1     -11.314  10.536  68.032  1.00  0.00     0.000 HD 
BRANCH   4   6
HETATM    6  C   UNL     1     -12.152  11.521  69.667  1.00  0.00    -0.296 C  
BRANCH   6   7
HETATM    7  C   UNL     1     -11.777  10.351  70.553  1.00  0.00    -0.434 A  
HETATM    8  C   UNL     1     -10.497   9.779  70.472  1.00  0.00    -0.366 A  
HETATM    9  C   UNL     1     -10.169   8.659  71.238  1.00  0.00    -0.308 A  
HETATM   10  C   UNL     1     -11.113   8.093  72.104  1.00  0.00    -0.386 A  
HETATM   11  C   UNL     1     -12.702   9.808  71.457  1.00  0.00    -0.504 A  
HETATM   12  C   UNL     1     -12.373   8.689  72.233  1.00  0.00    -0.449 A  
BRANCH  10  13
HETATM   13  C   UNL     1     -10.724   6.872  72.865  1.00  0.00    -0.277 C  
HETATM   14  O   UNL     1     -10.392   6.965  74.043  1.00  0.00    -0.363 OA 
HETATM   15  N   UNL     1     -10.711   5.683  72.160  1.00  0.00    -0.226 N  
HETATM   16  H   UNL     1     -11.073   5.661  71.207  1.00  0.00     0.000 HD 
BRANCH  15  17
HETATM   17  C   UNL     1     -10.189   4.459  72.759  1.00  0.00    -0.176 C  
HETATM   18  C   UNL     1     -11.305   3.708  73.478  1.00  0.00    -0.233 C  
HETATM   19  C   UNL     1      -9.541   3.572  71.697  1.00  0.00    -0.228 C  
ENDBRANCH  15  17
ENDBRANCH  10  13
ENDBRANCH   6   7
ENDBRANCH   4   6
ENDBRANCH   2   4
TORSDOF 5
ENDMDL
MODEL       59
REMARK 921   NORMALIZED FREE ENERGY PREDICTED BY IDOCK:   -4.37 KCAL/MOL
REMARK 922        TOTAL FREE ENERGY PREDICTED BY IDOCK:   -6.04 KCAL/MOL
REMARK 923 INTER-LIGAND FREE ENERGY PREDICTED BY IDOCK:   -5.69 KCAL/MOL
REMARK 924 INTRA-LIGAND FREE ENERGY PREDICTED BY IDOCK:   -0.35 KCAL/MOL
REMARK 927      BINDING AFFINITY PREDICTED BY RF-SCORE:    0.00 PKD
ROOT
HETATM    1  C   UNL     1     -10.747  11.556  63.747  1.00  0.00    -0.408 C  
HETATM    2  N   UNL     1     -11.036  11.394  65.174  1.00  0.00    -0.235 NA 
HETATM    3  H   UNL     1     -10.202  11.476  65.756  1.00  0.00     0.000 HD 
ENDROOT
BRANCH   2   4
HETATM    4  N   UNL     1     -12.070  12.347  65.540  1.00  0.00    -0.559 NA 
HETATM    5  H   UNL     1     -13.004  11.936  65.495  1.00  0.00     0.000 HD 
BRANCH   4   6
HETATM    6  C   UNL     1     -11.779  12.917  66.868  1.00  0.00    -0.382 C  
BRANCH   6   7
HETATM    7  C   UNL     1     -11.350  14.365  66.745  1.00  0.00    -0.360 A  
HETATM    8  C   UNL     1     -10.986  14.895  65.498  1.00  0.00    -0.355 A  
HETATM    9  C   UNL     1     -10.526  16.209  65.390  1.00  0.00    -0.396 A  
HETATM   10  C   UNL     1     -10.426  17.019  66.528  1.00  0.00    -0.250 A  
HETATM   11  C   UNL     1     -11.293  15.196  67.874  1.00  0.00    -0.346 A  
HETATM   12  C   UNL     1     -10.839  16.516  67.769  1.00  0.00    -0.304 A  
BRANCH  10  13
HETATM   13  C   UNL     1      -9.888  18.399  66.363  1.00  0.00    -0.360 C  
HETATM   14  O   UNL     1     -10.626  19.302  65.984  1.00  0.00    -0.471 OA 
HETATM   15  N   UNL     1      -8.538  18.568  66.606  1.00  0.00    -0.279 N  
HETATM   16  H   UNL     1      -7.997  17.795  66.993  1.00  0.00     0.000 HD 
BRANCH  15  17
HETATM   17  C   UNL     1      -7.874  19.834  66.316  1.00  0.00    -0.328 C  
HETATM   18  C   UNL     1      -7.368  20.470  67.606  1.00  0.00    -0.338 C  
HETATM   19  C   UNL     1      -6.724  19.630  65.331  1.00  0.00    -0.319 C  
ENDBRANCH  15  17
ENDBRANCH  10  13
ENDBRANCH   6   7
ENDBRANCH   4   6
ENDBRANCH   2   4
TORSDOF 5
ENDMDL
MODEL       60
REMARK 921   NORMALIZED FREE ENERGY PREDICTED BY IDOCK:   -4.37 KCAL/MOL
REMARK 922        TOTAL FREE ENERGY PREDICTED BY IDOCK:   -6.03 KCAL/MOL
REMARK 923 INTER-LIGAND FREE ENERGY PREDICTED BY IDOCK:   -5.73 KCAL/MOL
REMARK 924 INTRA-LIGAND FREE ENERGY PREDICTED BY IDOCK:   -0.31 KCAL/MOL
REMARK 927      BINDING AFFINITY PREDICTED BY RF-SCORE:    0.00 PKD
ROOT
HETATM    1  C   UNL     1      -8.678   9.296  64.000  1.00  0.00    -0.171 C  
HETATM    2  N   UNL     1      -9.724   9.739  64.925  1.00  0.00    -0.415 NA 
HETATM    3  H   UNL     1      -9.368   9.921  65.864  1.00  0.00     0.000 HD 
ENDROOT
BRANCH   2   4
HETATM    4  N   UNL     1     -10.386  10.895  64.343  1.00  0.00    -0.357 NA 
HETATM    5  H   UNL     1     -10.979  10.639  63.552  1.00  0.00     0.000 HD 
BRANCH   4   6
HETATM    6  C   UNL     1     -11.136  11.620  65.385  1.00  0.00    -0.239 C  
BRANCH   6   7
HETATM    7  C   UNL     1     -10.604  13.029  65.543  1.00  0.00    -0.297 A  
HETATM    8  C   UNL     1      -9.563  13.299  66.444  1.00  0.00    -0.260 A  
HETATM    9  C   UNL     1      -9.115  14.606  66.642  1.00  0.00    -0.285 A  
HETATM   10  C   UNL     1      -9.696  15.668  65.938  1.00  0.00    -0.388 A  
HETATM   11  C   UNL     1     -11.150  14.091  64.806  1.00  0.00    -0.391 A  
HETATM   12  C   UNL     1     -10.698  15.402  64.996  1.00  0.00    -0.460 A  
BRANCH  10  13
HETATM   13  C   UNL     1      -9.209  17.048  66.219  1.00  0.00    -0.247 C  
HETATM   14  O   UNL     1      -8.114  17.408  65.801  1.00  0.00    -0.543 OA 
HETATM   15  N   UNL     1     -10.026  17.843  67.002  1.00  0.00    -0.310 N  
HETATM   16  H   UNL     1     -10.958  17.513  67.252  1.00  0.00     0.000 HD 
BRANCH  15  17
HETATM   17  C   UNL     1      -9.576  19.147  67.476  1.00  0.00    -0.310 C  
HETATM   18  C   UNL     1     -10.134  20.252  66.585  1.00  0.00    -0.538 C  
HETATM   19  C   UNL     1      -9.991  19.368  68.930  1.00  0.00    -0.519 C  
ENDBRANCH  15  17
ENDBRANCH  10  13
ENDBRANCH   6   7
ENDBRANCH   4   6
ENDBRANCH   2   4
TORSDOF 5
ENDMDL
MODEL       61
REMARK 921   NORMALIZED FREE ENERGY PREDICTED BY IDOCK:   -4.35 KCAL/MOL
REMARK 922        TOTAL FREE ENERGY PREDICTED BY IDOCK:   -6.01 KCAL/MOL
REMARK 923 INTER-LIGAND FREE ENERGY PREDICTED BY IDOCK:   -5.66 KCAL/MOL
REMARK 924 INTRA-LIGAND FREE ENERGY PREDICTED BY IDOCK:   -0.35 KCAL/MOL
REMARK 927      BINDING AFFINITY PREDICTED BY RF-SCORE:    0.00 PKD
ROOT
HETATM    1  C   UNL     1     -14.367  15.318  71.657  1.00  0.00    -0.561 C  
HETATM    2  N   UNL     1     -13.351  15.527  70.622  1.00  0.00    -0.794 NA 
HETATM    3  H   UNL     1     -12.728  16.308  70.834  1.00  0.00     0.000 HD 
ENDROOT
BRANCH   2   4
HETATM    4  N   UNL     1     -12.636  14.277  70.428  1.00  0.00    -0.351 NA 
HETATM    5  H   UNL     1     -11.625  14.395  70.514  1.00  0.00     0.000 HD 
BRANCH   4   6
HETATM    6  C   UNL     1     -13.153  13.255  71.357  1.00  0.00    -0.277 C  
BRANCH   6   7
HETATM    7  C   UNL     1     -12.635  11.882  70.983  1.00  0.00    -0.381 A  
HETATM    8  C   UNL     1     -12.921  10.770  71.791  1.00  0.00    -0.568 A  
HETATM    9  C   UNL     1     -12.390   9.516  71.487  1.00  0.00    -0.465 A  
HETATM   10  C   UNL     1     -11.567   9.347  70.366  1.00  0.00    -0.241 A  
HETATM   11  C   UNL     1     -11.849  11.697  69.835  1.00  0.00    -0.434 A  
HETATM   12  C   UNL     1     -11.322  10.438  69.524  1.00  0.00    -0.325 A  
BRANCH  10  13
HETATM   13  C   UNL     1     -10.992   7.995  70.113  1.00  0.00    -0.226 C  
HETATM   14  O   UNL     1     -10.917   7.181  71.027  1.00  0.00    -0.243 OA 
HETATM   15  N   UNL     1     -10.519   7.756  68.837  1.00  0.00    -0.253 N  
HETATM   16  H   UNL     1     -10.683   8.445  68.103  1.00  0.00     0.000 HD 
BRANCH  15  17
HETATM   17  C   UNL     1      -9.790   6.532  68.523  1.00  0.00    -0.138 C  
HETATM   18  C   UNL     1     -10.626   5.640  67.612  1.00  0.00    -0.279 C  
HETATM   19  C   UNL     1      -8.446   6.856  67.870  1.00  0.00    -0.120 C  
ENDBRANCH  15  17
ENDBRANCH  10  13
ENDBRANCH   6   7
ENDBRANCH   4   6
ENDBRANCH   2   4
TORSDOF 5
ENDMDL
MODEL       62
REMARK 921   NORMALIZED FREE ENERGY PREDICTED BY IDOCK:   -4.33 KCAL/MOL
REMARK 922        TOTAL FREE ENERGY PREDICTED BY IDOCK:   -5.99 KCAL/MOL
REMARK 923 INTER-LIGAND FREE ENERGY PREDICTED BY IDOCK:   -5.68 KCAL/MOL
REMARK 924 INTRA-LIGAND FREE ENERGY PREDICTED BY IDOCK:   -0.31 KCAL/MOL
REMARK 927      BINDING AFFINITY PREDICTED BY RF-SCORE:    0.00 PKD
ROOT
HETATM    1  C   UNL     1      -8.478   4.948  71.782  1.00  0.00    -0.123 C  
HETATM    2  N   UNL     1      -9.919   5.200  71.857  1.00  0.00    -0.177 NA 
HETATM    3  H   UNL     1     -10.328   4.889  72.739  1.00  0.00     0.000 HD 
ENDROOT
BRANCH   2   4
HETATM    4  N   UNL     1     -10.148   6.613  71.601  1.00  0.00    -0.185 NA 
HETATM    5  H   UNL     1      -9.443   7.009  70.979  1.00  0.00     0.000 HD 
BRANCH   4   6
HETATM    6  C   UNL     1     -11.515   6.814  71.088  1.00  0.00    -0.314 C  
BRANCH   6   7
HETATM    7  C   UNL     1     -11.891   8.280  71.130  1.00  0.00    -0.302 A  
HETATM    8  C   UNL     1     -11.152   9.225  70.402  1.00  0.00    -0.300 A  
HETATM    9  C   UNL     1     -11.453  10.585  70.490  1.00  0.00    -0.433 A  
HETATM   10  C   UNL     1     -12.504  11.026  71.305  1.00  0.00    -0.475 A  
HETATM   11  C   UNL     1     -12.973   8.723  71.907  1.00  0.00    -0.421 A  
HETATM   12  C   UNL     1     -13.283  10.086  71.991  1.00  0.00    -0.545 A  
BRANCH  10  13
HETATM   13  C   UNL     1     -12.755  12.493  71.395  1.00  0.00    -0.243 C  
HETATM   14  O   UNL     1     -13.628  12.919  72.144  1.00  0.00    -0.528 OA 
HETATM   15  N   UNL     1     -12.000  13.300  70.566  1.00  0.00    -0.523 N  
HETATM   16  H   UNL     1     -11.237  12.891  70.025  1.00  0.00     0.000 HD 
BRANCH  15  17
HETATM   17  C   UNL     1     -12.275  14.728  70.451  1.00  0.00    -0.336 C  
HETATM   18  C   UNL     1     -11.414  15.511  71.437  1.00  0.00    -0.478 C  
HETATM   19  C   UNL     1     -12.031  15.213  69.022  1.00  0.00    -0.295 C  
ENDBRANCH  15  17
ENDBRANCH  10  13
ENDBRANCH   6   7
ENDBRANCH   4   6
ENDBRANCH   2   4
TORSDOF 5
ENDMDL
MODEL       63
REMARK 921   NORMALIZED FREE ENERGY PREDICTED BY IDOCK:   -4.32 KCAL/MOL
REMARK 922        TOTAL FREE ENERGY PREDICTED BY IDOCK:   -5.98 KCAL/MOL
REMARK 923 INTER-LIGAND FREE ENERGY PREDICTED BY IDOCK:   -5.72 KCAL/MOL
REMARK 924 INTRA-LIGAND FREE ENERGY PREDICTED BY IDOCK:   -0.26 KCAL/MOL
REMARK 927      BINDING AFFINITY PREDICTED BY RF-SCORE:    0.00 PKD
ROOT
HETATM    1  C   UNL     1      -6.312  19.332  66.146  1.00  0.00    -0.184 C  
HETATM    2  N   UNL     1      -6.935  18.174  65.500  1.00  0.00    -0.510 NA 
HETATM    3  H   UNL     1      -6.309  17.370  65.445  1.00  0.00     0.000 HD 
ENDROOT
BRANCH   2   4
HETATM    4  N   UNL     1      -8.173  17.874  66.200  1.00  0.00    -0.484 NA 
HETATM    5  H   UNL     1      -8.939  18.478  65.901  1.00  0.00     0.000 HD 
BRANCH   4   6
HETATM    6  C   UNL     1      -8.503  16.445  66.044  1.00  0.00    -0.170 C  
BRANCH   6   7
HETATM    7  C   UNL     1      -9.428  15.986  67.152  1.00  0.00    -0.225 A  
HETATM    8  C   UNL     1      -9.126  16.269  68.493  1.00  0.00    -0.216 A  
HETATM    9  C   UNL     1      -9.940  15.790  69.521  1.00  0.00    -0.283 A  
HETATM   10  C   UNL     1     -11.076  15.025  69.227  1.00  0.00    -0.280 A  
HETATM   11  C   UNL     1     -10.593  15.260  66.861  1.00  0.00    -0.304 A  
HETATM   12  C   UNL     1     -11.416  14.786  67.890  1.00  0.00    -0.361 A  
BRANCH  10  13
HETATM   13  C   UNL     1     -11.886  14.504  70.364  1.00  0.00    -0.311 C  
HETATM   14  O   UNL     1     -12.435  13.412  70.275  1.00  0.00    -0.290 OA 
HETATM   15  N   UNL     1     -12.012  15.334  71.463  1.00  0.00    -0.331 N  
HETATM   16  H   UNL     1     -11.466  16.195  71.507  1.00  0.00     0.000 HD 
BRANCH  15  17
HETATM   17  C   UNL     1     -12.913  14.998  72.560  1.00  0.00    -0.374 C  
HETATM   18  C   UNL     1     -12.480  15.714  73.835  1.00  0.00    -0.759 C  
HETATM   19  C   UNL     1     -14.355  15.358  72.205  1.00  0.00    -0.642 C  
ENDBRANCH  15  17
ENDBRANCH  10  13
ENDBRANCH   6   7
ENDBRANCH   4   6
ENDBRANCH   2   4
TORSDOF 5
ENDMDL
MODEL       64
REMARK 921   NORMALIZED FREE ENERGY PREDICTED BY IDOCK:   -4.31 KCAL/MOL
REMARK 922        TOTAL FREE ENERGY PREDICTED BY IDOCK:   -5.96 KCAL/MOL
REMARK 923 INTER-LIGAND FREE ENERGY PREDICTED BY IDOCK:   -5.60 KCAL/MOL
REMARK 924 INTRA-LIGAND FREE ENERGY PREDICTED BY IDOCK:   -0.37 KCAL/MOL
REMARK 927      BINDING AFFINITY PREDICTED BY RF-SCORE:    0.00 PKD
ROOT
HETATM    1  C   UNL     1     -10.744   9.718  67.412  1.00  0.00    -0.249 C  
HETATM    2  N   UNL     1     -11.733  10.560  68.089  1.00  0.00    -0.760 NA 
HETATM    3  H   UNL     1     -11.454  10.812  69.037  1.00  0.00     0.000 HD 
ENDROOT
BRANCH   2   4
HETATM    4  N   UNL     1     -11.988  11.722  67.253  1.00  0.00    -0.607 NA 
HETATM    5  H   UNL     1     -12.018  12.586  67.796  1.00  0.00     0.000 HD 
BRANCH   4   6
HETATM    6  C   UNL     1     -10.994  11.785  66.166  1.00  0.00    -0.307 C  
BRANCH   6   7
HETATM    7  C   UNL     1     -10.237  13.096  66.210  1.00  0.00    -0.294 A  
HETATM    8  C   UNL     1      -9.155  13.263  67.087  1.00  0.00    -0.231 A  
HETATM    9  C   UNL     1      -8.497  14.491  67.179  1.00  0.00    -0.234 A  
HETATM   10  C   UNL     1      -8.906  15.574  66.390  1.00  0.00    -0.359 A  
HETATM   11  C   UNL     1     -10.612  14.170  65.388  1.00  0.00    -0.358 A  
HETATM   12  C   UNL     1      -9.949  15.400  65.472  1.00  0.00    -0.379 A  
BRANCH  10  13
HETATM   13  C   UNL     1      -8.196  16.874  66.559  1.00  0.00    -0.285 C  
HETATM   14  O   UNL     1      -7.980  17.584  65.584  1.00  0.00    -0.512 OA 
HETATM   15  N   UNL     1      -7.768  17.181  67.837  1.00  0.00    -0.181 N  
HETATM   16  H   UNL     1      -8.048  16.586  68.617  1.00  0.00     0.000 HD 
BRANCH  15  17
HETATM   17  C   UNL     1      -6.922  18.343  68.088  1.00  0.00    -0.235 C  
HETATM   18  C   UNL     1      -7.773  19.524  68.542  1.00  0.00    -0.389 C  
HETATM   19  C   UNL     1      -5.853  18.018  69.131  1.00  0.00    -0.218 C  
ENDBRANCH  15  17
ENDBRANCH  10  13
ENDBRANCH   6   7
ENDBRANCH   4   6
ENDBRANCH   2   4
TORSDOF 5
ENDMDL
MODEL       65
REMARK 921   NORMALIZED FREE ENERGY PREDICTED BY IDOCK:   -4.30 KCAL/MOL
REMARK 922        TOTAL FREE ENERGY PREDICTED BY IDOCK:   -5.94 KCAL/MOL
REMARK 923 INTER-LIGAND FREE ENERGY PREDICTED BY IDOCK:   -5.61 KCAL/MOL
REMARK 924 INTRA-LIGAND FREE ENERGY PREDICTED BY IDOCK:   -0.33 KCAL/MOL
REMARK 927      BINDING AFFINITY PREDICTED BY RF-SCORE:    0.00 PKD
ROOT
HETATM    1  C   UNL     1     -10.512   6.672  73.915  1.00  0.00    -0.326 C  
HETATM    2  N   UNL     1     -11.131   7.839  73.280  1.00  0.00    -0.461 NA 
HETATM    3  H   UNL     1     -11.414   8.550  73.955  1.00  0.00     0.000 HD 
ENDROOT
BRANCH   2   4
HETATM    4  N   UNL     1     -10.212   8.353  72.278  1.00  0.00    -0.306 NA 
HETATM    5  H   UNL     1      -9.239   8.149  72.509  1.00  0.00     0.000 HD 
BRANCH   4   6
HETATM    6  C   UNL     1     -10.584   7.838  70.948  1.00  0.00    -0.213 C  
BRANCH   6   7
HETATM    7  C   UNL     1     -10.963   8.975  70.021  1.00  0.00    -0.230 A  
HETATM    8  C   UNL     1     -10.618   8.929  68.662  1.00  0.00    -0.182 A  
HETATM    9  C   UNL     1     -10.907  10.004  67.819  1.00  0.00    -0.337 A  
HETATM   10  C   UNL     1     -11.551  11.142  68.318  1.00  0.00    -0.359 A  
HETATM   11  C   UNL     1     -11.651  10.098  70.505  1.00  0.00    -0.411 A  
HETATM   12  C   UNL     1     -11.949  11.174  69.661  1.00  0.00    -0.429 A  
BRANCH  10  13
HETATM   13  C   UNL     1     -11.796  12.278  67.384  1.00  0.00    -0.257 C  
HETATM   14  O   UNL     1     -12.194  13.353  67.819  1.00  0.00    -0.291 OA 
HETATM   15  N   UNL     1     -11.602  12.023  66.040  1.00  0.00    -0.355 N  
HETATM   16  H   UNL     1     -11.195  11.133  65.751  1.00  0.00     0.000 HD 
BRANCH  15  17
HETATM   17  C   UNL     1     -11.969  13.006  65.027  1.00  0.00    -0.397 C  
HETATM   18  C   UNL     1     -10.778  13.904  64.708  1.00  0.00    -0.437 C  
HETATM   19  C   UNL     1     -12.475  12.316  63.760  1.00  0.00    -0.619 C  
ENDBRANCH  15  17
ENDBRANCH  10  13
ENDBRANCH   6   7
ENDBRANCH   4   6
ENDBRANCH   2   4
TORSDOF 5
ENDMDL
MODEL       66
REMARK 921   NORMALIZED FREE ENERGY PREDICTED BY IDOCK:   -4.27 KCAL/MOL
REMARK 922        TOTAL FREE ENERGY PREDICTED BY IDOCK:   -5.91 KCAL/MOL
REMARK 923 INTER-LIGAND FREE ENERGY PREDICTED BY IDOCK:   -5.55 KCAL/MOL
REMARK 924 INTRA-LIGAND FREE ENERGY PREDICTED BY IDOCK:   -0.36 KCAL/MOL
REMARK 927      BINDING AFFINITY PREDICTED BY RF-SCORE:    0.00 PKD
ROOT
HETATM    1  C   UNL     1     -11.750  15.661  64.331  1.00  0.00    -0.218 C  
HETATM    2  N   UNL     1     -12.390  14.432  63.854  1.00  0.00    -1.023 NA 
HETATM    3  H   UNL     1     -11.777  13.873  63.262  1.00  0.00     0.000 HD 
ENDROOT
BRANCH   2   4
HETATM    4  N   UNL     1     -12.878  13.696  65.009  1.00  0.00    -0.733 NA 
HETATM    5  H   UNL     1     -12.750  12.689  64.904  1.00  0.00     0.000 HD 
BRANCH   4   6
HETATM    6  C   UNL     1     -12.240  14.210  66.235  1.00  0.00    -0.449 C  
BRANCH   6   7
HETATM    7  C   UNL     1     -11.803  13.068  67.129  1.00  0.00    -0.431 A  
HETATM    8  C   UNL     1     -11.770  13.229  68.523  1.00  0.00    -0.388 A  
HETATM    9  C   UNL     1     -11.305  12.202  69.346  1.00  0.00    -0.311 A  
HETATM   10  C   UNL     1     -10.870  10.992  68.791  1.00  0.00    -0.253 A  
HETATM   11  C   UNL     1     -11.411  11.836  66.583  1.00  0.00    -0.381 A  
HETATM   12  C   UNL     1     -10.952  10.801  67.407  1.00  0.00    -0.361 A  
BRANCH  10  13
HETATM   13  C   UNL     1     -10.343   9.945  69.713  1.00  0.00    -0.246 C  
HETATM   14  O   UNL     1     -10.887   9.753  70.795  1.00  0.00    -0.297 OA 
HETATM   15  N   UNL     1      -9.209   9.273  69.299  1.00  0.00    -0.148 N  
HETATM   16  H   UNL     1      -8.852   9.424  68.356  1.00  0.00     0.000 HD 
BRANCH  15  17
HETATM   17  C   UNL     1      -8.515   8.349  70.190  1.00  0.00    -0.126 C  
HETATM   18  C   UNL     1      -8.868   6.909  69.834  1.00  0.00    -0.142 C  
HETATM   19  C   UNL     1      -7.003   8.565  70.121  1.00  0.00    -0.043 C  
ENDBRANCH  15  17
ENDBRANCH  10  13
ENDBRANCH   6   7
ENDBRANCH   4   6
ENDBRANCH   2   4
TORSDOF 5
ENDMDL
MODEL       67
REMARK 921   NORMALIZED FREE ENERGY PREDICTED BY IDOCK:   -4.27 KCAL/MOL
REMARK 922        TOTAL FREE ENERGY PREDICTED BY IDOCK:   -5.90 KCAL/MOL
REMARK 923 INTER-LIGAND FREE ENERGY PREDICTED BY IDOCK:   -5.58 KCAL/MOL
REMARK 924 INTRA-LIGAND FREE ENERGY PREDICTED BY IDOCK:   -0.33 KCAL/MOL
REMARK 927      BINDING AFFINITY PREDICTED BY RF-SCORE:    0.00 PKD
ROOT
HETATM    1  C   UNL     1      -9.814  20.047  67.008  1.00  0.00    -0.430 C  
HETATM    2  N   UNL     1     -10.525  19.960  68.286  1.00  0.00    -0.401 NA 
HETATM    3  H   UNL     1     -11.523  20.153  68.195  1.00  0.00     0.000 HD 
ENDROOT
BRANCH   2   4
HETATM    4  N   UNL     1     -10.257  18.655  68.868  1.00  0.00    -0.475 NA 
HETATM    5  H   UNL     1     -11.100  18.082  68.929  1.00  0.00     0.000 HD 
BRANCH   4   6
HETATM    6  C   UNL     1      -9.184  17.982  68.114  1.00  0.00    -0.279 C  
BRANCH   6   7
HETATM    7  C   UNL     1      -9.659  16.643  67.588  1.00  0.00    -0.239 A  
HETATM    8  C   UNL     1      -8.781  15.803  66.886  1.00  0.00    -0.274 A  
HETATM    9  C   UNL     1      -9.231  14.599  66.343  1.00  0.00    -0.280 A  
HETATM   10  C   UNL     1     -10.568  14.209  66.495  1.00  0.00    -0.282 A  
HETATM   11  C   UNL     1     -10.985  16.225  67.779  1.00  0.00    -0.281 A  
HETATM   12  C   UNL     1     -11.438  15.014  67.242  1.00  0.00    -0.312 A  
BRANCH  10  13
HETATM   13  C   UNL     1     -11.006  12.935  65.858  1.00  0.00    -0.276 C  
HETATM   14  O   UNL     1     -12.071  12.422  66.183  1.00  0.00    -0.611 OA 
HETATM   15  N   UNL     1     -10.131  12.368  64.949  1.00  0.00    -0.374 N  
HETATM   16  H   UNL     1      -9.299  12.884  64.664  1.00  0.00     0.000 HD 
BRANCH  15  17
HETATM   17  C   UNL     1     -10.381  11.044  64.391  1.00  0.00    -0.358 C  
HETATM   18  C   UNL     1      -9.910  10.986  62.942  1.00  0.00    -0.319 C  
HETATM   19  C   UNL     1      -9.688   9.966  65.225  1.00  0.00    -0.383 C  
ENDBRANCH  15  17
ENDBRANCH  10  13
ENDBRANCH   6   7
ENDBRANCH   4   6
ENDBRANCH   2   4
TORSDOF 5
ENDMDL
MODEL       68
REMARK 921   NORMALIZED FREE ENERGY PREDICTED BY IDOCK:   -4.23 KCAL/MOL
REMARK 922        TOTAL FREE ENERGY PREDICTED BY IDOCK:   -5.86 KCAL/MOL
REMARK 923 INTER-LIGAND FREE ENERGY PREDICTED BY IDOCK:   -5.57 KCAL/MOL
REMARK 924 INTRA-LIGAND FREE ENERGY PREDICTED BY IDOCK:   -0.29 KCAL/MOL
REMARK 927      BINDING AFFINITY PREDICTED BY RF-SCORE:    0.00 PKD
ROOT
HETATM    1  C   UNL     1      -7.996   6.718  66.811  1.00  0.00    -0.108 C  
HETATM    2  N   UNL     1      -8.974   7.567  66.124  1.00  0.00    -0.205 NA 
HETATM    3  H   UNL     1      -9.839   7.072  65.904  1.00  0.00     0.000 HD 
ENDROOT
BRANCH   2   4
HETATM    4  N   UNL     1      -9.196   8.751  66.937  1.00  0.00    -0.149 NA 
HETATM    5  H   UNL     1      -8.745   9.577  66.542  1.00  0.00     0.000 HD 
BRANCH   4   6
HETATM    6  C   UNL     1     -10.642   8.955  67.140  1.00  0.00    -0.231 C  
BRANCH   6   7
HETATM    7  C   UNL     1     -10.916  10.345  67.675  1.00  0.00    -0.374 A  
HETATM    8  C   UNL     1     -11.388  10.522  68.985  1.00  0.00    -0.319 A  
HETATM    9  C   UNL     1     -11.705  11.795  69.461  1.00  0.00    -0.408 A  
HETATM   10  C   UNL     1     -11.552  12.917  68.637  1.00  0.00    -0.353 A  
HETATM   11  C   UNL     1     -10.720  11.477  66.871  1.00  0.00    -0.304 A  
HETATM   12  C   UNL     1     -11.029  12.757  67.347  1.00  0.00    -0.285 A  
BRANCH  10  13
HETATM   13  C   UNL     1     -11.946  14.248  69.181  1.00  0.00    -0.335 C  
HETATM   14  O   UNL     1     -11.526  15.273  68.655  1.00  0.00    -0.301 OA 
HETATM   15  N   UNL     1     -12.744  14.240  70.309  1.00  0.00    -0.430 N  
HETATM   16  H   UNL     1     -13.124  13.357  70.650  1.00  0.00     0.000 HD 
BRANCH  15  17
HETATM   17  C   UNL     1     -13.053  15.476  71.020  1.00  0.00    -0.489 C  
HETATM   18  C   UNL     1     -14.367  15.332  71.780  1.00  0.00    -0.678 C  
HETATM   19  C   UNL     1     -11.918  15.850  71.974  1.00  0.00    -0.602 C  
ENDBRANCH  15  17
ENDBRANCH  10  13
ENDBRANCH   6   7
ENDBRANCH   4   6
ENDBRANCH   2   4
TORSDOF 5
ENDMDL
MODEL       69
REMARK 921   NORMALIZED FREE ENERGY PREDICTED BY IDOCK:   -4.21 KCAL/MOL
REMARK 922        TOTAL FREE ENERGY PREDICTED BY IDOCK:   -5.83 KCAL/MOL
REMARK 923 INTER-LIGAND FREE ENERGY PREDICTED BY IDOCK:   -5.56 KCAL/MOL
REMARK 924 INTRA-LIGAND FREE ENERGY PREDICTED BY IDOCK:   -0.27 KCAL/MOL
REMARK 927      BINDING AFFINITY PREDICTED BY RF-SCORE:    0.00 PKD
ROOT
HETATM    1  C   UNL     1      -5.783  20.400  64.170  1.00  0.00    -0.245 C  
HETATM    2  N   UNL     1      -6.440  21.194  65.212  1.00  0.00    -0.480 NA 
HETATM    3  H   UNL     1      -7.400  21.440  64.973  1.00  0.00     0.000 HD 
ENDROOT
BRANCH   2   4
HETATM    4  N   UNL     1      -6.344  20.465  66.466  1.00  0.00    -0.203 NA 
HETATM    5  H   UNL     1      -5.461  20.643  66.947  1.00  0.00     0.000 HD 
BRANCH   4   6
HETATM    6  C   UNL     1      -7.508  20.775  67.315  1.00  0.00    -0.328 C  
BRANCH   6   7
HETATM    7  C   UNL     1      -8.403  19.561  67.458  1.00  0.00    -0.333 A  
HETATM    8  C   UNL     1      -9.486  19.370  66.585  1.00  0.00    -0.416 A  
HETATM    9  C   UNL     1     -10.353  18.289  66.754  1.00  0.00    -0.403 A  
HETATM   10  C   UNL     1     -10.150  17.375  67.796  1.00  0.00    -0.323 A  
HETATM   11  C   UNL     1      -8.178  18.616  68.470  1.00  0.00    -0.370 A  
HETATM   12  C   UNL     1      -9.041  17.526  68.638  1.00  0.00    -0.263 A  
BRANCH  10  13
HETATM   13  C   UNL     1     -11.130  16.264  67.957  1.00  0.00    -0.299 C  
HETATM   14  O   UNL     1     -11.840  16.213  68.955  1.00  0.00    -0.327 OA 
HETATM   15  N   UNL     1     -11.141  15.303  66.963  1.00  0.00    -0.325 N  
HETATM   16  H   UNL     1     -10.583  15.444  66.121  1.00  0.00     0.000 HD 
BRANCH  15  17
HETATM   17  C   UNL     1     -11.940  14.090  67.099  1.00  0.00    -0.430 C  
HETATM   18  C   UNL     1     -12.217  13.486  65.726  1.00  0.00    -0.505 C  
HETATM   19  C   UNL     1     -11.235  13.076  67.999  1.00  0.00    -0.310 C  
ENDBRANCH  15  17
ENDBRANCH  10  13
ENDBRANCH   6   7
ENDBRANCH   4   6
ENDBRANCH   2   4
TORSDOF 5
ENDMDL
MODEL       70
REMARK 921   NORMALIZED FREE ENERGY PREDICTED BY IDOCK:   -4.16 KCAL/MOL
REMARK 922        TOTAL FREE ENERGY PREDICTED BY IDOCK:   -5.77 KCAL/MOL
REMARK 923 INTER-LIGAND FREE ENERGY PREDICTED BY IDOCK:   -5.43 KCAL/MOL
REMARK 924 INTRA-LIGAND FREE ENERGY PREDICTED BY IDOCK:   -0.34 KCAL/MOL
REMARK 927      BINDING AFFINITY PREDICTED BY RF-SCORE:    0.00 PKD
ROOT
HETATM    1  C   UNL     1     -10.419   5.509  70.954  1.00  0.00    -0.249 C  
HETATM    2  N   UNL     1     -11.688   6.242  70.954  1.00  0.00    -0.294 NA 
HETATM    3  H   UNL     1     -11.850   6.748  71.825  1.00  0.00     0.000 HD 
ENDROOT
BRANCH   2   4
HETATM    4  N   UNL     1     -11.712   7.110  69.788  1.00  0.00    -0.548 NA 
HETATM    5  H   UNL     1     -12.592   7.620  69.708  1.00  0.00     0.000 HD 
BRANCH   4   6
HETATM    6  C   UNL     1     -10.548   8.014  69.814  1.00  0.00    -0.238 C  
BRANCH   6   7
HETATM    7  C   UNL     1     -10.901   9.357  69.208  1.00  0.00    -0.190 A  
HETATM    8  C   UNL     1     -10.704   9.592  67.838  1.00  0.00    -0.285 A  
HETATM    9  C   UNL     1     -10.964  10.848  67.288  1.00  0.00    -0.355 A  
HETATM   10  C   UNL     1     -11.433  11.892  68.096  1.00  0.00    -0.384 A  
HETATM   11  C   UNL     1     -11.415  10.392  70.003  1.00  0.00    -0.382 A  
HETATM   12  C   UNL     1     -11.686  11.651  69.452  1.00  0.00    -0.405 A  
BRANCH  10  13
HETATM   13  C   UNL     1     -11.654  13.224  67.465  1.00  0.00    -0.346 C  
HETATM   14  O   UNL     1     -12.197  14.120  68.101  1.00  0.00    -0.306 OA 
HETATM   15  N   UNL     1     -11.267  13.352  66.144  1.00  0.00    -0.292 N  
HETATM   16  H   UNL     1     -10.750  12.595  65.696  1.00  0.00     0.000 HD 
BRANCH  15  17
HETATM   17  C   UNL     1     -11.585  14.554  65.380  1.00  0.00    -0.355 C  
HETATM   18  C   UNL     1     -10.345  15.429  65.234  1.00  0.00    -0.420 C  
HETATM   19  C   UNL     1     -12.150  14.188  64.008  1.00  0.00    -0.382 C  
ENDBRANCH  15  17
ENDBRANCH  10  13
ENDBRANCH   6   7
ENDBRANCH   4   6
ENDBRANCH   2   4
TORSDOF 5
ENDMDL
MODEL       71
REMARK 921   NORMALIZED FREE ENERGY PREDICTED BY IDOCK:   -4.14 KCAL/MOL
REMARK 922        TOTAL FREE ENERGY PREDICTED BY IDOCK:   -5.74 KCAL/MOL
REMARK 923 INTER-LIGAND FREE ENERGY PREDICTED BY IDOCK:   -5.37 KCAL/MOL
REMARK 924 INTRA-LIGAND FREE ENERGY PREDICTED BY IDOCK:   -0.38 KCAL/MOL
REMARK 927      BINDING AFFINITY PREDICTED BY RF-SCORE:    0.00 PKD
ROOT
HETATM    1  C   UNL     1      -7.905  10.173  63.098  1.00  0.00    -0.150 C  
HETATM    2  N   UNL     1      -8.921  11.176  62.766  1.00  0.00    -0.420 NA 
HETATM    3  H   UNL     1      -8.978  11.361  61.764  1.00  0.00     0.000 HD 
ENDROOT
BRANCH   2   4
HETATM    4  N   UNL     1     -10.189  10.742  63.329  1.00  0.00    -0.574 NA 
HETATM    5  H   UNL     1     -10.118   9.826  63.774  1.00  0.00     0.000 HD 
BRANCH   4   6
HETATM    6  C   UNL     1     -10.703  11.768  64.254  1.00  0.00    -0.342 C  
BRANCH   6   7
HETATM    7  C   UNL     1     -10.721  11.246  65.676  1.00  0.00    -0.279 A  
HETATM    8  C   UNL     1     -10.091  10.032  65.995  1.00  0.00    -0.318 A  
HETATM    9  C   UNL     1     -10.162   9.514  67.289  1.00  0.00    -0.295 A  
HETATM   10  C   UNL     1     -10.858  10.202  68.290  1.00  0.00    -0.297 A  
HETATM   11  C   UNL     1     -11.376  11.953  66.694  1.00  0.00    -0.400 A  
HETATM   12  C   UNL     1     -11.442  11.440  67.995  1.00  0.00    -0.377 A  
BRANCH  10  13
HETATM   13  C   UNL     1     -10.938   9.581  69.643  1.00  0.00    -0.212 C  
HETATM   14  O   UNL     1     -10.455  10.159  70.611  1.00  0.00    -0.229 OA 
HETATM   15  N   UNL     1     -11.524   8.331  69.715  1.00  0.00    -0.431 N  
HETATM   16  H   UNL     1     -11.976   7.940  68.888  1.00  0.00     0.000 HD 
BRANCH  15  17
HETATM   17  C   UNL     1     -11.507   7.563  70.955  1.00  0.00    -0.281 C  
HETATM   18  C   UNL     1     -12.910   7.487  71.546  1.00  0.00    -0.397 C  
HETATM   19  C   UNL     1     -10.949   6.160  70.714  1.00  0.00    -0.365 C  
ENDBRANCH  15  17
ENDBRANCH  10  13
ENDBRANCH   6   7
ENDBRANCH   4   6
ENDBRANCH   2   4
TORSDOF 5
ENDMDL
MODEL       72
REMARK 921   NORMALIZED FREE ENERGY PREDICTED BY IDOCK:   -4.14 KCAL/MOL
REMARK 922        TOTAL FREE ENERGY PREDICTED BY IDOCK:   -5.74 KCAL/MOL
REMARK 923 INTER-LIGAND FREE ENERGY PREDICTED BY IDOCK:   -5.41 KCAL/MOL
REMARK 924 INTRA-LIGAND FREE ENERGY PREDICTED BY IDOCK:   -0.33 KCAL/MOL
REMARK 927      BINDING AFFINITY PREDICTED BY RF-SCORE:    0.00 PKD
ROOT
HETATM    1  C   UNL     1      -5.568  19.722  71.849  1.00  0.00    -0.319 C  
HETATM    2  N   UNL     1      -6.243  20.320  70.694  1.00  0.00    -0.496 NA 
HETATM    3  H   UNL     1      -5.838  21.216  70.422  1.00  0.00     0.000 HD 
ENDROOT
BRANCH   2   4
HETATM    4  N   UNL     1      -6.235  19.350  69.611  1.00  0.00    -0.281 NA 
HETATM    5  H   UNL     1      -6.361  18.396  69.950  1.00  0.00     0.000 HD 
BRANCH   4   6
HETATM    6  C   UNL     1      -7.246  19.717  68.603  1.00  0.00    -0.323 C  
BRANCH   6   7
HETATM    7  C   UNL     1      -8.332  18.664  68.527  1.00  0.00    -0.369 A  
HETATM    8  C   UNL     1      -8.076  17.348  68.942  1.00  0.00    -0.183 A  
HETATM    9  C   UNL     1      -9.053  16.359  68.811  1.00  0.00    -0.244 A  
HETATM   10  C   UNL     1     -10.306  16.669  68.269  1.00  0.00    -0.304 A  
HETATM   11  C   UNL     1      -9.605  18.979  68.029  1.00  0.00    -0.383 A  
HETATM   12  C   UNL     1     -10.590  17.991  67.904  1.00  0.00    -0.387 A  
BRANCH  10  13
HETATM   13  C   UNL     1     -11.296  15.566  68.113  1.00  0.00    -0.345 C  
HETATM   14  O   UNL     1     -12.065  15.299  69.031  1.00  0.00    -0.295 OA 
HETATM   15  N   UNL     1     -11.250  14.859  66.926  1.00  0.00    -0.342 N  
HETATM   16  H   UNL     1     -10.642  15.181  66.173  1.00  0.00     0.000 HD 
BRANCH  15  17
HETATM   17  C   UNL     1     -12.057  13.659  66.733  1.00  0.00    -0.399 C  
HETATM   18  C   UNL     1     -13.019  13.854  65.566  1.00  0.00    -0.375 C  
HETATM   19  C   UNL     1     -11.166  12.440  66.497  1.00  0.00    -0.368 C  
ENDBRANCH  15  17
ENDBRANCH  10  13
ENDBRANCH   6   7
ENDBRANCH   4   6
ENDBRANCH   2   4
TORSDOF 5
ENDMDL
MODEL       73
REMARK 921   NORMALIZED FREE ENERGY PREDICTED BY IDOCK:   -4.12 KCAL/MOL
REMARK 922        TOTAL FREE ENERGY PREDICTED BY IDOCK:   -5.71 KCAL/MOL
REMARK 923 INTER-LIGAND FREE ENERGY PREDICTED BY IDOCK:   -5.36 KCAL/MOL
REMARK 924 INTRA-LIGAND FREE ENERGY PREDICTED BY IDOCK:   -0.35 KCAL/MOL
REMARK 927      BINDING AFFINITY PREDICTED BY RF-SCORE:    0.00 PKD
ROOT
HETATM    1  C   UNL     1      -8.122  20.111  67.208  1.00  0.00    -0.330 C  
HETATM    2  N   UNL     1      -8.308  19.257  66.032  1.00  0.00    -0.455 NA 
HETATM    3  H   UNL     1      -7.772  18.391  66.086  1.00  0.00     0.000 HD 
ENDROOT
BRANCH   2   4
HETATM    4  N   UNL     1      -9.732  19.025  65.859  1.00  0.00    -0.456 NA 
HETATM    5  H   UNL     1      -9.937  18.526  64.992  1.00  0.00     0.000 HD 
BRANCH   4   6
HETATM    6  C   UNL     1     -10.273  18.329  67.040  1.00  0.00    -0.378 C  
BRANCH   6   7
HETATM    7  C   UNL     1     -10.563  16.878  66.719  1.00  0.00    -0.201 A  
HETATM    8  C   UNL     1     -10.791  15.953  67.750  1.00  0.00    -0.324 A  
HETATM    9  C   UNL     1     -10.992  14.602  67.462  1.00  0.00    -0.301 A  
HETATM   10  C   UNL     1     -10.976  14.151  66.136  1.00  0.00    -0.309 A  
HETATM   11  C   UNL     1     -10.595  16.428  65.390  1.00  0.00    -0.338 A  
HETATM   12  C   UNL     1     -10.805  15.075  65.098  1.00  0.00    -0.422 A  
BRANCH  10  13
HETATM   13  C   UNL     1     -11.153  12.692  65.889  1.00  0.00    -0.289 C  
HETATM   14  O   UNL     1     -12.254  12.255  65.571  1.00  0.00    -0.577 OA 
HETATM   15  N   UNL     1     -10.043  11.893  66.089  1.00  0.00    -0.221 N  
HETATM   16  H   UNL     1      -9.139  12.327  66.276  1.00  0.00     0.000 HD 
BRANCH  15  17
HETATM   17  C   UNL     1     -10.145  10.439  66.037  1.00  0.00    -0.243 C  
HETATM   18  C   UNL     1      -9.359   9.899  64.847  1.00  0.00    -0.329 C  
HETATM   19  C   UNL     1      -9.644   9.814  67.340  1.00  0.00    -0.187 C  
ENDBRANCH  15  17
ENDBRANCH  10  13
ENDBRANCH   6   7
ENDBRANCH   4   6
ENDBRANCH   2   4
TORSDOF 5
ENDMDL
MODEL       74
REMARK 921   NORMALIZED FREE ENERGY PREDICTED BY IDOCK:   -4.11 KCAL/MOL
REMARK 922        TOTAL FREE ENERGY PREDICTED BY IDOCK:   -5.70 KCAL/MOL
REMARK 923 INTER-LIGAND FREE ENERGY PREDICTED BY IDOCK:   -5.34 KCAL/MOL
REMARK 924 INTRA-LIGAND FREE ENERGY PREDICTED BY IDOCK:   -0.36 KCAL/MOL
REMARK 927      BINDING AFFINITY PREDICTED BY RF-SCORE:    0.00 PKD
ROOT
HETATM    1  C   UNL     1      -9.968   3.654  64.812  1.00  0.00    -0.160 C  
HETATM    2  N   UNL     1     -11.244   4.326  65.073  1.00  0.00    -1.020 NA 
HETATM    3  H   UNL     1     -12.025   3.673  65.145  1.00  0.00     0.000 HD 
ENDROOT
BRANCH   2   4
HETATM    4  N   UNL     1     -11.089   5.148  66.262  1.00  0.00    -0.621 NA 
HETATM    5  H   UNL     1     -11.361   4.651  67.111  1.00  0.00     0.000 HD 
BRANCH   4   6
HETATM    6  C   UNL     1      -9.710   5.662  66.339  1.00  0.00    -0.156 C  
BRANCH   6   7
HETATM    7  C   UNL     1      -9.708   7.171  66.476  1.00  0.00    -0.199 A  
HETATM    8  C   UNL     1     -10.517   7.798  67.436  1.00  0.00    -0.362 A  
HETATM    9  C   UNL     1     -10.569   9.190  67.521  1.00  0.00    -0.317 A  
HETATM   10  C   UNL     1      -9.808   9.982  66.651  1.00  0.00    -0.259 A  
HETATM   11  C   UNL     1      -8.912   7.968  65.639  1.00  0.00    -0.102 A  
HETATM   12  C   UNL     1      -8.956   9.364  65.728  1.00  0.00    -0.227 A  
BRANCH  10  13
HETATM   13  C   UNL     1      -9.935  11.463  66.757  1.00  0.00    -0.208 C  
HETATM   14  O   UNL     1      -8.939  12.150  66.959  1.00  0.00    -0.187 OA 
HETATM   15  N   UNL     1     -11.214  11.981  66.670  1.00  0.00    -0.310 N  
HETATM   16  H   UNL     1     -11.989  11.365  66.423  1.00  0.00     0.000 HD 
BRANCH  15  17
HETATM   17  C   UNL     1     -11.472  13.394  66.925  1.00  0.00    -0.342 C  
HETATM   18  C   UNL     1     -12.580  13.900  66.007  1.00  0.00    -0.467 C  
HETATM   19  C   UNL     1     -11.843  13.620  68.390  1.00  0.00    -0.407 C  
ENDBRANCH  15  17
ENDBRANCH  10  13
ENDBRANCH   6   7
ENDBRANCH   4   6
ENDBRANCH   2   4
TORSDOF 5
ENDMDL
MODEL       75
REMARK 921   NORMALIZED FREE ENERGY PREDICTED BY IDOCK:   -4.09 KCAL/MOL
REMARK 922        TOTAL FREE ENERGY PREDICTED BY IDOCK:   -5.68 KCAL/MOL
REMARK 923 INTER-LIGAND FREE ENERGY PREDICTED BY IDOCK:   -5.35 KCAL/MOL
REMARK 924 INTRA-LIGAND FREE ENERGY PREDICTED BY IDOCK:   -0.33 KCAL/MOL
REMARK 927      BINDING AFFINITY PREDICTED BY RF-SCORE:    0.00 PKD
ROOT
HETATM    1  C   UNL     1     -13.050  15.099  73.016  1.00  0.00    -0.502 C  
HETATM    2  N   UNL     1     -11.991  15.767  72.255  1.00  0.00    -0.444 NA 
HETATM    3  H   UNL     1     -11.281  16.187  72.855  1.00  0.00     0.000 HD 
ENDROOT
BRANCH   2   4
HETATM    4  N   UNL     1     -11.434  14.809  71.313  1.00  0.00    -0.527 NA 
HETATM    5  H   UNL     1     -10.894  14.081  71.781  1.00  0.00     0.000 HD 
BRANCH   4   6
HETATM    6  C   UNL     1     -12.510  14.248  70.476  1.00  0.00    -0.361 C  
BRANCH   6   7
HETATM    7  C   UNL     1     -11.994  13.086  69.652  1.00  0.00    -0.367 A  
HETATM    8  C   UNL     1     -11.473  13.301  68.367  1.00  0.00    -0.349 A  
HETATM    9  C   UNL     1     -11.059  12.227  67.578  1.00  0.00    -0.326 A  
HETATM   10  C   UNL     1     -11.152  10.916  68.062  1.00  0.00    -0.351 A  
HETATM   11  C   UNL     1     -12.041  11.775  70.150  1.00  0.00    -0.398 A  
HETATM   12  C   UNL     1     -11.619  10.695  69.364  1.00  0.00    -0.352 A  
BRANCH  10  13
HETATM   13  C   UNL     1     -10.736   9.803  67.162  1.00  0.00    -0.202 C  
HETATM   14  O   UNL     1     -10.727   9.969  65.947  1.00  0.00    -0.011 OA 
HETATM   15  N   UNL     1     -10.425   8.601  67.771  1.00  0.00    -0.327 N  
HETATM   16  H   UNL     1     -10.376   8.551  68.788  1.00  0.00     0.000 HD 
BRANCH  15  17
HETATM   17  C   UNL     1     -10.166   7.403  66.980  1.00  0.00    -0.287 C  
HETATM   18  C   UNL     1      -8.667   7.128  66.916  1.00  0.00    -0.126 C  
HETATM   19  C   UNL     1     -10.909   6.200  67.561  1.00  0.00    -0.422 C  
ENDBRANCH  15  17
ENDBRANCH  10  13
ENDBRANCH   6   7
ENDBRANCH   4   6
ENDBRANCH   2   4
TORSDOF 5
ENDMDL
MODEL       76
REMARK 921   NORMALIZED FREE ENERGY PREDICTED BY IDOCK:   -4.07 KCAL/MOL
REMARK 922        TOTAL FREE ENERGY PREDICTED BY IDOCK:   -5.64 KCAL/MOL
REMARK 923 INTER-LIGAND FREE ENERGY PREDICTED BY IDOCK:   -5.27 KCAL/MOL
REMARK 924 INTRA-LIGAND FREE ENERGY PREDICTED BY IDOCK:   -0.37 KCAL/MOL
REMARK 927      BINDING AFFINITY PREDICTED BY RF-SCORE:    0.00 PKD
ROOT
HETATM    1  C   UNL     1      -9.515   7.278  73.892  1.00  0.00    -0.271 C  
HETATM    2  N   UNL     1     -10.896   6.807  74.032  1.00  0.00    -0.415 NA 
HETATM    3  H   UNL     1     -11.176   6.695  75.007  1.00  0.00     0.000 HD 
ENDROOT
BRANCH   2   4
HETATM    4  N   UNL     1     -11.763   7.717  73.301  1.00  0.00    -0.601 NA 
HETATM    5  H   UNL     1     -11.392   8.668  73.282  1.00  0.00     0.000 HD 
BRANCH   4   6
HETATM    6  C   UNL     1     -12.009   7.192  71.945  1.00  0.00    -0.307 C  
BRANCH   6   7
HETATM    7  C   UNL     1     -11.592   8.203  70.897  1.00  0.00    -0.283 A  
HETATM    8  C   UNL     1     -11.947   9.554  71.032  1.00  0.00    -0.407 A  
HETATM    9  C   UNL     1     -11.623  10.477  70.036  1.00  0.00    -0.392 A  
HETATM   10  C   UNL     1     -10.933  10.067  68.888  1.00  0.00    -0.244 A  
HETATM   11  C   UNL     1     -10.860   7.807  69.768  1.00  0.00    -0.211 A  
HETATM   12  C   UNL     1     -10.526   8.732  68.771  1.00  0.00    -0.214 A  
BRANCH  10  13
HETATM   13  C   UNL     1     -10.651  11.085  67.837  1.00  0.00    -0.205 C  
HETATM   14  O   UNL     1      -9.517  11.199  67.384  1.00  0.00    -0.163 OA 
HETATM   15  N   UNL     1     -11.707  11.896  67.465  1.00  0.00    -0.301 N  
HETATM   16  H   UNL     1     -12.642  11.698  67.821  1.00  0.00     0.000 HD 
BRANCH  15  17
HETATM   17  C   UNL     1     -11.505  13.030  66.569  1.00  0.00    -0.340 C  
HETATM   18  C   UNL     1     -12.063  12.714  65.186  1.00  0.00    -0.508 C  
HETATM   19  C   UNL     1     -12.156  14.290  67.137  1.00  0.00    -0.412 C  
ENDBRANCH  15  17
ENDBRANCH  10  13
ENDBRANCH   6   7
ENDBRANCH   4   6
ENDBRANCH   2   4
TORSDOF 5
ENDMDL
MODEL       77
REMARK 921   NORMALIZED FREE ENERGY PREDICTED BY IDOCK:   -4.04 KCAL/MOL
REMARK 922        TOTAL FREE ENERGY PREDICTED BY IDOCK:   -5.62 KCAL/MOL
REMARK 923 INTER-LIGAND FREE ENERGY PREDICTED BY IDOCK:   -5.27 KCAL/MOL
REMARK 924 INTRA-LIGAND FREE ENERGY PREDICTED BY IDOCK:   -0.35 KCAL/MOL
REMARK 927      BINDING AFFINITY PREDICTED BY RF-SCORE:    0.00 PKD
ROOT
HETATM    1  C   UNL     1     -11.029  15.129  66.648  1.00  0.00    -0.318 C  
HETATM    2  N   UNL     1     -11.984  14.266  67.348  1.00  0.00    -0.489 NA 
HETATM    3  H   UNL     1     -12.366  13.534  66.748  1.00  0.00     0.000 HD 
ENDROOT
BRANCH   2   4
HETATM    4  N   UNL     1     -11.333  13.735  68.535  1.00  0.00    -0.266 NA 
HETATM    5  H   UNL     1     -11.995  13.572  69.295  1.00  0.00     0.000 HD 
BRANCH   4   6
HETATM    6  C   UNL     1     -10.577  12.518  68.188  1.00  0.00    -0.226 C  
BRANCH   6   7
HETATM    7  C   UNL     1     -10.835  11.422  69.201  1.00  0.00    -0.260 A  
HETATM    8  C   UNL     1     -12.004  11.435  69.979  1.00  0.00    -0.442 A  
HETATM    9  C   UNL     1     -12.215  10.464  70.960  1.00  0.00    -0.498 A  
HETATM   10  C   UNL     1     -11.264   9.459  71.178  1.00  0.00    -0.427 A  
HETATM   11  C   UNL     1      -9.909  10.386  69.392  1.00  0.00    -0.235 A  
HETATM   12  C   UNL     1     -10.122   9.406  70.369  1.00  0.00    -0.310 A  
BRANCH  10  13
HETATM   13  C   UNL     1     -11.520   8.474  72.267  1.00  0.00    -0.375 C  
HETATM   14  O   UNL     1     -12.533   8.568  72.952  1.00  0.00    -0.276 OA 
HETATM   15  N   UNL     1     -10.544   7.518  72.475  1.00  0.00    -0.246 N  
HETATM   16  H   UNL     1      -9.765   7.445  71.821  1.00  0.00     0.000 HD 
BRANCH  15  17
HETATM   17  C   UNL     1     -10.612   6.610  73.615  1.00  0.00    -0.300 C  
HETATM   18  C   UNL     1     -10.854   5.182  73.137  1.00  0.00    -0.344 C  
HETATM   19  C   UNL     1      -9.331   6.689  74.446  1.00  0.00    -0.257 C  
ENDBRANCH  15  17
ENDBRANCH  10  13
ENDBRANCH   6   7
ENDBRANCH   4   6
ENDBRANCH   2   4
TORSDOF 5
ENDMDL
MODEL       78
REMARK 921   NORMALIZED FREE ENERGY PREDICTED BY IDOCK:   -4.03 KCAL/MOL
REMARK 922        TOTAL FREE ENERGY PREDICTED BY IDOCK:   -5.60 KCAL/MOL
REMARK 923 INTER-LIGAND FREE ENERGY PREDICTED BY IDOCK:   -5.35 KCAL/MOL
REMARK 924 INTRA-LIGAND FREE ENERGY PREDICTED BY IDOCK:   -0.26 KCAL/MOL
REMARK 927      BINDING AFFINITY PREDICTED BY RF-SCORE:    0.00 PKD
ROOT
HETATM    1  C   UNL     1     -12.463  12.420  63.778  1.00  0.00    -0.492 C  
HETATM    2  N   UNL     1     -12.885  12.656  65.161  1.00  0.00    -0.743 NA 
HETATM    3  H   UNL     1     -13.839  12.343  65.341  1.00  0.00     0.000 HD 
ENDROOT
BRANCH   2   4
HETATM    4  N   UNL     1     -11.915  12.031  66.045  1.00  0.00    -0.535 NA 
HETATM    5  H   UNL     1     -10.957  12.157  65.714  1.00  0.00     0.000 HD 
BRANCH   4   6
HETATM    6  C   UNL     1     -12.095  12.530  67.420  1.00  0.00    -0.051 C  
BRANCH   6   7
HETATM    7  C   UNL     1     -11.574  11.526  68.427  1.00  0.00    -0.375 A  
HETATM    8  C   UNL     1     -12.112  11.473  69.722  1.00  0.00    -0.374 A  
HETATM    9  C   UNL     1     -11.589  10.595  70.673  1.00  0.00    -0.432 A  
HETATM   10  C   UNL     1     -10.523   9.748  70.345  1.00  0.00    -0.358 A  
HETATM   11  C   UNL     1     -10.538  10.642  68.090  1.00  0.00    -0.237 A  
HETATM   12  C   UNL     1     -10.017   9.754  69.039  1.00  0.00    -0.189 A  
BRANCH  10  13
HETATM   13  C   UNL     1      -9.976   8.861  71.411  1.00  0.00    -0.308 C  
HETATM   14  O   UNL     1      -8.976   9.199  72.035  1.00  0.00    -0.337 OA 
HETATM   15  N   UNL     1     -10.622   7.654  71.600  1.00  0.00    -0.202 N  
HETATM   16  H   UNL     1     -11.494   7.467  71.104  1.00  0.00     0.000 HD 
BRANCH  15  17
HETATM   17  C   UNL     1     -10.077   6.641  72.497  1.00  0.00    -0.172 C  
HETATM   18  C   UNL     1     -10.619   6.842  73.908  1.00  0.00    -0.269 C  
HETATM   19  C   UNL     1     -10.403   5.237  71.991  1.00  0.00    -0.273 C  
ENDBRANCH  15  17
ENDBRANCH  10  13
ENDBRANCH   6   7
ENDBRANCH   4   6
ENDBRANCH   2   4
TORSDOF 5
ENDMDL
MODEL       79
REMARK 921   NORMALIZED FREE ENERGY PREDICTED BY IDOCK:   -4.02 KCAL/MOL
REMARK 922        TOTAL FREE ENERGY PREDICTED BY IDOCK:   -5.59 KCAL/MOL
REMARK 923 INTER-LIGAND FREE ENERGY PREDICTED BY IDOCK:   -5.24 KCAL/MOL
REMARK 924 INTRA-LIGAND FREE ENERGY PREDICTED BY IDOCK:   -0.35 KCAL/MOL
REMARK 927      BINDING AFFINITY PREDICTED BY RF-SCORE:    0.00 PKD
ROOT
HETATM    1  C   UNL     1     -14.139  15.057  71.656  1.00  0.00    -0.525 C  
HETATM    2  N   UNL     1     -12.736  15.467  71.549  1.00  0.00    -0.403 NA 
HETATM    3  H   UNL     1     -12.413  15.984  72.367  1.00  0.00     0.000 HD 
ENDROOT
BRANCH   2   4
HETATM    4  N   UNL     1     -11.935  14.283  71.283  1.00  0.00    -0.442 NA 
HETATM    5  H   UNL     1     -11.706  13.775  72.138  1.00  0.00     0.000 HD 
BRANCH   4   6
HETATM    6  C   UNL     1     -12.621  13.427  70.298  1.00  0.00    -0.117 C  
BRANCH   6   7
HETATM    7  C   UNL     1     -12.192  11.982  70.456  1.00  0.00    -0.414 A  
HETATM    8  C   UNL     1     -11.290  11.405  69.548  1.00  0.00    -0.357 A  
HETATM    9  C   UNL     1     -10.944  10.057  69.650  1.00  0.00    -0.301 A  
HETATM   10  C   UNL     1     -11.489   9.261  70.665  1.00  0.00    -0.327 A  
HETATM   11  C   UNL     1     -12.698  11.192  71.499  1.00  0.00    -0.499 A  
HETATM   12  C   UNL     1     -12.346   9.841  71.609  1.00  0.00    -0.495 A  
BRANCH  10  13
HETATM   13  C   UNL     1     -11.118   7.818  70.701  1.00  0.00    -0.256 C  
HETATM   14  O   UNL     1     -11.429   7.082  69.770  1.00  0.00    -0.217 OA 
HETATM   15  N   UNL     1     -10.473   7.375  71.841  1.00  0.00    -0.200 N  
HETATM   16  H   UNL     1     -10.174   8.052  72.543  1.00  0.00     0.000 HD 
BRANCH  15  17
HETATM   17  C   UNL     1     -10.212   5.956  72.054  1.00  0.00    -0.197 C  
HETATM   18  C   UNL     1      -8.865   5.766  72.743  1.00  0.00    -0.121 C  
HETATM   19  C   UNL     1     -11.331   5.318  72.878  1.00  0.00    -0.368 C  
ENDBRANCH  15  17
ENDBRANCH  10  13
ENDBRANCH   6   7
ENDBRANCH   4   6
ENDBRANCH   2   4
TORSDOF 5
ENDMDL
MODEL       80
REMARK 921   NORMALIZED FREE ENERGY PREDICTED BY IDOCK:   -4.02 KCAL/MOL
REMARK 922        TOTAL FREE ENERGY PREDICTED BY IDOCK:   -5.58 KCAL/MOL
REMARK 923 INTER-LIGAND FREE ENERGY PREDICTED BY IDOCK:   -5.25 KCAL/MOL
REMARK 924 INTRA-LIGAND FREE ENERGY PREDICTED BY IDOCK:   -0.34 KCAL/MOL
REMARK 927      BINDING AFFINITY PREDICTED BY RF-SCORE:    0.00 PKD
ROOT
HETATM    1  C   UNL     1     -13.887  15.536  72.220  1.00  0.00    -0.543 C  
HETATM    2  N   UNL     1     -13.862  15.507  70.755  1.00  0.00    -0.865 NA 
HETATM    3  H   UNL     1     -13.816  16.439  70.344  1.00  0.00     0.000 HD 
ENDROOT
BRANCH   2   4
HETATM    4  N   UNL     1     -12.761  14.655  70.337  1.00  0.00    -0.469 NA 
HETATM    5  H   UNL     1     -13.033  13.672  70.289  1.00  0.00     0.000 HD 
BRANCH   4   6
HETATM    6  C   UNL     1     -12.212  15.139  69.057  1.00  0.00    -0.122 C  
BRANCH   6   7
HETATM    7  C   UNL     1     -11.593  13.999  68.275  1.00  0.00    -0.364 A  
HETATM    8  C   UNL     1     -11.186  14.188  66.945  1.00  0.00    -0.326 A  
HETATM    9  C   UNL     1     -10.677  13.123  66.200  1.00  0.00    -0.289 A  
HETATM   10  C   UNL     1     -10.559  11.850  66.773  1.00  0.00    -0.264 A  
HETATM   11  C   UNL     1     -11.429  12.733  68.858  1.00  0.00    -0.352 A  
HETATM   12  C   UNL     1     -10.911  11.665  68.115  1.00  0.00    -0.260 A  
BRANCH  10  13
HETATM   13  C   UNL     1     -10.050  10.740  65.918  1.00  0.00    -0.256 C  
HETATM   14  O   UNL     1     -10.297   9.576  66.216  1.00  0.00    -0.244 OA 
HETATM   15  N   UNL     1      -9.264  11.102  64.840  1.00  0.00    -0.316 N  
HETATM   16  H   UNL     1      -9.162  12.089  64.602  1.00  0.00     0.000 HD 
BRANCH  15  17
HETATM   17  C   UNL     1      -8.579  10.096  64.037  1.00  0.00    -0.192 C  
HETATM   18  C   UNL     1      -8.961  10.245  62.568  1.00  0.00    -0.283 C  
HETATM   19  C   UNL     1      -7.064  10.203  64.212  1.00  0.00    -0.102 C  
ENDBRANCH  15  17
ENDBRANCH  10  13
ENDBRANCH   6   7
ENDBRANCH   4   6
ENDBRANCH   2   4
TORSDOF 5
ENDMDL
MODEL       81
REMARK 921   NORMALIZED FREE ENERGY PREDICTED BY IDOCK:   -3.98 KCAL/MOL
REMARK 922        TOTAL FREE ENERGY PREDICTED BY IDOCK:   -5.54 KCAL/MOL
REMARK 923 INTER-LIGAND FREE ENERGY PREDICTED BY IDOCK:   -5.20 KCAL/MOL
REMARK 924 INTRA-LIGAND FREE ENERGY PREDICTED BY IDOCK:   -0.33 KCAL/MOL
REMARK 927      BINDING AFFINITY PREDICTED BY RF-SCORE:    0.00 PKD
ROOT
HETATM    1  C   UNL     1     -12.235  13.100  70.496  1.00  0.00    -0.328 C  
HETATM    2  N   UNL     1     -11.957  12.569  69.159  1.00  0.00    -0.270 NA 
HETATM    3  H   UNL     1     -12.803  12.435  68.605  1.00  0.00     0.000 HD 
ENDROOT
BRANCH   2   4
HETATM    4  N   UNL     1     -10.996  13.447  68.511  1.00  0.00    -0.258 NA 
HETATM    5  H   UNL     1     -10.271  12.925  68.019  1.00  0.00     0.000 HD 
BRANCH   4   6
HETATM    6  C   UNL     1     -11.699  14.390  67.623  1.00  0.00    -0.391 C  
BRANCH   6   7
HETATM    7  C   UNL     1     -10.953  15.706  67.543  1.00  0.00    -0.309 A  
HETATM    8  C   UNL     1     -10.897  16.560  68.655  1.00  0.00    -0.345 A  
HETATM    9  C   UNL     1     -10.269  17.803  68.566  1.00  0.00    -0.382 A  
HETATM   10  C   UNL     1      -9.678  18.213  67.363  1.00  0.00    -0.296 A  
HETATM   11  C   UNL     1     -10.319  16.102  66.356  1.00  0.00    -0.321 A  
HETATM   12  C   UNL     1      -9.680  17.345  66.265  1.00  0.00    -0.276 A  
BRANCH  10  13
HETATM   13  C   UNL     1      -9.058  19.568  67.311  1.00  0.00    -0.305 C  
HETATM   14  O   UNL     1      -9.738  20.541  67.003  1.00  0.00    -0.436 OA 
HETATM   15  N   UNL     1      -7.702  19.635  67.573  1.00  0.00    -0.260 N  
HETATM   16  H   UNL     1      -7.212  18.803  67.900  1.00  0.00     0.000 HD 
BRANCH  15  17
HETATM   17  C   UNL     1      -6.962  20.879  67.389  1.00  0.00    -0.368 C  
HETATM   18  C   UNL     1      -5.877  21.008  68.452  1.00  0.00    -0.374 C  
HETATM   19  C   UNL     1      -6.354  20.944  65.988  1.00  0.00    -0.284 C  
ENDBRANCH  15  17
ENDBRANCH  10  13
ENDBRANCH   6   7
ENDBRANCH   4   6
ENDBRANCH   2   4
TORSDOF 5
ENDMDL
MODEL       82
REMARK 921   NORMALIZED FREE ENERGY PREDICTED BY IDOCK:   -3.92 KCAL/MOL
REMARK 922        TOTAL FREE ENERGY PREDICTED BY IDOCK:   -5.45 KCAL/MOL
REMARK 923 INTER-LIGAND FREE ENERGY PREDICTED BY IDOCK:   -5.15 KCAL/MOL
REMARK 924 INTRA-LIGAND FREE ENERGY PREDICTED BY IDOCK:   -0.31 KCAL/MOL
REMARK 927      BINDING AFFINITY PREDICTED BY RF-SCORE:    0.00 PKD
ROOT
HETATM    1  C   UNL     1     -12.091  15.973  72.343  1.00  0.00    -0.535 C  
HETATM    2  N   UNL     1     -12.427  16.055  70.919  1.00  0.00    -0.515 NA 
HETATM    3  H   UNL     1     -12.902  16.924  70.675  1.00  0.00     0.000 HD 
ENDROOT
BRANCH   2   4
HETATM    4  N   UNL     1     -11.209  15.847  70.152  1.00  0.00    -0.335 NA 
HETATM    5  H   UNL     1     -10.886  14.881  70.200  1.00  0.00     0.000 HD 
BRANCH   4   6
HETATM    6  C   UNL     1     -11.411  16.296  68.762  1.00  0.00    -0.329 C  
BRANCH   6   7
HETATM    7  C   UNL     1     -11.148  15.163  67.792  1.00  0.00    -0.313 A  
HETATM    8  C   UNL     1      -9.924  15.080  67.110  1.00  0.00    -0.237 A  
HETATM    9  C   UNL     1      -9.703  14.076  66.166  1.00  0.00    -0.300 A  
HETATM   10  C   UNL     1     -10.701  13.132  65.889  1.00  0.00    -0.287 A  
HETATM   11  C   UNL     1     -12.125  14.186  67.545  1.00  0.00    -0.363 A  
HETATM   12  C   UNL     1     -11.904  13.173  66.605  1.00  0.00    -0.449 A  
BRANCH  10  13
HETATM   13  C   UNL     1     -10.428  12.108  64.841  1.00  0.00    -0.288 C  
HETATM   14  O   UNL     1     -11.158  12.026  63.860  1.00  0.00    -0.336 OA 
HETATM   15  N   UNL     1      -9.365  11.255  65.074  1.00  0.00    -0.310 N  
HETATM   16  H   UNL     1      -8.749  11.425  65.869  1.00  0.00     0.000 HD 
BRANCH  15  17
HETATM   17  C   UNL     1      -9.110  10.115  64.200  1.00  0.00    -0.251 C  
HETATM   18  C   UNL     1      -7.956  10.426  63.253  1.00  0.00    -0.117 C  
HETATM   19  C   UNL     1      -8.807   8.861  65.021  1.00  0.00    -0.183 C  
ENDBRANCH  15  17
ENDBRANCH  10  13
ENDBRANCH   6   7
ENDBRANCH   4   6
ENDBRANCH   2   4
TORSDOF 5
ENDMDL
MODEL       83
REMARK 921   NORMALIZED FREE ENERGY PREDICTED BY IDOCK:   -3.91 KCAL/MOL
REMARK 922        TOTAL FREE ENERGY PREDICTED BY IDOCK:   -5.44 KCAL/MOL
REMARK 923 INTER-LIGAND FREE ENERGY PREDICTED BY IDOCK:   -5.20 KCAL/MOL
REMARK 924 INTRA-LIGAND FREE ENERGY PREDICTED BY IDOCK:   -0.24 KCAL/MOL
REMARK 927      BINDING AFFINITY PREDICTED BY RF-SCORE:    0.00 PKD
ROOT
HETATM    1  C   UNL     1     -10.918   7.108  73.338  1.00  0.00    -0.236 C  
HETATM    2  N   UNL     1      -9.984   8.151  72.906  1.00  0.00    -0.281 NA 
HETATM    3  H   UNL     1      -9.012   7.918  73.108  1.00  0.00     0.000 HD 
ENDROOT
BRANCH   2   4
HETATM    4  N   UNL     1     -10.216   8.412  71.495  1.00  0.00    -0.210 NA 
HETATM    5  H   UNL     1     -10.523   7.577  70.995  1.00  0.00     0.000 HD 
BRANCH   4   6
HETATM    6  C   UNL     1     -11.168   9.528  71.342  1.00  0.00    -0.382 C  
BRANCH   6   7
HETATM    7  C   UNL     1     -11.156  10.050  69.920  1.00  0.00    -0.336 A  
HETATM    8  C   UNL     1     -10.448   9.368  68.919  1.00  0.00    -0.236 A  
HETATM    9  C   UNL     1     -10.379   9.880  67.622  1.00  0.00    -0.275 A  
HETATM   10  C   UNL     1     -11.021  11.083  67.301  1.00  0.00    -0.356 A  
HETATM   11  C   UNL     1     -11.836  11.229  69.581  1.00  0.00    -0.430 A  
HETATM   12  C   UNL     1     -11.776  11.742  68.280  1.00  0.00    -0.377 A  
BRANCH  10  13
HETATM   13  C   UNL     1     -10.879  11.606  65.913  1.00  0.00    -0.287 C  
HETATM   14  O   UNL     1     -10.060  11.104  65.150  1.00  0.00    -0.248 OA 
HETATM   15  N   UNL     1     -11.668  12.691  65.579  1.00  0.00    -0.380 N  
HETATM   16  H   UNL     1     -12.384  13.011  66.231  1.00  0.00     0.000 HD 
BRANCH  15  17
HETATM   17  C   UNL     1     -11.493  13.386  64.308  1.00  0.00    -0.393 C  
HETATM   18  C   UNL     1     -12.231  12.645  63.198  1.00  0.00    -0.341 C  
HETATM   19  C   UNL     1     -11.982  14.830  64.409  1.00  0.00    -0.433 C  
ENDBRANCH  15  17
ENDBRANCH  10  13
ENDBRANCH   6   7
ENDBRANCH   4   6
ENDBRANCH   2   4
TORSDOF 5
ENDMDL
MODEL       84
REMARK 921   NORMALIZED FREE ENERGY PREDICTED BY IDOCK:   -3.91 KCAL/MOL
REMARK 922        TOTAL FREE ENERGY PREDICTED BY IDOCK:   -5.44 KCAL/MOL
REMARK 923 INTER-LIGAND FREE ENERGY PREDICTED BY IDOCK:   -5.14 KCAL/MOL
REMARK 924 INTRA-LIGAND FREE ENERGY PREDICTED BY IDOCK:   -0.30 KCAL/MOL
REMARK 927      BINDING AFFINITY PREDICTED BY RF-SCORE:    0.00 PKD
ROOT
HETATM    1  C   UNL     1     -10.083  19.952  66.069  1.00  0.00    -0.487 C  
HETATM    2  N   UNL     1      -9.051  18.927  65.889  1.00  0.00    -0.408 NA 
HETATM    3  H   UNL     1      -8.285  19.018  66.557  1.00  0.00     0.000 HD 
ENDROOT
BRANCH   2   4
HETATM    4  N   UNL     1      -9.690  17.623  65.944  1.00  0.00    -0.542 NA 
HETATM    5  H   UNL     1      -9.105  16.892  65.538  1.00  0.00     0.000 HD 
BRANCH   4   6
HETATM    6  C   UNL     1     -10.080  17.314  67.332  1.00  0.00    -0.307 C  
BRANCH   6   7
HETATM    7  C   UNL     1     -10.432  15.848  67.474  1.00  0.00    -0.298 A  
HETATM    8  C   UNL     1      -9.924  15.096  68.545  1.00  0.00    -0.223 A  
HETATM    9  C   UNL     1     -10.191  13.730  68.644  1.00  0.00    -0.209 A  
HETATM   10  C   UNL     1     -10.976  13.090  67.677  1.00  0.00    -0.277 A  
HETATM   11  C   UNL     1     -11.256  15.212  66.535  1.00  0.00    -0.283 A  
HETATM   12  C   UNL     1     -11.533  13.843  66.635  1.00  0.00    -0.370 A  
BRANCH  10  13
HETATM   13  C   UNL     1     -11.194  11.621  67.808  1.00  0.00    -0.268 C  
HETATM   14  O   UNL     1     -12.208  11.199  68.353  1.00  0.00    -0.610 OA 
HETATM   15  N   UNL     1     -10.183  10.804  67.338  1.00  0.00    -0.195 N  
HETATM   16  H   UNL     1      -9.403  11.214  66.825  1.00  0.00     0.000 HD 
BRANCH  15  17
HETATM   17  C   UNL     1     -10.216   9.363  67.564  1.00  0.00    -0.231 C  
HETATM   18  C   UNL     1      -9.979   8.619  66.253  1.00  0.00    -0.287 C  
HETATM   19  C   UNL     1      -9.176   8.955  68.608  1.00  0.00    -0.137 C  
ENDBRANCH  15  17
ENDBRANCH  10  13
ENDBRANCH   6   7
ENDBRANCH   4   6
ENDBRANCH   2   4
TORSDOF 5
ENDMDL
MODEL       85
REMARK 921   NORMALIZED FREE ENERGY PREDICTED BY IDOCK:   -3.87 KCAL/MOL
REMARK 922        TOTAL FREE ENERGY PREDICTED BY IDOCK:   -5.39 KCAL/MOL
REMARK 923 INTER-LIGAND FREE ENERGY PREDICTED BY IDOCK:   -5.04 KCAL/MOL
REMARK 924 INTRA-LIGAND FREE ENERGY PREDICTED BY IDOCK:   -0.36 KCAL/MOL
REMARK 927      BINDING AFFINITY PREDICTED BY RF-SCORE:    0.00 PKD
ROOT
HETATM    1  C   UNL     1     -11.113   7.463  70.256  1.00  0.00    -0.258 C  
HETATM    2  N   UNL     1     -12.115   8.146  71.077  1.00  0.00    -0.427 NA 
HETATM    3  H   UNL     1     -11.837   8.222  72.056  1.00  0.00     0.000 HD 
ENDROOT
BRANCH   2   4
HETATM    4  N   UNL     1     -12.394   9.438  70.473  1.00  0.00    -0.488 NA 
HETATM    5  H   UNL     1     -12.606  10.151  71.172  1.00  0.00     0.000 HD 
BRANCH   4   6
HETATM    6  C   UNL     1     -11.274   9.835  69.599  1.00  0.00    -0.178 C  
BRANCH   6   7
HETATM    7  C   UNL     1     -11.221  11.341  69.450  1.00  0.00    -0.345 A  
HETATM    8  C   UNL     1     -12.049  12.163  70.229  1.00  0.00    -0.385 A  
HETATM    9  C   UNL     1     -12.051  13.547  70.048  1.00  0.00    -0.411 A  
HETATM   10  C   UNL     1     -11.220  14.136  69.087  1.00  0.00    -0.307 A  
HETATM   11  C   UNL     1     -10.356  11.941  68.522  1.00  0.00    -0.228 A  
HETATM   12  C   UNL     1     -10.349  13.330  68.344  1.00  0.00    -0.254 A  
BRANCH  10  13
HETATM   13  C   UNL     1     -11.294  15.614  68.906  1.00  0.00    -0.339 C  
HETATM   14  O   UNL     1     -12.148  16.262  69.501  1.00  0.00    -0.095 OA 
HETATM   15  N   UNL     1     -10.399  16.171  68.011  1.00  0.00    -0.263 N  
HETATM   16  H   UNL     1      -9.664  15.590  67.609  1.00  0.00     0.000 HD 
BRANCH  15  17
HETATM   17  C   UNL     1     -10.491  17.577  67.633  1.00  0.00    -0.370 C  
HETATM   18  C   UNL     1      -9.463  18.397  68.406  1.00  0.00    -0.352 C  
HETATM   19  C   UNL     1     -10.291  17.746  66.127  1.00  0.00    -0.340 C  
ENDBRANCH  15  17
ENDBRANCH  10  13
ENDBRANCH   6   7
ENDBRANCH   4   6
ENDBRANCH   2   4
TORSDOF 5
ENDMDL
MODEL       86
REMARK 921   NORMALIZED FREE ENERGY PREDICTED BY IDOCK:   -3.86 KCAL/MOL
REMARK 922        TOTAL FREE ENERGY PREDICTED BY IDOCK:   -5.37 KCAL/MOL
REMARK 923 INTER-LIGAND FREE ENERGY PREDICTED BY IDOCK:   -5.05 KCAL/MOL
REMARK 924 INTRA-LIGAND FREE ENERGY PREDICTED BY IDOCK:   -0.33 KCAL/MOL
REMARK 927      BINDING AFFINITY PREDICTED BY RF-SCORE:    0.00 PKD
ROOT
HETATM    1  C   UNL     1     -13.888  15.534  72.222  1.00  0.00    -0.543 C  
HETATM    2  N   UNL     1     -13.864  15.472  70.758  1.00  0.00    -0.865 NA 
HETATM    3  H   UNL     1     -13.809  16.394  70.326  1.00  0.00     0.000 HD 
ENDROOT
BRANCH   2   4
HETATM    4  N   UNL     1     -12.771  14.600  70.358  1.00  0.00    -0.469 NA 
HETATM    5  H   UNL     1     -13.050  13.618  70.341  1.00  0.00     0.000 HD 
BRANCH   4   6
HETATM    6  C   UNL     1     -12.226  15.043  69.062  1.00  0.00    -0.125 C  
BRANCH   6   7
HETATM    7  C   UNL     1     -11.610  13.878  68.315  1.00  0.00    -0.372 A  
HETATM    8  C   UNL     1     -11.213  14.022  66.977  1.00  0.00    -0.325 A  
HETATM    9  C   UNL     1     -10.707  12.933  66.265  1.00  0.00    -0.292 A  
HETATM   10  C   UNL     1     -10.582  11.681  66.880  1.00  0.00    -0.276 A  
HETATM   11  C   UNL     1     -11.438  12.634  68.940  1.00  0.00    -0.354 A  
HETATM   12  C   UNL     1     -10.922  11.542  68.231  1.00  0.00    -0.272 A  
BRANCH  10  13
HETATM   13  C   UNL     1     -10.075  10.543  66.061  1.00  0.00    -0.256 C  
HETATM   14  O   UNL     1     -10.192  10.568  64.840  1.00  0.00    -0.328 OA 
HETATM   15  N   UNL     1      -9.535   9.476  66.755  1.00  0.00    -0.158 N  
HETATM   16  H   UNL     1      -9.395   9.552  67.762  1.00  0.00     0.000 HD 
BRANCH  15  17
HETATM   17  C   UNL     1      -9.162   8.245  66.068  1.00  0.00    -0.166 C  
HETATM   18  C   UNL     1      -7.699   7.912  66.341  1.00  0.00    -0.096 C  
HETATM   19  C   UNL     1     -10.065   7.090  66.500  1.00  0.00    -0.149 C  
ENDBRANCH  15  17
ENDBRANCH  10  13
ENDBRANCH   6   7
ENDBRANCH   4   6
ENDBRANCH   2   4
TORSDOF 5
ENDMDL
MODEL       87
REMARK 921   NORMALIZED FREE ENERGY PREDICTED BY IDOCK:   -3.85 KCAL/MOL
REMARK 922        TOTAL FREE ENERGY PREDICTED BY IDOCK:   -5.37 KCAL/MOL
REMARK 923 INTER-LIGAND FREE ENERGY PREDICTED BY IDOCK:   -6.18 KCAL/MOL
REMARK 924 INTRA-LIGAND FREE ENERGY PREDICTED BY IDOCK:    0.81 KCAL/MOL
REMARK 927      BINDING AFFINITY PREDICTED BY RF-SCORE:    0.00 PKD
ROOT
HETATM    1  C   UNL     1      -9.875   4.848  66.323  1.00  0.00    -0.209 C  
HETATM    2  N   UNL     1     -11.018   5.692  65.964  1.00  0.00    -0.697 NA 
HETATM    3  H   UNL     1     -11.842   5.149  65.706  1.00  0.00     0.000 HD 
ENDROOT
BRANCH   2   4
HETATM    4  N   UNL     1     -11.271   6.608  67.064  1.00  0.00    -0.755 NA 
HETATM    5  H   UNL     1     -11.343   6.122  67.959  1.00  0.00     0.000 HD 
BRANCH   4   6
HETATM    6  C   UNL     1     -10.239   7.660  67.087  1.00  0.00    -0.290 C  
BRANCH   6   7
HETATM    7  C   UNL     1     -10.653   8.795  68.000  1.00  0.00    -0.218 A  
HETATM    8  C   UNL     1     -10.679   8.614  69.392  1.00  0.00    -0.169 A  
HETATM    9  C   UNL     1     -11.123   9.635  70.233  1.00  0.00    -0.327 A  
HETATM   10  C   UNL     1     -11.546  10.859  69.699  1.00  0.00    -0.394 A  
HETATM   11  C   UNL     1     -11.032  10.039  67.475  1.00  0.00    -0.276 A  
HETATM   12  C   UNL     1     -11.471  11.068  68.317  1.00  0.00    -0.374 A  
BRANCH  10  13
HETATM   13  C   UNL     1     -12.051  11.899  70.640  1.00  0.00    -0.294 C  
HETATM   14  O   UNL     1     -12.846  11.592  71.522  1.00  0.00    -0.407 OA 
HETATM   15  N   UNL     1     -11.618  13.193  70.419  1.00  0.00    -0.520 N  
HETATM   16  H   UNL     1     -10.897  13.369  69.720  1.00  0.00     0.000 HD 
BRANCH  15  17
HETATM   17  C   UNL     1     -12.175  14.311  71.172  1.00  0.00    -0.356 C  
HETATM   18  C   UNL     1     -12.332  15.529  70.267  1.00  0.00    -0.431 C  
HETATM   19  C   UNL     1     -13.517  13.929  71.796  1.00  0.00    -0.464 C  
ENDBRANCH  15  17
ENDBRANCH  10  13
ENDBRANCH   6   7
ENDBRANCH   4   6
ENDBRANCH   2   4
TORSDOF 5
ENDMDL
MODEL       88
REMARK 921   NORMALIZED FREE ENERGY PREDICTED BY IDOCK:   -3.85 KCAL/MOL
REMARK 922        TOTAL FREE ENERGY PREDICTED BY IDOCK:   -5.36 KCAL/MOL
REMARK 923 INTER-LIGAND FREE ENERGY PREDICTED BY IDOCK:   -5.03 KCAL/MOL
REMARK 924 INTRA-LIGAND FREE ENERGY PREDICTED BY IDOCK:   -0.33 KCAL/MOL
REMARK 927      BINDING AFFINITY PREDICTED BY RF-SCORE:    0.00 PKD
ROOT
HETATM    1  C   UNL     1     -11.153  15.647  67.493  1.00  0.00    -0.289 C  
HETATM    2  N   UNL     1     -12.103  15.158  68.496  1.00  0.00    -0.581 NA 
HETATM    3  H   UNL     1     -12.996  15.649  68.464  1.00  0.00     0.000 HD 
ENDROOT
BRANCH   2   4
HETATM    4  N   UNL     1     -12.245  13.722  68.324  1.00  0.00    -0.444 NA 
HETATM    5  H   UNL     1     -13.099  13.367  68.758  1.00  0.00     0.000 HD 
BRANCH   4   6
HETATM    6  C   UNL     1     -12.167  13.379  66.893  1.00  0.00    -0.289 C  
BRANCH   6   7
HETATM    7  C   UNL     1     -11.375  12.103  66.692  1.00  0.00    -0.405 A  
HETATM    8  C   UNL     1     -10.672  11.884  65.496  1.00  0.00    -0.329 A  
HETATM    9  C   UNL     1      -9.996  10.683  65.280  1.00  0.00    -0.356 A  
HETATM   10  C   UNL     1     -10.004   9.679  66.257  1.00  0.00    -0.335 A  
HETATM   11  C   UNL     1     -11.340  11.114  67.686  1.00  0.00    -0.356 A  
HETATM   12  C   UNL     1     -10.655   9.911  67.475  1.00  0.00    -0.333 A  
BRANCH  10  13
HETATM   13  C   UNL     1      -9.302   8.400  65.956  1.00  0.00    -0.177 C  
HETATM   14  O   UNL     1      -8.371   8.386  65.157  1.00  0.00    -0.155 OA 
HETATM   15  N   UNL     1      -9.792   7.266  66.576  1.00  0.00    -0.383 N  
HETATM   16  H   UNL     1     -10.517   7.357  67.288  1.00  0.00     0.000 HD 
BRANCH  15  17
HETATM   17  C   UNL     1      -9.290   5.941  66.229  1.00  0.00    -0.152 C  
HETATM   18  C   UNL     1      -8.255   5.486  67.252  1.00  0.00    -0.101 C  
HETATM   19  C   UNL     1     -10.436   4.934  66.138  1.00  0.00    -0.346 C  
ENDBRANCH  15  17
ENDBRANCH  10  13
ENDBRANCH   6   7
ENDBRANCH   4   6
ENDBRANCH   2   4
TORSDOF 5
ENDMDL
MODEL       89
REMARK 921   NORMALIZED FREE ENERGY PREDICTED BY IDOCK:   -3.84 KCAL/MOL
REMARK 922        TOTAL FREE ENERGY PREDICTED BY IDOCK:   -5.36 KCAL/MOL
REMARK 923 INTER-LIGAND FREE ENERGY PREDICTED BY IDOCK:   -5.01 KCAL/MOL
REMARK 924 INTRA-LIGAND FREE ENERGY PREDICTED BY IDOCK:   -0.35 KCAL/MOL
REMARK 927      BINDING AFFINITY PREDICTED BY RF-SCORE:    0.00 PKD
ROOT
HETATM    1  C   UNL     1     -10.994   5.883  71.017  1.00  0.00    -0.266 C  
HETATM    2  N   UNL     1     -12.104   6.653  71.585  1.00  0.00    -0.346 NA 
HETATM    3  H   UNL     1     -11.976   6.858  72.575  1.00  0.00     0.000 HD 
ENDROOT
BRANCH   2   4
HETATM    4  N   UNL     1     -12.283   7.852  70.782  1.00  0.00    -0.502 NA 
HETATM    5  H   UNL     1     -12.743   8.598  71.305  1.00  0.00     0.000 HD 
BRANCH   4   6
HETATM    6  C   UNL     1     -10.986   8.282  70.229  1.00  0.00    -0.232 C  
BRANCH   6   7
HETATM    7  C   UNL     1     -11.024   9.750  69.857  1.00  0.00    -0.299 A  
HETATM    8  C   UNL     1     -11.972  10.606  70.439  1.00  0.00    -0.436 A  
HETATM    9  C   UNL     1     -12.054  11.944  70.050  1.00  0.00    -0.366 A  
HETATM   10  C   UNL     1     -11.185  12.453  69.076  1.00  0.00    -0.320 A  
HETATM   11  C   UNL     1     -10.126  10.277  68.917  1.00  0.00    -0.216 A  
HETATM   12  C   UNL     1     -10.200  11.620  68.531  1.00  0.00    -0.216 A  
BRANCH  10  13
HETATM   13  C   UNL     1     -11.345  13.877  68.668  1.00  0.00    -0.278 C  
HETATM   14  O   UNL     1     -12.176  14.585  69.227  1.00  0.00    -0.301 OA 
HETATM   15  N   UNL     1     -10.558  14.310  67.617  1.00  0.00    -0.252 N  
HETATM   16  H   UNL     1      -9.833  13.696  67.247  1.00  0.00     0.000 HD 
BRANCH  15  17
HETATM   17  C   UNL     1     -10.749  15.631  67.028  1.00  0.00    -0.314 C  
HETATM   18  C   UNL     1      -9.734  16.614  67.601  1.00  0.00    -0.250 C  
HETATM   19  C   UNL     1     -10.634  15.566  65.505  1.00  0.00    -0.413 C  
ENDBRANCH  15  17
ENDBRANCH  10  13
ENDBRANCH   6   7
ENDBRANCH   4   6
ENDBRANCH   2   4
TORSDOF 5
ENDMDL
MODEL       90
REMARK 921   NORMALIZED FREE ENERGY PREDICTED BY IDOCK:   -3.84 KCAL/MOL
REMARK 922        TOTAL FREE ENERGY PREDICTED BY IDOCK:   -5.35 KCAL/MOL
REMARK 923 INTER-LIGAND FREE ENERGY PREDICTED BY IDOCK:   -5.06 KCAL/MOL
REMARK 924 INTRA-LIGAND FREE ENERGY PREDICTED BY IDOCK:   -0.30 KCAL/MOL
REMARK 927      BINDING AFFINITY PREDICTED BY RF-SCORE:    0.00 PKD
ROOT
HETATM    1  C   UNL     1     -10.773  11.469  63.442  1.00  0.00    -0.373 C  
HETATM    2  N   UNL     1     -10.680  11.021  64.834  1.00  0.00    -0.255 NA 
HETATM    3  H   UNL     1      -9.769  11.217  65.250  1.00  0.00     0.000 HD 
ENDROOT
BRANCH   2   4
HETATM    4  N   UNL     1     -11.777  11.619  65.578  1.00  0.00    -0.209 NA 
HETATM    5  H   UNL     1     -12.647  11.100  65.461  1.00  0.00     0.000 HD 
BRANCH   4   6
HETATM    6  C   UNL     1     -11.401  11.760  66.996  1.00  0.00    -0.321 C  
BRANCH   6   7
HETATM    7  C   UNL     1     -11.072  13.202  67.321  1.00  0.00    -0.305 A  
HETATM    8  C   UNL     1     -11.933  13.964  68.127  1.00  0.00    -0.385 A  
HETATM    9  C   UNL     1     -11.669  15.312  68.374  1.00  0.00    -0.340 A  
HETATM   10  C   UNL     1     -10.534  15.923  67.825  1.00  0.00    -0.287 A  
HETATM   11  C   UNL     1      -9.912  13.807  66.814  1.00  0.00    -0.270 A  
HETATM   12  C   UNL     1      -9.640  15.157  67.067  1.00  0.00    -0.235 A  
BRANCH  10  13
HETATM   13  C   UNL     1     -10.323  17.375  68.086  1.00  0.00    -0.366 C  
HETATM   14  O   UNL     1     -10.398  17.808  69.231  1.00  0.00    -0.318 OA 
HETATM   15  N   UNL     1     -10.099  18.174  66.980  1.00  0.00    -0.334 N  
HETATM   16  H   UNL     1      -9.970  17.741  66.066  1.00  0.00     0.000 HD 
BRANCH  15  17
HETATM   17  C   UNL     1     -10.044  19.627  67.101  1.00  0.00    -0.411 C  
HETATM   18  C   UNL     1      -8.608  20.082  67.334  1.00  0.00    -0.403 C  
HETATM   19  C   UNL     1     -10.624  20.295  65.855  1.00  0.00    -0.245 C  
ENDBRANCH  15  17
ENDBRANCH  10  13
ENDBRANCH   6   7
ENDBRANCH   4   6
ENDBRANCH   2   4
TORSDOF 5
ENDMDL
MODEL       91
REMARK 921   NORMALIZED FREE ENERGY PREDICTED BY IDOCK:   -3.83 KCAL/MOL
REMARK 922        TOTAL FREE ENERGY PREDICTED BY IDOCK:   -5.35 KCAL/MOL
REMARK 923 INTER-LIGAND FREE ENERGY PREDICTED BY IDOCK:   -5.02 KCAL/MOL
REMARK 924 INTRA-LIGAND FREE ENERGY PREDICTED BY IDOCK:   -0.32 KCAL/MOL
REMARK 927      BINDING AFFINITY PREDICTED BY RF-SCORE:    0.00 PKD
ROOT
HETATM    1  C   UNL     1     -10.289   6.062  70.021  1.00  0.00    -0.229 C  
HETATM    2  N   UNL     1     -11.569   6.247  69.332  1.00  0.00    -0.540 NA 
HETATM    3  H   UNL     1     -12.195   6.881  69.829  1.00  0.00     0.000 HD 
ENDROOT
BRANCH   2   4
HETATM    4  N   UNL     1     -11.294   6.681  67.972  1.00  0.00    -0.568 NA 
HETATM    5  H   UNL     1     -12.109   7.114  67.536  1.00  0.00     0.000 HD 
BRANCH   4   6
HETATM    6  C   UNL     1     -10.120   7.573  67.959  1.00  0.00    -0.183 C  
BRANCH   6   7
HETATM    7  C   UNL     1     -10.551   9.021  67.862  1.00  0.00    -0.256 A  
HETATM    8  C   UNL     1     -10.466   9.708  66.640  1.00  0.00    -0.233 A  
HETATM    9  C   UNL     1     -10.798  11.061  66.561  1.00  0.00    -0.269 A  
HETATM   10  C   UNL     1     -11.228  11.753  67.701  1.00  0.00    -0.345 A  
HETATM   11  C   UNL     1     -11.028   9.707  68.989  1.00  0.00    -0.161 A  
HETATM   12  C   UNL     1     -11.370  11.063  68.911  1.00  0.00    -0.346 A  
BRANCH  10  13
HETATM   13  C   UNL     1     -11.529  13.207  67.569  1.00  0.00    -0.328 C  
HETATM   14  O   UNL     1     -12.085  13.627  66.560  1.00  0.00    -0.404 OA 
HETATM   15  N   UNL     1     -11.104  14.021  68.602  1.00  0.00    -0.252 N  
HETATM   16  H   UNL     1     -10.719  13.600  69.447  1.00  0.00     0.000 HD 
BRANCH  15  17
HETATM   17  C   UNL     1     -11.197  15.473  68.502  1.00  0.00    -0.333 C  
HETATM   18  C   UNL     1     -11.354  16.087  69.889  1.00  0.00    -0.340 C  
HETATM   19  C   UNL     1      -9.969  16.047  67.796  1.00  0.00    -0.234 C  
ENDBRANCH  15  17
ENDBRANCH  10  13
ENDBRANCH   6   7
ENDBRANCH   4   6
ENDBRANCH   2   4
TORSDOF 5
ENDMDL
MODEL       92
REMARK 921   NORMALIZED FREE ENERGY PREDICTED BY IDOCK:   -3.82 KCAL/MOL
REMARK 922        TOTAL FREE ENERGY PREDICTED BY IDOCK:   -5.33 KCAL/MOL
REMARK 923 INTER-LIGAND FREE ENERGY PREDICTED BY IDOCK:   -4.98 KCAL/MOL
REMARK 924 INTRA-LIGAND FREE ENERGY PREDICTED BY IDOCK:   -0.35 KCAL/MOL
REMARK 927      BINDING AFFINITY PREDICTED BY RF-SCORE:    0.00 PKD
ROOT
HETATM    1  C   UNL     1     -10.606  16.694  67.862  1.00  0.00    -0.342 C  
HETATM    2  N   UNL     1     -11.086  15.878  68.981  1.00  0.00    -0.272 NA 
HETATM    3  H   UNL     1     -11.241  16.424  69.828  1.00  0.00     0.000 HD 
ENDROOT
BRANCH   2   4
HETATM    4  N   UNL     1     -12.277  15.167  68.547  1.00  0.00    -0.581 NA 
HETATM    5  H   UNL     1     -13.080  15.789  68.446  1.00  0.00     0.000 HD 
BRANCH   4   6
HETATM    6  C   UNL     1     -11.992  14.425  67.305  1.00  0.00    -0.377 C  
BRANCH   6   7
HETATM    7  C   UNL     1     -11.608  12.993  67.615  1.00  0.00    -0.403 A  
HETATM    8  C   UNL     1     -10.930  12.217  66.661  1.00  0.00    -0.325 A  
HETATM    9  C   UNL     1     -10.633  10.877  66.916  1.00  0.00    -0.312 A  
HETATM   10  C   UNL     1     -11.004  10.289  68.132  1.00  0.00    -0.328 A  
HETATM   11  C   UNL     1     -11.934  12.411  68.849  1.00  0.00    -0.289 A  
HETATM   12  C   UNL     1     -11.630  11.070  69.111  1.00  0.00    -0.389 A  
BRANCH  10  13
HETATM   13  C   UNL     1     -10.700   8.843  68.335  1.00  0.00    -0.076 C  
HETATM   14  O   UNL     1     -10.770   8.065  67.390  1.00  0.00    -0.269 OA 
HETATM   15  N   UNL     1     -10.400   8.451  69.626  1.00  0.00    -0.214 N  
HETATM   16  H   UNL     1     -10.281   9.159  70.351  1.00  0.00     0.000 HD 
BRANCH  15  17
HETATM   17  C   UNL     1     -10.249   7.041  69.968  1.00  0.00    -0.194 C  
HETATM   18  C   UNL     1      -9.311   6.886  71.160  1.00  0.00    -0.162 C  
HETATM   19  C   UNL     1     -11.608   6.409  70.268  1.00  0.00    -0.451 C  
ENDBRANCH  15  17
ENDBRANCH  10  13
ENDBRANCH   6   7
ENDBRANCH   4   6
ENDBRANCH   2   4
TORSDOF 5
ENDMDL
MODEL       93
REMARK 921   NORMALIZED FREE ENERGY PREDICTED BY IDOCK:   -3.80 KCAL/MOL
REMARK 922        TOTAL FREE ENERGY PREDICTED BY IDOCK:   -5.30 KCAL/MOL
REMARK 923 INTER-LIGAND FREE ENERGY PREDICTED BY IDOCK:   -4.93 KCAL/MOL
REMARK 924 INTRA-LIGAND FREE ENERGY PREDICTED BY IDOCK:   -0.36 KCAL/MOL
REMARK 927      BINDING AFFINITY PREDICTED BY RF-SCORE:    0.00 PKD
ROOT
HETATM    1  C   UNL     1     -13.079  12.324  71.593  1.00  0.00    -0.306 C  
HETATM    2  N   UNL     1     -12.142  13.252  70.954  1.00  0.00    -0.484 NA 
HETATM    3  H   UNL     1     -11.526  13.713  71.624  1.00  0.00     0.000 HD 
ENDROOT
BRANCH   2   4
HETATM    4  N   UNL     1     -11.411  12.526  69.929  1.00  0.00    -0.515 NA 
HETATM    5  H   UNL     1     -11.625  11.528  69.939  1.00  0.00     0.000 HD 
BRANCH   4   6
HETATM    6  C   UNL     1     -11.664  13.132  68.609  1.00  0.00    -0.326 C  
BRANCH   6   7
HETATM    7  C   UNL     1     -10.991  14.485  68.505  1.00  0.00    -0.261 A  
HETATM    8  C   UNL     1      -9.591  14.581  68.467  1.00  0.00    -0.220 A  
HETATM    9  C   UNL     1      -8.965  15.829  68.439  1.00  0.00    -0.187 A  
HETATM   10  C   UNL     1      -9.727  17.004  68.442  1.00  0.00    -0.279 A  
HETATM   11  C   UNL     1     -11.749  15.664  68.460  1.00  0.00    -0.339 A  
HETATM   12  C   UNL     1     -11.124  16.917  68.423  1.00  0.00    -0.216 A  
BRANCH  10  13
HETATM   13  C   UNL     1      -9.006  18.308  68.454  1.00  0.00    -0.309 C  
HETATM   14  O   UNL     1      -9.592  19.335  68.127  1.00  0.00    -0.317 OA 
HETATM   15  N   UNL     1      -7.667  18.270  68.796  1.00  0.00    -0.295 N  
HETATM   16  H   UNL     1      -7.260  17.398  69.133  1.00  0.00     0.000 HD 
BRANCH  15  17
HETATM   17  C   UNL     1      -6.827  19.457  68.681  1.00  0.00    -0.305 C  
HETATM   18  C   UNL     1      -6.294  19.859  70.052  1.00  0.00    -0.381 C  
HETATM   19  C   UNL     1      -5.675  19.212  67.707  1.00  0.00    -0.196 C  
ENDBRANCH  15  17
ENDBRANCH  10  13
ENDBRANCH   6   7
ENDBRANCH   4   6
ENDBRANCH   2   4
TORSDOF 5
ENDMDL
MODEL       94
REMARK 921   NORMALIZED FREE ENERGY PREDICTED BY IDOCK:   -3.75 KCAL/MOL
REMARK 922        TOTAL FREE ENERGY PREDICTED BY IDOCK:   -5.24 KCAL/MOL
REMARK 923 INTER-LIGAND FREE ENERGY PREDICTED BY IDOCK:   -5.11 KCAL/MOL
REMARK 924 INTRA-LIGAND FREE ENERGY PREDICTED BY IDOCK:   -0.13 KCAL/MOL
REMARK 927      BINDING AFFINITY PREDICTED BY RF-SCORE:    0.00 PKD
ROOT
HETATM    1  C   UNL     1      -6.009  20.900  68.050  1.00  0.00    -0.331 C  
HETATM    2  N   UNL     1      -5.919  20.708  66.600  1.00  0.00    -0.181 NA 
HETATM    3  H   UNL     1      -5.414  19.860  66.346  1.00  0.00     0.000 HD 
ENDROOT
BRANCH   2   4
HETATM    4  N   UNL     1      -7.266  20.743  66.053  1.00  0.00    -0.502 NA 
HETATM    5  H   UNL     1      -7.422  20.000  65.371  1.00  0.00     0.000 HD 
BRANCH   4   6
HETATM    6  C   UNL     1      -8.252  20.707  67.147  1.00  0.00    -0.226 C  
BRANCH   6   7
HETATM    7  C   UNL     1      -8.908  19.344  67.231  1.00  0.00    -0.342 A  
HETATM    8  C   UNL     1      -9.795  18.919  66.230  1.00  0.00    -0.401 A  
HETATM    9  C   UNL     1     -10.452  17.692  66.336  1.00  0.00    -0.286 A  
HETATM   10  C   UNL     1     -10.230  16.864  67.443  1.00  0.00    -0.298 A  
HETATM   11  C   UNL     1      -8.654  18.489  68.314  1.00  0.00    -0.341 A  
HETATM   12  C   UNL     1      -9.305  17.254  68.419  1.00  0.00    -0.275 A  
BRANCH  10  13
HETATM   13  C   UNL     1     -10.991  15.585  67.527  1.00  0.00    -0.316 C  
HETATM   14  O   UNL     1     -11.549  15.138  66.531  1.00  0.00    -0.252 OA 
HETATM   15  N   UNL     1     -11.064  14.991  68.773  1.00  0.00    -0.249 N  
HETATM   16  H   UNL     1     -10.513  15.371  69.543  1.00  0.00     0.000 HD 
BRANCH  15  17
HETATM   17  C   UNL     1     -11.916  13.830  69.005  1.00  0.00    -0.360 C  
HETATM   18  C   UNL     1     -11.186  12.553  68.603  1.00  0.00    -0.319 C  
HETATM   19  C   UNL     1     -12.352  13.762  70.468  1.00  0.00    -0.429 C  
ENDBRANCH  15  17
ENDBRANCH  10  13
ENDBRANCH   6   7
ENDBRANCH   4   6
ENDBRANCH   2   4
TORSDOF 5
ENDMDL
MODEL       95
REMARK 921   NORMALIZED FREE ENERGY PREDICTED BY IDOCK:   -3.75 KCAL/MOL
REMARK 922        TOTAL FREE ENERGY PREDICTED BY IDOCK:   -5.24 KCAL/MOL
REMARK 923 INTER-LIGAND FREE ENERGY PREDICTED BY IDOCK:   -4.86 KCAL/MOL
REMARK 924 INTRA-LIGAND FREE ENERGY PREDICTED BY IDOCK:   -0.38 KCAL/MOL
REMARK 927      BINDING AFFINITY PREDICTED BY RF-SCORE:    0.00 PKD
ROOT
HETATM    1  C   UNL     1     -10.686   6.179  68.304  1.00  0.00    -0.290 C  
HETATM    2  N   UNL     1     -11.323   6.760  67.119  1.00  0.00    -0.755 NA 
HETATM    3  H   UNL     1     -12.170   7.282  67.343  1.00  0.00     0.000 HD 
ENDROOT
BRANCH   2   4
HETATM    4  N   UNL     1     -10.335   7.566  66.421  1.00  0.00    -0.473 NA 
HETATM    5  H   UNL     1     -10.747   8.098  65.654  1.00  0.00     0.000 HD 
BRANCH   4   6
HETATM    6  C   UNL     1      -9.630   8.435  67.381  1.00  0.00    -0.157 C  
BRANCH   6   7
HETATM    7  C   UNL     1      -9.803   9.893  67.010  1.00  0.00    -0.241 A  
HETATM    8  C   UNL     1     -10.559  10.255  65.883  1.00  0.00    -0.083 A  
HETATM    9  C   UNL     1     -10.666  11.592  65.499  1.00  0.00    -0.333 A  
HETATM   10  C   UNL     1     -10.025  12.595  66.237  1.00  0.00    -0.266 A  
HETATM   11  C   UNL     1      -9.203  10.906  67.772  1.00  0.00    -0.155 A  
HETATM   12  C   UNL     1      -9.315  12.250  67.394  1.00  0.00    -0.183 A  
BRANCH  10  13
HETATM   13  C   UNL     1     -10.137  14.001  65.757  1.00  0.00    -0.327 C  
HETATM   14  O   UNL     1     -10.426  14.228  64.587  1.00  0.00    -0.425 OA 
HETATM   15  N   UNL     1      -9.850  14.992  66.677  1.00  0.00    -0.245 N  
HETATM   16  H   UNL     1      -9.694  14.740  67.653  1.00  0.00     0.000 HD 
BRANCH  15  17
HETATM   17  C   UNL     1      -9.767  16.392  66.275  1.00  0.00    -0.308 C  
HETATM   18  C   UNL     1     -10.501  17.273  67.280  1.00  0.00    -0.319 C  
HETATM   19  C   UNL     1      -8.309  16.831  66.139  1.00  0.00    -0.301 C  
ENDBRANCH  15  17
ENDBRANCH  10  13
ENDBRANCH   6   7
ENDBRANCH   4   6
ENDBRANCH   2   4
TORSDOF 5
ENDMDL
MODEL       96
REMARK 921   NORMALIZED FREE ENERGY PREDICTED BY IDOCK:   -3.70 KCAL/MOL
REMARK 922        TOTAL FREE ENERGY PREDICTED BY IDOCK:   -5.17 KCAL/MOL
REMARK 923 INTER-LIGAND FREE ENERGY PREDICTED BY IDOCK:   -4.74 KCAL/MOL
REMARK 924 INTRA-LIGAND FREE ENERGY PREDICTED BY IDOCK:   -0.43 KCAL/MOL
REMARK 927      BINDING AFFINITY PREDICTED BY RF-SCORE:    0.00 PKD
ROOT
HETATM    1  C   UNL     1     -11.764  11.083  69.919  1.00  0.00    -0.346 C  
HETATM    2  N   UNL     1     -12.345  10.740  68.618  1.00  0.00    -0.786 NA 
HETATM    3  H   UNL     1     -13.236  11.208  68.449  1.00  0.00     0.000 HD 
ENDROOT
BRANCH   2   4
HETATM    4  N   UNL     1     -11.358  11.026  67.590  1.00  0.00    -0.434 NA 
HETATM    5  H   UNL     1     -11.211  10.231  66.968  1.00  0.00     0.000 HD 
BRANCH   4   6
HETATM    6  C   UNL     1     -11.743  12.243  66.851  1.00  0.00    -0.334 C  
BRANCH   6   7
HETATM    7  C   UNL     1     -10.708  13.332  67.039  1.00  0.00    -0.263 A  
HETATM    8  C   UNL     1     -11.045  14.678  66.824  1.00  0.00    -0.335 A  
HETATM    9  C   UNL     1     -10.077  15.678  66.931  1.00  0.00    -0.265 A  
HETATM   10  C   UNL     1      -8.756  15.353  67.261  1.00  0.00    -0.215 A  
HETATM   11  C   UNL     1      -9.393  13.018  67.415  1.00  0.00    -0.209 A  
HETATM   12  C   UNL     1      -8.423  14.020  67.531  1.00  0.00    -0.201 A  
BRANCH  10  13
HETATM   13  C   UNL     1      -7.755  16.456  67.319  1.00  0.00    -0.163 C  
HETATM   14  O   UNL     1      -6.667  16.268  67.854  1.00  0.00    -0.121 OA 
HETATM   15  N   UNL     1      -8.147  17.673  66.795  1.00  0.00    -0.223 N  
HETATM   16  H   UNL     1      -9.033  17.742  66.294  1.00  0.00     0.000 HD 
BRANCH  15  17
HETATM   17  C   UNL     1      -7.314  18.861  66.947  1.00  0.00    -0.214 C  
HETATM   18  C   UNL     1      -6.904  19.395  65.578  1.00  0.00    -0.303 C  
HETATM   19  C   UNL     1      -8.048  19.938  67.745  1.00  0.00    -0.329 C  
ENDBRANCH  15  17
ENDBRANCH  10  13
ENDBRANCH   6   7
ENDBRANCH   4   6
ENDBRANCH   2   4
TORSDOF 5
ENDMDL
MODEL       97
REMARK 921   NORMALIZED FREE ENERGY PREDICTED BY IDOCK:   -3.67 KCAL/MOL
REMARK 922        TOTAL FREE ENERGY PREDICTED BY IDOCK:   -5.13 KCAL/MOL
REMARK 923 INTER-LIGAND FREE ENERGY PREDICTED BY IDOCK:   -4.86 KCAL/MOL
REMARK 924 INTRA-LIGAND FREE ENERGY PREDICTED BY IDOCK:   -0.27 KCAL/MOL
REMARK 927      BINDING AFFINITY PREDICTED BY RF-SCORE:    0.00 PKD
ROOT
HETATM    1  C   UNL     1      -5.201  14.178  72.246  1.00  0.00    -0.213 C  
HETATM    2  N   UNL     1      -5.222  15.284  71.286  1.00  0.00    -0.128 NA 
HETATM    3  H   UNL     1      -4.298  15.493  70.906  1.00  0.00     0.000 HD 
ENDROOT
BRANCH   2   4
HETATM    4  N   UNL     1      -6.195  14.970  70.252  1.00  0.00    -0.151 NA 
HETATM    5  H   UNL     1      -7.041  14.548  70.637  1.00  0.00     0.000 HD 
BRANCH   4   6
HETATM    6  C   UNL     1      -6.491  16.178  69.460  1.00  0.00    -0.199 C  
BRANCH   6   7
HETATM    7  C   UNL     1      -7.495  15.869  68.369  1.00  0.00    -0.127 A  
HETATM    8  C   UNL     1      -8.157  14.632  68.343  1.00  0.00    -0.147 A  
HETATM    9  C   UNL     1      -9.033  14.316  67.302  1.00  0.00    -0.221 A  
HETATM   10  C   UNL     1      -9.267  15.234  66.271  1.00  0.00    -0.350 A  
HETATM   11  C   UNL     1      -7.769  16.802  67.358  1.00  0.00    -0.192 A  
HETATM   12  C   UNL     1      -8.653  16.492  66.318  1.00  0.00    -0.367 A  
BRANCH  10  13
HETATM   13  C   UNL     1     -10.178  14.829  65.163  1.00  0.00    -0.377 C  
HETATM   14  O   UNL     1     -10.929  15.655  64.655  1.00  0.00    -0.424 OA 
HETATM   15  N   UNL     1     -10.153  13.495  64.801  1.00  0.00    -0.609 N  
HETATM   16  H   UNL     1      -9.450  12.878  65.207  1.00  0.00     0.000 HD 
BRANCH  15  17
HETATM   17  C   UNL     1     -11.116  12.957  63.847  1.00  0.00    -0.411 C  
HETATM   18  C   UNL     1     -10.578  11.674  63.223  1.00  0.00    -0.420 C  
HETATM   19  C   UNL     1     -12.463  12.702  64.523  1.00  0.00    -0.525 C  
ENDBRANCH  15  17
ENDBRANCH  10  13
ENDBRANCH   6   7
ENDBRANCH   4   6
ENDBRANCH   2   4
TORSDOF 5
ENDMDL
MODEL       98
REMARK 921   NORMALIZED FREE ENERGY PREDICTED BY IDOCK:   -3.66 KCAL/MOL
REMARK 922        TOTAL FREE ENERGY PREDICTED BY IDOCK:   -5.13 KCAL/MOL
REMARK 923 INTER-LIGAND FREE ENERGY PREDICTED BY IDOCK:   -4.76 KCAL/MOL
REMARK 924 INTRA-LIGAND FREE ENERGY PREDICTED BY IDOCK:   -0.37 KCAL/MOL
REMARK 927      BINDING AFFINITY PREDICTED BY RF-SCORE:    0.00 PKD
ROOT
HETATM    1  C   UNL     1      -8.404   5.549  69.206  1.00  0.00    -0.101 C  
HETATM    2  N   UNL     1      -8.167   6.553  70.247  1.00  0.00    -0.124 NA 
HETATM    3  H   UNL     1      -7.455   7.235  69.981  1.00  0.00     0.000 HD 
ENDROOT
BRANCH   2   4
HETATM    4  N   UNL     1      -9.439   7.172  70.579  1.00  0.00    -0.162 NA 
HETATM    5  H   UNL     1      -9.319   8.030  71.120  1.00  0.00     0.000 HD 
BRANCH   4   6
HETATM    6  C   UNL     1     -10.222   7.398  69.350  1.00  0.00    -0.201 C  
BRANCH   6   7
HETATM    7  C   UNL     1     -10.577   8.863  69.204  1.00  0.00    -0.211 A  
HETATM    8  C   UNL     1     -10.903   9.631  70.333  1.00  0.00    -0.353 A  
HETATM    9  C   UNL     1     -11.296  10.964  70.196  1.00  0.00    -0.367 A  
HETATM   10  C   UNL     1     -11.364  11.556  68.929  1.00  0.00    -0.331 A  
HETATM   11  C   UNL     1     -10.601   9.475  67.942  1.00  0.00    -0.299 A  
HETATM   12  C   UNL     1     -10.986  10.814  67.803  1.00  0.00    -0.354 A  
BRANCH  10  13
HETATM   13  C   UNL     1     -11.830  12.968  68.837  1.00  0.00    -0.316 C  
HETATM   14  O   UNL     1     -12.207  13.420  67.761  1.00  0.00    -0.291 OA 
HETATM   15  N   UNL     1     -11.757  13.718  69.996  1.00  0.00    -0.409 N  
HETATM   16  H   UNL     1     -11.509  13.262  70.874  1.00  0.00     0.000 HD 
BRANCH  15  17
HETATM   17  C   UNL     1     -12.030  15.151  69.983  1.00  0.00    -0.336 C  
HETATM   18  C   UNL     1     -12.942  15.524  71.147  1.00  0.00    -0.560 C  
HETATM   19  C   UNL     1     -10.728  15.950  70.044  1.00  0.00    -0.343 C  
ENDBRANCH  15  17
ENDBRANCH  10  13
ENDBRANCH   6   7
ENDBRANCH   4   6
ENDBRANCH   2   4
TORSDOF 5
ENDMDL
MODEL       99
REMARK 921   NORMALIZED FREE ENERGY PREDICTED BY IDOCK:   -3.63 KCAL/MOL
REMARK 922        TOTAL FREE ENERGY PREDICTED BY IDOCK:   -5.09 KCAL/MOL
REMARK 923 INTER-LIGAND FREE ENERGY PREDICTED BY IDOCK:   -4.79 KCAL/MOL
REMARK 924 INTRA-LIGAND FREE ENERGY PREDICTED BY IDOCK:   -0.30 KCAL/MOL
REMARK 927      BINDING AFFINITY PREDICTED BY RF-SCORE:    0.00 PKD
ROOT
HETATM    1  C   UNL     1     -10.493  19.669  66.235  1.00  0.00    -0.519 C  
HETATM    2  N   UNL     1     -10.877  18.684  65.220  1.00  0.00    -0.448 NA 
HETATM    3  H   UNL     1     -10.600  18.962  64.278  1.00  0.00     0.000 HD 
ENDROOT
BRANCH   2   4
HETATM    4  N   UNL     1     -10.328  17.395  65.608  1.00  0.00    -0.624 NA 
HETATM    5  H   UNL     1      -9.366  17.275  65.288  1.00  0.00     0.000 HD 
BRANCH   4   6
HETATM    6  C   UNL     1     -10.453  17.216  67.066  1.00  0.00    -0.282 C  
BRANCH   6   7
HETATM    7  C   UNL     1     -10.110  15.795  67.461  1.00  0.00    -0.245 A  
HETATM    8  C   UNL     1      -8.790  15.328  67.363  1.00  0.00    -0.191 A  
HETATM    9  C   UNL     1      -8.481  14.000  67.663  1.00  0.00    -0.193 A  
HETATM   10  C   UNL     1      -9.486  13.115  68.071  1.00  0.00    -0.220 A  
HETATM   11  C   UNL     1     -11.104  14.915  67.916  1.00  0.00    -0.304 A  
HETATM   12  C   UNL     1     -10.796  13.585  68.225  1.00  0.00    -0.277 A  
BRANCH  10  13
HETATM   13  C   UNL     1      -9.108  11.697  68.337  1.00  0.00    -0.180 C  
HETATM   14  O   UNL     1      -8.218  11.168  67.680  1.00  0.00    -0.115 OA 
HETATM   15  N   UNL     1      -9.843  11.034  69.302  1.00  0.00    -0.414 N  
HETATM   16  H   UNL     1     -10.515  11.553  69.866  1.00  0.00     0.000 HD 
BRANCH  15  17
HETATM   17  C   UNL     1      -9.670   9.603  69.526  1.00  0.00    -0.203 C  
HETATM   18  C   UNL     1     -10.031   9.248  70.965  1.00  0.00    -0.364 C  
HETATM   19  C   UNL     1     -10.519   8.795  68.545  1.00  0.00    -0.212 C  
ENDBRANCH  15  17
ENDBRANCH  10  13
ENDBRANCH   6   7
ENDBRANCH   4   6
ENDBRANCH   2   4
TORSDOF 5
ENDMDL
MODEL      100
REMARK 921   NORMALIZED FREE ENERGY PREDICTED BY IDOCK:   -3.59 KCAL/MOL
REMARK 922        TOTAL FREE ENERGY PREDICTED BY IDOCK:   -5.03 KCAL/MOL
REMARK 923 INTER-LIGAND FREE ENERGY PREDICTED BY IDOCK:   -4.65 KCAL/MOL
REMARK 924 INTRA-LIGAND FREE ENERGY PREDICTED BY IDOCK:   -0.38 KCAL/MOL
REMARK 927      BINDING AFFINITY PREDICTED BY RF-SCORE:    0.00 PKD
ROOT
HETATM    1  C   UNL     1      -8.464  19.055  66.951  1.00  0.00    -0.290 C  
HETATM    2  N   UNL     1      -8.885  17.670  67.174  1.00  0.00    -0.239 NA 
HETATM    3  H   UNL     1      -8.460  17.258  68.005  1.00  0.00     0.000 HD 
ENDROOT
BRANCH   2   4
HETATM    4  N   UNL     1     -10.338  17.637  67.212  1.00  0.00    -0.346 NA 
HETATM    5  H   UNL     1     -10.748  17.727  66.282  1.00  0.00     0.000 HD 
BRANCH   4   6
HETATM    6  C   UNL     1     -10.793  16.416  67.902  1.00  0.00    -0.328 C  
BRANCH   6   7
HETATM    7  C   UNL     1     -10.719  15.220  66.977  1.00  0.00    -0.313 A  
HETATM    8  C   UNL     1     -10.211  13.995  67.438  1.00  0.00    -0.248 A  
HETATM    9  C   UNL     1     -10.078  12.909  66.571  1.00  0.00    -0.263 A  
HETATM   10  C   UNL     1     -10.456  13.026  65.227  1.00  0.00    -0.318 A  
HETATM   11  C   UNL     1     -11.139  15.316  65.642  1.00  0.00    -0.308 A  
HETATM   12  C   UNL     1     -11.015  14.226  64.771  1.00  0.00    -0.408 A  
BRANCH  10  13
HETATM   13  C   UNL     1     -10.253  11.849  64.335  1.00  0.00    -0.297 C  
HETATM   14  O   UNL     1     -11.173  11.448  63.631  1.00  0.00    -0.402 OA 
HETATM   15  N   UNL     1      -9.017  11.233  64.400  1.00  0.00    -0.391 N  
HETATM   16  H   UNL     1      -8.270  11.661  64.946  1.00  0.00     0.000 HD 
BRANCH  15  17
HETATM   17  C   UNL     1      -8.764   9.979  63.697  1.00  0.00    -0.218 C  
HETATM   18  C   UNL     1      -7.502  10.096  62.850  1.00  0.00    -0.143 C  
HETATM   19  C   UNL     1      -8.641   8.820  64.687  1.00  0.00    -0.140 C  
ENDBRANCH  15  17
ENDBRANCH  10  13
ENDBRANCH   6   7
ENDBRANCH   4   6
ENDBRANCH   2   4
TORSDOF 5
ENDMDL
MODEL      101
REMARK 921   NORMALIZED FREE ENERGY PREDICTED BY IDOCK:   -3.53 KCAL/MOL
REMARK 922        TOTAL FREE ENERGY PREDICTED BY IDOCK:   -4.96 KCAL/MOL
REMARK 923 INTER-LIGAND FREE ENERGY PREDICTED BY IDOCK:   -4.59 KCAL/MOL
REMARK 924 INTRA-LIGAND FREE ENERGY PREDICTED BY IDOCK:   -0.36 KCAL/MOL
REMARK 927      BINDING AFFINITY PREDICTED BY RF-SCORE:    0.00 PKD
ROOT
HETATM    1  C   UNL     1     -11.672   9.084  71.302  1.00  0.00    -0.313 C  
HETATM    2  N   UNL     1     -12.981   8.475  71.049  1.00  0.00    -0.501 NA 
HETATM    3  H   UNL     1     -13.551   9.022  70.404  1.00  0.00     0.000 HD 
ENDROOT
BRANCH   2   4
HETATM    4  N   UNL     1     -12.767   7.112  70.591  1.00  0.00    -0.597 NA 
HETATM    5  H   UNL     1     -13.159   6.954  69.662  1.00  0.00     0.000 HD 
BRANCH   4   6
HETATM    6  C   UNL     1     -11.331   6.785  70.649  1.00  0.00    -0.334 C  
BRANCH   6   7
HETATM    7  C   UNL     1     -10.907   6.021  69.411  1.00  0.00    -0.433 A  
HETATM    8  C   UNL     1     -10.130   4.858  69.525  1.00  0.00    -0.286 A  
HETATM    9  C   UNL     1      -9.681   4.188  68.386  1.00  0.00    -0.150 A  
HETATM   10  C   UNL     1     -10.005   4.667  67.110  1.00  0.00    -0.215 A  
HETATM   11  C   UNL     1     -11.268   6.468  68.131  1.00  0.00    -0.250 A  
HETATM   12  C   UNL     1     -10.825   5.795  66.986  1.00  0.00    -0.328 A  
BRANCH  10  13
HETATM   13  C   UNL     1      -9.463   3.938  65.928  1.00  0.00    -0.181 C  
HETATM   14  O   UNL     1      -8.278   3.625  65.892  1.00  0.00    -0.099 OA 
HETATM   15  N   UNL     1     -10.347   3.699  64.892  1.00  0.00    -0.427 N  
HETATM   16  H   UNL     1     -11.336   3.914  65.017  1.00  0.00     0.000 HD 
BRANCH  15  17
HETATM   17  C   UNL     1      -9.888   3.143  63.624  1.00  0.00    -0.146 C  
HETATM   18  C   UNL     1     -10.760   1.958  63.222  1.00  0.00    -0.192 C  
HETATM   19  C   UNL     1      -9.895   4.211  62.531  1.00  0.00    -0.139 C  
ENDBRANCH  15  17
ENDBRANCH  10  13
ENDBRANCH   6   7
ENDBRANCH   4   6
ENDBRANCH   2   4
TORSDOF 5
ENDMDL
MODEL      102
REMARK 921   NORMALIZED FREE ENERGY PREDICTED BY IDOCK:   -3.53 KCAL/MOL
REMARK 922        TOTAL FREE ENERGY PREDICTED BY IDOCK:   -4.96 KCAL/MOL
REMARK 923 INTER-LIGAND FREE ENERGY PREDICTED BY IDOCK:   -4.79 KCAL/MOL
REMARK 924 INTRA-LIGAND FREE ENERGY PREDICTED BY IDOCK:   -0.16 KCAL/MOL
REMARK 927      BINDING AFFINITY PREDICTED BY RF-SCORE:    0.00 PKD
ROOT
HETATM    1  C   UNL     1     -10.652   5.925  73.851  1.00  0.00    -0.228 C  
HETATM    2  N   UNL     1     -10.209   7.281  73.516  1.00  0.00    -0.336 NA 
HETATM    3  H   UNL     1      -9.198   7.395  73.595  1.00  0.00     0.000 HD 
ENDROOT
BRANCH   2   4
HETATM    4  N   UNL     1     -10.707   7.608  72.190  1.00  0.00    -0.228 NA 
HETATM    5  H   UNL     1     -11.514   8.231  72.226  1.00  0.00     0.000 HD 
BRANCH   4   6
HETATM    6  C   UNL     1      -9.616   8.162  71.368  1.00  0.00    -0.165 C  
BRANCH   6   7
HETATM    7  C   UNL     1     -10.132   9.269  70.472  1.00  0.00    -0.313 A  
HETATM    8  C   UNL     1     -11.371   9.875  70.732  1.00  0.00    -0.430 A  
HETATM    9  C   UNL     1     -11.880  10.848  69.871  1.00  0.00    -0.427 A  
HETATM   10  C   UNL     1     -11.157  11.239  68.737  1.00  0.00    -0.288 A  
HETATM   11  C   UNL     1      -9.391   9.698  69.360  1.00  0.00    -0.201 A  
HETATM   12  C   UNL     1      -9.896  10.680  68.499  1.00  0.00    -0.175 A  
BRANCH  10  13
HETATM   13  C   UNL     1     -11.768  12.251  67.829  1.00  0.00    -0.337 C  
HETATM   14  O   UNL     1     -12.506  13.117  68.286  1.00  0.00     0.045 OA 
HETATM   15  N   UNL     1     -11.496  12.115  66.481  1.00  0.00    -0.363 N  
HETATM   16  H   UNL     1     -10.812  11.422  66.174  1.00  0.00     0.000 HD 
BRANCH  15  17
HETATM   17  C   UNL     1     -12.170  12.945  65.489  1.00  0.00    -0.474 C  
HETATM   18  C   UNL     1     -11.586  14.354  65.498  1.00  0.00    -0.347 C  
HETATM   19  C   UNL     1     -12.057  12.325  64.097  1.00  0.00    -0.525 C  
ENDBRANCH  15  17
ENDBRANCH  10  13
ENDBRANCH   6   7
ENDBRANCH   4   6
ENDBRANCH   2   4
TORSDOF 5
ENDMDL
MODEL      103
REMARK 921   NORMALIZED FREE ENERGY PREDICTED BY IDOCK:   -3.51 KCAL/MOL
REMARK 922        TOTAL FREE ENERGY PREDICTED BY IDOCK:   -4.93 KCAL/MOL
REMARK 923 INTER-LIGAND FREE ENERGY PREDICTED BY IDOCK:   -4.57 KCAL/MOL
REMARK 924 INTRA-LIGAND FREE ENERGY PREDICTED BY IDOCK:   -0.35 KCAL/MOL
REMARK 927      BINDING AFFINITY PREDICTED BY RF-SCORE:    0.00 PKD
ROOT
HETATM    1  C   UNL     1      -8.034   6.336  69.925  1.00  0.00    -0.115 C  
HETATM    2  N   UNL     1      -7.886   6.341  68.468  1.00  0.00    -0.103 NA 
HETATM    3  H   UNL     1      -7.301   5.576  68.129  1.00  0.00     0.000 HD 
ENDROOT
BRANCH   2   4
HETATM    4  N   UNL     1      -9.213   6.335  67.876  1.00  0.00    -0.117 NA 
HETATM    5  H   UNL     1      -9.894   6.827  68.456  1.00  0.00     0.000 HD 
BRANCH   4   6
HETATM    6  C   UNL     1      -9.154   6.882  66.508  1.00  0.00    -0.155 C  
BRANCH   6   7
HETATM    7  C   UNL     1      -9.676   8.304  66.478  1.00  0.00    -0.323 A  
HETATM    8  C   UNL     1     -10.394   8.820  67.568  1.00  0.00    -0.334 A  
HETATM    9  C   UNL     1     -10.934  10.106  67.518  1.00  0.00    -0.319 A  
HETATM   10  C   UNL     1     -10.762  10.903  66.378  1.00  0.00    -0.257 A  
HETATM   11  C   UNL     1      -9.466   9.123  65.359  1.00  0.00    -0.231 A  
HETATM   12  C   UNL     1     -10.000  10.417  65.309  1.00  0.00    -0.376 A  
BRANCH  10  13
HETATM   13  C   UNL     1     -11.396  12.251  66.362  1.00  0.00    -0.354 C  
HETATM   14  O   UNL     1     -12.459  12.421  65.773  1.00  0.00    -0.615 OA 
HETATM   15  N   UNL     1     -10.700  13.268  66.987  1.00  0.00    -0.259 N  
HETATM   16  H   UNL     1      -9.862  13.046  67.525  1.00  0.00     0.000 HD 
BRANCH  15  17
HETATM   17  C   UNL     1     -11.144  14.654  66.889  1.00  0.00    -0.333 C  
HETATM   18  C   UNL     1     -11.438  15.212  68.278  1.00  0.00    -0.350 C  
HETATM   19  C   UNL     1     -10.095  15.510  66.178  1.00  0.00    -0.329 C  
ENDBRANCH  15  17
ENDBRANCH  10  13
ENDBRANCH   6   7
ENDBRANCH   4   6
ENDBRANCH   2   4
TORSDOF 5
ENDMDL
MODEL      104
REMARK 921   NORMALIZED FREE ENERGY PREDICTED BY IDOCK:   -3.48 KCAL/MOL
REMARK 922        TOTAL FREE ENERGY PREDICTED BY IDOCK:   -4.89 KCAL/MOL
REMARK 923 INTER-LIGAND FREE ENERGY PREDICTED BY IDOCK:   -4.56 KCAL/MOL
REMARK 924 INTRA-LIGAND FREE ENERGY PREDICTED BY IDOCK:   -0.32 KCAL/MOL
REMARK 927      BINDING AFFINITY PREDICTED BY RF-SCORE:    0.00 PKD
ROOT
HETATM    1  C   UNL     1     -13.405   9.970  71.820  1.00  0.00    -0.393 C  
HETATM    2  N   UNL     1     -12.913   8.698  71.284  1.00  0.00    -0.496 NA 
HETATM    3  H   UNL     1     -12.765   8.726  70.275  1.00  0.00     0.000 HD 
ENDROOT
BRANCH   2   4
HETATM    4  N   UNL     1     -11.712   8.331  72.016  1.00  0.00    -0.321 NA 
HETATM    5  H   UNL     1     -11.918   7.726  72.813  1.00  0.00     0.000 HD 
BRANCH   4   6
HETATM    6  C   UNL     1     -10.733   7.721  71.098  1.00  0.00    -0.227 C  
BRANCH   6   7
HETATM    7  C   UNL     1     -10.509   8.608  69.891  1.00  0.00    -0.221 A  
HETATM    8  C   UNL     1     -10.873   8.169  68.608  1.00  0.00     0.037 A  
HETATM    9  C   UNL     1     -10.608   8.955  67.486  1.00  0.00    -0.307 A  
HETATM   10  C   UNL     1      -9.978  10.198  67.624  1.00  0.00    -0.216 A  
HETATM   11  C   UNL     1      -9.921   9.875  70.028  1.00  0.00    -0.302 A  
HETATM   12  C   UNL     1      -9.661  10.669  68.904  1.00  0.00    -0.210 A  
BRANCH  10  13
HETATM   13  C   UNL     1      -9.680  10.976  66.388  1.00  0.00    -0.201 C  
HETATM   14  O   UNL     1      -8.900  11.921  66.433  1.00  0.00    -0.197 OA 
HETATM   15  N   UNL     1     -10.363  10.604  65.246  1.00  0.00    -0.279 N  
HETATM   16  H   UNL     1     -10.938   9.761  65.256  1.00  0.00     0.000 HD 
BRANCH  15  17
HETATM   17  C   UNL     1     -10.274  11.397  64.024  1.00  0.00    -0.346 C  
HETATM   18  C   UNL     1      -9.782  10.531  62.869  1.00  0.00    -0.304 C  
HETATM   19  C   UNL     1     -11.627  12.024  63.687  1.00  0.00    -0.578 C  
ENDBRANCH  15  17
ENDBRANCH  10  13
ENDBRANCH   6   7
ENDBRANCH   4   6
ENDBRANCH   2   4
TORSDOF 5
ENDMDL
MODEL      105
REMARK 921   NORMALIZED FREE ENERGY PREDICTED BY IDOCK:   -3.43 KCAL/MOL
REMARK 922        TOTAL FREE ENERGY PREDICTED BY IDOCK:   -4.82 KCAL/MOL
REMARK 923 INTER-LIGAND FREE ENERGY PREDICTED BY IDOCK:   -5.43 KCAL/MOL
REMARK 924 INTRA-LIGAND FREE ENERGY PREDICTED BY IDOCK:    0.61 KCAL/MOL
REMARK 927      BINDING AFFINITY PREDICTED BY RF-SCORE:    0.00 PKD
ROOT
HETATM    1  C   UNL     1      -7.379  20.578  66.758  1.00  0.00    -0.261 C  
HETATM    2  N   UNL     1      -8.111  20.081  65.590  1.00  0.00    -0.503 NA 
HETATM    3  H   UNL     1      -7.896  19.107  65.377  1.00  0.00     0.000 HD 
ENDROOT
BRANCH   2   4
HETATM    4  N   UNL     1      -9.530  20.306  65.813  1.00  0.00    -0.548 NA 
HETATM    5  H   UNL     1     -10.108  19.793  65.147  1.00  0.00     0.000 HD 
BRANCH   4   6
HETATM    6  C   UNL     1      -9.874  19.982  67.210  1.00  0.00    -0.427 C  
BRANCH   6   7
HETATM    7  C   UNL     1     -10.056  18.489  67.383  1.00  0.00    -0.377 A  
HETATM    8  C   UNL     1     -10.220  17.937  68.663  1.00  0.00    -0.387 A  
HETATM    9  C   UNL     1     -10.320  16.555  68.834  1.00  0.00    -0.292 A  
HETATM   10  C   UNL     1     -10.265  15.699  67.727  1.00  0.00    -0.252 A  
HETATM   11  C   UNL     1     -10.049  17.630  66.274  1.00  0.00    -0.344 A  
HETATM   12  C   UNL     1     -10.159  16.244  66.441  1.00  0.00    -0.318 A  
BRANCH  10  13
HETATM   13  C   UNL     1     -10.335  14.230  67.970  1.00  0.00    -0.229 C  
HETATM   14  O   UNL     1      -9.368  13.641  68.440  1.00  0.00    -0.203 OA 
HETATM   15  N   UNL     1     -11.504  13.597  67.591  1.00  0.00    -0.307 N  
HETATM   16  H   UNL     1     -12.299  14.155  67.280  1.00  0.00     0.000 HD 
BRANCH  15  17
HETATM   17  C   UNL     1     -11.619  12.143  67.630  1.00  0.00    -0.343 C  
HETATM   18  C   UNL     1     -10.398  11.501  66.979  1.00  0.00    -0.254 C  
HETATM   19  C   UNL     1     -11.782  11.652  69.068  1.00  0.00    -0.388 C  
ENDBRANCH  15  17
ENDBRANCH  10  13
ENDBRANCH   6   7
ENDBRANCH   4   6
ENDBRANCH   2   4
TORSDOF 5
ENDMDL
MODEL      106
REMARK 921   NORMALIZED FREE ENERGY PREDICTED BY IDOCK:   -3.42 KCAL/MOL
REMARK 922        TOTAL FREE ENERGY PREDICTED BY IDOCK:   -4.81 KCAL/MOL
REMARK 923 INTER-LIGAND FREE ENERGY PREDICTED BY IDOCK:   -4.47 KCAL/MOL
REMARK 924 INTRA-LIGAND FREE ENERGY PREDICTED BY IDOCK:   -0.34 KCAL/MOL
REMARK 927      BINDING AFFINITY PREDICTED BY RF-SCORE:    0.00 PKD
ROOT
HETATM    1  C   UNL     1      -9.413  20.775  67.086  1.00  0.00    -0.304 C  
HETATM    2  N   UNL     1      -9.154  19.917  65.926  1.00  0.00    -0.482 NA 
HETATM    3  H   UNL     1      -8.174  19.646  65.848  1.00  0.00     0.000 HD 
ENDROOT
BRANCH   2   4
HETATM    4  N   UNL     1     -10.048  18.772  66.000  1.00  0.00    -0.535 NA 
HETATM    5  H   UNL     1      -9.837  18.075  65.286  1.00  0.00     0.000 HD 
BRANCH   4   6
HETATM    6  C   UNL     1     -10.018  18.200  67.358  1.00  0.00    -0.323 C  
BRANCH   6   7
HETATM    7  C   UNL     1      -9.826  16.699  67.302  1.00  0.00    -0.255 A  
HETATM    8  C   UNL     1      -8.554  16.153  67.068  1.00  0.00    -0.233 A  
HETATM    9  C   UNL     1      -8.384  14.773  66.949  1.00  0.00    -0.184 A  
HETATM   10  C   UNL     1      -9.481  13.911  67.066  1.00  0.00    -0.256 A  
HETATM   11  C   UNL     1     -10.913  15.828  67.466  1.00  0.00    -0.293 A  
HETATM   12  C   UNL     1     -10.745  14.443  67.355  1.00  0.00    -0.280 A  
BRANCH  10  13
HETATM   13  C   UNL     1      -9.250  12.450  66.888  1.00  0.00    -0.209 C  
HETATM   14  O   UNL     1      -9.286  11.701  67.858  1.00  0.00    -0.160 OA 
HETATM   15  N   UNL     1      -8.949  12.025  65.607  1.00  0.00    -0.417 N  
HETATM   16  H   UNL     1      -9.012  12.685  64.831  1.00  0.00     0.000 HD 
BRANCH  15  17
HETATM   17  C   UNL     1      -8.543  10.649  65.347  1.00  0.00    -0.179 C  
HETATM   18  C   UNL     1      -9.107  10.177  64.011  1.00  0.00    -0.289 C  
HETATM   19  C   UNL     1      -7.020  10.522  65.361  1.00  0.00    -0.074 C  
ENDBRANCH  15  17
ENDBRANCH  10  13
ENDBRANCH   6   7
ENDBRANCH   4   6
ENDBRANCH   2   4
TORSDOF 5
ENDMDL
MODEL      107
REMARK 921   NORMALIZED FREE ENERGY PREDICTED BY IDOCK:   -3.42 KCAL/MOL
REMARK 922        TOTAL FREE ENERGY PREDICTED BY IDOCK:   -4.81 KCAL/MOL
REMARK 923 INTER-LIGAND FREE ENERGY PREDICTED BY IDOCK:   -5.35 KCAL/MOL
REMARK 924 INTRA-LIGAND FREE ENERGY PREDICTED BY IDOCK:    0.54 KCAL/MOL
REMARK 927      BINDING AFFINITY PREDICTED BY RF-SCORE:    0.00 PKD
ROOT
HETATM    1  C   UNL     1      -8.298  10.530  65.564  1.00  0.00    -0.170 C  
HETATM    2  N   UNL     1      -9.494  10.532  64.718  1.00  0.00    -0.234 NA 
HETATM    3  H   UNL     1     -10.271  10.019  65.135  1.00  0.00     0.000 HD 
ENDROOT
BRANCH   2   4
HETATM    4  N   UNL     1      -9.833  11.912  64.413  1.00  0.00    -0.404 NA 
HETATM    5  H   UNL     1      -9.572  12.170  63.461  1.00  0.00     0.000 HD 
BRANCH   4   6
HETATM    6  C   UNL     1     -11.265  12.146  64.677  1.00  0.00    -0.323 C  
BRANCH   6   7
HETATM    7  C   UNL     1     -11.492  12.475  66.138  1.00  0.00    -0.426 A  
HETATM    8  C   UNL     1     -11.507  11.456  67.103  1.00  0.00    -0.268 A  
HETATM    9  C   UNL     1     -11.782  11.746  68.440  1.00  0.00    -0.389 A  
HETATM   10  C   UNL     1     -12.042  13.063  68.839  1.00  0.00    -0.207 A  
HETATM   11  C   UNL     1     -11.706  13.799  66.552  1.00  0.00    -0.412 A  
HETATM   12  C   UNL     1     -11.975  14.094  67.894  1.00  0.00    -0.378 A  
BRANCH  10  13
HETATM   13  C   UNL     1     -12.372  13.311  70.272  1.00  0.00    -0.264 C  
HETATM   14  O   UNL     1     -12.553  12.365  71.030  1.00  0.00    -0.360 OA 
HETATM   15  N   UNL     1     -12.508  14.632  70.654  1.00  0.00    -0.323 N  
HETATM   16  H   UNL     1     -12.267  15.373  69.995  1.00  0.00     0.000 HD 
BRANCH  15  17
HETATM   17  C   UNL     1     -12.989  14.985  71.985  1.00  0.00    -0.343 C  
HETATM   18  C   UNL     1     -14.136  14.065  72.390  1.00  0.00    -0.576 C  
HETATM   19  C   UNL     1     -11.855  14.912  73.007  1.00  0.00    -0.271 C  
ENDBRANCH  15  17
ENDBRANCH  10  13
ENDBRANCH   6   7
ENDBRANCH   4   6
ENDBRANCH   2   4
TORSDOF 5
ENDMDL
MODEL      108
REMARK 921   NORMALIZED FREE ENERGY PREDICTED BY IDOCK:   -3.41 KCAL/MOL
REMARK 922        TOTAL FREE ENERGY PREDICTED BY IDOCK:   -4.79 KCAL/MOL
REMARK 923 INTER-LIGAND FREE ENERGY PREDICTED BY IDOCK:   -5.09 KCAL/MOL
REMARK 924 INTRA-LIGAND FREE ENERGY PREDICTED BY IDOCK:    0.30 KCAL/MOL
REMARK 927      BINDING AFFINITY PREDICTED BY RF-SCORE:    0.00 PKD
ROOT
HETATM    1  C   UNL     1     -12.143  12.945  63.226  1.00  0.00    -0.440 C  
HETATM    2  N   UNL     1     -11.557  14.103  63.907  1.00  0.00    -0.620 NA 
HETATM    3  H   UNL     1     -12.176  14.499  64.614  1.00  0.00     0.000 HD 
ENDROOT
BRANCH   2   4
HETATM    4  N   UNL     1     -10.267  13.706  64.449  1.00  0.00    -0.712 NA 
HETATM    5  H   UNL     1      -9.564  14.438  64.339  1.00  0.00     0.000 HD 
BRANCH   4   6
HETATM    6  C   UNL     1     -10.422  13.294  65.856  1.00  0.00    -0.285 C  
BRANCH   6   7
HETATM    7  C   UNL     1     -10.271  11.792  65.992  1.00  0.00    -0.265 A  
HETATM    8  C   UNL     1     -10.809  11.122  67.102  1.00  0.00    -0.326 A  
HETATM    9  C   UNL     1     -10.615   9.749  67.265  1.00  0.00    -0.320 A  
HETATM   10  C   UNL     1      -9.886   9.020  66.318  1.00  0.00    -0.361 A  
HETATM   11  C   UNL     1      -9.582  11.048  65.022  1.00  0.00    -0.291 A  
HETATM   12  C   UNL     1      -9.394   9.669  65.179  1.00  0.00    -0.322 A  
BRANCH  10  13
HETATM   13  C   UNL     1      -9.673   7.565  66.564  1.00  0.00    -0.168 C  
HETATM   14  O   UNL     1     -10.026   7.066  67.627  1.00  0.00    -0.140 OA 
HETATM   15  N   UNL     1      -9.025   6.859  65.567  1.00  0.00    -0.368 N  
HETATM   16  H   UNL     1      -8.828   7.315  64.676  1.00  0.00     0.000 HD 
BRANCH  15  17
HETATM   17  C   UNL     1      -8.619   5.473  65.770  1.00  0.00    -0.145 C  
HETATM   18  C   UNL     1      -7.648   5.375  66.941  1.00  0.00    -0.089 C  
HETATM   19  C   UNL     1      -9.838   4.581  66.006  1.00  0.00    -0.240 C  
ENDBRANCH  15  17
ENDBRANCH  10  13
ENDBRANCH   6   7
ENDBRANCH   4   6
ENDBRANCH   2   4
TORSDOF 5
ENDMDL
MODEL      109
REMARK 921   NORMALIZED FREE ENERGY PREDICTED BY IDOCK:   -3.38 KCAL/MOL
REMARK 922        TOTAL FREE ENERGY PREDICTED BY IDOCK:   -4.75 KCAL/MOL
REMARK 923 INTER-LIGAND FREE ENERGY PREDICTED BY IDOCK:   -4.38 KCAL/MOL
REMARK 924 INTRA-LIGAND FREE ENERGY PREDICTED BY IDOCK:   -0.37 KCAL/MOL
REMARK 927      BINDING AFFINITY PREDICTED BY RF-SCORE:    0.00 PKD
ROOT
HETATM    1  C   UNL     1     -11.652  12.597  64.338  1.00  0.00    -0.357 C  
HETATM    2  N   UNL     1     -12.424  12.997  65.517  1.00  0.00    -0.511 NA 
HETATM    3  H   UNL     1     -13.427  12.857  65.397  1.00  0.00     0.000 HD 
ENDROOT
BRANCH   2   4
HETATM    4  N   UNL     1     -11.893  12.288  66.670  1.00  0.00    -0.594 NA 
HETATM    5  H   UNL     1     -12.598  11.702  67.118  1.00  0.00     0.000 HD 
BRANCH   4   6
HETATM    6  C   UNL     1     -10.700  11.516  66.277  1.00  0.00    -0.272 C  
BRANCH   6   7
HETATM    7  C   UNL     1     -10.638  10.206  67.035  1.00  0.00    -0.290 A  
HETATM    8  C   UNL     1     -10.732  10.190  68.435  1.00  0.00    -0.266 A  
HETATM    9  C   UNL     1     -10.608   8.993  69.142  1.00  0.00    -0.219 A  
HETATM   10  C   UNL     1     -10.394   7.788  68.462  1.00  0.00    -0.226 A  
HETATM   11  C   UNL     1     -10.471   8.990  66.356  1.00  0.00    -0.110 A  
HETATM   12  C   UNL     1     -10.355   7.786  67.062  1.00  0.00    -0.405 A  
BRANCH  10  13
HETATM   13  C   UNL     1     -10.226   6.545  69.268  1.00  0.00    -0.187 C  
HETATM   14  O   UNL     1     -10.447   5.451  68.761  1.00  0.00    -0.197 OA 
HETATM   15  N   UNL     1      -9.870   6.714  70.594  1.00  0.00    -0.183 N  
HETATM   16  H   UNL     1      -9.625   7.644  70.933  1.00  0.00     0.000 HD 
BRANCH  15  17
HETATM   17  C   UNL     1      -9.840   5.583  71.514  1.00  0.00    -0.171 C  
HETATM   18  C   UNL     1      -8.400   5.245  71.886  1.00  0.00    -0.122 C  
HETATM   19  C   UNL     1     -10.662   5.883  72.767  1.00  0.00    -0.274 C  
ENDBRANCH  15  17
ENDBRANCH  10  13
ENDBRANCH   6   7
ENDBRANCH   4   6
ENDBRANCH   2   4
TORSDOF 5
ENDMDL
MODEL      110
REMARK 921   NORMALIZED FREE ENERGY PREDICTED BY IDOCK:   -3.36 KCAL/MOL
REMARK 922        TOTAL FREE ENERGY PREDICTED BY IDOCK:   -4.73 KCAL/MOL
REMARK 923 INTER-LIGAND FREE ENERGY PREDICTED BY IDOCK:   -4.43 KCAL/MOL
REMARK 924 INTRA-LIGAND FREE ENERGY PREDICTED BY IDOCK:   -0.30 KCAL/MOL
REMARK 927      BINDING AFFINITY PREDICTED BY RF-SCORE:    0.00 PKD
ROOT
HETATM    1  C   UNL     1     -12.875  15.644  71.406  1.00  0.00    -0.482 C  
HETATM    2  N   UNL     1     -13.307  14.681  70.390  1.00  0.00    -0.518 NA 
HETATM    3  H   UNL     1     -13.936  15.092  69.700  1.00  0.00     0.000 HD 
ENDROOT
BRANCH   2   4
HETATM    4  N   UNL     1     -12.122  14.093  69.787  1.00  0.00    -0.336 NA 
HETATM    5  H   UNL     1     -11.977  13.128  70.086  1.00  0.00     0.000 HD 
BRANCH   4   6
HETATM    6  C   UNL     1     -12.195  14.212  68.319  1.00  0.00    -0.161 C  
BRANCH   6   7
HETATM    7  C   UNL     1     -11.505  13.040  67.653  1.00  0.00    -0.369 A  
HETATM    8  C   UNL     1     -11.744  12.750  66.301  1.00  0.00    -0.460 A  
HETATM    9  C   UNL     1     -11.163  11.632  65.700  1.00  0.00    -0.275 A  
HETATM   10  C   UNL     1     -10.327  10.786  66.439  1.00  0.00    -0.306 A  
HETATM   11  C   UNL     1     -10.629  12.216  68.375  1.00  0.00    -0.243 A  
HETATM   12  C   UNL     1     -10.038  11.098  67.773  1.00  0.00    -0.200 A  
BRANCH  10  13
HETATM   13  C   UNL     1      -9.768   9.582  65.760  1.00  0.00    -0.287 C  
HETATM   14  O   UNL     1     -10.137   8.462  66.097  1.00  0.00    -0.182 OA 
HETATM   15  N   UNL     1      -8.801   9.811  64.799  1.00  0.00    -0.191 N  
HETATM   16  H   UNL     1      -8.596  10.767  64.510  1.00  0.00     0.000 HD 
BRANCH  15  17
HETATM   17  C   UNL     1      -8.070   8.705  64.190  1.00  0.00    -0.162 C  
HETATM   18  C   UNL     1      -8.218   8.747  62.673  1.00  0.00    -0.194 C  
HETATM   19  C   UNL     1      -6.594   8.749  64.587  1.00  0.00    -0.066 C  
ENDBRANCH  15  17
ENDBRANCH  10  13
ENDBRANCH   6   7
ENDBRANCH   4   6
ENDBRANCH   2   4
TORSDOF 5
ENDMDL
MODEL      111
REMARK 921   NORMALIZED FREE ENERGY PREDICTED BY IDOCK:   -3.34 KCAL/MOL
REMARK 922        TOTAL FREE ENERGY PREDICTED BY IDOCK:   -4.71 KCAL/MOL
REMARK 923 INTER-LIGAND FREE ENERGY PREDICTED BY IDOCK:   -4.37 KCAL/MOL
REMARK 924 INTRA-LIGAND FREE ENERGY PREDICTED BY IDOCK:   -0.34 KCAL/MOL
REMARK 927      BINDING AFFINITY PREDICTED BY RF-SCORE:    0.00 PKD
ROOT
HETATM    1  C   UNL     1      -9.066   7.634  70.435  1.00  0.00    -0.152 C  
HETATM    2  N   UNL     1      -8.651   9.033  70.573  1.00  0.00    -0.180 NA 
HETATM    3  H   UNL     1      -7.990   9.320  69.851  1.00  0.00     0.000 HD 
ENDROOT
BRANCH   2   4
HETATM    4  N   UNL     1      -9.845   9.861  70.600  1.00  0.00    -0.347 NA 
HETATM    5  H   UNL     1      -9.630  10.839  70.797  1.00  0.00     0.000 HD 
BRANCH   4   6
HETATM    6  C   UNL     1     -10.593   9.703  69.340  1.00  0.00    -0.225 C  
BRANCH   6   7
HETATM    7  C   UNL     1     -10.576  10.991  68.543  1.00  0.00    -0.218 A  
HETATM    8  C   UNL     1      -9.370  11.673  68.320  1.00  0.00    -0.191 A  
HETATM    9  C   UNL     1      -9.359  12.894  67.644  1.00  0.00    -0.195 A  
HETATM   10  C   UNL     1     -10.553  13.454  67.172  1.00  0.00    -0.259 A  
HETATM   11  C   UNL     1     -11.763  11.533  68.027  1.00  0.00    -0.343 A  
HETATM   12  C   UNL     1     -11.754  12.753  67.341  1.00  0.00    -0.425 A  
BRANCH  10  13
HETATM   13  C   UNL     1     -10.488  14.780  66.495  1.00  0.00    -0.291 C  
HETATM   14  O   UNL     1     -11.168  14.991  65.497  1.00  0.00    -0.344 OA 
HETATM   15  N   UNL     1      -9.599  15.698  67.022  1.00  0.00    -0.220 N  
HETATM   16  H   UNL     1      -9.122  15.489  67.899  1.00  0.00     0.000 HD 
BRANCH  15  17
HETATM   17  C   UNL     1      -9.334  16.962  66.344  1.00  0.00    -0.276 C  
HETATM   18  C   UNL     1     -10.038  18.105  67.066  1.00  0.00    -0.357 C  
HETATM   19  C   UNL     1      -7.830  17.225  66.259  1.00  0.00    -0.344 C  
ENDBRANCH  15  17
ENDBRANCH  10  13
ENDBRANCH   6   7
ENDBRANCH   4   6
ENDBRANCH   2   4
TORSDOF 5
ENDMDL
MODEL      112
REMARK 921   NORMALIZED FREE ENERGY PREDICTED BY IDOCK:   -3.31 KCAL/MOL
REMARK 922        TOTAL FREE ENERGY PREDICTED BY IDOCK:   -4.67 KCAL/MOL
REMARK 923 INTER-LIGAND FREE ENERGY PREDICTED BY IDOCK:   -4.24 KCAL/MOL
REMARK 924 INTRA-LIGAND FREE ENERGY PREDICTED BY IDOCK:   -0.43 KCAL/MOL
REMARK 927      BINDING AFFINITY PREDICTED BY RF-SCORE:    0.00 PKD
ROOT
HETATM    1  C   UNL     1     -10.672   5.714  73.627  1.00  0.00    -0.267 C  
HETATM    2  N   UNL     1     -11.036   7.122  73.450  1.00  0.00    -0.568 NA 
HETATM    3  H   UNL     1     -10.226   7.722  73.297  1.00  0.00     0.000 HD 
ENDROOT
BRANCH   2   4
HETATM    4  N   UNL     1     -12.008   7.208  72.372  1.00  0.00    -0.470 NA 
HETATM    5  H   UNL     1     -12.961   7.313  72.722  1.00  0.00     0.000 HD 
BRANCH   4   6
HETATM    6  C   UNL     1     -11.636   8.294  71.447  1.00  0.00    -0.280 C  
BRANCH   6   7
HETATM    7  C   UNL     1     -11.126   7.728  70.138  1.00  0.00    -0.216 A  
HETATM    8  C   UNL     1     -11.421   6.406  69.771  1.00  0.00    -0.468 A  
HETATM    9  C   UNL     1     -10.897   5.860  68.598  1.00  0.00    -0.333 A  
HETATM   10  C   UNL     1     -10.073   6.628  67.766  1.00  0.00    -0.180 A  
HETATM   11  C   UNL     1     -10.339   8.507  69.276  1.00  0.00    -0.227 A  
HETATM   12  C   UNL     1      -9.819   7.965  68.094  1.00  0.00    -0.193 A  
BRANCH  10  13
HETATM   13  C   UNL     1      -9.507   5.981  66.548  1.00  0.00    -0.156 C  
HETATM   14  O   UNL     1      -8.834   6.640  65.762  1.00  0.00    -0.148 OA 
HETATM   15  N   UNL     1      -9.830   4.652  66.348  1.00  0.00    -0.202 N  
HETATM   16  H   UNL     1     -10.328   4.142  67.078  1.00  0.00     0.000 HD 
BRANCH  15  17
HETATM   17  C   UNL     1      -9.470   3.968  65.112  1.00  0.00    -0.172 C  
HETATM   18  C   UNL     1      -8.927   2.576  65.419  1.00  0.00    -0.131 C  
HETATM   19  C   UNL     1     -10.672   3.880  64.172  1.00  0.00    -0.229 C  
ENDBRANCH  15  17
ENDBRANCH  10  13
ENDBRANCH   6   7
ENDBRANCH   4   6
ENDBRANCH   2   4
TORSDOF 5
ENDMDL
MODEL      113
REMARK 921   NORMALIZED FREE ENERGY PREDICTED BY IDOCK:   -3.31 KCAL/MOL
REMARK 922        TOTAL FREE ENERGY PREDICTED BY IDOCK:   -4.67 KCAL/MOL
REMARK 923 INTER-LIGAND FREE ENERGY PREDICTED BY IDOCK:   -4.29 KCAL/MOL
REMARK 924 INTRA-LIGAND FREE ENERGY PREDICTED BY IDOCK:   -0.38 KCAL/MOL
REMARK 927      BINDING AFFINITY PREDICTED BY RF-SCORE:    0.00 PKD
ROOT
HETATM    1  C   UNL     1      -8.717   4.822  71.094  1.00  0.00    -0.118 C  
HETATM    2  N   UNL     1      -7.932   5.970  71.555  1.00  0.00    -0.112 NA 
HETATM    3  H   UNL     1      -7.342   6.364  70.822  1.00  0.00     0.000 HD 
ENDROOT
BRANCH   2   4
HETATM    4  N   UNL     1      -8.847   6.947  72.124  1.00  0.00    -0.132 NA 
HETATM    5  H   UNL     1      -8.475   7.896  72.072  1.00  0.00     0.000 HD 
BRANCH   4   6
HETATM    6  C   UNL     1     -10.166   6.833  71.476  1.00  0.00    -0.193 C  
BRANCH   6   7
HETATM    7  C   UNL     1     -10.515   8.113  70.745  1.00  0.00    -0.223 A  
HETATM    8  C   UNL     1      -9.950   8.392  69.491  1.00  0.00    -0.190 A  
HETATM    9  C   UNL     1     -10.216   9.600  68.845  1.00  0.00    -0.214 A  
HETATM   10  C   UNL     1     -11.058  10.550  69.437  1.00  0.00    -0.310 A  
HETATM   11  C   UNL     1     -11.395   9.048  71.312  1.00  0.00    -0.389 A  
HETATM   12  C   UNL     1     -11.671  10.257  70.662  1.00  0.00    -0.438 A  
BRANCH  10  13
HETATM   13  C   UNL     1     -11.273  11.840  68.723  1.00  0.00    -0.251 C  
HETATM   14  O   UNL     1     -12.154  11.931  67.875  1.00  0.00    -0.558 OA 
HETATM   15  N   UNL     1     -10.406  12.870  69.035  1.00  0.00    -0.436 N  
HETATM   16  H   UNL     1      -9.747  12.756  69.805  1.00  0.00     0.000 HD 
BRANCH  15  17
HETATM   17  C   UNL     1     -10.420  14.119  68.282  1.00  0.00    -0.249 C  
HETATM   18  C   UNL     1     -10.360  15.309  69.234  1.00  0.00    -0.259 C  
HETATM   19  C   UNL     1      -9.257  14.166  67.291  1.00  0.00    -0.222 C  
ENDBRANCH  15  17
ENDBRANCH  10  13
ENDBRANCH   6   7
ENDBRANCH   4   6
ENDBRANCH   2   4
TORSDOF 5
ENDMDL
MODEL      114
REMARK 921   NORMALIZED FREE ENERGY PREDICTED BY IDOCK:   -3.29 KCAL/MOL
REMARK 922        TOTAL FREE ENERGY PREDICTED BY IDOCK:   -4.64 KCAL/MOL
REMARK 923 INTER-LIGAND FREE ENERGY PREDICTED BY IDOCK:   -4.92 KCAL/MOL
REMARK 924 INTRA-LIGAND FREE ENERGY PREDICTED BY IDOCK:    0.28 KCAL/MOL
REMARK 927      BINDING AFFINITY PREDICTED BY RF-SCORE:    0.00 PKD
ROOT
HETATM    1  C   UNL     1     -11.914  11.863  69.783  1.00  0.00    -0.307 C  
HETATM    2  N   UNL     1     -12.430  10.606  69.235  1.00  0.00    -0.711 NA 
HETATM    3  H   UNL     1     -11.819  10.207  68.522  1.00  0.00     0.000 HD 
ENDROOT
BRANCH   2   4
HETATM    4  N   UNL     1     -12.671   9.694  70.341  1.00  0.00    -0.492 NA 
HETATM    5  H   UNL     1     -12.934   8.762  70.019  1.00  0.00     0.000 HD 
BRANCH   4   6
HETATM    6  C   UNL     1     -11.494   9.660  71.228  1.00  0.00    -0.392 C  
BRANCH   6   7
HETATM    7  C   UNL     1     -11.156   8.236  71.615  1.00  0.00    -0.326 A  
HETATM    8  C   UNL     1     -11.214   7.207  70.662  1.00  0.00    -0.311 A  
HETATM    9  C   UNL     1     -10.969   5.883  71.029  1.00  0.00    -0.335 A  
HETATM   10  C   UNL     1     -10.656   5.562  72.356  1.00  0.00    -0.272 A  
HETATM   11  C   UNL     1     -10.796   7.914  72.933  1.00  0.00    -0.451 A  
HETATM   12  C   UNL     1     -10.542   6.588  73.302  1.00  0.00    -0.301 A  
BRANCH  10  13
HETATM   13  C   UNL     1     -10.447   4.128  72.701  1.00  0.00    -0.155 C  
HETATM   14  O   UNL     1     -10.118   3.330  71.830  1.00  0.00    -0.160 OA 
HETATM   15  N   UNL     1     -10.694   3.767  74.013  1.00  0.00    -0.215 N  
HETATM   16  H   UNL     1     -10.888   4.490  74.705  1.00  0.00     0.000 HD 
BRANCH  15  17
HETATM   17  C   UNL     1     -10.681   2.367  74.422  1.00  0.00    -0.106 C  
HETATM   18  C   UNL     1     -11.755   1.588  73.670  1.00  0.00    -0.301 C  
HETATM   19  C   UNL     1      -9.304   1.747  74.187  1.00  0.00    -0.081 C  
ENDBRANCH  15  17
ENDBRANCH  10  13
ENDBRANCH   6   7
ENDBRANCH   4   6
ENDBRANCH   2   4
TORSDOF 5
ENDMDL
MODEL      115
REMARK 921   NORMALIZED FREE ENERGY PREDICTED BY IDOCK:   -3.26 KCAL/MOL
REMARK 922        TOTAL FREE ENERGY PREDICTED BY IDOCK:   -4.61 KCAL/MOL
REMARK 923 INTER-LIGAND FREE ENERGY PREDICTED BY IDOCK:   -4.21 KCAL/MOL
REMARK 924 INTRA-LIGAND FREE ENERGY PREDICTED BY IDOCK:   -0.40 KCAL/MOL
REMARK 927      BINDING AFFINITY PREDICTED BY RF-SCORE:    0.00 PKD
ROOT
HETATM    1  C   UNL     1     -11.986  11.747  69.980  1.00  0.00    -0.344 C  
HETATM    2  N   UNL     1     -12.781  11.318  71.134  1.00  0.00    -0.401 NA 
HETATM    3  H   UNL     1     -13.575  11.933  71.315  1.00  0.00     0.000 HD 
ENDROOT
BRANCH   2   4
HETATM    4  N   UNL     1     -13.179   9.936  70.923  1.00  0.00    -0.570 NA 
HETATM    5  H   UNL     1     -13.059   9.646  69.952  1.00  0.00     0.000 HD 
BRANCH   4   6
HETATM    6  C   UNL     1     -12.452   9.058  71.857  1.00  0.00    -0.384 C  
BRANCH   6   7
HETATM    7  C   UNL     1     -11.543   8.110  71.102  1.00  0.00    -0.306 A  
HETATM    8  C   UNL     1     -10.236   8.495  70.767  1.00  0.00    -0.237 A  
HETATM    9  C   UNL     1      -9.417   7.651  70.014  1.00  0.00    -0.161 A  
HETATM   10  C   UNL     1      -9.890   6.404  69.586  1.00  0.00    -0.182 A  
HETATM   11  C   UNL     1     -11.994   6.840  70.711  1.00  0.00    -0.433 A  
HETATM   12  C   UNL     1     -11.173   5.989  69.962  1.00  0.00    -0.425 A  
BRANCH  10  13
HETATM   13  C   UNL     1      -8.989   5.562  68.748  1.00  0.00    -0.114 C  
HETATM   14  O   UNL     1      -7.803   5.456  69.040  1.00  0.00    -0.087 OA 
HETATM   15  N   UNL     1      -9.555   4.978  67.630  1.00  0.00    -0.139 N  
HETATM   16  H   UNL     1     -10.563   5.041  67.486  1.00  0.00     0.000 HD 
BRANCH  15  17
HETATM   17  C   UNL     1      -8.733   4.272  66.653  1.00  0.00    -0.113 C  
HETATM   18  C   UNL     1      -9.015   2.775  66.711  1.00  0.00    -0.168 C  
HETATM   19  C   UNL     1      -8.984   4.812  65.245  1.00  0.00    -0.151 C  
ENDBRANCH  15  17
ENDBRANCH  10  13
ENDBRANCH   6   7
ENDBRANCH   4   6
ENDBRANCH   2   4
TORSDOF 5
ENDMDL
MODEL      116
REMARK 921   NORMALIZED FREE ENERGY PREDICTED BY IDOCK:   -3.26 KCAL/MOL
REMARK 922        TOTAL FREE ENERGY PREDICTED BY IDOCK:   -4.61 KCAL/MOL
REMARK 923 INTER-LIGAND FREE ENERGY PREDICTED BY IDOCK:   -4.24 KCAL/MOL
REMARK 924 INTRA-LIGAND FREE ENERGY PREDICTED BY IDOCK:   -0.36 KCAL/MOL
REMARK 927      BINDING AFFINITY PREDICTED BY RF-SCORE:    0.00 PKD
ROOT
HETATM    1  C   UNL     1      -6.321  20.100  67.297  1.00  0.00    -0.196 C  
HETATM    2  N   UNL     1      -6.288  19.542  65.942  1.00  0.00    -0.196 NA 
HETATM    3  H   UNL     1      -5.616  18.780  65.846  1.00  0.00     0.000 HD 
ENDROOT
BRANCH   2   4
HETATM    4  N   UNL     1      -7.639  19.146  65.581  1.00  0.00    -0.457 NA 
HETATM    5  H   UNL     1      -7.648  18.344  64.949  1.00  0.00     0.000 HD 
BRANCH   4   6
HETATM    6  C   UNL     1      -8.431  18.899  66.799  1.00  0.00    -0.298 C  
BRANCH   6   7
HETATM    7  C   UNL     1      -8.975  17.485  66.806  1.00  0.00    -0.272 A  
HETATM    8  C   UNL     1     -10.084  17.147  66.014  1.00  0.00    -0.303 A  
HETATM    9  C   UNL     1     -10.629  15.863  66.067  1.00  0.00    -0.331 A  
HETATM   10  C   UNL     1     -10.073  14.892  66.909  1.00  0.00    -0.242 A  
HETATM   11  C   UNL     1      -8.394  16.495  67.611  1.00  0.00    -0.175 A  
HETATM   12  C   UNL     1      -8.934  15.204  67.661  1.00  0.00    -0.183 A  
BRANCH  10  13
HETATM   13  C   UNL     1     -10.722  13.550  66.959  1.00  0.00    -0.277 C  
HETATM   14  O   UNL     1     -11.902  13.453  67.276  1.00  0.00    -0.352 OA 
HETATM   15  N   UNL     1      -9.913  12.464  66.685  1.00  0.00    -0.221 N  
HETATM   16  H   UNL     1      -8.962  12.617  66.351  1.00  0.00     0.000 HD 
BRANCH  15  17
HETATM   17  C   UNL     1     -10.399  11.100  66.865  1.00  0.00    -0.231 C  
HETATM   18  C   UNL     1      -9.850  10.196  65.766  1.00  0.00    -0.331 C  
HETATM   19  C   UNL     1     -10.011  10.565  68.244  1.00  0.00    -0.176 C  
ENDBRANCH  15  17
ENDBRANCH  10  13
ENDBRANCH   6   7
ENDBRANCH   4   6
ENDBRANCH   2   4
TORSDOF 5
ENDMDL
MODEL      117
REMARK 921   NORMALIZED FREE ENERGY PREDICTED BY IDOCK:   -3.26 KCAL/MOL
REMARK 922        TOTAL FREE ENERGY PREDICTED BY IDOCK:   -4.60 KCAL/MOL
REMARK 923 INTER-LIGAND FREE ENERGY PREDICTED BY IDOCK:   -4.67 KCAL/MOL
REMARK 924 INTRA-LIGAND FREE ENERGY PREDICTED BY IDOCK:    0.07 KCAL/MOL
REMARK 927      BINDING AFFINITY PREDICTED BY RF-SCORE:    0.00 PKD
ROOT
HETATM    1  C   UNL     1     -13.432  12.857  72.003  1.00  0.00    -0.473 C  
HETATM    2  N   UNL     1     -12.512  12.858  70.862  1.00  0.00    -0.351 NA 
HETATM    3  H   UNL     1     -12.952  12.537  70.000  1.00  0.00     0.000 HD 
ENDROOT
BRANCH   2   4
HETATM    4  N   UNL     1     -11.944  14.191  70.739  1.00  0.00    -0.414 NA 
HETATM    5  H   UNL     1     -11.054  14.276  71.230  1.00  0.00     0.000 HD 
BRANCH   4   6
HETATM    6  C   UNL     1     -11.826  14.554  69.315  1.00  0.00    -0.323 C  
BRANCH   6   7
HETATM    7  C   UNL     1     -10.754  15.606  69.119  1.00  0.00    -0.243 A  
HETATM    8  C   UNL     1     -11.105  16.929  68.806  1.00  0.00    -0.160 A  
HETATM    9  C   UNL     1     -10.120  17.886  68.559  1.00  0.00    -0.392 A  
HETATM   10  C   UNL     1      -8.764  17.540  68.625  1.00  0.00    -0.258 A  
HETATM   11  C   UNL     1      -9.395  15.277  69.230  1.00  0.00    -0.239 A  
HETATM   12  C   UNL     1      -8.404  16.237  68.991  1.00  0.00    -0.239 A  
BRANCH  10  13
HETATM   13  C   UNL     1      -7.755  18.591  68.310  1.00  0.00    -0.293 C  
HETATM   14  O   UNL     1      -7.290  19.283  69.209  1.00  0.00    -0.326 OA 
HETATM   15  N   UNL     1      -7.435  18.758  66.975  1.00  0.00    -0.217 N  
HETATM   16  H   UNL     1      -7.796  18.099  66.286  1.00  0.00     0.000 HD 
BRANCH  15  17
HETATM   17  C   UNL     1      -6.588  19.862  66.538  1.00  0.00    -0.196 C  
HETATM   18  C   UNL     1      -6.399  19.813  65.025  1.00  0.00    -0.318 C  
HETATM   19  C   UNL     1      -7.185  21.203  66.961  1.00  0.00    -0.223 C  
ENDBRANCH  15  17
ENDBRANCH  10  13
ENDBRANCH   6   7
ENDBRANCH   4   6
ENDBRANCH   2   4
TORSDOF 5
ENDMDL
MODEL      118
REMARK 921   NORMALIZED FREE ENERGY PREDICTED BY IDOCK:   -3.24 KCAL/MOL
REMARK 922        TOTAL FREE ENERGY PREDICTED BY IDOCK:   -4.58 KCAL/MOL
REMARK 923 INTER-LIGAND FREE ENERGY PREDICTED BY IDOCK:   -4.87 KCAL/MOL
REMARK 924 INTRA-LIGAND FREE ENERGY PREDICTED BY IDOCK:    0.29 KCAL/MOL
REMARK 927      BINDING AFFINITY PREDICTED BY RF-SCORE:    0.00 PKD
ROOT
HETATM    1  C   UNL     1     -12.064  13.097  63.582  1.00  0.00    -0.513 C  
HETATM    2  N   UNL     1     -11.001  12.189  63.147  1.00  0.00    -0.681 NA 
HETATM    3  H   UNL     1     -10.675  12.388  62.201  1.00  0.00     0.000 HD 
ENDROOT
BRANCH   2   4
HETATM    4  N   UNL     1      -9.931  12.237  64.130  1.00  0.00    -0.520 NA 
HETATM    5  H   UNL     1      -9.197  12.895  63.865  1.00  0.00     0.000 HD 
BRANCH   4   6
HETATM    6  C   UNL     1     -10.488  12.536  65.462  1.00  0.00    -0.279 C  
BRANCH   6   7
HETATM    7  C   UNL     1     -10.443  11.308  66.347  1.00  0.00    -0.306 A  
HETATM    8  C   UNL     1     -10.712  11.411  67.721  1.00  0.00    -0.254 A  
HETATM    9  C   UNL     1     -10.606  10.295  68.552  1.00  0.00    -0.240 A  
HETATM   10  C   UNL     1     -10.236   9.052  68.024  1.00  0.00    -0.260 A  
HETATM   11  C   UNL     1     -10.119  10.050  65.816  1.00  0.00    -0.320 A  
HETATM   12  C   UNL     1     -10.021   8.926  66.646  1.00  0.00    -0.346 A  
BRANCH  10  13
HETATM   13  C   UNL     1     -10.097   7.903  68.964  1.00  0.00    -0.200 C  
HETATM   14  O   UNL     1     -10.846   7.808  69.930  1.00  0.00    -0.247 OA 
HETATM   15  N   UNL     1      -9.067   7.017  68.707  1.00  0.00    -0.134 N  
HETATM   16  H   UNL     1      -8.531   7.108  67.844  1.00  0.00     0.000 HD 
BRANCH  15  17
HETATM   17  C   UNL     1      -8.737   5.954  69.649  1.00  0.00    -0.128 C  
HETATM   18  C   UNL     1      -8.248   6.551  70.965  1.00  0.00    -0.121 C  
HETATM   19  C   UNL     1      -9.944   5.047  69.886  1.00  0.00    -0.322 C  
ENDBRANCH  15  17
ENDBRANCH  10  13
ENDBRANCH   6   7
ENDBRANCH   4   6
ENDBRANCH   2   4
TORSDOF 5
ENDMDL
MODEL      119
REMARK 921   NORMALIZED FREE ENERGY PREDICTED BY IDOCK:   -3.24 KCAL/MOL
REMARK 922        TOTAL FREE ENERGY PREDICTED BY IDOCK:   -4.58 KCAL/MOL
REMARK 923 INTER-LIGAND FREE ENERGY PREDICTED BY IDOCK:   -4.25 KCAL/MOL
REMARK 924 INTRA-LIGAND FREE ENERGY PREDICTED BY IDOCK:   -0.32 KCAL/MOL
REMARK 927      BINDING AFFINITY PREDICTED BY RF-SCORE:    0.00 PKD
ROOT
HETATM    1  C   UNL     1     -10.639  20.037  66.671  1.00  0.00    -0.339 C  
HETATM    2  N   UNL     1     -10.484  19.165  67.838  1.00  0.00    -0.407 NA 
HETATM    3  H   UNL     1     -11.379  18.892  68.247  1.00  0.00     0.000 HD 
ENDROOT
BRANCH   2   4
HETATM    4  N   UNL     1      -9.676  18.021  67.447  1.00  0.00    -0.288 NA 
HETATM    5  H   UNL     1      -9.634  17.313  68.180  1.00  0.00     0.000 HD 
BRANCH   4   6
HETATM    6  C   UNL     1     -10.172  17.470  66.173  1.00  0.00    -0.335 C  
BRANCH   6   7
HETATM    7  C   UNL     1      -9.990  15.967  66.134  1.00  0.00    -0.347 A  
HETATM    8  C   UNL     1     -10.885  15.161  65.413  1.00  0.00    -0.393 A  
HETATM    9  C   UNL     1     -10.761  13.771  65.429  1.00  0.00    -0.320 A  
HETATM   10  C   UNL     1      -9.735  13.160  66.161  1.00  0.00    -0.254 A  
HETATM   11  C   UNL     1      -8.937  15.352  66.826  1.00  0.00    -0.288 A  
HETATM   12  C   UNL     1      -8.805  13.958  66.838  1.00  0.00    -0.210 A  
BRANCH  10  13
HETATM   13  C   UNL     1      -9.675  11.671  66.178  1.00  0.00    -0.229 C  
HETATM   14  O   UNL     1      -9.926  11.037  65.159  1.00  0.00    -0.243 OA 
HETATM   15  N   UNL     1      -9.381  11.080  67.392  1.00  0.00    -0.155 N  
HETATM   16  H   UNL     1      -9.105  11.664  68.181  1.00  0.00     0.000 HD 
BRANCH  15  17
HETATM   17  C   UNL     1      -9.458   9.633  67.562  1.00  0.00    -0.134 C  
HETATM   18  C   UNL     1      -8.247   9.129  68.341  1.00  0.00    -0.115 C  
HETATM   19  C   UNL     1     -10.754   9.239  68.270  1.00  0.00    -0.195 C  
ENDBRANCH  15  17
ENDBRANCH  10  13
ENDBRANCH   6   7
ENDBRANCH   4   6
ENDBRANCH   2   4
TORSDOF 5
ENDMDL
MODEL      120
REMARK 921   NORMALIZED FREE ENERGY PREDICTED BY IDOCK:   -3.23 KCAL/MOL
REMARK 922        TOTAL FREE ENERGY PREDICTED BY IDOCK:   -4.57 KCAL/MOL
REMARK 923 INTER-LIGAND FREE ENERGY PREDICTED BY IDOCK:   -4.24 KCAL/MOL
REMARK 924 INTRA-LIGAND FREE ENERGY PREDICTED BY IDOCK:   -0.32 KCAL/MOL
REMARK 927      BINDING AFFINITY PREDICTED BY RF-SCORE:    0.00 PKD
ROOT
HETATM    1  C   UNL     1     -12.441  12.153  63.594  1.00  0.00    -0.549 C  
HETATM    2  N   UNL     1     -12.562  12.491  65.015  1.00  0.00    -0.640 NA 
HETATM    3  H   UNL     1     -13.443  12.175  65.420  1.00  0.00     0.000 HD 
ENDROOT
BRANCH   2   4
HETATM    4  N   UNL     1     -11.401  11.957  65.709  1.00  0.00    -0.324 NA 
HETATM    5  H   UNL     1     -10.526  12.310  65.321  1.00  0.00     0.000 HD 
BRANCH   4   6
HETATM    6  C   UNL     1     -11.515  12.227  67.154  1.00  0.00    -0.352 C  
BRANCH   6   7
HETATM    7  C   UNL     1     -11.079  11.020  67.959  1.00  0.00    -0.343 A  
HETATM    8  C   UNL     1     -10.102  10.146  67.457  1.00  0.00    -0.244 A  
HETATM    9  C   UNL     1      -9.745   8.996  68.164  1.00  0.00    -0.172 A  
HETATM   10  C   UNL     1     -10.356   8.702  69.390  1.00  0.00    -0.221 A  
HETATM   11  C   UNL     1     -11.652  10.744  69.209  1.00  0.00    -0.376 A  
HETATM   12  C   UNL     1     -11.291   9.596  69.925  1.00  0.00    -0.200 A  
BRANCH  10  13
HETATM   13  C   UNL     1      -9.969   7.440  70.082  1.00  0.00    -0.184 C  
HETATM   14  O   UNL     1     -10.802   6.817  70.731  1.00  0.00    -0.232 OA 
HETATM   15  N   UNL     1      -8.641   7.067  69.988  1.00  0.00    -0.140 N  
HETATM   16  H   UNL     1      -8.016   7.585  69.370  1.00  0.00     0.000 HD 
BRANCH  15  17
HETATM   17  C   UNL     1      -8.118   5.945  70.759  1.00  0.00    -0.119 C  
HETATM   18  C   UNL     1      -7.315   5.014  69.857  1.00  0.00    -0.059 C  
HETATM   19  C   UNL     1      -7.258   6.441  71.921  1.00  0.00    -0.087 C  
ENDBRANCH  15  17
ENDBRANCH  10  13
ENDBRANCH   6   7
ENDBRANCH   4   6
ENDBRANCH   2   4
TORSDOF 5
ENDMDL
MODEL      121
REMARK 921   NORMALIZED FREE ENERGY PREDICTED BY IDOCK:   -3.22 KCAL/MOL
REMARK 922        TOTAL FREE ENERGY PREDICTED BY IDOCK:   -4.55 KCAL/MOL
REMARK 923 INTER-LIGAND FREE ENERGY PREDICTED BY IDOCK:   -4.17 KCAL/MOL
REMARK 924 INTRA-LIGAND FREE ENERGY PREDICTED BY IDOCK:   -0.38 KCAL/MOL
REMARK 927      BINDING AFFINITY PREDICTED BY RF-SCORE:    0.00 PKD
ROOT
HETATM    1  C   UNL     1      -9.044   7.574  72.446  1.00  0.00    -0.136 C  
HETATM    2  N   UNL     1     -10.322   7.663  71.733  1.00  0.00    -0.195 NA 
HETATM    3  H   UNL     1     -10.520   8.606  71.398  1.00  0.00     0.000 HD 
ENDROOT
BRANCH   2   4
HETATM    4  N   UNL     1     -10.316   6.677  70.665  1.00  0.00    -0.200 NA 
HETATM    5  H   UNL     1     -11.160   6.727  70.093  1.00  0.00     0.000 HD 
BRANCH   4   6
HETATM    6  C   UNL     1      -9.091   6.821  69.858  1.00  0.00    -0.144 C  
BRANCH   6   7
HETATM    7  C   UNL     1      -9.331   7.750  68.685  1.00  0.00    -0.148 A  
HETATM    8  C   UNL     1     -10.437   7.560  67.843  1.00  0.00    -0.266 A  
HETATM    9  C   UNL     1     -10.625   8.372  66.723  1.00  0.00    -0.227 A  
HETATM   10  C   UNL     1      -9.713   9.392  66.427  1.00  0.00    -0.315 A  
HETATM   11  C   UNL     1      -8.446   8.804  68.410  1.00  0.00    -0.130 A  
HETATM   12  C   UNL     1      -8.636   9.624  67.292  1.00  0.00    -0.132 A  
BRANCH  10  13
HETATM   13  C   UNL     1      -9.938  10.201  65.195  1.00  0.00    -0.309 C  
HETATM   14  O   UNL     1      -9.364   9.902  64.153  1.00  0.00    -0.266 OA 
HETATM   15  N   UNL     1     -10.766  11.300  65.322  1.00  0.00    -0.266 N  
HETATM   16  H   UNL     1     -11.274  11.448  66.194  1.00  0.00     0.000 HD 
BRANCH  15  17
HETATM   17  C   UNL     1     -10.925  12.252  64.228  1.00  0.00    -0.343 C  
HETATM   18  C   UNL     1     -12.310  12.112  63.606  1.00  0.00    -0.673 C  
HETATM   19  C   UNL     1     -10.698  13.682  64.718  1.00  0.00    -0.420 C  
ENDBRANCH  15  17
ENDBRANCH  10  13
ENDBRANCH   6   7
ENDBRANCH   4   6
ENDBRANCH   2   4
TORSDOF 5
ENDMDL
MODEL      122
REMARK 921   NORMALIZED FREE ENERGY PREDICTED BY IDOCK:   -3.21 KCAL/MOL
REMARK 922        TOTAL FREE ENERGY PREDICTED BY IDOCK:   -4.54 KCAL/MOL
REMARK 923 INTER-LIGAND FREE ENERGY PREDICTED BY IDOCK:   -4.59 KCAL/MOL
REMARK 924 INTRA-LIGAND FREE ENERGY PREDICTED BY IDOCK:    0.05 KCAL/MOL
REMARK 927      BINDING AFFINITY PREDICTED BY RF-SCORE:    0.00 PKD
ROOT
HETATM    1  C   UNL     1      -8.951  19.591  69.118  1.00  0.00    -0.092 C  
HETATM    2  N   UNL     1     -10.361  19.796  68.778  1.00  0.00    -0.571 NA 
HETATM    3  H   UNL     1     -10.619  20.783  68.744  1.00  0.00     0.000 HD 
ENDROOT
BRANCH   2   4
HETATM    4  N   UNL     1     -10.633  19.103  67.529  1.00  0.00    -0.461 NA 
HETATM    5  H   UNL     1     -11.242  19.644  66.915  1.00  0.00     0.000 HD 
BRANCH   4   6
HETATM    6  C   UNL     1      -9.364  18.742  66.871  1.00  0.00    -0.300 C  
BRANCH   6   7
HETATM    7  C   UNL     1      -9.260  17.240  66.700  1.00  0.00    -0.275 A  
HETATM    8  C   UNL     1     -10.303  16.519  66.099  1.00  0.00    -0.344 A  
HETATM    9  C   UNL     1     -10.241  15.128  66.000  1.00  0.00    -0.325 A  
HETATM   10  C   UNL     1      -9.130  14.432  66.494  1.00  0.00    -0.233 A  
HETATM   11  C   UNL     1      -8.129  16.542  67.150  1.00  0.00    -0.213 A  
HETATM   12  C   UNL     1      -8.059  15.148  67.044  1.00  0.00    -0.240 A  
BRANCH  10  13
HETATM   13  C   UNL     1      -9.135  12.945  66.400  1.00  0.00    -0.074 C  
HETATM   14  O   UNL     1      -8.748  12.271  67.349  1.00  0.00    -0.164 OA 
HETATM   15  N   UNL     1      -9.539  12.404  65.194  1.00  0.00    -0.460 N  
HETATM   16  H   UNL     1      -9.923  13.015  64.473  1.00  0.00     0.000 HD 
BRANCH  15  17
HETATM   17  C   UNL     1      -9.426  10.973  64.936  1.00  0.00    -0.233 C  
HETATM   18  C   UNL     1     -10.403  10.200  65.816  1.00  0.00    -0.216 C  
HETATM   19  C   UNL     1      -9.677  10.668  63.459  1.00  0.00    -0.389 C  
ENDBRANCH  15  17
ENDBRANCH  10  13
ENDBRANCH   6   7
ENDBRANCH   4   6
ENDBRANCH   2   4
TORSDOF 5
ENDMDL
MODEL      123
REMARK 921   NORMALIZED FREE ENERGY PREDICTED BY IDOCK:   -3.21 KCAL/MOL
REMARK 922        TOTAL FREE ENERGY PREDICTED BY IDOCK:   -4.54 KCAL/MOL
REMARK 923 INTER-LIGAND FREE ENERGY PREDICTED BY IDOCK:   -4.19 KCAL/MOL
REMARK 924 INTRA-LIGAND FREE ENERGY PREDICTED BY IDOCK:   -0.35 KCAL/MOL
REMARK 927      BINDING AFFINITY PREDICTED BY RF-SCORE:    0.00 PKD
ROOT
HETATM    1  C   UNL     1     -11.148  12.654  68.604  1.00  0.00    -0.266 C  
HETATM    2  N   UNL     1     -12.033  12.539  69.766  1.00  0.00    -0.311 NA 
HETATM    3  H   UNL     1     -12.809  13.200  69.736  1.00  0.00     0.000 HD 
ENDROOT
BRANCH   2   4
HETATM    4  N   UNL     1     -12.475  11.158  69.866  1.00  0.00    -0.237 NA 
HETATM    5  H   UNL     1     -11.924  10.535  69.274  1.00  0.00     0.000 HD 
BRANCH   4   6
HETATM    6  C   UNL     1     -12.468  10.731  71.277  1.00  0.00    -0.399 C  
BRANCH   6   7
HETATM    7  C   UNL     1     -11.671   9.453  71.444  1.00  0.00    -0.448 A  
HETATM    8  C   UNL     1     -10.294   9.434  71.173  1.00  0.00    -0.377 A  
HETATM    9  C   UNL     1      -9.570   8.244  71.262  1.00  0.00    -0.219 A  
HETATM   10  C   UNL     1     -10.207   7.052  71.629  1.00  0.00    -0.208 A  
HETATM   11  C   UNL     1     -12.295   8.266  71.857  1.00  0.00    -0.379 A  
HETATM   12  C   UNL     1     -11.569   7.073  71.955  1.00  0.00    -0.320 A  
BRANCH  10  13
HETATM   13  C   UNL     1      -9.394   5.803  71.666  1.00  0.00    -0.146 C  
HETATM   14  O   UNL     1      -8.277   5.815  72.170  1.00  0.00    -0.111 OA 
HETATM   15  N   UNL     1      -9.948   4.689  71.064  1.00  0.00    -0.202 N  
HETATM   16  H   UNL     1     -10.912   4.724  70.732  1.00  0.00     0.000 HD 
BRANCH  15  17
HETATM   17  C   UNL     1      -9.176   3.463  70.896  1.00  0.00    -0.130 C  
HETATM   18  C   UNL     1      -9.706   2.375  71.824  1.00  0.00    -0.220 C  
HETATM   19  C   UNL     1      -9.215   2.994  69.442  1.00  0.00    -0.214 C  
ENDBRANCH  15  17
ENDBRANCH  10  13
ENDBRANCH   6   7
ENDBRANCH   4   6
ENDBRANCH   2   4
TORSDOF 5
ENDMDL
MODEL      124
REMARK 921   NORMALIZED FREE ENERGY PREDICTED BY IDOCK:   -3.16 KCAL/MOL
REMARK 922        TOTAL FREE ENERGY PREDICTED BY IDOCK:   -4.48 KCAL/MOL
REMARK 923 INTER-LIGAND FREE ENERGY PREDICTED BY IDOCK:   -4.80 KCAL/MOL
REMARK 924 INTRA-LIGAND FREE ENERGY PREDICTED BY IDOCK:    0.32 KCAL/MOL
REMARK 927      BINDING AFFINITY PREDICTED BY RF-SCORE:    0.00 PKD
ROOT
HETATM    1  C   UNL     1      -5.132  16.738  70.437  1.00  0.00    -0.215 C  
HETATM    2  N   UNL     1      -5.756  18.058  70.316  1.00  0.00    -0.237 NA 
HETATM    3  H   UNL     1      -5.307  18.760  70.905  1.00  0.00     0.000 HD 
ENDROOT
BRANCH   2   4
HETATM    4  N   UNL     1      -5.766  18.429  68.911  1.00  0.00    -0.202 NA 
HETATM    5  H   UNL     1      -5.528  17.643  68.305  1.00  0.00     0.000 HD 
BRANCH   4   6
HETATM    6  C   UNL     1      -7.069  19.024  68.560  1.00  0.00    -0.290 C  
BRANCH   6   7
HETATM    7  C   UNL     1      -7.895  18.055  67.739  1.00  0.00    -0.223 A  
HETATM    8  C   UNL     1      -9.156  18.432  67.251  1.00  0.00    -0.268 A  
HETATM    9  C   UNL     1      -9.949  17.520  66.552  1.00  0.00    -0.323 A  
HETATM   10  C   UNL     1      -9.493  16.216  66.321  1.00  0.00    -0.347 A  
HETATM   11  C   UNL     1      -7.424  16.762  67.464  1.00  0.00    -0.181 A  
HETATM   12  C   UNL     1      -8.213  15.848  66.755  1.00  0.00    -0.307 A  
BRANCH  10  13
HETATM   13  C   UNL     1     -10.398  15.272  65.607  1.00  0.00    -0.366 C  
HETATM   14  O   UNL     1     -10.957  15.624  64.573  1.00  0.00    -0.378 OA 
HETATM   15  N   UNL     1     -10.596  14.039  66.200  1.00  0.00    -0.286 N  
HETATM   16  H   UNL     1     -10.041  13.780  67.015  1.00  0.00     0.000 HD 
BRANCH  15  17
HETATM   17  C   UNL     1     -11.585  13.103  65.677  1.00  0.00    -0.338 C  
HETATM   18  C   UNL     1     -12.896  13.828  65.390  1.00  0.00    -0.455 C  
HETATM   19  C   UNL     1     -11.065  12.414  64.416  1.00  0.00    -0.381 C  
ENDBRANCH  15  17
ENDBRANCH  10  13
ENDBRANCH   6   7
ENDBRANCH   4   6
ENDBRANCH   2   4
TORSDOF 5
ENDMDL
MODEL      125
REMARK 921   NORMALIZED FREE ENERGY PREDICTED BY IDOCK:   -3.15 KCAL/MOL
REMARK 922        TOTAL FREE ENERGY PREDICTED BY IDOCK:   -4.47 KCAL/MOL
REMARK 923 INTER-LIGAND FREE ENERGY PREDICTED BY IDOCK:   -4.15 KCAL/MOL
REMARK 924 INTRA-LIGAND FREE ENERGY PREDICTED BY IDOCK:   -0.32 KCAL/MOL
REMARK 927      BINDING AFFINITY PREDICTED BY RF-SCORE:    0.00 PKD
ROOT
HETATM    1  C   UNL     1     -10.535  11.685  63.356  1.00  0.00    -0.426 C  
HETATM    2  N   UNL     1     -10.699  12.691  64.409  1.00  0.00    -0.334 NA 
HETATM    3  H   UNL     1     -11.611  12.639  64.864  1.00  0.00     0.000 HD 
ENDROOT
BRANCH   2   4
HETATM    4  N   UNL     1      -9.597  12.551  65.347  1.00  0.00    -0.456 NA 
HETATM    5  H   UNL     1      -8.731  12.948  64.982  1.00  0.00     0.000 HD 
BRANCH   4   6
HETATM    6  C   UNL     1      -9.970  13.135  66.648  1.00  0.00    -0.270 C  
BRANCH   6   7
HETATM    7  C   UNL     1      -9.934  12.082  67.736  1.00  0.00    -0.199 A  
HETATM    8  C   UNL     1      -8.707  11.615  68.234  1.00  0.00    -0.163 A  
HETATM    9  C   UNL     1      -8.668  10.597  69.188  1.00  0.00    -0.135 A  
HETATM   10  C   UNL     1      -9.855  10.031  69.668  1.00  0.00    -0.261 A  
HETATM   11  C   UNL     1     -11.121  11.543  68.256  1.00  0.00    -0.295 A  
HETATM   12  C   UNL     1     -11.085  10.528  69.220  1.00  0.00    -0.298 A  
BRANCH  10  13
HETATM   13  C   UNL     1      -9.754   8.918  70.655  1.00  0.00    -0.212 C  
HETATM   14  O   UNL     1      -9.581   9.168  71.843  1.00  0.00    -0.310 OA 
HETATM   15  N   UNL     1      -9.813   7.635  70.145  1.00  0.00    -0.184 N  
HETATM   16  H   UNL     1     -10.037   7.495  69.160  1.00  0.00     0.000 HD 
BRANCH  15  17
HETATM   17  C   UNL     1      -9.559   6.476  70.994  1.00  0.00    -0.175 C  
HETATM   18  C   UNL     1     -10.419   5.298  70.547  1.00  0.00    -0.312 C  
HETATM   19  C   UNL     1      -8.078   6.100  70.969  1.00  0.00    -0.121 C  
ENDBRANCH  15  17
ENDBRANCH  10  13
ENDBRANCH   6   7
ENDBRANCH   4   6
ENDBRANCH   2   4
TORSDOF 5
ENDMDL
MODEL      126
REMARK 921   NORMALIZED FREE ENERGY PREDICTED BY IDOCK:   -3.11 KCAL/MOL
REMARK 922        TOTAL FREE ENERGY PREDICTED BY IDOCK:   -4.41 KCAL/MOL
REMARK 923 INTER-LIGAND FREE ENERGY PREDICTED BY IDOCK:   -4.10 KCAL/MOL
REMARK 924 INTRA-LIGAND FREE ENERGY PREDICTED BY IDOCK:   -0.32 KCAL/MOL
REMARK 927      BINDING AFFINITY PREDICTED BY RF-SCORE:    0.00 PKD
ROOT
HETATM    1  C   UNL     1      -8.942   5.015  70.964  1.00  0.00    -0.132 C  
HETATM    2  N   UNL     1      -9.615   5.334  69.702  1.00  0.00    -0.150 NA 
HETATM    3  H   UNL     1     -10.570   5.665  69.838  1.00  0.00     0.000 HD 
ENDROOT
BRANCH   2   4
HETATM    4  N   UNL     1      -8.790   6.286  68.976  1.00  0.00    -0.124 NA 
HETATM    5  H   UNL     1      -7.794   6.115  69.115  1.00  0.00     0.000 HD 
BRANCH   4   6
HETATM    6  C   UNL     1      -9.158   6.280  67.548  1.00  0.00    -0.110 C  
BRANCH   6   7
HETATM    7  C   UNL     1      -9.511   7.678  67.082  1.00  0.00    -0.196 A  
HETATM    8  C   UNL     1      -8.998   8.175  65.874  1.00  0.00    -0.195 A  
HETATM    9  C   UNL     1      -9.266   9.485  65.473  1.00  0.00    -0.292 A  
HETATM   10  C   UNL     1     -10.058  10.321  66.270  1.00  0.00    -0.300 A  
HETATM   11  C   UNL     1     -10.343   8.504  67.853  1.00  0.00    -0.281 A  
HETATM   12  C   UNL     1     -10.621   9.816  67.449  1.00  0.00    -0.330 A  
BRANCH  10  13
HETATM   13  C   UNL     1     -10.277  11.723  65.816  1.00  0.00    -0.239 C  
HETATM   14  O   UNL     1      -9.524  12.614  66.194  1.00  0.00    -0.239 OA 
HETATM   15  N   UNL     1     -11.380  11.946  65.012  1.00  0.00    -0.302 N  
HETATM   16  H   UNL     1     -11.920  11.152  64.669  1.00  0.00     0.000 HD 
BRANCH  15  17
HETATM   17  C   UNL     1     -11.783  13.299  64.646  1.00  0.00    -0.364 C  
HETATM   18  C   UNL     1     -12.281  13.329  63.205  1.00  0.00    -0.387 C  
HETATM   19  C   UNL     1     -12.861  13.819  65.598  1.00  0.00    -0.456 C  
ENDBRANCH  15  17
ENDBRANCH  10  13
ENDBRANCH   6   7
ENDBRANCH   4   6
ENDBRANCH   2   4
TORSDOF 5
ENDMDL
MODEL      127
REMARK 921   NORMALIZED FREE ENERGY PREDICTED BY IDOCK:   -3.11 KCAL/MOL
REMARK 922        TOTAL FREE ENERGY PREDICTED BY IDOCK:   -4.41 KCAL/MOL
REMARK 923 INTER-LIGAND FREE ENERGY PREDICTED BY IDOCK:   -4.06 KCAL/MOL
REMARK 924 INTRA-LIGAND FREE ENERGY PREDICTED BY IDOCK:   -0.35 KCAL/MOL
REMARK 927      BINDING AFFINITY PREDICTED BY RF-SCORE:    0.00 PKD
ROOT
HETATM    1  C   UNL     1     -11.488  14.964  67.250  1.00  0.00    -0.340 C  
HETATM    2  N   UNL     1     -11.855  14.183  68.434  1.00  0.00    -0.365 NA 
HETATM    3  H   UNL     1     -12.864  14.072  68.535  1.00  0.00     0.000 HD 
ENDROOT
BRANCH   2   4
HETATM    4  N   UNL     1     -11.154  12.911  68.376  1.00  0.00    -0.247 NA 
HETATM    5  H   UNL     1     -11.623  12.188  68.923  1.00  0.00     0.000 HD 
BRANCH   4   6
HETATM    6  C   UNL     1     -10.967  12.507  66.970  1.00  0.00    -0.267 C  
BRANCH   6   7
HETATM    7  C   UNL     1     -10.631  11.033  66.878  1.00  0.00    -0.307 A  
HETATM    8  C   UNL     1     -10.888  10.176  67.960  1.00  0.00    -0.320 A  
HETATM    9  C   UNL     1     -10.519   8.831  67.904  1.00  0.00    -0.275 A  
HETATM   10  C   UNL     1      -9.892   8.315  66.763  1.00  0.00    -0.333 A  
HETATM   11  C   UNL     1     -10.046  10.500  65.720  1.00  0.00    -0.329 A  
HETATM   12  C   UNL     1      -9.682   9.149  65.658  1.00  0.00    -0.247 A  
BRANCH  10  13
HETATM   13  C   UNL     1      -9.481   6.883  66.775  1.00  0.00    -0.165 C  
HETATM   14  O   UNL     1      -9.474   6.256  67.829  1.00  0.00    -0.120 OA 
HETATM   15  N   UNL     1      -9.072   6.349  65.567  1.00  0.00    -0.371 N  
HETATM   16  H   UNL     1      -9.175   6.899  64.714  1.00  0.00     0.000 HD 
BRANCH  15  17
HETATM   17  C   UNL     1      -8.494   5.011  65.493  1.00  0.00    -0.134 C  
HETATM   18  C   UNL     1      -9.536   4.015  64.997  1.00  0.00    -0.180 C  
HETATM   19  C   UNL     1      -7.266   5.002  64.583  1.00  0.00    -0.062 C  
ENDBRANCH  15  17
ENDBRANCH  10  13
ENDBRANCH   6   7
ENDBRANCH   4   6
ENDBRANCH   2   4
TORSDOF 5
ENDMDL
MODEL      128
REMARK 921   NORMALIZED FREE ENERGY PREDICTED BY IDOCK:   -3.11 KCAL/MOL
REMARK 922        TOTAL FREE ENERGY PREDICTED BY IDOCK:   -4.41 KCAL/MOL
REMARK 923 INTER-LIGAND FREE ENERGY PREDICTED BY IDOCK:   -4.08 KCAL/MOL
REMARK 924 INTRA-LIGAND FREE ENERGY PREDICTED BY IDOCK:   -0.33 KCAL/MOL
REMARK 927      BINDING AFFINITY PREDICTED BY RF-SCORE:    0.00 PKD
ROOT
HETATM    1  C   UNL     1     -11.945   8.542  72.336  1.00  0.00    -0.364 C  
HETATM    2  N   UNL     1     -13.149   7.872  71.837  1.00  0.00    -0.405 NA 
HETATM    3  H   UNL     1     -13.899   8.526  71.612  1.00  0.00     0.000 HD 
ENDROOT
BRANCH   2   4
HETATM    4  N   UNL     1     -12.771   7.043  70.704  1.00  0.00    -0.575 NA 
HETATM    5  H   UNL     1     -12.807   7.557  69.823  1.00  0.00     0.000 HD 
BRANCH   4   6
HETATM    6  C   UNL     1     -11.444   6.445  70.942  1.00  0.00    -0.344 C  
BRANCH   6   7
HETATM    7  C   UNL     1     -10.857   5.916  69.651  1.00  0.00    -0.444 A  
HETATM    8  C   UNL     1     -11.228   6.477  68.419  1.00  0.00    -0.274 A  
HETATM    9  C   UNL     1     -10.741   5.948  67.222  1.00  0.00    -0.380 A  
HETATM   10  C   UNL     1      -9.869   4.852  67.234  1.00  0.00    -0.214 A  
HETATM   11  C   UNL     1      -9.946   4.848  69.659  1.00  0.00    -0.302 A  
HETATM   12  C   UNL     1      -9.450   4.321  68.460  1.00  0.00    -0.216 A  
BRANCH  10  13
HETATM   13  C   UNL     1      -9.414   4.302  65.926  1.00  0.00    -0.176 C  
HETATM   14  O   UNL     1      -9.908   3.267  65.492  1.00  0.00    -0.050 OA 
HETATM   15  N   UNL     1      -8.395   4.986  65.290  1.00  0.00    -0.128 N  
HETATM   16  H   UNL     1      -8.083   5.882  65.664  1.00  0.00     0.000 HD 
BRANCH  15  17
HETATM   17  C   UNL     1      -7.761   4.448  64.091  1.00  0.00    -0.080 C  
HETATM   18  C   UNL     1      -8.140   5.285  62.874  1.00  0.00    -0.102 C  
HETATM   19  C   UNL     1      -6.243   4.399  64.258  1.00  0.00    -0.029 C  
ENDBRANCH  15  17
ENDBRANCH  10  13
ENDBRANCH   6   7
ENDBRANCH   4   6
ENDBRANCH   2   4
TORSDOF 5
ENDMDL
MODEL      129
REMARK 921   NORMALIZED FREE ENERGY PREDICTED BY IDOCK:   -3.10 KCAL/MOL
REMARK 922        TOTAL FREE ENERGY PREDICTED BY IDOCK:   -4.40 KCAL/MOL
REMARK 923 INTER-LIGAND FREE ENERGY PREDICTED BY IDOCK:   -4.07 KCAL/MOL
REMARK 924 INTRA-LIGAND FREE ENERGY PREDICTED BY IDOCK:   -0.33 KCAL/MOL
REMARK 927      BINDING AFFINITY PREDICTED BY RF-SCORE:    0.00 PKD
ROOT
HETATM    1  C   UNL     1      -9.404  11.083  62.716  1.00  0.00    -0.346 C  
HETATM    2  N   UNL     1      -9.778  12.208  63.578  1.00  0.00    -0.632 NA 
HETATM    3  H   UNL     1     -10.759  12.470  63.480  1.00  0.00     0.000 HD 
ENDROOT
BRANCH   2   4
HETATM    4  N   UNL     1      -9.422  11.870  64.946  1.00  0.00    -0.438 NA 
HETATM    5  H   UNL     1     -10.189  12.048  65.597  1.00  0.00     0.000 HD 
BRANCH   4   6
HETATM    6  C   UNL     1      -8.954  10.474  65.011  1.00  0.00    -0.201 C  
BRANCH   6   7
HETATM    7  C   UNL     1      -9.281   9.863  66.358  1.00  0.00    -0.195 A  
HETATM    8  C   UNL     1     -10.250   8.853  66.463  1.00  0.00    -0.319 A  
HETATM    9  C   UNL     1     -10.603   8.333  67.710  1.00  0.00    -0.236 A  
HETATM   10  C   UNL     1      -9.989   8.810  68.875  1.00  0.00    -0.200 A  
HETATM   11  C   UNL     1      -8.636  10.303  67.524  1.00  0.00    -0.118 A  
HETATM   12  C   UNL     1      -8.982   9.778  68.775  1.00  0.00    -0.133 A  
BRANCH  10  13
HETATM   13  C   UNL     1     -10.435   8.251  70.183  1.00  0.00    -0.225 C  
HETATM   14  O   UNL     1     -11.595   8.401  70.549  1.00  0.00    -0.238 OA 
HETATM   15  N   UNL     1      -9.468   7.624  70.946  1.00  0.00    -0.164 N  
HETATM   16  H   UNL     1      -8.542   7.463  70.551  1.00  0.00     0.000 HD 
BRANCH  15  17
HETATM   17  C   UNL     1      -9.752   7.188  72.309  1.00  0.00    -0.153 C  
HETATM   18  C   UNL     1      -9.308   5.741  72.502  1.00  0.00    -0.149 C  
HETATM   19  C   UNL     1      -9.065   8.101  73.324  1.00  0.00    -0.327 C  
ENDBRANCH  15  17
ENDBRANCH  10  13
ENDBRANCH   6   7
ENDBRANCH   4   6
ENDBRANCH   2   4
TORSDOF 5
ENDMDL
MODEL      130
REMARK 921   NORMALIZED FREE ENERGY PREDICTED BY IDOCK:   -3.07 KCAL/MOL
REMARK 922        TOTAL FREE ENERGY PREDICTED BY IDOCK:   -4.36 KCAL/MOL
REMARK 923 INTER-LIGAND FREE ENERGY PREDICTED BY IDOCK:   -4.03 KCAL/MOL
REMARK 924 INTRA-LIGAND FREE ENERGY PREDICTED BY IDOCK:   -0.34 KCAL/MOL
REMARK 927      BINDING AFFINITY PREDICTED BY RF-SCORE:    0.00 PKD
ROOT
HETATM    1  C   UNL     1      -6.524   6.792  66.175  1.00  0.00    -0.050 C  
HETATM    2  N   UNL     1      -7.909   6.474  66.531  1.00  0.00    -0.102 NA 
HETATM    3  H   UNL     1      -8.024   5.508  66.839  1.00  0.00     0.000 HD 
ENDROOT
BRANCH   2   4
HETATM    4  N   UNL     1      -8.355   7.435  67.526  1.00  0.00    -0.113 NA 
HETATM    5  H   UNL     1      -7.910   8.346  67.406  1.00  0.00     0.000 HD 
BRANCH   4   6
HETATM    6  C   UNL     1      -9.826   7.530  67.507  1.00  0.00    -0.162 C  
BRANCH   6   7
HETATM    7  C   UNL     1     -10.268   8.978  67.552  1.00  0.00    -0.302 A  
HETATM    8  C   UNL     1     -10.156   9.792  66.414  1.00  0.00    -0.313 A  
HETATM    9  C   UNL     1     -10.500  11.144  66.470  1.00  0.00    -0.305 A  
HETATM   10  C   UNL     1     -10.968  11.706  67.665  1.00  0.00    -0.294 A  
HETATM   11  C   UNL     1     -10.782   9.536  68.733  1.00  0.00    -0.218 A  
HETATM   12  C   UNL     1     -11.136  10.890  68.790  1.00  0.00    -0.310 A  
BRANCH  10  13
HETATM   13  C   UNL     1     -11.280  13.164  67.680  1.00  0.00    -0.282 C  
HETATM   14  O   UNL     1     -12.282  13.570  68.258  1.00  0.00    -0.313 OA 
HETATM   15  N   UNL     1     -10.420  13.986  66.975  1.00  0.00    -0.273 N  
HETATM   16  H   UNL     1      -9.562  13.597  66.582  1.00  0.00     0.000 HD 
BRANCH  15  17
HETATM   17  C   UNL     1     -10.719  15.401  66.785  1.00  0.00    -0.310 C  
HETATM   18  C   UNL     1      -9.697  16.259  67.523  1.00  0.00    -0.234 C  
HETATM   19  C   UNL     1     -10.743  15.753  65.298  1.00  0.00    -0.446 C  
ENDBRANCH  15  17
ENDBRANCH  10  13
ENDBRANCH   6   7
ENDBRANCH   4   6
ENDBRANCH   2   4
TORSDOF 5
ENDMDL
MODEL      131
REMARK 921   NORMALIZED FREE ENERGY PREDICTED BY IDOCK:   -3.07 KCAL/MOL
REMARK 922        TOTAL FREE ENERGY PREDICTED BY IDOCK:   -4.36 KCAL/MOL
REMARK 923 INTER-LIGAND FREE ENERGY PREDICTED BY IDOCK:   -4.04 KCAL/MOL
REMARK 924 INTRA-LIGAND FREE ENERGY PREDICTED BY IDOCK:   -0.32 KCAL/MOL
REMARK 927      BINDING AFFINITY PREDICTED BY RF-SCORE:    0.00 PKD
ROOT
HETATM    1  C   UNL     1     -11.197   8.017  70.712  1.00  0.00    -0.265 C  
HETATM    2  N   UNL     1     -11.093   8.765  69.456  1.00  0.00    -0.434 NA 
HETATM    3  H   UNL     1     -10.780   9.726  69.595  1.00  0.00     0.000 HD 
ENDROOT
BRANCH   2   4
HETATM    4  N   UNL     1     -10.230   8.020  68.554  1.00  0.00    -0.203 NA 
HETATM    5  H   UNL     1     -10.369   7.012  68.636  1.00  0.00     0.000 HD 
BRANCH   4   6
HETATM    6  C   UNL     1     -10.422   8.495  67.171  1.00  0.00    -0.299 C  
BRANCH   6   7
HETATM    7  C   UNL     1     -10.104   9.972  67.065  1.00  0.00    -0.274 A  
HETATM    8  C   UNL     1      -8.808  10.440  67.332  1.00  0.00    -0.133 A  
HETATM    9  C   UNL     1      -8.526  11.807  67.300  1.00  0.00    -0.160 A  
HETATM   10  C   UNL     1      -9.533  12.731  66.994  1.00  0.00    -0.233 A  
HETATM   11  C   UNL     1     -11.097  10.898  66.713  1.00  0.00    -0.196 A  
HETATM   12  C   UNL     1     -10.815  12.269  66.672  1.00  0.00    -0.296 A  
BRANCH  10  13
HETATM   13  C   UNL     1      -9.187  14.181  67.016  1.00  0.00    -0.239 C  
HETATM   14  O   UNL     1      -8.035  14.531  67.245  1.00  0.00    -0.193 OA 
HETATM   15  N   UNL     1     -10.230  15.067  66.821  1.00  0.00    -0.256 N  
HETATM   16  H   UNL     1     -11.149  14.710  66.558  1.00  0.00     0.000 HD 
BRANCH  15  17
HETATM   17  C   UNL     1     -10.038  16.503  66.986  1.00  0.00    -0.279 C  
HETATM   18  C   UNL     1     -10.452  17.239  65.716  1.00  0.00    -0.237 C  
HETATM   19  C   UNL     1     -10.827  17.020  68.189  1.00  0.00    -0.338 C  
ENDBRANCH  15  17
ENDBRANCH  10  13
ENDBRANCH   6   7
ENDBRANCH   4   6
ENDBRANCH   2   4
TORSDOF 5
ENDMDL
MODEL      132
REMARK 921   NORMALIZED FREE ENERGY PREDICTED BY IDOCK:   -3.04 KCAL/MOL
REMARK 922        TOTAL FREE ENERGY PREDICTED BY IDOCK:   -4.32 KCAL/MOL
REMARK 923 INTER-LIGAND FREE ENERGY PREDICTED BY IDOCK:   -4.08 KCAL/MOL
REMARK 924 INTRA-LIGAND FREE ENERGY PREDICTED BY IDOCK:   -0.24 KCAL/MOL
REMARK 927      BINDING AFFINITY PREDICTED BY RF-SCORE:    0.00 PKD
ROOT
HETATM    1  C   UNL     1      -7.164   7.479  69.193  1.00  0.00    -0.084 C  
HETATM    2  N   UNL     1      -8.595   7.256  68.968  1.00  0.00    -0.129 NA 
HETATM    3  H   UNL     1      -8.874   6.289  69.135  1.00  0.00     0.000 HD 
ENDROOT
BRANCH   2   4
HETATM    4  N   UNL     1      -9.336   8.202  69.787  1.00  0.00    -0.159 NA 
HETATM    5  H   UNL     1      -8.853   9.096  69.873  1.00  0.00     0.000 HD 
BRANCH   4   6
HETATM    6  C   UNL     1     -10.703   8.360  69.256  1.00  0.00    -0.126 C  
BRANCH   6   7
HETATM    7  C   UNL     1     -10.755   9.483  68.241  1.00  0.00    -0.241 A  
HETATM    8  C   UNL     1     -10.249   9.295  66.946  1.00  0.00    -0.327 A  
HETATM    9  C   UNL     1     -10.234  10.347  66.028  1.00  0.00    -0.295 A  
HETATM   10  C   UNL     1     -10.731  11.606  66.388  1.00  0.00    -0.316 A  
HETATM   11  C   UNL     1     -11.294  10.733  68.579  1.00  0.00    -0.360 A  
HETATM   12  C   UNL     1     -11.288  11.788  67.659  1.00  0.00    -0.370 A  
BRANCH  10  13
HETATM   13  C   UNL     1     -10.651  12.705  65.384  1.00  0.00    -0.282 C  
HETATM   14  O   UNL     1     -10.089  12.514  64.311  1.00  0.00    -0.320 OA 
HETATM   15  N   UNL     1     -11.188  13.922  65.758  1.00  0.00    -0.300 N  
HETATM   16  H   UNL     1     -11.711  13.993  66.631  1.00  0.00     0.000 HD 
BRANCH  15  17
HETATM   17  C   UNL     1     -11.020  15.107  64.924  1.00  0.00    -0.419 C  
HETATM   18  C   UNL     1     -12.306  15.398  64.157  1.00  0.00    -0.015 C  
HETATM   19  C   UNL     1     -10.615  16.313  65.772  1.00  0.00    -0.336 C  
ENDBRANCH  15  17
ENDBRANCH  10  13
ENDBRANCH   6   7
ENDBRANCH   4   6
ENDBRANCH   2   4
TORSDOF 5
ENDMDL
MODEL      133
REMARK 921   NORMALIZED FREE ENERGY PREDICTED BY IDOCK:   -3.02 KCAL/MOL
REMARK 922        TOTAL FREE ENERGY PREDICTED BY IDOCK:   -4.30 KCAL/MOL
REMARK 923 INTER-LIGAND FREE ENERGY PREDICTED BY IDOCK:   -3.98 KCAL/MOL
REMARK 924 INTRA-LIGAND FREE ENERGY PREDICTED BY IDOCK:   -0.31 KCAL/MOL
REMARK 927      BINDING AFFINITY PREDICTED BY RF-SCORE:    0.00 PKD
ROOT
HETATM    1  C   UNL     1     -12.120  11.773  70.247  1.00  0.00    -0.342 C  
HETATM    2  N   UNL     1     -12.584  10.592  69.513  1.00  0.00    -0.662 NA 
HETATM    3  H   UNL     1     -12.471  10.686  68.504  1.00  0.00     0.000 HD 
ENDROOT
BRANCH   2   4
HETATM    4  N   UNL     1     -11.898   9.427  70.048  1.00  0.00    -0.459 NA 
HETATM    5  H   UNL     1     -10.911   9.411  69.789  1.00  0.00     0.000 HD 
BRANCH   4   6
HETATM    6  C   UNL     1     -12.089   9.359  71.508  1.00  0.00    -0.379 C  
BRANCH   6   7
HETATM    7  C   UNL     1     -11.026   8.490  72.146  1.00  0.00    -0.427 A  
HETATM    8  C   UNL     1      -9.665   8.750  71.920  1.00  0.00    -0.386 A  
HETATM    9  C   UNL     1      -8.683   7.912  72.452  1.00  0.00    -0.206 A  
HETATM   10  C   UNL     1      -9.044   6.800  73.224  1.00  0.00    -0.148 A  
HETATM   11  C   UNL     1     -11.379   7.403  72.960  1.00  0.00    -0.283 A  
HETATM   12  C   UNL     1     -10.396   6.565  73.501  1.00  0.00    -0.299 A  
BRANCH  10  13
HETATM   13  C   UNL     1      -7.957   5.915  73.731  1.00  0.00    -0.106 C  
HETATM   14  O   UNL     1      -6.894   6.401  74.100  1.00  0.00    -0.077 OA 
HETATM   15  N   UNL     1      -8.206   4.555  73.703  1.00  0.00    -0.101 N  
HETATM   16  H   UNL     1      -9.138   4.220  73.459  1.00  0.00     0.000 HD 
BRANCH  15  17
HETATM   17  C   UNL     1      -7.157   3.592  74.018  1.00  0.00    -0.052 C  
HETATM   18  C   UNL     1      -7.771   2.294  74.533  1.00  0.00    -0.046 C  
HETATM   19  C   UNL     1      -6.283   3.324  72.793  1.00  0.00    -0.009 C  
ENDBRANCH  15  17
ENDBRANCH  10  13
ENDBRANCH   6   7
ENDBRANCH   4   6
ENDBRANCH   2   4
TORSDOF 5
ENDMDL
MODEL      134
REMARK 921   NORMALIZED FREE ENERGY PREDICTED BY IDOCK:   -3.01 KCAL/MOL
REMARK 922        TOTAL FREE ENERGY PREDICTED BY IDOCK:   -4.28 KCAL/MOL
REMARK 923 INTER-LIGAND FREE ENERGY PREDICTED BY IDOCK:   -4.79 KCAL/MOL
REMARK 924 INTRA-LIGAND FREE ENERGY PREDICTED BY IDOCK:    0.51 KCAL/MOL
REMARK 927      BINDING AFFINITY PREDICTED BY RF-SCORE:    0.00 PKD
ROOT
HETATM    1  C   UNL     1     -10.694   3.331  62.499  1.00  0.00    -0.171 C  
HETATM    2  N   UNL     1     -10.715   3.166  63.955  1.00  0.00    -0.448 NA 
HETATM    3  H   UNL     1     -10.384   2.248  64.252  1.00  0.00     0.000 HD 
ENDROOT
BRANCH   2   4
HETATM    4  N   UNL     1      -9.953   4.254  64.547  1.00  0.00    -0.323 NA 
HETATM    5  H   UNL     1     -10.532   5.075  64.724  1.00  0.00     0.000 HD 
BRANCH   4   6
HETATM    6  C   UNL     1      -9.271   3.783  65.766  1.00  0.00    -0.156 C  
BRANCH   6   7
HETATM    7  C   UNL     1      -9.724   4.579  66.973  1.00  0.00    -0.227 A  
HETATM    8  C   UNL     1      -9.357   4.178  68.267  1.00  0.00    -0.214 A  
HETATM    9  C   UNL     1      -9.826   4.870  69.385  1.00  0.00    -0.281 A  
HETATM   10  C   UNL     1     -10.668   5.979  69.229  1.00  0.00    -0.401 A  
HETATM   11  C   UNL     1     -10.528   5.718  66.822  1.00  0.00    -0.350 A  
HETATM   12  C   UNL     1     -10.994   6.419  67.941  1.00  0.00    -0.416 A  
BRANCH  10  13
HETATM   13  C   UNL     1     -11.175   6.654  70.458  1.00  0.00    -0.334 C  
HETATM   14  O   UNL     1     -12.379   6.682  70.689  1.00  0.00    -0.340 OA 
HETATM   15  N   UNL     1     -10.229   7.268  71.258  1.00  0.00    -0.190 N  
HETATM   16  H   UNL     1      -9.238   7.141  71.053  1.00  0.00     0.000 HD 
BRANCH  15  17
HETATM   17  C   UNL     1     -10.627   8.095  72.392  1.00  0.00    -0.323 C  
HETATM   18  C   UNL     1     -11.918   8.842  72.072  1.00  0.00    -0.446 C  
HETATM   19  C   UNL     1     -10.797   7.244  73.650  1.00  0.00    -0.169 C  
ENDBRANCH  15  17
ENDBRANCH  10  13
ENDBRANCH   6   7
ENDBRANCH   4   6
ENDBRANCH   2   4
TORSDOF 5
ENDMDL
MODEL      135
REMARK 921   NORMALIZED FREE ENERGY PREDICTED BY IDOCK:   -2.97 KCAL/MOL
REMARK 922        TOTAL FREE ENERGY PREDICTED BY IDOCK:   -4.23 KCAL/MOL
REMARK 923 INTER-LIGAND FREE ENERGY PREDICTED BY IDOCK:   -3.96 KCAL/MOL
REMARK 924 INTRA-LIGAND FREE ENERGY PREDICTED BY IDOCK:   -0.27 KCAL/MOL
REMARK 927      BINDING AFFINITY PREDICTED BY RF-SCORE:    0.00 PKD
ROOT
HETATM    1  C   UNL     1      -9.242   5.075  71.970  1.00  0.00    -0.136 C  
HETATM    2  N   UNL     1      -9.877   4.798  70.679  1.00  0.00    -0.206 NA 
HETATM    3  H   UNL     1     -10.895   4.848  70.722  1.00  0.00     0.000 HD 
ENDROOT
BRANCH   2   4
HETATM    4  N   UNL     1      -9.313   5.703  69.691  1.00  0.00    -0.135 NA 
HETATM    5  H   UNL     1      -8.394   5.396  69.370  1.00  0.00     0.000 HD 
BRANCH   4   6
HETATM    6  C   UNL     1     -10.260   5.879  68.575  1.00  0.00    -0.192 C  
BRANCH   6   7
HETATM    7  C   UNL     1     -10.526   7.349  68.327  1.00  0.00    -0.231 A  
HETATM    8  C   UNL     1     -10.564   7.853  67.017  1.00  0.00    -0.381 A  
HETATM    9  C   UNL     1     -10.743   9.218  66.786  1.00  0.00    -0.120 A  
HETATM   10  C   UNL     1     -10.892  10.105  67.860  1.00  0.00    -0.336 A  
HETATM   11  C   UNL     1     -10.723   8.235  69.397  1.00  0.00    -0.160 A  
HETATM   12  C   UNL     1     -10.911   9.604  69.168  1.00  0.00    -0.212 A  
BRANCH  10  13
HETATM   13  C   UNL     1     -11.037  11.557  67.558  1.00  0.00    -0.272 C  
HETATM   14  O   UNL     1     -12.151  12.068  67.529  1.00  0.00    -0.555 OA 
HETATM   15  N   UNL     1      -9.873  12.245  67.269  1.00  0.00    -0.203 N  
HETATM   16  H   UNL     1      -8.973  11.781  67.387  1.00  0.00     0.000 HD 
BRANCH  15  17
HETATM   17  C   UNL     1      -9.913  13.626  66.799  1.00  0.00    -0.270 C  
HETATM   18  C   UNL     1      -8.570  14.305  67.045  1.00  0.00    -0.213 C  
HETATM   19  C   UNL     1     -10.279  13.682  65.316  1.00  0.00    -0.341 C  
ENDBRANCH  15  17
ENDBRANCH  10  13
ENDBRANCH   6   7
ENDBRANCH   4   6
ENDBRANCH   2   4
TORSDOF 5
ENDMDL
MODEL      136
REMARK 921   NORMALIZED FREE ENERGY PREDICTED BY IDOCK:   -2.97 KCAL/MOL
REMARK 922        TOTAL FREE ENERGY PREDICTED BY IDOCK:   -4.22 KCAL/MOL
REMARK 923 INTER-LIGAND FREE ENERGY PREDICTED BY IDOCK:   -3.88 KCAL/MOL
REMARK 924 INTRA-LIGAND FREE ENERGY PREDICTED BY IDOCK:   -0.35 KCAL/MOL
REMARK 927      BINDING AFFINITY PREDICTED BY RF-SCORE:    0.00 PKD
ROOT
HETATM    1  C   UNL     1      -9.386  20.272  67.385  1.00  0.00    -0.400 C  
HETATM    2  N   UNL     1      -8.945  19.116  68.171  1.00  0.00    -0.310 NA 
HETATM    3  H   UNL     1      -9.724  18.561  68.526  1.00  0.00     0.000 HD 
ENDROOT
BRANCH   2   4
HETATM    4  N   UNL     1      -8.026  18.337  67.358  1.00  0.00    -0.229 NA 
HETATM    5  H   UNL     1      -7.422  17.741  67.926  1.00  0.00     0.000 HD 
BRANCH   4   6
HETATM    6  C   UNL     1      -8.779  17.565  66.353  1.00  0.00    -0.242 C  
BRANCH   6   7
HETATM    7  C   UNL     1      -8.720  16.084  66.663  1.00  0.00    -0.309 A  
HETATM    8  C   UNL     1      -7.577  15.526  67.257  1.00  0.00    -0.252 A  
HETATM    9  C   UNL     1      -7.492  14.152  67.484  1.00  0.00    -0.192 A  
HETATM   10  C   UNL     1      -8.552  13.309  67.126  1.00  0.00    -0.197 A  
HETATM   11  C   UNL     1      -9.797  15.240  66.351  1.00  0.00    -0.295 A  
HETATM   12  C   UNL     1      -9.718  13.862  66.585  1.00  0.00    -0.295 A  
BRANCH  10  13
HETATM   13  C   UNL     1      -8.391  11.844  67.351  1.00  0.00    -0.163 C  
HETATM   14  O   UNL     1      -7.317  11.302  67.110  1.00  0.00    -0.114 OA 
HETATM   15  N   UNL     1      -9.512  11.159  67.782  1.00  0.00    -0.165 N  
HETATM   16  H   UNL     1     -10.350  11.680  68.039  1.00  0.00     0.000 HD 
BRANCH  15  17
HETATM   17  C   UNL     1      -9.514   9.703  67.876  1.00  0.00    -0.131 C  
HETATM   18  C   UNL     1     -10.349   9.254  69.070  1.00  0.00    -0.228 C  
HETATM   19  C   UNL     1     -10.043   9.079  66.585  1.00  0.00    -0.355 C  
ENDBRANCH  15  17
ENDBRANCH  10  13
ENDBRANCH   6   7
ENDBRANCH   4   6
ENDBRANCH   2   4
TORSDOF 5
ENDMDL
MODEL      137
REMARK 921   NORMALIZED FREE ENERGY PREDICTED BY IDOCK:   -2.95 KCAL/MOL
REMARK 922        TOTAL FREE ENERGY PREDICTED BY IDOCK:   -4.21 KCAL/MOL
REMARK 923 INTER-LIGAND FREE ENERGY PREDICTED BY IDOCK:   -3.88 KCAL/MOL
REMARK 924 INTRA-LIGAND FREE ENERGY PREDICTED BY IDOCK:   -0.33 KCAL/MOL
REMARK 927      BINDING AFFINITY PREDICTED BY RF-SCORE:    0.00 PKD
ROOT
HETATM    1  C   UNL     1      -9.861  10.398  64.913  1.00  0.00    -0.334 C  
HETATM    2  N   UNL     1     -10.320  10.619  66.287  1.00  0.00    -0.245 NA 
HETATM    3  H   UNL     1     -11.337  10.641  66.364  1.00  0.00     0.000 HD 
ENDROOT
BRANCH   2   4
HETATM    4  N   UNL     1      -9.715   9.606  67.137  1.00  0.00    -0.166 NA 
HETATM    5  H   UNL     1      -9.563   9.945  68.088  1.00  0.00     0.000 HD 
BRANCH   4   6
HETATM    6  C   UNL     1     -10.532   8.379  67.111  1.00  0.00    -0.310 C  
BRANCH   6   7
HETATM    7  C   UNL     1     -10.481   7.675  68.451  1.00  0.00    -0.208 A  
HETATM    8  C   UNL     1     -10.841   6.323  68.558  1.00  0.00    -0.394 A  
HETATM    9  C   UNL     1     -10.860   5.688  69.801  1.00  0.00    -0.370 A  
HETATM   10  C   UNL     1     -10.514   6.393  70.961  1.00  0.00    -0.268 A  
HETATM   11  C   UNL     1     -10.090   8.363  69.610  1.00  0.00    -0.199 A  
HETATM   12  C   UNL     1     -10.100   7.727  70.858  1.00  0.00    -0.195 A  
BRANCH  10  13
HETATM   13  C   UNL     1     -10.593   5.679  72.267  1.00  0.00    -0.221 C  
HETATM   14  O   UNL     1     -10.936   6.285  73.276  1.00  0.00    -0.254 OA 
HETATM   15  N   UNL     1     -10.214   4.349  72.267  1.00  0.00    -0.191 N  
HETATM   16  H   UNL     1     -10.015   3.884  71.381  1.00  0.00     0.000 HD 
BRANCH  15  17
HETATM   17  C   UNL     1     -10.095   3.601  73.513  1.00  0.00    -0.130 C  
HETATM   18  C   UNL     1     -11.285   2.663  73.680  1.00  0.00    -0.315 C  
HETATM   19  C   UNL     1      -8.783   2.816  73.549  1.00  0.00    -0.076 C  
ENDBRANCH  15  17
ENDBRANCH  10  13
ENDBRANCH   6   7
ENDBRANCH   4   6
ENDBRANCH   2   4
TORSDOF 5
ENDMDL
MODEL      138
REMARK 921   NORMALIZED FREE ENERGY PREDICTED BY IDOCK:   -2.95 KCAL/MOL
REMARK 922        TOTAL FREE ENERGY PREDICTED BY IDOCK:   -4.21 KCAL/MOL
REMARK 923 INTER-LIGAND FREE ENERGY PREDICTED BY IDOCK:   -4.51 KCAL/MOL
REMARK 924 INTRA-LIGAND FREE ENERGY PREDICTED BY IDOCK:    0.30 KCAL/MOL
REMARK 927      BINDING AFFINITY PREDICTED BY RF-SCORE:    0.00 PKD
ROOT
HETATM    1  C   UNL     1     -10.074   7.055  68.113  1.00  0.00    -0.169 C  
HETATM    2  N   UNL     1     -11.149   7.780  67.431  1.00  0.00    -0.481 NA 
HETATM    3  H   UNL     1     -12.074   7.406  67.647  1.00  0.00     0.000 HD 
ENDROOT
BRANCH   2   4
HETATM    4  N   UNL     1     -11.025   9.191  67.757  1.00  0.00    -0.492 NA 
HETATM    5  H   UNL     1     -10.264   9.367  68.414  1.00  0.00     0.000 HD 
BRANCH   4   6
HETATM    6  C   UNL     1     -10.881   9.980  66.520  1.00  0.00     0.057 C  
BRANCH   6   7
HETATM    7  C   UNL     1     -10.757  11.455  66.838  1.00  0.00    -0.308 A  
HETATM    8  C   UNL     1     -10.145  12.330  65.927  1.00  0.00    -0.272 A  
HETATM    9  C   UNL     1      -9.968  13.678  66.245  1.00  0.00    -0.305 A  
HETATM   10  C   UNL     1     -10.406  14.178  67.478  1.00  0.00    -0.248 A  
HETATM   11  C   UNL     1     -11.236  11.972  68.052  1.00  0.00    -0.316 A  
HETATM   12  C   UNL     1     -11.068  13.325  68.370  1.00  0.00    -0.299 A  
BRANCH  10  13
HETATM   13  C   UNL     1     -10.154  15.615  67.783  1.00  0.00    -0.226 C  
HETATM   14  O   UNL     1     -10.844  16.194  68.614  1.00  0.00    -0.275 OA 
HETATM   15  N   UNL     1      -9.161  16.236  67.048  1.00  0.00    -0.201 N  
HETATM   16  H   UNL     1      -8.571  15.679  66.429  1.00  0.00     0.000 HD 
BRANCH  15  17
HETATM   17  C   UNL     1      -8.941  17.675  67.146  1.00  0.00    -0.244 C  
HETATM   18  C   UNL     1     -10.221  18.427  66.797  1.00  0.00    -0.410 C  
HETATM   19  C   UNL     1      -8.459  18.055  68.545  1.00  0.00    -0.314 C  
ENDBRANCH  15  17
ENDBRANCH  10  13
ENDBRANCH   6   7
ENDBRANCH   4   6
ENDBRANCH   2   4
TORSDOF 5
ENDMDL
MODEL      139
REMARK 921   NORMALIZED FREE ENERGY PREDICTED BY IDOCK:   -2.95 KCAL/MOL
REMARK 922        TOTAL FREE ENERGY PREDICTED BY IDOCK:   -4.20 KCAL/MOL
REMARK 923 INTER-LIGAND FREE ENERGY PREDICTED BY IDOCK:   -3.98 KCAL/MOL
REMARK 924 INTRA-LIGAND FREE ENERGY PREDICTED BY IDOCK:   -0.22 KCAL/MOL
REMARK 927      BINDING AFFINITY PREDICTED BY RF-SCORE:    0.00 PKD
ROOT
HETATM    1  C   UNL     1      -8.211   4.204  72.509  1.00  0.00    -0.099 C  
HETATM    2  N   UNL     1      -9.596   3.907  72.885  1.00  0.00    -0.123 NA 
HETATM    3  H   UNL     1      -9.668   3.123  73.533  1.00  0.00     0.000 HD 
ENDROOT
BRANCH   2   4
HETATM    4  N   UNL     1     -10.195   5.124  73.408  1.00  0.00    -0.176 NA 
HETATM    5  H   UNL     1      -9.556   5.918  73.360  1.00  0.00     0.000 HD 
BRANCH   4   6
HETATM    6  C   UNL     1     -11.466   5.395  72.712  1.00  0.00    -0.268 C  
BRANCH   6   7
HETATM    7  C   UNL     1     -11.366   6.662  71.889  1.00  0.00    -0.318 A  
HETATM    8  C   UNL     1     -11.048   6.600  70.523  1.00  0.00    -0.359 A  
HETATM    9  C   UNL     1     -10.888   7.769  69.777  1.00  0.00    -0.211 A  
HETATM   10  C   UNL     1     -11.049   9.022  70.380  1.00  0.00    -0.279 A  
HETATM   11  C   UNL     1     -11.572   7.920  72.477  1.00  0.00    -0.443 A  
HETATM   12  C   UNL     1     -11.421   9.093  71.728  1.00  0.00    -0.452 A  
BRANCH  10  13
HETATM   13  C   UNL     1     -10.825  10.237  69.547  1.00  0.00    -0.256 C  
HETATM   14  O   UNL     1     -11.112  11.344  69.989  1.00  0.00    -0.160 OA 
HETATM   15  N   UNL     1     -10.340  10.028  68.269  1.00  0.00    -0.183 N  
HETATM   16  H   UNL     1     -10.048   9.091  67.990  1.00  0.00     0.000 HD 
BRANCH  15  17
HETATM   17  C   UNL     1     -10.240  11.125  67.313  1.00  0.00    -0.193 C  
HETATM   18  C   UNL     1      -9.434  10.690  66.094  1.00  0.00    -0.218 C  
HETATM   19  C   UNL     1     -11.629  11.607  66.895  1.00  0.00    -0.246 C  
ENDBRANCH  15  17
ENDBRANCH  10  13
ENDBRANCH   6   7
ENDBRANCH   4   6
ENDBRANCH   2   4
TORSDOF 5
ENDMDL
MODEL      140
REMARK 921   NORMALIZED FREE ENERGY PREDICTED BY IDOCK:   -2.94 KCAL/MOL
REMARK 922        TOTAL FREE ENERGY PREDICTED BY IDOCK:   -4.19 KCAL/MOL
REMARK 923 INTER-LIGAND FREE ENERGY PREDICTED BY IDOCK:   -3.81 KCAL/MOL
REMARK 924 INTRA-LIGAND FREE ENERGY PREDICTED BY IDOCK:   -0.38 KCAL/MOL
REMARK 927      BINDING AFFINITY PREDICTED BY RF-SCORE:    0.00 PKD
ROOT
HETATM    1  C   UNL     1     -11.811  13.709  64.032  1.00  0.00    -0.400 C  
HETATM    2  N   UNL     1     -12.920  13.300  64.898  1.00  0.00    -0.740 NA 
HETATM    3  H   UNL     1     -13.679  12.854  64.381  1.00  0.00     0.000 HD 
ENDROOT
BRANCH   2   4
HETATM    4  N   UNL     1     -12.386  12.452  65.951  1.00  0.00    -0.577 NA 
HETATM    5  H   UNL     1     -12.438  11.462  65.710  1.00  0.00     0.000 HD 
BRANCH   4   6
HETATM    6  C   UNL     1     -11.011  12.870  66.280  1.00  0.00    -0.281 C  
BRANCH   6   7
HETATM    7  C   UNL     1     -10.130  11.663  66.526  1.00  0.00    -0.239 A  
HETATM    8  C   UNL     1     -10.390  10.448  65.873  1.00  0.00    -0.261 A  
HETATM    9  C   UNL     1      -9.623   9.315  66.146  1.00  0.00    -0.327 A  
HETATM   10  C   UNL     1      -8.575   9.377  67.074  1.00  0.00    -0.131 A  
HETATM   11  C   UNL     1      -9.050  11.730  67.419  1.00  0.00    -0.175 A  
HETATM   12  C   UNL     1      -8.272  10.598  67.689  1.00  0.00    -0.107 A  
BRANCH  10  13
HETATM   13  C   UNL     1      -7.816   8.126  67.360  1.00  0.00    -0.106 C  
HETATM   14  O   UNL     1      -6.600   8.171  67.516  1.00  0.00    -0.056 OA 
HETATM   15  N   UNL     1      -8.545   6.952  67.380  1.00  0.00    -0.121 N  
HETATM   16  H   UNL     1      -9.563   6.992  67.321  1.00  0.00     0.000 HD 
BRANCH  15  17
HETATM   17  C   UNL     1      -7.883   5.657  67.485  1.00  0.00    -0.101 C  
HETATM   18  C   UNL     1      -8.362   4.920  68.731  1.00  0.00    -0.083 C  
HETATM   19  C   UNL     1      -8.136   4.817  66.234  1.00  0.00    -0.107 C  
ENDBRANCH  15  17
ENDBRANCH  10  13
ENDBRANCH   6   7
ENDBRANCH   4   6
ENDBRANCH   2   4
TORSDOF 5
ENDMDL
MODEL      141
REMARK 921   NORMALIZED FREE ENERGY PREDICTED BY IDOCK:   -2.93 KCAL/MOL
REMARK 922        TOTAL FREE ENERGY PREDICTED BY IDOCK:   -4.17 KCAL/MOL
REMARK 923 INTER-LIGAND FREE ENERGY PREDICTED BY IDOCK:   -3.84 KCAL/MOL
REMARK 924 INTRA-LIGAND FREE ENERGY PREDICTED BY IDOCK:   -0.33 KCAL/MOL
REMARK 927      BINDING AFFINITY PREDICTED BY RF-SCORE:    0.00 PKD
ROOT
HETATM    1  C   UNL     1     -12.181  11.658  70.064  1.00  0.00    -0.263 C  
HETATM    2  N   UNL     1     -12.529  11.701  68.641  1.00  0.00    -0.128 NA 
HETATM    3  H   UNL     1     -12.305  12.597  68.208  1.00  0.00     0.000 HD 
ENDROOT
BRANCH   2   4
HETATM    4  N   UNL     1     -11.880  10.581  67.980  1.00  0.00    -0.740 NA 
HETATM    5  H   UNL     1     -11.276  10.885  67.215  1.00  0.00     0.000 HD 
BRANCH   4   6
HETATM    6  C   UNL     1     -11.151   9.769  68.972  1.00  0.00    -0.107 C  
BRANCH   6   7
HETATM    7  C   UNL     1     -10.783   8.420  68.390  1.00  0.00    -0.076 A  
HETATM    8  C   UNL     1     -10.379   8.309  67.050  1.00  0.00    -0.393 A  
HETATM    9  C   UNL     1     -10.103   7.060  66.492  1.00  0.00    -0.149 A  
HETATM   10  C   UNL     1     -10.220   5.898  67.264  1.00  0.00    -0.242 A  
HETATM   11  C   UNL     1     -10.852   7.256  69.172  1.00  0.00    -0.156 A  
HETATM   12  C   UNL     1     -10.568   6.003  68.616  1.00  0.00    -0.327 A  
BRANCH  10  13
HETATM   13  C   UNL     1      -9.955   4.587  66.605  1.00  0.00    -0.230 C  
HETATM   14  O   UNL     1      -9.571   3.633  67.273  1.00  0.00    -0.209 OA 
HETATM   15  N   UNL     1     -10.114   4.544  65.233  1.00  0.00    -0.334 N  
HETATM   16  H   UNL     1     -10.511   5.348  64.747  1.00  0.00     0.000 HD 
BRANCH  15  17
HETATM   17  C   UNL     1      -9.724   3.364  64.468  1.00  0.00    -0.167 C  
HETATM   18  C   UNL     1     -10.539   3.278  63.182  1.00  0.00    -0.231 C  
HETATM   19  C   UNL     1      -8.228   3.393  64.155  1.00  0.00    -0.090 C  
ENDBRANCH  15  17
ENDBRANCH  10  13
ENDBRANCH   6   7
ENDBRANCH   4   6
ENDBRANCH   2   4
TORSDOF 5
ENDMDL
MODEL      142
REMARK 921   NORMALIZED FREE ENERGY PREDICTED BY IDOCK:   -2.89 KCAL/MOL
REMARK 922        TOTAL FREE ENERGY PREDICTED BY IDOCK:   -4.13 KCAL/MOL
REMARK 923 INTER-LIGAND FREE ENERGY PREDICTED BY IDOCK:   -3.83 KCAL/MOL
REMARK 924 INTRA-LIGAND FREE ENERGY PREDICTED BY IDOCK:   -0.30 KCAL/MOL
REMARK 927      BINDING AFFINITY PREDICTED BY RF-SCORE:    0.00 PKD
ROOT
HETATM    1  C   UNL     1     -14.290   8.776  72.672  1.00  0.00    -0.142 C  
HETATM    2  N   UNL     1     -13.852   8.188  71.403  1.00  0.00    -0.556 NA 
HETATM    3  H   UNL     1     -14.580   8.206  70.689  1.00  0.00     0.000 HD 
ENDROOT
BRANCH   2   4
HETATM    4  N   UNL     1     -12.637   8.867  70.983  1.00  0.00    -0.489 NA 
HETATM    5  H   UNL     1     -12.437   8.718  69.993  1.00  0.00     0.000 HD 
BRANCH   4   6
HETATM    6  C   UNL     1     -12.721  10.299  71.322  1.00  0.00    -0.421 C  
BRANCH   6   7
HETATM    7  C   UNL     1     -11.812  11.114  70.426  1.00  0.00    -0.462 A  
HETATM    8  C   UNL     1     -12.130  12.445  70.113  1.00  0.00    -0.366 A  
HETATM    9  C   UNL     1     -11.331  13.179  69.235  1.00  0.00    -0.312 A  
HETATM   10  C   UNL     1     -10.196  12.598  68.657  1.00  0.00    -0.165 A  
HETATM   11  C   UNL     1     -10.648  10.553  69.881  1.00  0.00    -0.261 A  
HETATM   12  C   UNL     1      -9.840  11.289  69.006  1.00  0.00    -0.101 A  
BRANCH  10  13
HETATM   13  C   UNL     1      -9.403  13.413  67.693  1.00  0.00    -0.217 C  
HETATM   14  O   UNL     1      -9.528  13.229  66.487  1.00  0.00    -0.257 OA 
HETATM   15  N   UNL     1      -8.510  14.317  68.238  1.00  0.00    -0.160 N  
HETATM   16  H   UNL     1      -8.510  14.478  69.245  1.00  0.00     0.000 HD 
BRANCH  15  17
HETATM   17  C   UNL     1      -7.569  15.046  67.395  1.00  0.00    -0.205 C  
HETATM   18  C   UNL     1      -7.268  16.412  68.001  1.00  0.00    -0.145 C  
HETATM   19  C   UNL     1      -6.280  14.246  67.206  1.00  0.00     0.428 C  
ENDBRANCH  15  17
ENDBRANCH  10  13
ENDBRANCH   6   7
ENDBRANCH   4   6
ENDBRANCH   2   4
TORSDOF 5
ENDMDL
MODEL      143
REMARK 921   NORMALIZED FREE ENERGY PREDICTED BY IDOCK:   -2.89 KCAL/MOL
REMARK 922        TOTAL FREE ENERGY PREDICTED BY IDOCK:   -4.13 KCAL/MOL
REMARK 923 INTER-LIGAND FREE ENERGY PREDICTED BY IDOCK:   -3.81 KCAL/MOL
REMARK 924 INTRA-LIGAND FREE ENERGY PREDICTED BY IDOCK:   -0.32 KCAL/MOL
REMARK 927      BINDING AFFINITY PREDICTED BY RF-SCORE:    0.00 PKD
ROOT
HETATM    1  C   UNL     1     -11.076  16.358  64.893  1.00  0.00    -0.239 C  
HETATM    2  N   UNL     1     -10.891  15.986  66.298  1.00  0.00    -0.228 NA 
HETATM    3  H   UNL     1     -11.760  16.020  66.832  1.00  0.00     0.000 HD 
ENDROOT
BRANCH   2   4
HETATM    4  N   UNL     1     -10.256  14.680  66.343  1.00  0.00    -0.280 NA 
HETATM    5  H   UNL     1      -9.840  14.487  67.255  1.00  0.00     0.000 HD 
BRANCH   4   6
HETATM    6  C   UNL     1     -11.222  13.640  65.944  1.00  0.00    -0.304 C  
BRANCH   6   7
HETATM    7  C   UNL     1     -10.677  12.259  66.248  1.00  0.00    -0.293 A  
HETATM    8  C   UNL     1      -9.960  11.548  65.274  1.00  0.00    -0.302 A  
HETATM    9  C   UNL     1      -9.513  10.250  65.526  1.00  0.00    -0.277 A  
HETATM   10  C   UNL     1      -9.771   9.640  66.761  1.00  0.00    -0.252 A  
HETATM   11  C   UNL     1     -10.890  11.662  67.500  1.00  0.00    -0.287 A  
HETATM   12  C   UNL     1     -10.436  10.363  67.759  1.00  0.00    -0.268 A  
BRANCH  10  13
HETATM   13  C   UNL     1      -9.309   8.237  66.961  1.00  0.00    -0.160 C  
HETATM   14  O   UNL     1      -9.014   7.844  68.085  1.00  0.00    -0.132 OA 
HETATM   15  N   UNL     1      -9.188   7.459  65.825  1.00  0.00    -0.390 N  
HETATM   16  H   UNL     1      -9.523   7.820  64.932  1.00  0.00     0.000 HD 
BRANCH  15  17
HETATM   17  C   UNL     1      -8.590   6.130  65.884  1.00  0.00    -0.147 C  
HETATM   18  C   UNL     1      -9.671   5.061  65.761  1.00  0.00    -0.158 C  
HETATM   19  C   UNL     1      -7.540   5.961  64.786  1.00  0.00    -0.088 C  
ENDBRANCH  15  17
ENDBRANCH  10  13
ENDBRANCH   6   7
ENDBRANCH   4   6
ENDBRANCH   2   4
TORSDOF 5
ENDMDL
MODEL      144
REMARK 921   NORMALIZED FREE ENERGY PREDICTED BY IDOCK:   -2.88 KCAL/MOL
REMARK 922        TOTAL FREE ENERGY PREDICTED BY IDOCK:   -4.11 KCAL/MOL
REMARK 923 INTER-LIGAND FREE ENERGY PREDICTED BY IDOCK:   -3.81 KCAL/MOL
REMARK 924 INTRA-LIGAND FREE ENERGY PREDICTED BY IDOCK:   -0.30 KCAL/MOL
REMARK 927      BINDING AFFINITY PREDICTED BY RF-SCORE:    0.00 PKD
ROOT
HETATM    1  C   UNL     1      -9.316   2.421  68.252  1.00  0.00    -0.209 C  
HETATM    2  N   UNL     1      -9.522   3.027  66.933  1.00  0.00    -0.385 NA 
HETATM    3  H   UNL     1      -9.976   2.393  66.276  1.00  0.00     0.000 HD 
ENDROOT
BRANCH   2   4
HETATM    4  N   UNL     1     -10.256   4.269  67.114  1.00  0.00    -0.155 NA 
HETATM    5  H   UNL     1     -11.241   4.105  67.324  1.00  0.00     0.000 HD 
BRANCH   4   6
HETATM    6  C   UNL     1      -9.599   5.093  68.144  1.00  0.00    -0.134 C  
BRANCH   6   7
HETATM    7  C   UNL     1      -9.775   6.567  67.841  1.00  0.00    -0.126 A  
HETATM    8  C   UNL     1      -9.980   7.002  66.523  1.00  0.00    -0.163 A  
HETATM    9  C   UNL     1     -10.076   8.364  66.230  1.00  0.00    -0.136 A  
HETATM   10  C   UNL     1      -9.974   9.316  67.252  1.00  0.00    -0.264 A  
HETATM   11  C   UNL     1      -9.722   7.523  68.867  1.00  0.00    -0.151 A  
HETATM   12  C   UNL     1      -9.826   8.889  68.578  1.00  0.00    -0.182 A  
BRANCH  10  13
HETATM   13  C   UNL     1     -10.041  10.757  66.878  1.00  0.00    -0.212 C  
HETATM   14  O   UNL     1      -9.693  11.615  67.683  1.00  0.00    -0.175 OA 
HETATM   15  N   UNL     1     -10.554  11.047  65.628  1.00  0.00    -0.231 N  
HETATM   16  H   UNL     1     -10.751  10.286  64.977  1.00  0.00     0.000 HD 
BRANCH  15  17
HETATM   17  C   UNL     1     -10.818  12.424  65.223  1.00  0.00    -0.289 C  
HETATM   18  C   UNL     1     -10.822  12.534  63.702  1.00  0.00    -0.486 C  
HETATM   19  C   UNL     1     -12.146  12.912  65.801  1.00  0.00    -0.513 C  
ENDBRANCH  15  17
ENDBRANCH  10  13
ENDBRANCH   6   7
ENDBRANCH   4   6
ENDBRANCH   2   4
TORSDOF 5
ENDMDL
MODEL      145
REMARK 921   NORMALIZED FREE ENERGY PREDICTED BY IDOCK:   -2.85 KCAL/MOL
REMARK 922        TOTAL FREE ENERGY PREDICTED BY IDOCK:   -4.08 KCAL/MOL
REMARK 923 INTER-LIGAND FREE ENERGY PREDICTED BY IDOCK:   -3.95 KCAL/MOL
REMARK 924 INTRA-LIGAND FREE ENERGY PREDICTED BY IDOCK:   -0.13 KCAL/MOL
REMARK 927      BINDING AFFINITY PREDICTED BY RF-SCORE:    0.00 PKD
ROOT
HETATM    1  C   UNL     1     -11.146  11.419  63.171  1.00  0.00     0.015 C  
HETATM    2  N   UNL     1     -10.070  11.647  64.140  1.00  0.00    -0.275 NA 
HETATM    3  H   UNL     1      -9.582  12.529  63.986  1.00  0.00     0.000 HD 
ENDROOT
BRANCH   2   4
HETATM    4  N   UNL     1     -10.633  11.544  65.476  1.00  0.00    -0.274 NA 
HETATM    5  H   UNL     1     -11.184  10.693  65.596  1.00  0.00     0.000 HD 
BRANCH   4   6
HETATM    6  C   UNL     1      -9.560  11.654  66.481  1.00  0.00    -0.209 C  
BRANCH   6   7
HETATM    7  C   UNL     1      -9.131  13.097  66.649  1.00  0.00    -0.180 A  
HETATM    8  C   UNL     1      -7.980  13.415  67.386  1.00  0.00    -0.170 A  
HETATM    9  C   UNL     1      -7.618  14.746  67.599  1.00  0.00    -0.193 A  
HETATM   10  C   UNL     1      -8.398  15.785  67.076  1.00  0.00    -0.259 A  
HETATM   11  C   UNL     1      -9.882  14.140  66.087  1.00  0.00    -0.326 A  
HETATM   12  C   UNL     1      -9.517  15.476  66.293  1.00  0.00    -0.356 A  
BRANCH  10  13
HETATM   13  C   UNL     1      -7.990  17.188  67.370  1.00  0.00    -0.180 C  
HETATM   14  O   UNL     1      -7.489  17.464  68.455  1.00  0.00    -0.229 OA 
HETATM   15  N   UNL     1      -8.257  18.126  66.391  1.00  0.00    -0.267 N  
HETATM   16  H   UNL     1      -8.602  17.819  65.482  1.00  0.00     0.000 HD 
BRANCH  15  17
HETATM   17  C   UNL     1      -8.052  19.549  66.638  1.00  0.00    -0.306 C  
HETATM   18  C   UNL     1      -7.062  20.121  65.629  1.00  0.00    -0.316 C  
HETATM   19  C   UNL     1      -9.378  20.306  66.577  1.00  0.00    -0.426 C  
ENDBRANCH  15  17
ENDBRANCH  10  13
ENDBRANCH   6   7
ENDBRANCH   4   6
ENDBRANCH   2   4
TORSDOF 5
ENDMDL
MODEL      146
REMARK 921   NORMALIZED FREE ENERGY PREDICTED BY IDOCK:   -2.85 KCAL/MOL
REMARK 922        TOTAL FREE ENERGY PREDICTED BY IDOCK:   -4.08 KCAL/MOL
REMARK 923 INTER-LIGAND FREE ENERGY PREDICTED BY IDOCK:   -3.84 KCAL/MOL
REMARK 924 INTRA-LIGAND FREE ENERGY PREDICTED BY IDOCK:   -0.24 KCAL/MOL
REMARK 927      BINDING AFFINITY PREDICTED BY RF-SCORE:    0.00 PKD
ROOT
HETATM    1  C   UNL     1     -10.889   3.362  63.494  1.00  0.00    -0.206 C  
HETATM    2  N   UNL     1     -10.169   3.257  64.766  1.00  0.00    -0.392 NA 
HETATM    3  H   UNL     1      -9.160   3.352  64.656  1.00  0.00     0.000 HD 
ENDROOT
BRANCH   2   4
HETATM    4  N   UNL     1     -10.727   4.235  65.686  1.00  0.00    -0.512 NA 
HETATM    5  H   UNL     1     -11.716   4.066  65.872  1.00  0.00     0.000 HD 
BRANCH   4   6
HETATM    6  C   UNL     1      -9.929   4.267  66.926  1.00  0.00    -0.142 C  
BRANCH   6   7
HETATM    7  C   UNL     1      -9.897   5.667  67.504  1.00  0.00    -0.156 A  
HETATM    8  C   UNL     1     -10.671   5.989  68.629  1.00  0.00    -0.363 A  
HETATM    9  C   UNL     1     -10.696   7.294  69.125  1.00  0.00    -0.201 A  
HETATM   10  C   UNL     1      -9.943   8.300  68.508  1.00  0.00    -0.206 A  
HETATM   11  C   UNL     1      -9.108   6.668  66.919  1.00  0.00    -0.144 A  
HETATM   12  C   UNL     1      -9.124   7.976  67.419  1.00  0.00    -0.147 A  
BRANCH  10  13
HETATM   13  C   UNL     1     -10.040   9.684  69.052  1.00  0.00    -0.186 C  
HETATM   14  O   UNL     1      -9.939   9.876  70.259  1.00  0.00    -0.254 OA 
HETATM   15  N   UNL     1     -10.296  10.690  68.139  1.00  0.00    -0.168 N  
HETATM   16  H   UNL     1     -10.291  10.475  67.141  1.00  0.00     0.000 HD 
BRANCH  15  17
HETATM   17  C   UNL     1     -10.574  12.052  68.578  1.00  0.00    -0.231 C  
HETATM   18  C   UNL     1     -10.284  13.039  67.452  1.00  0.00    -0.231 C  
HETATM   19  C   UNL     1     -12.023  12.184  69.048  1.00  0.00    -0.302 C  
ENDBRANCH  15  17
ENDBRANCH  10  13
ENDBRANCH   6   7
ENDBRANCH   4   6
ENDBRANCH   2   4
TORSDOF 5
ENDMDL
MODEL      147
REMARK 921   NORMALIZED FREE ENERGY PREDICTED BY IDOCK:   -2.84 KCAL/MOL
REMARK 922        TOTAL FREE ENERGY PREDICTED BY IDOCK:   -4.06 KCAL/MOL
REMARK 923 INTER-LIGAND FREE ENERGY PREDICTED BY IDOCK:   -3.70 KCAL/MOL
REMARK 924 INTRA-LIGAND FREE ENERGY PREDICTED BY IDOCK:   -0.35 KCAL/MOL
REMARK 927      BINDING AFFINITY PREDICTED BY RF-SCORE:    0.00 PKD
ROOT
HETATM    1  C   UNL     1     -10.282  15.962  68.192  1.00  0.00    -0.232 C  
HETATM    2  N   UNL     1     -11.038  15.799  69.437  1.00  0.00    -0.288 NA 
HETATM    3  H   UNL     1     -11.800  16.472  69.526  1.00  0.00     0.000 HD 
ENDROOT
BRANCH   2   4
HETATM    4  N   UNL     1     -11.495  14.421  69.515  1.00  0.00    -0.274 NA 
HETATM    5  H   UNL     1     -12.415  14.346  69.949  1.00  0.00     0.000 HD 
BRANCH   4   6
HETATM    6  C   UNL     1     -11.464  13.808  68.174  1.00  0.00    -0.313 C  
BRANCH   6   7
HETATM    7  C   UNL     1     -11.021  12.362  68.259  1.00  0.00    -0.269 A  
HETATM    8  C   UNL     1     -10.303  11.776  67.205  1.00  0.00    -0.242 A  
HETATM    9  C   UNL     1      -9.951  10.426  67.249  1.00  0.00    -0.229 A  
HETATM   10  C   UNL     1     -10.306   9.637  68.351  1.00  0.00    -0.233 A  
HETATM   11  C   UNL     1     -11.332  11.579  69.381  1.00  0.00    -0.355 A  
HETATM   12  C   UNL     1     -10.973  10.226  69.431  1.00  0.00    -0.289 A  
BRANCH  10  13
HETATM   13  C   UNL     1      -9.942   8.192  68.326  1.00  0.00    -0.186 C  
HETATM   14  O   UNL     1      -9.483   7.659  69.331  1.00  0.00    -0.153 OA 
HETATM   15  N   UNL     1     -10.103   7.536  67.120  1.00  0.00    -0.220 N  
HETATM   16  H   UNL     1     -10.563   8.015  66.346  1.00  0.00     0.000 HD 
BRANCH  15  17
HETATM   17  C   UNL     1      -9.626   6.170  66.938  1.00  0.00    -0.142 C  
HETATM   18  C   UNL     1     -10.803   5.225  66.723  1.00  0.00    -0.124 C  
HETATM   19  C   UNL     1      -8.651   6.089  65.762  1.00  0.00    -0.155 C  
ENDBRANCH  15  17
ENDBRANCH  10  13
ENDBRANCH   6   7
ENDBRANCH   4   6
ENDBRANCH   2   4
TORSDOF 5
ENDMDL
MODEL      148
REMARK 921   NORMALIZED FREE ENERGY PREDICTED BY IDOCK:   -2.83 KCAL/MOL
REMARK 922        TOTAL FREE ENERGY PREDICTED BY IDOCK:   -4.05 KCAL/MOL
REMARK 923 INTER-LIGAND FREE ENERGY PREDICTED BY IDOCK:   -3.69 KCAL/MOL
REMARK 924 INTRA-LIGAND FREE ENERGY PREDICTED BY IDOCK:   -0.36 KCAL/MOL
REMARK 927      BINDING AFFINITY PREDICTED BY RF-SCORE:    0.00 PKD
ROOT
HETATM    1  C   UNL     1     -12.192  10.125  71.247  1.00  0.00    -0.398 C  
HETATM    2  N   UNL     1     -13.257   9.150  70.994  1.00  0.00    -0.550 NA 
HETATM    3  H   UNL     1     -13.778   9.349  70.140  1.00  0.00     0.000 HD 
ENDROOT
BRANCH   2   4
HETATM    4  N   UNL     1     -12.666   7.822  70.994  1.00  0.00    -0.531 NA 
HETATM    5  H   UNL     1     -13.016   7.247  70.227  1.00  0.00     0.000 HD 
BRANCH   4   6
HETATM    6  C   UNL     1     -11.196   7.929  70.980  1.00  0.00    -0.269 C  
BRANCH   6   7
HETATM    7  C   UNL     1     -10.586   6.807  70.165  1.00  0.00    -0.254 A  
HETATM    8  C   UNL     1     -10.144   7.040  68.854  1.00  0.00    -0.174 A  
HETATM    9  C   UNL     1      -9.643   5.994  68.076  1.00  0.00    -0.120 A  
HETATM   10  C   UNL     1      -9.570   4.696  68.597  1.00  0.00    -0.226 A  
HETATM   11  C   UNL     1     -10.466   5.514  70.698  1.00  0.00    -0.342 A  
HETATM   12  C   UNL     1      -9.957   4.465  69.923  1.00  0.00    -0.233 A  
BRANCH  10  13
HETATM   13  C   UNL     1      -9.068   3.610  67.709  1.00  0.00    -0.156 C  
HETATM   14  O   UNL     1      -8.581   2.596  68.197  1.00  0.00    -0.077 OA 
HETATM   15  N   UNL     1      -9.137   3.845  66.348  1.00  0.00    -0.137 N  
HETATM   16  H   UNL     1      -9.624   4.673  66.006  1.00  0.00     0.000 HD 
BRANCH  15  17
HETATM   17  C   UNL     1      -8.526   2.925  65.395  1.00  0.00    -0.102 C  
HETATM   18  C   UNL     1      -9.604   2.144  64.651  1.00  0.00    -0.044 C  
HETATM   19  C   UNL     1      -7.634   3.682  64.410  1.00  0.00    -0.076 C  
ENDBRANCH  15  17
ENDBRANCH  10  13
ENDBRANCH   6   7
ENDBRANCH   4   6
ENDBRANCH   2   4
TORSDOF 5
ENDMDL
MODEL      149
REMARK 921   NORMALIZED FREE ENERGY PREDICTED BY IDOCK:   -2.83 KCAL/MOL
REMARK 922        TOTAL FREE ENERGY PREDICTED BY IDOCK:   -4.04 KCAL/MOL
REMARK 923 INTER-LIGAND FREE ENERGY PREDICTED BY IDOCK:   -3.78 KCAL/MOL
REMARK 924 INTRA-LIGAND FREE ENERGY PREDICTED BY IDOCK:   -0.26 KCAL/MOL
REMARK 927      BINDING AFFINITY PREDICTED BY RF-SCORE:    0.00 PKD
ROOT
HETATM    1  C   UNL     1     -10.152  15.899  65.244  1.00  0.00    -0.171 C  
HETATM    2  N   UNL     1     -11.316  15.988  66.131  1.00  0.00     0.170 NA 
HETATM    3  H   UNL     1     -12.185  15.727  65.666  1.00  0.00     0.000 HD 
ENDROOT
BRANCH   2   4
HETATM    4  N   UNL     1     -11.049  15.185  67.313  1.00  0.00    -0.328 NA 
HETATM    5  H   UNL     1     -10.907  15.761  68.144  1.00  0.00     0.000 HD 
BRANCH   4   6
HETATM    6  C   UNL     1     -12.127  14.198  67.501  1.00  0.00    -0.328 C  
BRANCH   6   7
HETATM    7  C   UNL     1     -11.574  12.901  68.055  1.00  0.00    -0.385 A  
HETATM    8  C   UNL     1     -11.819  12.536  69.388  1.00  0.00    -0.368 A  
HETATM    9  C   UNL     1     -11.256  11.376  69.922  1.00  0.00    -0.221 A  
HETATM   10  C   UNL     1     -10.441  10.556  69.132  1.00  0.00    -0.250 A  
HETATM   11  C   UNL     1     -10.796  12.051  67.255  1.00  0.00    -0.290 A  
HETATM   12  C   UNL     1     -10.236  10.882  67.786  1.00  0.00    -0.209 A  
BRANCH  10  13
HETATM   13  C   UNL     1      -9.831   9.352  69.765  1.00  0.00    -0.201 C  
HETATM   14  O   UNL     1      -9.135   8.595  69.097  1.00  0.00    -0.141 OA 
HETATM   15  N   UNL     1     -10.140   9.131  71.094  1.00  0.00    -0.294 N  
HETATM   16  H   UNL     1     -10.659   9.839  71.614  1.00  0.00     0.000 HD 
BRANCH  15  17
HETATM   17  C   UNL     1      -9.734   7.901  71.766  1.00  0.00    -0.170 C  
HETATM   18  C   UNL     1      -8.283   8.005  72.223  1.00  0.00    -0.186 C  
HETATM   19  C   UNL     1     -10.651   7.606  72.953  1.00  0.00    -0.411 C  
ENDBRANCH  15  17
ENDBRANCH  10  13
ENDBRANCH   6   7
ENDBRANCH   4   6
ENDBRANCH   2   4
TORSDOF 5
ENDMDL
MODEL      150
REMARK 921   NORMALIZED FREE ENERGY PREDICTED BY IDOCK:   -2.82 KCAL/MOL
REMARK 922        TOTAL FREE ENERGY PREDICTED BY IDOCK:   -4.04 KCAL/MOL
REMARK 923 INTER-LIGAND FREE ENERGY PREDICTED BY IDOCK:   -3.90 KCAL/MOL
REMARK 924 INTRA-LIGAND FREE ENERGY PREDICTED BY IDOCK:   -0.14 KCAL/MOL
REMARK 927      BINDING AFFINITY PREDICTED BY RF-SCORE:    0.00 PKD
ROOT
HETATM    1  C   UNL     1     -10.012  10.766  63.931  1.00  0.00    -0.343 C  
HETATM    2  N   UNL     1      -9.227  11.648  64.799  1.00  0.00    -0.419 NA 
HETATM    3  H   UNL     1      -9.796  12.108  65.510  1.00  0.00     0.000 HD 
ENDROOT
BRANCH   2   4
HETATM    4  N   UNL     1      -8.138  10.872  65.370  1.00  0.00    -0.348 NA 
HETATM    5  H   UNL     1      -7.298  10.907  64.791  1.00  0.00     0.000 HD 
BRANCH   4   6
HETATM    6  C   UNL     1      -7.877  11.315  66.751  1.00  0.00    -0.155 C  
BRANCH   6   7
HETATM    7  C   UNL     1      -8.661  10.477  67.739  1.00  0.00    -0.122 A  
HETATM    8  C   UNL     1      -9.526   9.468  67.286  1.00  0.00    -0.170 A  
HETATM    9  C   UNL     1     -10.301   8.738  68.188  1.00  0.00    -0.266 A  
HETATM   10  C   UNL     1     -10.222   8.999  69.562  1.00  0.00    -0.205 A  
HETATM   11  C   UNL     1      -8.551  10.701  69.119  1.00  0.00    -0.136 A  
HETATM   12  C   UNL     1      -9.321   9.964  70.028  1.00  0.00    -0.232 A  
BRANCH  10  13
HETATM   13  C   UNL     1     -11.103   8.219  70.477  1.00  0.00    -0.249 C  
HETATM   14  O   UNL     1     -10.874   7.031  70.683  1.00  0.00    -0.232 OA 
HETATM   15  N   UNL     1     -12.186   8.891  71.012  1.00  0.00    -0.427 N  
HETATM   16  H   UNL     1     -12.275   9.896  70.865  1.00  0.00     0.000 HD 
BRANCH  15  17
HETATM   17  C   UNL     1     -13.202   8.185  71.785  1.00  0.00    -0.341 C  
HETATM   18  C   UNL     1     -14.008   9.174  72.620  1.00  0.00    -0.367 C  
HETATM   19  C   UNL     1     -14.122   7.384  70.864  1.00  0.00     0.115 C  
ENDBRANCH  15  17
ENDBRANCH  10  13
ENDBRANCH   6   7
ENDBRANCH   4   6
ENDBRANCH   2   4
TORSDOF 5
ENDMDL
MODEL      151
REMARK 921   NORMALIZED FREE ENERGY PREDICTED BY IDOCK:   -2.81 KCAL/MOL
REMARK 922        TOTAL FREE ENERGY PREDICTED BY IDOCK:   -4.02 KCAL/MOL
REMARK 923 INTER-LIGAND FREE ENERGY PREDICTED BY IDOCK:   -3.67 KCAL/MOL
REMARK 924 INTRA-LIGAND FREE ENERGY PREDICTED BY IDOCK:   -0.35 KCAL/MOL
REMARK 927      BINDING AFFINITY PREDICTED BY RF-SCORE:    0.00 PKD
ROOT
HETATM    1  C   UNL     1     -10.626  15.064  68.705  1.00  0.00    -0.240 C  
HETATM    2  N   UNL     1     -11.272  14.845  70.003  1.00  0.00    -0.271 NA 
HETATM    3  H   UNL     1     -12.091  15.437  70.140  1.00  0.00     0.000 HD 
ENDROOT
BRANCH   2   4
HETATM    4  N   UNL     1     -11.578  13.429  70.124  1.00  0.00    -0.518 NA 
HETATM    5  H   UNL     1     -12.458  13.267  70.615  1.00  0.00     0.000 HD 
BRANCH   4   6
HETATM    6  C   UNL     1     -11.562  12.797  68.792  1.00  0.00    -0.312 C  
BRANCH   6   7
HETATM    7  C   UNL     1     -10.914  11.430  68.857  1.00  0.00    -0.276 A  
HETATM    8  C   UNL     1     -10.267  10.897  67.731  1.00  0.00    -0.209 A  
HETATM    9  C   UNL     1      -9.726   9.610  67.765  1.00  0.00    -0.173 A  
HETATM   10  C   UNL     1      -9.817   8.835  68.928  1.00  0.00    -0.183 A  
HETATM   11  C   UNL     1     -10.960  10.667  70.033  1.00  0.00    -0.325 A  
HETATM   12  C   UNL     1     -10.411   9.379  70.073  1.00  0.00    -0.266 A  
BRANCH  10  13
HETATM   13  C   UNL     1      -9.260   7.452  68.895  1.00  0.00    -0.142 C  
HETATM   14  O   UNL     1      -8.866   6.976  67.836  1.00  0.00    -0.125 OA 
HETATM   15  N   UNL     1      -9.271   6.755  70.089  1.00  0.00    -0.155 N  
HETATM   16  H   UNL     1      -9.538   7.235  70.948  1.00  0.00     0.000 HD 
BRANCH  15  17
HETATM   17  C   UNL     1      -8.905   5.344  70.139  1.00  0.00    -0.127 C  
HETATM   18  C   UNL     1      -7.604   5.164  70.913  1.00  0.00    -0.079 C  
HETATM   19  C   UNL     1     -10.025   4.517  70.771  1.00  0.00    -0.269 C  
ENDBRANCH  15  17
ENDBRANCH  10  13
ENDBRANCH   6   7
ENDBRANCH   4   6
ENDBRANCH   2   4
TORSDOF 5
ENDMDL
MODEL      152
REMARK 921   NORMALIZED FREE ENERGY PREDICTED BY IDOCK:   -2.79 KCAL/MOL
REMARK 922        TOTAL FREE ENERGY PREDICTED BY IDOCK:   -4.00 KCAL/MOL
REMARK 923 INTER-LIGAND FREE ENERGY PREDICTED BY IDOCK:   -3.69 KCAL/MOL
REMARK 924 INTRA-LIGAND FREE ENERGY PREDICTED BY IDOCK:   -0.30 KCAL/MOL
REMARK 927      BINDING AFFINITY PREDICTED BY RF-SCORE:    0.00 PKD
ROOT
HETATM    1  C   UNL     1     -11.871  15.785  64.961  1.00  0.00     0.217 C  
HETATM    2  N   UNL     1     -10.569  16.296  65.400  1.00  0.00    -0.515 NA 
HETATM    3  H   UNL     1     -10.488  17.307  65.296  1.00  0.00     0.000 HD 
ENDROOT
BRANCH   2   4
HETATM    4  N   UNL     1     -10.344  15.852  66.766  1.00  0.00    -0.293 NA 
HETATM    5  H   UNL     1      -9.448  16.176  67.131  1.00  0.00     0.000 HD 
BRANCH   4   6
HETATM    6  C   UNL     1     -11.472  16.268  67.619  1.00  0.00     0.095 C  
BRANCH   6   7
HETATM    7  C   UNL     1     -11.712  15.254  68.719  1.00  0.00    -0.374 A  
HETATM    8  C   UNL     1     -11.516  13.885  68.478  1.00  0.00    -0.346 A  
HETATM    9  C   UNL     1     -11.800  12.942  69.467  1.00  0.00    -0.383 A  
HETATM   10  C   UNL     1     -12.280  13.350  70.718  1.00  0.00    -0.409 A  
HETATM   11  C   UNL     1     -12.148  15.660  69.989  1.00  0.00    -0.379 A  
HETATM   12  C   UNL     1     -12.426  14.717  70.986  1.00  0.00    -0.399 A  
BRANCH  10  13
HETATM   13  C   UNL     1     -12.608  12.298  71.722  1.00  0.00    -0.026 C  
HETATM   14  O   UNL     1     -12.929  12.619  72.862  1.00  0.00     0.143 OA 
HETATM   15  N   UNL     1     -12.474  10.987  71.307  1.00  0.00    -0.378 N  
HETATM   16  H   UNL     1     -12.280  10.788  70.326  1.00  0.00     0.000 HD 
BRANCH  15  17
HETATM   17  C   UNL     1     -12.607   9.882  72.251  1.00  0.00    -0.118 C  
HETATM   18  C   UNL     1     -14.081   9.579  72.502  1.00  0.00    -0.122 C  
HETATM   19  C   UNL     1     -11.884   8.639  71.734  1.00  0.00    -0.404 C  
ENDBRANCH  15  17
ENDBRANCH  10  13
ENDBRANCH   6   7
ENDBRANCH   4   6
ENDBRANCH   2   4
TORSDOF 5
ENDMDL
MODEL      153
REMARK 921   NORMALIZED FREE ENERGY PREDICTED BY IDOCK:   -2.78 KCAL/MOL
REMARK 922        TOTAL FREE ENERGY PREDICTED BY IDOCK:   -3.98 KCAL/MOL
REMARK 923 INTER-LIGAND FREE ENERGY PREDICTED BY IDOCK:   -4.24 KCAL/MOL
REMARK 924 INTRA-LIGAND FREE ENERGY PREDICTED BY IDOCK:    0.26 KCAL/MOL
REMARK 927      BINDING AFFINITY PREDICTED BY RF-SCORE:    0.00 PKD
ROOT
HETATM    1  C   UNL     1      -7.212   6.543  69.740  1.00  0.00    -0.078 C  
HETATM    2  N   UNL     1      -8.356   6.891  70.588  1.00  0.00    -0.126 NA 
HETATM    3  H   UNL     1      -8.574   6.167  71.272  1.00  0.00     0.000 HD 
ENDROOT
BRANCH   2   4
HETATM    4  N   UNL     1      -8.090   8.181  71.203  1.00  0.00    -0.096 NA 
HETATM    5  H   UNL     1      -7.411   8.727  70.671  1.00  0.00     0.000 HD 
BRANCH   4   6
HETATM    6  C   UNL     1      -9.355   8.912  71.401  1.00  0.00    -0.268 C  
BRANCH   6   7
HETATM    7  C   UNL     1      -9.713   9.705  70.162  1.00  0.00    -0.301 A  
HETATM    8  C   UNL     1      -8.706  10.197  69.317  1.00  0.00    -0.186 A  
HETATM    9  C   UNL     1      -9.028  10.985  68.210  1.00  0.00    -0.155 A  
HETATM   10  C   UNL     1     -10.365  11.291  67.925  1.00  0.00    -0.205 A  
HETATM   11  C   UNL     1     -11.052   9.976  69.843  1.00  0.00    -0.336 A  
HETATM   12  C   UNL     1     -11.380  10.759  68.729  1.00  0.00    -0.352 A  
BRANCH  10  13
HETATM   13  C   UNL     1     -10.650  12.172  66.756  1.00  0.00    -0.226 C  
HETATM   14  O   UNL     1      -9.927  13.136  66.525  1.00  0.00    -0.255 OA 
HETATM   15  N   UNL     1     -11.775  11.866  66.013  1.00  0.00    -0.244 N  
HETATM   16  H   UNL     1     -12.288  11.007  66.209  1.00  0.00     0.000 HD 
BRANCH  15  17
HETATM   17  C   UNL     1     -12.239  12.753  64.952  1.00  0.00    -0.463 C  
HETATM   18  C   UNL     1     -12.779  14.049  65.548  1.00  0.00    -0.517 C  
HETATM   19  C   UNL     1     -11.114  13.046  63.960  1.00  0.00    -0.433 C  
ENDBRANCH  15  17
ENDBRANCH  10  13
ENDBRANCH   6   7
ENDBRANCH   4   6
ENDBRANCH   2   4
TORSDOF 5
ENDMDL
MODEL      154
REMARK 921   NORMALIZED FREE ENERGY PREDICTED BY IDOCK:   -2.76 KCAL/MOL
REMARK 922        TOTAL FREE ENERGY PREDICTED BY IDOCK:   -3.96 KCAL/MOL
REMARK 923 INTER-LIGAND FREE ENERGY PREDICTED BY IDOCK:   -4.04 KCAL/MOL
REMARK 924 INTRA-LIGAND FREE ENERGY PREDICTED BY IDOCK:    0.08 KCAL/MOL
REMARK 927      BINDING AFFINITY PREDICTED BY RF-SCORE:    0.00 PKD
ROOT
HETATM    1  C   UNL     1     -11.386  13.261  67.686  1.00  0.00    -0.296 C  
HETATM    2  N   UNL     1     -11.946  13.163  69.037  1.00  0.00    -0.308 NA 
HETATM    3  H   UNL     1     -12.728  13.801  69.185  1.00  0.00     0.000 HD 
ENDROOT
BRANCH   2   4
HETATM    4  N   UNL     1     -12.300  11.775  69.283  1.00  0.00    -0.130 NA 
HETATM    5  H   UNL     1     -11.660  11.128  68.821  1.00  0.00     0.000 HD 
BRANCH   4   6
HETATM    6  C   UNL     1     -12.383  11.530  70.734  1.00  0.00    -0.375 C  
BRANCH   6   7
HETATM    7  C   UNL     1     -11.998  10.101  71.057  1.00  0.00    -0.474 A  
HETATM    8  C   UNL     1     -12.733   9.361  71.996  1.00  0.00    -0.483 A  
HETATM    9  C   UNL     1     -12.342   8.068  72.346  1.00  0.00    -0.299 A  
HETATM   10  C   UNL     1     -11.211   7.487  71.759  1.00  0.00    -0.281 A  
HETATM   11  C   UNL     1     -10.893   9.496  70.438  1.00  0.00    -0.338 A  
HETATM   12  C   UNL     1     -10.503   8.196  70.781  1.00  0.00    -0.223 A  
BRANCH  10  13
HETATM   13  C   UNL     1     -10.814   6.120  72.201  1.00  0.00    -0.247 C  
HETATM   14  O   UNL     1     -11.621   5.199  72.143  1.00  0.00     0.035 OA 
HETATM   15  N   UNL     1      -9.536   5.984  72.712  1.00  0.00    -0.156 N  
HETATM   16  H   UNL     1      -8.888   6.770  72.660  1.00  0.00     0.000 HD 
BRANCH  15  17
HETATM   17  C   UNL     1      -9.100   4.734  73.324  1.00  0.00    -0.115 C  
HETATM   18  C   UNL     1      -7.670   4.868  73.835  1.00  0.00    -0.098 C  
HETATM   19  C   UNL     1     -10.041   4.331  74.460  1.00  0.00    -0.250 C  
ENDBRANCH  15  17
ENDBRANCH  10  13
ENDBRANCH   6   7
ENDBRANCH   4   6
ENDBRANCH   2   4
TORSDOF 5
ENDMDL
MODEL      155
REMARK 921   NORMALIZED FREE ENERGY PREDICTED BY IDOCK:   -2.75 KCAL/MOL
REMARK 922        TOTAL FREE ENERGY PREDICTED BY IDOCK:   -3.95 KCAL/MOL
REMARK 923 INTER-LIGAND FREE ENERGY PREDICTED BY IDOCK:   -3.61 KCAL/MOL
REMARK 924 INTRA-LIGAND FREE ENERGY PREDICTED BY IDOCK:   -0.34 KCAL/MOL
REMARK 927      BINDING AFFINITY PREDICTED BY RF-SCORE:    0.00 PKD
ROOT
HETATM    1  C   UNL     1      -9.206  10.990  62.795  1.00  0.00    -0.351 C  
HETATM    2  N   UNL     1      -9.804  11.962  63.714  1.00  0.00    -0.492 NA 
HETATM    3  H   UNL     1     -10.819  11.876  63.773  1.00  0.00     0.000 HD 
ENDROOT
BRANCH   2   4
HETATM    4  N   UNL     1      -9.154  11.824  65.007  1.00  0.00    -0.410 NA 
HETATM    5  H   UNL     1      -9.810  11.936  65.780  1.00  0.00     0.000 HD 
BRANCH   4   6
HETATM    6  C   UNL     1      -8.437  10.537  65.072  1.00  0.00    -0.163 C  
BRANCH   6   7
HETATM    7  C   UNL     1      -8.602   9.901  66.436  1.00  0.00    -0.136 A  
HETATM    8  C   UNL     1      -7.794  10.304  67.511  1.00  0.00    -0.102 A  
HETATM    9  C   UNL     1      -7.897   9.674  68.753  1.00  0.00    -0.081 A  
HETATM   10  C   UNL     1      -8.815   8.634  68.945  1.00  0.00    -0.138 A  
HETATM   11  C   UNL     1      -9.552   8.891  66.648  1.00  0.00    -0.281 A  
HETATM   12  C   UNL     1      -9.664   8.263  67.895  1.00  0.00    -0.192 A  
BRANCH  10  13
HETATM   13  C   UNL     1      -8.853   7.968  70.278  1.00  0.00    -0.145 C  
HETATM   14  O   UNL     1      -7.808   7.729  70.873  1.00  0.00    -0.086 OA 
HETATM   15  N   UNL     1     -10.100   7.605  70.751  1.00  0.00    -0.189 N  
HETATM   16  H   UNL     1     -10.935   7.903  70.245  1.00  0.00     0.000 HD 
BRANCH  15  17
HETATM   17  C   UNL     1     -10.242   6.804  71.961  1.00  0.00    -0.191 C  
HETATM   18  C   UNL     1     -10.807   7.656  73.093  1.00  0.00    -0.440 C  
HETATM   19  C   UNL     1     -11.135   5.590  71.706  1.00  0.00    -0.214 C  
ENDBRANCH  15  17
ENDBRANCH  10  13
ENDBRANCH   6   7
ENDBRANCH   4   6
ENDBRANCH   2   4
TORSDOF 5
ENDMDL
MODEL      156
REMARK 921   NORMALIZED FREE ENERGY PREDICTED BY IDOCK:   -2.74 KCAL/MOL
REMARK 922        TOTAL FREE ENERGY PREDICTED BY IDOCK:   -3.93 KCAL/MOL
REMARK 923 INTER-LIGAND FREE ENERGY PREDICTED BY IDOCK:   -3.53 KCAL/MOL
REMARK 924 INTRA-LIGAND FREE ENERGY PREDICTED BY IDOCK:   -0.39 KCAL/MOL
REMARK 927      BINDING AFFINITY PREDICTED BY RF-SCORE:    0.00 PKD
ROOT
HETATM    1  C   UNL     1     -10.615   5.666  73.807  1.00  0.00    -0.273 C  
HETATM    2  N   UNL     1     -10.757   7.111  74.004  1.00  0.00    -0.556 NA 
HETATM    3  H   UNL     1      -9.888   7.619  73.835  1.00  0.00     0.000 HD 
ENDROOT
BRANCH   2   4
HETATM    4  N   UNL     1     -11.851   7.579  73.169  1.00  0.00    -0.530 NA 
HETATM    5  H   UNL     1     -12.572   8.055  73.713  1.00  0.00     0.000 HD 
BRANCH   4   6
HETATM    6  C   UNL     1     -11.326   8.428  72.085  1.00  0.00    -0.366 C  
BRANCH   6   7
HETATM    7  C   UNL     1     -10.896   7.581  70.904  1.00  0.00    -0.252 A  
HETATM    8  C   UNL     1      -9.612   7.724  70.356  1.00  0.00    -0.175 A  
HETATM    9  C   UNL     1      -9.236   6.995  69.227  1.00  0.00    -0.139 A  
HETATM   10  C   UNL     1     -10.134   6.103  68.628  1.00  0.00    -0.196 A  
HETATM   11  C   UNL     1     -11.776   6.651  70.328  1.00  0.00    -0.432 A  
HETATM   12  C   UNL     1     -11.398   5.912  69.201  1.00  0.00    -0.034 A  
BRANCH  10  13
HETATM   13  C   UNL     1      -9.695   5.382  67.400  1.00  0.00    -0.140 C  
HETATM   14  O   UNL     1     -10.428   4.543  66.888  1.00  0.00    -0.118 OA 
HETATM   15  N   UNL     1      -8.428   5.677  66.932  1.00  0.00    -0.111 N  
HETATM   16  H   UNL     1      -7.901   6.440  67.356  1.00  0.00     0.000 HD 
BRANCH  15  17
HETATM   17  C   UNL     1      -7.834   4.915  65.839  1.00  0.00    -0.095 C  
HETATM   18  C   UNL     1      -7.227   5.859  64.807  1.00  0.00    -0.063 C  
HETATM   19  C   UNL     1      -6.776   3.946  66.368  1.00  0.00    -0.053 C  
ENDBRANCH  15  17
ENDBRANCH  10  13
ENDBRANCH   6   7
ENDBRANCH   4   6
ENDBRANCH   2   4
TORSDOF 5
ENDMDL
MODEL      157
REMARK 921   NORMALIZED FREE ENERGY PREDICTED BY IDOCK:   -2.73 KCAL/MOL
REMARK 922        TOTAL FREE ENERGY PREDICTED BY IDOCK:   -3.92 KCAL/MOL
REMARK 923 INTER-LIGAND FREE ENERGY PREDICTED BY IDOCK:   -3.60 KCAL/MOL
REMARK 924 INTRA-LIGAND FREE ENERGY PREDICTED BY IDOCK:   -0.32 KCAL/MOL
REMARK 927      BINDING AFFINITY PREDICTED BY RF-SCORE:    0.00 PKD
ROOT
HETATM    1  C   UNL     1     -10.697   5.241  72.564  1.00  0.00    -0.236 C  
HETATM    2  N   UNL     1     -11.995   5.850  72.866  1.00  0.00    -0.515 NA 
HETATM    3  H   UNL     1     -12.500   5.357  73.602  1.00  0.00     0.000 HD 
ENDROOT
BRANCH   2   4
HETATM    4  N   UNL     1     -11.777   7.253  73.179  1.00  0.00    -0.497 NA 
HETATM    5  H   UNL     1     -10.803   7.447  73.416  1.00  0.00     0.000 HD 
BRANCH   4   6
HETATM    6  C   UNL     1     -12.254   8.094  72.066  1.00  0.00    -0.339 C  
BRANCH   6   7
HETATM    7  C   UNL     1     -11.086   8.717  71.329  1.00  0.00    -0.336 A  
HETATM    8  C   UNL     1      -9.771   8.500  71.769  1.00  0.00    -0.337 A  
HETATM    9  C   UNL     1      -8.697   9.125  71.133  1.00  0.00    -0.210 A  
HETATM   10  C   UNL     1      -8.917   9.975  70.041  1.00  0.00    -0.121 A  
HETATM   11  C   UNL     1     -11.296   9.531  70.205  1.00  0.00    -0.284 A  
HETATM   12  C   UNL     1     -10.220  10.153  69.560  1.00  0.00    -0.258 A  
BRANCH  10  13
HETATM   13  C   UNL     1      -7.738  10.650  69.427  1.00  0.00    -0.129 C  
HETATM   14  O   UNL     1      -6.713  10.807  70.082  1.00  0.00    -0.156 OA 
HETATM   15  N   UNL     1      -7.899  11.116  68.136  1.00  0.00    -0.112 N  
HETATM   16  H   UNL     1      -8.747  10.884  67.619  1.00  0.00     0.000 HD 
BRANCH  15  17
HETATM   17  C   UNL     1      -6.872  11.934  67.499  1.00  0.00    -0.124 C  
HETATM   18  C   UNL     1      -6.627  11.454  66.072  1.00  0.00     0.219 C  
HETATM   19  C   UNL     1      -7.273  13.409  67.508  1.00  0.00    -0.163 C  
ENDBRANCH  15  17
ENDBRANCH  10  13
ENDBRANCH   6   7
ENDBRANCH   4   6
ENDBRANCH   2   4
TORSDOF 5
ENDMDL
MODEL      158
REMARK 921   NORMALIZED FREE ENERGY PREDICTED BY IDOCK:   -2.71 KCAL/MOL
REMARK 922        TOTAL FREE ENERGY PREDICTED BY IDOCK:   -3.89 KCAL/MOL
REMARK 923 INTER-LIGAND FREE ENERGY PREDICTED BY IDOCK:   -3.57 KCAL/MOL
REMARK 924 INTRA-LIGAND FREE ENERGY PREDICTED BY IDOCK:   -0.32 KCAL/MOL
REMARK 927      BINDING AFFINITY PREDICTED BY RF-SCORE:    0.00 PKD
ROOT
HETATM    1  C   UNL     1     -11.163  15.683  64.623  1.00  0.00    -0.369 C  
HETATM    2  N   UNL     1     -10.880  15.650  66.061  1.00  0.00    -0.305 NA 
HETATM    3  H   UNL     1     -11.715  15.797  66.629  1.00  0.00     0.000 HD 
ENDROOT
BRANCH   2   4
HETATM    4  N   UNL     1     -10.209  14.396  66.363  1.00  0.00    -0.281 NA 
HETATM    5  H   UNL     1      -9.203  14.519  66.486  1.00  0.00     0.000 HD 
BRANCH   4   6
HETATM    6  C   UNL     1     -10.836  13.764  67.538  1.00  0.00    -0.265 C  
BRANCH   6   7
HETATM    7  C   UNL     1     -10.356  12.336  67.697  1.00  0.00    -0.214 A  
HETATM    8  C   UNL     1     -11.248  11.264  67.541  1.00  0.00    -0.357 A  
HETATM    9  C   UNL     1     -10.825   9.951  67.752  1.00  0.00    -0.321 A  
HETATM   10  C   UNL     1      -9.499   9.684  68.117  1.00  0.00    -0.144 A  
HETATM   11  C   UNL     1      -9.018  12.059  68.016  1.00  0.00    -0.187 A  
HETATM   12  C   UNL     1      -8.588  10.742  68.220  1.00  0.00    -0.135 A  
BRANCH  10  13
HETATM   13  C   UNL     1      -9.112   8.267  68.371  1.00  0.00    -0.136 C  
HETATM   14  O   UNL     1      -7.936   7.930  68.291  1.00  0.00    -0.118 OA 
HETATM   15  N   UNL     1     -10.143   7.385  68.639  1.00  0.00    -0.174 N  
HETATM   16  H   UNL     1     -11.089   7.743  68.769  1.00  0.00     0.000 HD 
BRANCH  15  17
HETATM   17  C   UNL     1      -9.897   5.951  68.739  1.00  0.00    -0.140 C  
HETATM   18  C   UNL     1     -10.326   5.438  70.110  1.00  0.00    -0.361 C  
HETATM   19  C   UNL     1     -10.632   5.197  67.631  1.00  0.00    -0.062 C  
ENDBRANCH  15  17
ENDBRANCH  10  13
ENDBRANCH   6   7
ENDBRANCH   4   6
ENDBRANCH   2   4
TORSDOF 5
ENDMDL
MODEL      159
REMARK 921   NORMALIZED FREE ENERGY PREDICTED BY IDOCK:   -2.67 KCAL/MOL
REMARK 922        TOTAL FREE ENERGY PREDICTED BY IDOCK:   -3.84 KCAL/MOL
REMARK 923 INTER-LIGAND FREE ENERGY PREDICTED BY IDOCK:   -3.45 KCAL/MOL
REMARK 924 INTRA-LIGAND FREE ENERGY PREDICTED BY IDOCK:   -0.39 KCAL/MOL
REMARK 927      BINDING AFFINITY PREDICTED BY RF-SCORE:    0.00 PKD
ROOT
HETATM    1  C   UNL     1     -11.450  11.952  66.109  1.00  0.00    -0.288 C  
HETATM    2  N   UNL     1     -12.189  12.007  67.373  1.00  0.00    -0.379 NA 
HETATM    3  H   UNL     1     -13.180  12.210  67.241  1.00  0.00     0.000 HD 
ENDROOT
BRANCH   2   4
HETATM    4  N   UNL     1     -11.962  10.762  68.087  1.00  0.00    -0.801 NA 
HETATM    5  H   UNL     1     -11.957   9.956  67.461  1.00  0.00     0.000 HD 
BRANCH   4   6
HETATM    6  C   UNL     1     -10.720  10.856  68.877  1.00  0.00    -0.215 C  
BRANCH   6   7
HETATM    7  C   UNL     1     -10.095   9.488  69.056  1.00  0.00    -0.201 A  
HETATM    8  C   UNL     1     -10.241   8.505  68.065  1.00  0.00    -0.264 A  
HETATM    9  C   UNL     1      -9.724   7.222  68.255  1.00  0.00    -0.152 A  
HETATM   10  C   UNL     1      -9.047   6.900  69.438  1.00  0.00    -0.141 A  
HETATM   11  C   UNL     1      -9.374   9.173  70.218  1.00  0.00    -0.253 A  
HETATM   12  C   UNL     1      -8.848   7.890  70.408  1.00  0.00    -0.142 A  
BRANCH  10  13
HETATM   13  C   UNL     1      -8.553   5.503  69.606  1.00  0.00    -0.108 C  
HETATM   14  O   UNL     1      -7.863   5.211  70.576  1.00  0.00    -0.078 OA 
HETATM   15  N   UNL     1      -8.872   4.611  68.600  1.00  0.00    -0.098 N  
HETATM   16  H   UNL     1      -9.515   4.896  67.861  1.00  0.00     0.000 HD 
BRANCH  15  17
HETATM   17  C   UNL     1      -8.305   3.267  68.579  1.00  0.00    -0.073 C  
HETATM   18  C   UNL     1      -9.286   2.272  69.189  1.00  0.00    -0.185 C  
HETATM   19  C   UNL     1      -7.941   2.856  67.152  1.00  0.00    -0.075 C  
ENDBRANCH  15  17
ENDBRANCH  10  13
ENDBRANCH   6   7
ENDBRANCH   4   6
ENDBRANCH   2   4
TORSDOF 5
ENDMDL
MODEL      160
REMARK 921   NORMALIZED FREE ENERGY PREDICTED BY IDOCK:   -2.67 KCAL/MOL
REMARK 922        TOTAL FREE ENERGY PREDICTED BY IDOCK:   -3.84 KCAL/MOL
REMARK 923 INTER-LIGAND FREE ENERGY PREDICTED BY IDOCK:   -3.50 KCAL/MOL
REMARK 924 INTRA-LIGAND FREE ENERGY PREDICTED BY IDOCK:   -0.34 KCAL/MOL
REMARK 927      BINDING AFFINITY PREDICTED BY RF-SCORE:    0.00 PKD
ROOT
HETATM    1  C   UNL     1      -6.163   5.571  67.173  1.00  0.00    -0.031 C  
HETATM    2  N   UNL     1      -5.989   7.011  67.384  1.00  0.00    -0.027 NA 
HETATM    3  H   UNL     1      -5.094   7.354  67.034  1.00  0.00     0.000 HD 
ENDROOT
BRANCH   2   4
HETATM    4  N   UNL     1      -7.124   7.698  66.790  1.00  0.00    -0.081 NA 
HETATM    5  H   UNL     1      -7.977   7.573  67.336  1.00  0.00     0.000 HD 
BRANCH   4   6
HETATM    6  C   UNL     1      -6.798   9.122  66.591  1.00  0.00    -0.080 C  
BRANCH   6   7
HETATM    7  C   UNL     1      -7.986   9.995  66.937  1.00  0.00    -0.113 A  
HETATM    8  C   UNL     1      -7.797  11.247  67.544  1.00  0.00    -0.123 A  
HETATM    9  C   UNL     1      -8.891  12.025  67.925  1.00  0.00    -0.174 A  
HETATM   10  C   UNL     1     -10.196  11.569  67.701  1.00  0.00    -0.205 A  
HETATM   11  C   UNL     1      -9.296   9.566  66.672  1.00  0.00    -0.207 A  
HETATM   12  C   UNL     1     -10.395  10.348  67.046  1.00  0.00    -0.295 A  
BRANCH  10  13
HETATM   13  C   UNL     1     -11.327  12.422  68.167  1.00  0.00    -0.291 C  
HETATM   14  O   UNL     1     -12.411  12.365  67.597  1.00  0.00    -0.305 OA 
HETATM   15  N   UNL     1     -11.058  13.285  69.212  1.00  0.00    -0.413 N  
HETATM   16  H   UNL     1     -10.161  13.227  69.694  1.00  0.00     0.000 HD 
BRANCH  15  17
HETATM   17  C   UNL     1     -12.038  14.278  69.638  1.00  0.00    -0.346 C  
HETATM   18  C   UNL     1     -12.124  14.315  71.160  1.00  0.00    -0.409 C  
HETATM   19  C   UNL     1     -11.684  15.659  69.087  1.00  0.00    -0.402 C  
ENDBRANCH  15  17
ENDBRANCH  10  13
ENDBRANCH   6   7
ENDBRANCH   4   6
ENDBRANCH   2   4
TORSDOF 5
ENDMDL
MODEL      161
REMARK 921   NORMALIZED FREE ENERGY PREDICTED BY IDOCK:   -2.64 KCAL/MOL
REMARK 922        TOTAL FREE ENERGY PREDICTED BY IDOCK:   -3.81 KCAL/MOL
REMARK 923 INTER-LIGAND FREE ENERGY PREDICTED BY IDOCK:   -3.44 KCAL/MOL
REMARK 924 INTRA-LIGAND FREE ENERGY PREDICTED BY IDOCK:   -0.37 KCAL/MOL
REMARK 927      BINDING AFFINITY PREDICTED BY RF-SCORE:    0.00 PKD
ROOT
HETATM    1  C   UNL     1     -10.757   5.941  68.179  1.00  0.00    -0.251 C  
HETATM    2  N   UNL     1     -11.351   6.670  67.055  1.00  0.00    -0.795 NA 
HETATM    3  H   UNL     1     -12.199   7.173  67.317  1.00  0.00     0.000 HD 
ENDROOT
BRANCH   2   4
HETATM    4  N   UNL     1     -10.335   7.541  66.490  1.00  0.00    -0.501 NA 
HETATM    5  H   UNL     1     -10.742   8.321  65.972  1.00  0.00     0.000 HD 
BRANCH   4   6
HETATM    6  C   UNL     1      -9.421   8.000  67.552  1.00  0.00    -0.146 C  
BRANCH   6   7
HETATM    7  C   UNL     1      -9.514   9.502  67.725  1.00  0.00    -0.151 A  
HETATM    8  C   UNL     1     -10.526  10.230  67.080  1.00  0.00    -0.311 A  
HETATM    9  C   UNL     1     -10.576  11.621  67.183  1.00  0.00    -0.269 A  
HETATM   10  C   UNL     1      -9.618  12.310  67.938  1.00  0.00    -0.203 A  
HETATM   11  C   UNL     1      -8.586  10.193  68.518  1.00  0.00    -0.118 A  
HETATM   12  C   UNL     1      -8.638  11.588  68.630  1.00  0.00    -0.109 A  
BRANCH  10  13
HETATM   13  C   UNL     1      -9.694  13.799  67.978  1.00  0.00    -0.232 C  
HETATM   14  O   UNL     1      -8.694  14.469  67.742  1.00  0.00    -0.160 OA 
HETATM   15  N   UNL     1     -10.910  14.345  68.341  1.00  0.00    -0.241 N  
HETATM   16  H   UNL     1     -11.722  13.736  68.448  1.00  0.00     0.000 HD 
BRANCH  15  17
HETATM   17  C   UNL     1     -11.052  15.778  68.573  1.00  0.00    -0.335 C  
HETATM   18  C   UNL     1     -11.703  16.445  67.366  1.00  0.00     0.623 C  
HETATM   19  C   UNL     1     -11.869  16.043  69.838  1.00  0.00    -0.237 C  
ENDBRANCH  15  17
ENDBRANCH  10  13
ENDBRANCH   6   7
ENDBRANCH   4   6
ENDBRANCH   2   4
TORSDOF 5
ENDMDL
MODEL      162
REMARK 921   NORMALIZED FREE ENERGY PREDICTED BY IDOCK:   -2.62 KCAL/MOL
REMARK 922        TOTAL FREE ENERGY PREDICTED BY IDOCK:   -3.78 KCAL/MOL
REMARK 923 INTER-LIGAND FREE ENERGY PREDICTED BY IDOCK:   -4.07 KCAL/MOL
REMARK 924 INTRA-LIGAND FREE ENERGY PREDICTED BY IDOCK:    0.28 KCAL/MOL
REMARK 927      BINDING AFFINITY PREDICTED BY RF-SCORE:    0.00 PKD
ROOT
HETATM    1  C   UNL     1     -10.778   7.530  68.832  1.00  0.00    -0.115 C  
HETATM    2  N   UNL     1     -10.888   8.679  67.929  1.00  0.00    -0.487 NA 
HETATM    3  H   UNL     1     -11.785   8.715  67.445  1.00  0.00     0.000 HD 
ENDROOT
BRANCH   2   4
HETATM    4  N   UNL     1     -10.616   9.886  68.693  1.00  0.00    -0.209 NA 
HETATM    5  H   UNL     1     -10.639   9.716  69.699  1.00  0.00     0.000 HD 
BRANCH   4   6
HETATM    6  C   UNL     1      -9.335  10.474  68.261  1.00  0.00    -0.156 C  
BRANCH   6   7
HETATM    7  C   UNL     1      -9.472  11.970  68.067  1.00  0.00    -0.199 A  
HETATM    8  C   UNL     1      -8.344  12.802  68.134  1.00  0.00    -0.172 A  
HETATM    9  C   UNL     1      -8.474  14.187  68.023  1.00  0.00    -0.171 A  
HETATM   10  C   UNL     1      -9.736  14.766  67.836  1.00  0.00    -0.211 A  
HETATM   11  C   UNL     1     -10.727  12.552  67.832  1.00  0.00    -0.239 A  
HETATM   12  C   UNL     1     -10.860  13.941  67.711  1.00  0.00    -0.261 A  
BRANCH  10  13
HETATM   13  C   UNL     1      -9.823  16.253  67.766  1.00  0.00    -0.237 C  
HETATM   14  O   UNL     1     -10.718  16.784  67.118  1.00  0.00    -0.287 OA 
HETATM   15  N   UNL     1      -8.827  16.960  68.414  1.00  0.00    -0.235 N  
HETATM   16  H   UNL     1      -8.157  16.461  69.000  1.00  0.00     0.000 HD 
BRANCH  15  17
HETATM   17  C   UNL     1      -8.720  18.408  68.274  1.00  0.00    -0.302 C  
HETATM   18  C   UNL     1      -8.436  18.776  66.822  1.00  0.00    -0.292 C  
HETATM   19  C   UNL     1      -9.994  19.095  68.763  1.00  0.00    -0.493 C  
ENDBRANCH  15  17
ENDBRANCH  10  13
ENDBRANCH   6   7
ENDBRANCH   4   6
ENDBRANCH   2   4
TORSDOF 5
ENDMDL
MODEL      163
REMARK 921   NORMALIZED FREE ENERGY PREDICTED BY IDOCK:   -2.61 KCAL/MOL
REMARK 922        TOTAL FREE ENERGY PREDICTED BY IDOCK:   -3.77 KCAL/MOL
REMARK 923 INTER-LIGAND FREE ENERGY PREDICTED BY IDOCK:   -3.41 KCAL/MOL
REMARK 924 INTRA-LIGAND FREE ENERGY PREDICTED BY IDOCK:   -0.36 KCAL/MOL
REMARK 927      BINDING AFFINITY PREDICTED BY RF-SCORE:    0.00 PKD
ROOT
HETATM    1  C   UNL     1      -7.552   5.517  66.740  1.00  0.00    -0.088 C  
HETATM    2  N   UNL     1      -8.237   5.515  68.035  1.00  0.00    -0.100 NA 
HETATM    3  H   UNL     1      -8.063   4.664  68.571  1.00  0.00     0.000 HD 
ENDROOT
BRANCH   2   4
HETATM    4  N   UNL     1      -7.853   6.718  68.755  1.00  0.00    -0.110 NA 
HETATM    5  H   UNL     1      -7.857   7.542  68.153  1.00  0.00     0.000 HD 
BRANCH   4   6
HETATM    6  C   UNL     1      -8.718   6.892  69.936  1.00  0.00    -0.142 C  
BRANCH   6   7
HETATM    7  C   UNL     1      -9.455   8.214  69.869  1.00  0.00    -0.160 A  
HETATM    8  C   UNL     1      -9.388   9.007  68.713  1.00  0.00    -0.140 A  
HETATM    9  C   UNL     1     -10.010  10.256  68.671  1.00  0.00    -0.183 A  
HETATM   10  C   UNL     1     -10.716  10.733  69.783  1.00  0.00    -0.241 A  
HETATM   11  C   UNL     1     -10.203   8.676  70.962  1.00  0.00    -0.278 A  
HETATM   12  C   UNL     1     -10.835   9.925  70.920  1.00  0.00    -0.357 A  
BRANCH  10  13
HETATM   13  C   UNL     1     -11.324  12.092  69.698  1.00  0.00    -0.179 C  
HETATM   14  O   UNL     1     -12.355  12.340  70.314  1.00  0.00    -0.273 OA 
HETATM   15  N   UNL     1     -10.695  12.998  68.866  1.00  0.00    -0.374 N  
HETATM   16  H   UNL     1      -9.798  12.755  68.444  1.00  0.00     0.000 HD 
BRANCH  15  17
HETATM   17  C   UNL     1     -11.293  14.297  68.580  1.00  0.00    -0.282 C  
HETATM   18  C   UNL     1     -10.204  15.338  68.342  1.00  0.00    -0.223 C  
HETATM   19  C   UNL     1     -12.226  14.210  67.372  1.00  0.00    -0.278 C  
ENDBRANCH  15  17
ENDBRANCH  10  13
ENDBRANCH   6   7
ENDBRANCH   4   6
ENDBRANCH   2   4
TORSDOF 5
ENDMDL
MODEL      164
REMARK 921   NORMALIZED FREE ENERGY PREDICTED BY IDOCK:   -2.60 KCAL/MOL
REMARK 922        TOTAL FREE ENERGY PREDICTED BY IDOCK:   -3.76 KCAL/MOL
REMARK 923 INTER-LIGAND FREE ENERGY PREDICTED BY IDOCK:   -3.45 KCAL/MOL
REMARK 924 INTRA-LIGAND FREE ENERGY PREDICTED BY IDOCK:   -0.31 KCAL/MOL
REMARK 927      BINDING AFFINITY PREDICTED BY RF-SCORE:    0.00 PKD
ROOT
HETATM    1  C   UNL     1     -11.099   2.583  63.492  1.00  0.00    -0.019 C  
HETATM    2  N   UNL     1     -10.364   3.052  64.670  1.00  0.00    -0.389 NA 
HETATM    3  H   UNL     1      -9.369   3.180  64.488  1.00  0.00     0.000 HD 
ENDROOT
BRANCH   2   4
HETATM    4  N   UNL     1     -11.006   4.264  65.153  1.00  0.00    -0.781 NA 
HETATM    5  H   UNL     1     -12.005   4.131  65.312  1.00  0.00     0.000 HD 
BRANCH   4   6
HETATM    6  C   UNL     1     -10.313   4.750  66.359  1.00  0.00    -0.273 C  
BRANCH   6   7
HETATM    7  C   UNL     1      -9.945   6.212  66.212  1.00  0.00    -0.058 A  
HETATM    8  C   UNL     1      -8.860   6.595  65.407  1.00  0.00     0.065 A  
HETATM    9  C   UNL     1      -8.477   7.934  65.321  1.00  0.00    -0.119 A  
HETATM   10  C   UNL     1      -9.174   8.917  66.033  1.00  0.00    -0.287 A  
HETATM   11  C   UNL     1     -10.669   7.207  66.885  1.00  0.00    -0.363 A  
HETATM   12  C   UNL     1     -10.292   8.553  66.794  1.00  0.00    -0.346 A  
BRANCH  10  13
HETATM   13  C   UNL     1      -8.695  10.326  65.939  1.00  0.00    -0.156 C  
HETATM   14  O   UNL     1      -8.498  10.833  64.840  1.00  0.00    -0.150 OA 
HETATM   15  N   UNL     1      -8.447  10.974  67.134  1.00  0.00    -0.134 N  
HETATM   16  H   UNL     1      -8.706  10.525  68.012  1.00  0.00     0.000 HD 
BRANCH  15  17
HETATM   17  C   UNL     1      -7.821  12.292  67.159  1.00  0.00    -0.149 C  
HETATM   18  C   UNL     1      -8.882  13.375  67.328  1.00  0.00    -0.220 C  
HETATM   19  C   UNL     1      -6.784  12.377  68.278  1.00  0.00    -0.070 C  
ENDBRANCH  15  17
ENDBRANCH  10  13
ENDBRANCH   6   7
ENDBRANCH   4   6
ENDBRANCH   2   4
TORSDOF 5
ENDMDL
MODEL      165
REMARK 921   NORMALIZED FREE ENERGY PREDICTED BY IDOCK:   -2.60 KCAL/MOL
REMARK 922        TOTAL FREE ENERGY PREDICTED BY IDOCK:   -3.76 KCAL/MOL
REMARK 923 INTER-LIGAND FREE ENERGY PREDICTED BY IDOCK:   -3.43 KCAL/MOL
REMARK 924 INTRA-LIGAND FREE ENERGY PREDICTED BY IDOCK:   -0.33 KCAL/MOL
REMARK 927      BINDING AFFINITY PREDICTED BY RF-SCORE:    0.00 PKD
ROOT
HETATM    1  C   UNL     1      -9.013  19.948  67.044  1.00  0.00    -0.340 C  
HETATM    2  N   UNL     1      -8.205  19.178  66.094  1.00  0.00    -0.406 NA 
HETATM    3  H   UNL     1      -8.044  19.677  65.219  1.00  0.00     0.000 HD 
ENDROOT
BRANCH   2   4
HETATM    4  N   UNL     1      -6.969  18.794  66.756  1.00  0.00    -0.197 NA 
HETATM    5  H   UNL     1      -6.283  19.549  66.756  1.00  0.00     0.000 HD 
BRANCH   4   6
HETATM    6  C   UNL     1      -7.260  18.310  68.118  1.00  0.00    -0.249 C  
BRANCH   6   7
HETATM    7  C   UNL     1      -7.652  16.847  68.093  1.00  0.00    -0.188 A  
HETATM    8  C   UNL     1      -8.759  16.395  68.829  1.00  0.00    -0.246 A  
HETATM    9  C   UNL     1      -9.084  15.038  68.863  1.00  0.00    -0.202 A  
HETATM   10  C   UNL     1      -8.312  14.108  68.156  1.00  0.00    -0.161 A  
HETATM   11  C   UNL     1      -6.912  15.916  67.349  1.00  0.00    -0.233 A  
HETATM   12  C   UNL     1      -7.240  14.556  67.374  1.00  0.00    -0.165 A  
BRANCH  10  13
HETATM   13  C   UNL     1      -8.679  12.667  68.261  1.00  0.00    -0.169 C  
HETATM   14  O   UNL     1      -8.227  11.985  69.175  1.00  0.00     0.165 OA 
HETATM   15  N   UNL     1      -9.490  12.162  67.262  1.00  0.00    -0.181 N  
HETATM   16  H   UNL     1      -9.895  12.798  66.575  1.00  0.00     0.000 HD 
BRANCH  15  17
HETATM   17  C   UNL     1      -9.775  10.734  67.174  1.00  0.00    -0.170 C  
HETATM   18  C   UNL     1     -11.075  10.411  67.903  1.00  0.00    -0.363 C  
HETATM   19  C   UNL     1      -9.851  10.286  65.715  1.00  0.00    -0.320 C  
ENDBRANCH  15  17
ENDBRANCH  10  13
ENDBRANCH   6   7
ENDBRANCH   4   6
ENDBRANCH   2   4
TORSDOF 5
ENDMDL
MODEL      166
REMARK 921   NORMALIZED FREE ENERGY PREDICTED BY IDOCK:   -2.60 KCAL/MOL
REMARK 922        TOTAL FREE ENERGY PREDICTED BY IDOCK:   -3.75 KCAL/MOL
REMARK 923 INTER-LIGAND FREE ENERGY PREDICTED BY IDOCK:   -3.51 KCAL/MOL
REMARK 924 INTRA-LIGAND FREE ENERGY PREDICTED BY IDOCK:   -0.24 KCAL/MOL
REMARK 927      BINDING AFFINITY PREDICTED BY RF-SCORE:    0.00 PKD
ROOT
HETATM    1  C   UNL     1      -9.190   5.910  68.028  1.00  0.00    -0.112 C  
HETATM    2  N   UNL     1     -10.227   6.402  67.118  1.00  0.00    -0.175 NA 
HETATM    3  H   UNL     1     -11.081   5.845  67.157  1.00  0.00     0.000 HD 
ENDROOT
BRANCH   2   4
HETATM    4  N   UNL     1     -10.461   7.807  67.411  1.00  0.00    -0.295 NA 
HETATM    5  H   UNL     1     -10.050   8.086  68.303  1.00  0.00     0.000 HD 
BRANCH   4   6
HETATM    6  C   UNL     1      -9.978   8.638  66.294  1.00  0.00    -0.217 C  
BRANCH   6   7
HETATM    7  C   UNL     1      -9.984  10.104  66.677  1.00  0.00    -0.272 A  
HETATM    8  C   UNL     1      -9.007  10.616  67.545  1.00  0.00    -0.136 A  
HETATM    9  C   UNL     1      -9.048  11.950  67.953  1.00  0.00    -0.183 A  
HETATM   10  C   UNL     1     -10.064  12.799  67.497  1.00  0.00    -0.213 A  
HETATM   11  C   UNL     1     -10.972  10.971  66.186  1.00  0.00    -0.157 A  
HETATM   12  C   UNL     1     -11.011  12.312  66.588  1.00  0.00    -0.321 A  
BRANCH  10  13
HETATM   13  C   UNL     1     -10.085  14.203  67.999  1.00  0.00    -0.233 C  
HETATM   14  O   UNL     1     -10.565  14.453  69.099  1.00  0.00    -0.246 OA 
HETATM   15  N   UNL     1      -9.592  15.171  67.143  1.00  0.00    -0.215 N  
HETATM   16  H   UNL     1      -9.135  14.889  66.276  1.00  0.00     0.000 HD 
BRANCH  15  17
HETATM   17  C   UNL     1      -9.715  16.589  67.462  1.00  0.00    -0.242 C  
HETATM   18  C   UNL     1      -8.508  17.053  68.270  1.00  0.00    -0.233 C  
HETATM   19  C   UNL     1      -9.860  17.419  66.187  1.00  0.00    -0.260 C  
ENDBRANCH  15  17
ENDBRANCH  10  13
ENDBRANCH   6   7
ENDBRANCH   4   6
ENDBRANCH   2   4
TORSDOF 5
ENDMDL
MODEL      167
REMARK 921   NORMALIZED FREE ENERGY PREDICTED BY IDOCK:   -2.60 KCAL/MOL
REMARK 922        TOTAL FREE ENERGY PREDICTED BY IDOCK:   -3.74 KCAL/MOL
REMARK 923 INTER-LIGAND FREE ENERGY PREDICTED BY IDOCK:   -3.36 KCAL/MOL
REMARK 924 INTRA-LIGAND FREE ENERGY PREDICTED BY IDOCK:   -0.38 KCAL/MOL
REMARK 927      BINDING AFFINITY PREDICTED BY RF-SCORE:    0.00 PKD
ROOT
HETATM    1  C   UNL     1      -9.646  19.339  68.059  1.00  0.00    -0.340 C  
HETATM    2  N   UNL     1     -10.546  18.214  68.325  1.00  0.00    -0.308 NA 
HETATM    3  H   UNL     1     -11.505  18.512  68.507  1.00  0.00     0.000 HD 
ENDROOT
BRANCH   2   4
HETATM    4  N   UNL     1     -10.450  17.282  67.213  1.00  0.00    -0.335 NA 
HETATM    5  H   UNL     1     -10.823  17.677  66.349  1.00  0.00     0.000 HD 
BRANCH   4   6
HETATM    6  C   UNL     1      -9.055  16.829  67.059  1.00  0.00    -0.224 C  
BRANCH   6   7
HETATM    7  C   UNL     1      -8.938  15.349  67.355  1.00  0.00    -0.202 A  
HETATM    8  C   UNL     1     -10.045  14.501  67.192  1.00  0.00    -0.252 A  
HETATM    9  C   UNL     1      -9.961  13.149  67.528  1.00  0.00    -0.223 A  
HETATM   10  C   UNL     1      -8.766  12.617  68.028  1.00  0.00    -0.190 A  
HETATM   11  C   UNL     1      -7.730  14.800  67.812  1.00  0.00    -0.170 A  
HETATM   12  C   UNL     1      -7.640  13.442  68.142  1.00  0.00    -0.138 A  
BRANCH  10  13
HETATM   13  C   UNL     1      -8.744  11.176  68.410  1.00  0.00    -0.157 C  
HETATM   14  O   UNL     1      -7.838  10.744  69.114  1.00  0.00    -0.139 OA 
HETATM   15  N   UNL     1      -9.750  10.385  67.889  1.00  0.00    -0.148 N  
HETATM   16  H   UNL     1     -10.516  10.820  67.375  1.00  0.00     0.000 HD 
BRANCH  15  17
HETATM   17  C   UNL     1      -9.733   8.936  68.061  1.00  0.00    -0.156 C  
HETATM   18  C   UNL     1     -10.789   8.515  69.077  1.00  0.00    -0.026 C  
HETATM   19  C   UNL     1      -9.960   8.229  66.725  1.00  0.00    -0.355 C  
ENDBRANCH  15  17
ENDBRANCH  10  13
ENDBRANCH   6   7
ENDBRANCH   4   6
ENDBRANCH   2   4
TORSDOF 5
ENDMDL
MODEL      168
REMARK 921   NORMALIZED FREE ENERGY PREDICTED BY IDOCK:   -2.57 KCAL/MOL
REMARK 922        TOTAL FREE ENERGY PREDICTED BY IDOCK:   -3.71 KCAL/MOL
REMARK 923 INTER-LIGAND FREE ENERGY PREDICTED BY IDOCK:   -3.32 KCAL/MOL
REMARK 924 INTRA-LIGAND FREE ENERGY PREDICTED BY IDOCK:   -0.39 KCAL/MOL
REMARK 927      BINDING AFFINITY PREDICTED BY RF-SCORE:    0.00 PKD
ROOT
HETATM    1  C   UNL     1      -6.663   8.292  63.775  1.00  0.00    -0.075 C  
HETATM    2  N   UNL     1      -6.454   7.578  65.037  1.00  0.00    -0.038 NA 
HETATM    3  H   UNL     1      -5.540   7.127  65.088  1.00  0.00     0.000 HD 
ENDROOT
BRANCH   2   4
HETATM    4  N   UNL     1      -6.679   8.512  66.129  1.00  0.00    -0.067 NA 
HETATM    5  H   UNL     1      -6.357   9.453  65.902  1.00  0.00     0.000 HD 
BRANCH   4   6
HETATM    6  C   UNL     1      -8.101   8.492  66.519  1.00  0.00    -0.103 C  
BRANCH   6   7
HETATM    7  C   UNL     1      -8.683   9.890  66.485  1.00  0.00    -0.139 A  
HETATM    8  C   UNL     1      -9.601  10.253  65.488  1.00  0.00    -0.299 A  
HETATM    9  C   UNL     1     -10.090  11.559  65.412  1.00  0.00    -0.304 A  
HETATM   10  C   UNL     1      -9.673  12.525  66.337  1.00  0.00    -0.253 A  
HETATM   11  C   UNL     1      -8.307  10.849  67.437  1.00  0.00    -0.117 A  
HETATM   12  C   UNL     1      -8.801  12.157  67.369  1.00  0.00    -0.181 A  
BRANCH  10  13
HETATM   13  C   UNL     1     -10.193  13.913  66.185  1.00  0.00    -0.301 C  
HETATM   14  O   UNL     1     -11.108  14.142  65.401  1.00  0.00    -0.302 OA 
HETATM   15  N   UNL     1      -9.557  14.894  66.922  1.00  0.00    -0.236 N  
HETATM   16  H   UNL     1      -8.856  14.628  67.613  1.00  0.00     0.000 HD 
BRANCH  15  17
HETATM   17  C   UNL     1      -9.872  16.305  66.726  1.00  0.00    -0.245 C  
HETATM   18  C   UNL     1     -10.500  16.884  67.990  1.00  0.00    -0.347 C  
HETATM   19  C   UNL     1      -8.619  17.091  66.340  1.00  0.00    -0.311 C  
ENDBRANCH  15  17
ENDBRANCH  10  13
ENDBRANCH   6   7
ENDBRANCH   4   6
ENDBRANCH   2   4
TORSDOF 5
ENDMDL
MODEL      169
REMARK 921   NORMALIZED FREE ENERGY PREDICTED BY IDOCK:   -2.51 KCAL/MOL
REMARK 922        TOTAL FREE ENERGY PREDICTED BY IDOCK:   -3.64 KCAL/MOL
REMARK 923 INTER-LIGAND FREE ENERGY PREDICTED BY IDOCK:   -3.31 KCAL/MOL
REMARK 924 INTRA-LIGAND FREE ENERGY PREDICTED BY IDOCK:   -0.32 KCAL/MOL
REMARK 927      BINDING AFFINITY PREDICTED BY RF-SCORE:    0.00 PKD
ROOT
HETATM    1  C   UNL     1      -9.348   2.627  68.324  1.00  0.00    -0.201 C  
HETATM    2  N   UNL     1      -9.705   3.640  67.328  1.00  0.00    -0.293 NA 
HETATM    3  H   UNL     1     -10.355   3.289  66.625  1.00  0.00     0.000 HD 
ENDROOT
BRANCH   2   4
HETATM    4  N   UNL     1     -10.214   4.808  68.029  1.00  0.00    -0.046 NA 
HETATM    5  H   UNL     1     -10.776   4.552  68.841  1.00  0.00     0.000 HD 
BRANCH   4   6
HETATM    6  C   UNL     1      -9.098   5.702  68.387  1.00  0.00    -0.117 C  
BRANCH   6   7
HETATM    7  C   UNL     1      -9.482   7.150  68.163  1.00  0.00    -0.132 A  
HETATM    8  C   UNL     1     -10.437   7.491  67.193  1.00  0.00    -0.407 A  
HETATM    9  C   UNL     1     -10.745   8.828  66.937  1.00  0.00    -0.151 A  
HETATM   10  C   UNL     1     -10.106   9.850  67.650  1.00  0.00    -0.241 A  
HETATM   11  C   UNL     1      -8.880   8.177  68.907  1.00  0.00    -0.141 A  
HETATM   12  C   UNL     1      -9.192   9.519  68.658  1.00  0.00    -0.135 A  
BRANCH  10  13
HETATM   13  C   UNL     1     -10.441  11.262  67.306  1.00  0.00    -0.214 C  
HETATM   14  O   UNL     1     -10.624  11.580  66.136  1.00  0.00    -0.250 OA 
HETATM   15  N   UNL     1     -10.474  12.161  68.355  1.00  0.00    -0.226 N  
HETATM   16  H   UNL     1     -10.390  11.819  69.313  1.00  0.00     0.000 HD 
BRANCH  15  17
HETATM   17  C   UNL     1     -10.627  13.592  68.115  1.00  0.00    -0.245 C  
HETATM   18  C   UNL     1     -11.364  14.245  69.280  1.00  0.00    -0.322 C  
HETATM   19  C   UNL     1      -9.266  14.253  67.902  1.00  0.00    -0.194 C  
ENDBRANCH  15  17
ENDBRANCH  10  13
ENDBRANCH   6   7
ENDBRANCH   4   6
ENDBRANCH   2   4
TORSDOF 5
ENDMDL
MODEL      170
REMARK 921   NORMALIZED FREE ENERGY PREDICTED BY IDOCK:   -2.45 KCAL/MOL
REMARK 922        TOTAL FREE ENERGY PREDICTED BY IDOCK:   -3.56 KCAL/MOL
REMARK 923 INTER-LIGAND FREE ENERGY PREDICTED BY IDOCK:   -3.25 KCAL/MOL
REMARK 924 INTRA-LIGAND FREE ENERGY PREDICTED BY IDOCK:   -0.30 KCAL/MOL
REMARK 927      BINDING AFFINITY PREDICTED BY RF-SCORE:    0.00 PKD
ROOT
HETATM    1  C   UNL     1      -7.191   3.182  72.361  1.00  0.00    -0.043 C  
HETATM    2  N   UNL     1      -8.292   3.276  71.398  1.00  0.00    -0.063 NA 
HETATM    3  H   UNL     1      -9.098   2.711  71.666  1.00  0.00     0.000 HD 
ENDROOT
BRANCH   2   4
HETATM    4  N   UNL     1      -8.624   4.680  71.223  1.00  0.00    -0.111 NA 
HETATM    5  H   UNL     1      -7.997   5.143  70.564  1.00  0.00     0.000 HD 
BRANCH   4   6
HETATM    6  C   UNL     1     -10.039   4.814  70.829  1.00  0.00    -0.216 C  
BRANCH   6   7
HETATM    7  C   UNL     1     -10.289   6.164  70.189  1.00  0.00    -0.269 A  
HETATM    8  C   UNL     1     -10.298   6.298  68.792  1.00  0.00    -0.245 A  
HETATM    9  C   UNL     1     -10.462   7.552  68.200  1.00  0.00    -0.233 A  
HETATM   10  C   UNL     1     -10.626   8.694  68.993  1.00  0.00    -0.179 A  
HETATM   11  C   UNL     1     -10.501   7.305  70.978  1.00  0.00    -0.226 A  
HETATM   12  C   UNL     1     -10.674   8.562  70.386  1.00  0.00    -0.246 A  
BRANCH  10  13
HETATM   13  C   UNL     1     -10.754  10.012  68.309  1.00  0.00    -0.240 C  
HETATM   14  O   UNL     1     -11.006  10.057  67.109  1.00  0.00    -0.226 OA 
HETATM   15  N   UNL     1     -10.523  11.134  69.083  1.00  0.00    -0.306 N  
HETATM   16  H   UNL     1     -10.397  11.032  70.090  1.00  0.00     0.000 HD 
BRANCH  15  17
HETATM   17  C   UNL     1     -10.459  12.462  68.483  1.00  0.00    -0.228 C  
HETATM   18  C   UNL     1     -11.204  13.469  69.352  1.00  0.00    -0.244 C  
HETATM   19  C   UNL     1      -9.007  12.895  68.282  1.00  0.00    -0.175 C  
ENDBRANCH  15  17
ENDBRANCH  10  13
ENDBRANCH   6   7
ENDBRANCH   4   6
ENDBRANCH   2   4
TORSDOF 5
ENDMDL
MODEL      171
REMARK 921   NORMALIZED FREE ENERGY PREDICTED BY IDOCK:   -2.42 KCAL/MOL
REMARK 922        TOTAL FREE ENERGY PREDICTED BY IDOCK:   -3.51 KCAL/MOL
REMARK 923 INTER-LIGAND FREE ENERGY PREDICTED BY IDOCK:   -3.22 KCAL/MOL
REMARK 924 INTRA-LIGAND FREE ENERGY PREDICTED BY IDOCK:   -0.30 KCAL/MOL
REMARK 927      BINDING AFFINITY PREDICTED BY RF-SCORE:    0.00 PKD
ROOT
HETATM    1  C   UNL     1     -12.149  11.766  70.241  1.00  0.00    -0.342 C  
HETATM    2  N   UNL     1     -12.710  10.620  69.519  1.00  0.00    -0.617 NA 
HETATM    3  H   UNL     1     -12.546  10.670  68.514  1.00  0.00     0.000 HD 
ENDROOT
BRANCH   2   4
HETATM    4  N   UNL     1     -12.179   9.405  70.114  1.00  0.00    -0.379 NA 
HETATM    5  H   UNL     1     -12.230   8.611  69.475  1.00  0.00     0.000 HD 
BRANCH   4   6
HETATM    6  C   UNL     1     -10.805   9.641  70.594  1.00  0.00    -0.320 C  
BRANCH   6   7
HETATM    7  C   UNL     1     -10.084   8.328  70.818  1.00  0.00    -0.218 A  
HETATM    8  C   UNL     1     -10.007   7.375  69.790  1.00  0.00    -0.188 A  
HETATM    9  C   UNL     1      -9.402   6.137  70.013  1.00  0.00    -0.166 A  
HETATM   10  C   UNL     1      -8.858   5.830  71.267  1.00  0.00    -0.139 A  
HETATM   11  C   UNL     1      -9.495   8.033  72.057  1.00  0.00    -0.257 A  
HETATM   12  C   UNL     1      -8.881   6.795  72.281  1.00  0.00    -0.135 A  
BRANCH  10  13
HETATM   13  C   UNL     1      -8.262   4.478  71.462  1.00  0.00    -0.101 C  
HETATM   14  O   UNL     1      -7.634   3.948  70.552  1.00  0.00    -0.044 OA 
HETATM   15  N   UNL     1      -8.508   3.866  72.677  1.00  0.00    -0.097 N  
HETATM   16  H   UNL     1      -8.969   4.391  73.420  1.00  0.00     0.000 HD 
BRANCH  15  17
HETATM   17  C   UNL     1      -8.115   2.481  72.914  1.00  0.00    -0.058 C  
HETATM   18  C   UNL     1      -7.870   2.250  74.401  1.00  0.00    -0.046 C  
HETATM   19  C   UNL     1      -9.182   1.519  72.390  1.00  0.00    -0.111 C  
ENDBRANCH  15  17
ENDBRANCH  10  13
ENDBRANCH   6   7
ENDBRANCH   4   6
ENDBRANCH   2   4
TORSDOF 5
ENDMDL
MODEL      172
REMARK 921   NORMALIZED FREE ENERGY PREDICTED BY IDOCK:   -2.37 KCAL/MOL
REMARK 922        TOTAL FREE ENERGY PREDICTED BY IDOCK:   -3.46 KCAL/MOL
REMARK 923 INTER-LIGAND FREE ENERGY PREDICTED BY IDOCK:   -3.20 KCAL/MOL
REMARK 924 INTRA-LIGAND FREE ENERGY PREDICTED BY IDOCK:   -0.25 KCAL/MOL
REMARK 927      BINDING AFFINITY PREDICTED BY RF-SCORE:    0.00 PKD
ROOT
HETATM    1  C   UNL     1     -13.907   8.361  71.878  1.00  0.00    -0.408 C  
HETATM    2  N   UNL     1     -13.309   7.632  70.757  1.00  0.00    -0.426 NA 
HETATM    3  H   UNL     1     -13.613   7.986  69.850  1.00  0.00     0.000 HD 
ENDROOT
BRANCH   2   4
HETATM    4  N   UNL     1     -11.864   7.661  70.915  1.00  0.00    -0.372 NA 
HETATM    5  H   UNL     1     -11.386   7.159  70.166  1.00  0.00     0.000 HD 
BRANCH   4   6
HETATM    6  C   UNL     1     -11.401   9.055  71.032  1.00  0.00    -0.297 C  
BRANCH   6   7
HETATM    7  C   UNL     1     -10.722   9.501  69.753  1.00  0.00    -0.259 A  
HETATM    8  C   UNL     1     -11.405   9.445  68.529  1.00  0.00     0.270 A  
HETATM    9  C   UNL     1     -10.762   9.792  67.339  1.00  0.00    -0.314 A  
HETATM   10  C   UNL     1      -9.424  10.207  67.353  1.00  0.00    -0.175 A  
HETATM   11  C   UNL     1      -9.397   9.963  69.766  1.00  0.00    -0.248 A  
HETATM   12  C   UNL     1      -8.752  10.319  68.576  1.00  0.00    -0.130 A  
BRANCH  10  13
HETATM   13  C   UNL     1      -8.774  10.524  66.050  1.00  0.00    -0.164 C  
HETATM   14  O   UNL     1      -9.059  11.560  65.459  1.00  0.00    -0.187 OA 
HETATM   15  N   UNL     1      -7.901   9.575  65.550  1.00  0.00    -0.106 N  
HETATM   16  H   UNL     1      -7.647   8.773  66.126  1.00  0.00     0.000 HD 
BRANCH  15  17
HETATM   17  C   UNL     1      -7.337   9.704  64.210  1.00  0.00    -0.122 C  
HETATM   18  C   UNL     1      -6.021   8.941  64.118  1.00  0.00    -0.071 C  
HETATM   19  C   UNL     1      -8.325   9.203  63.157  1.00  0.00    -0.193 C  
ENDBRANCH  15  17
ENDBRANCH  10  13
ENDBRANCH   6   7
ENDBRANCH   4   6
ENDBRANCH   2   4
TORSDOF 5
ENDMDL
MODEL      173
REMARK 921   NORMALIZED FREE ENERGY PREDICTED BY IDOCK:   -2.29 KCAL/MOL
REMARK 922        TOTAL FREE ENERGY PREDICTED BY IDOCK:   -3.34 KCAL/MOL
REMARK 923 INTER-LIGAND FREE ENERGY PREDICTED BY IDOCK:   -3.63 KCAL/MOL
REMARK 924 INTRA-LIGAND FREE ENERGY PREDICTED BY IDOCK:    0.28 KCAL/MOL
REMARK 927      BINDING AFFINITY PREDICTED BY RF-SCORE:    0.00 PKD
ROOT
HETATM    1  C   UNL     1     -12.147  12.997  70.376  1.00  0.00    -0.314 C  
HETATM    2  N   UNL     1     -11.879  13.363  68.983  1.00  0.00    -0.322 NA 
HETATM    3  H   UNL     1     -11.417  14.268  68.895  1.00  0.00     0.000 HD 
ENDROOT
BRANCH   2   4
HETATM    4  N   UNL     1     -11.122  12.285  68.368  1.00  0.00    -0.225 NA 
HETATM    5  H   UNL     1     -10.115  12.420  68.466  1.00  0.00     0.000 HD 
BRANCH   4   6
HETATM    6  C   UNL     1     -11.563  10.989  68.914  1.00  0.00    -0.314 C  
BRANCH   6   7
HETATM    7  C   UNL     1     -10.822   9.848  68.247  1.00  0.00    -0.275 A  
HETATM    8  C   UNL     1     -10.435   9.943  66.901  1.00  0.00    -0.284 A  
HETATM    9  C   UNL     1      -9.811   8.869  66.263  1.00  0.00    -0.355 A  
HETATM   10  C   UNL     1      -9.557   7.682  66.962  1.00  0.00    -0.228 A  
HETATM   11  C   UNL     1     -10.522   8.674  68.954  1.00  0.00    -0.211 A  
HETATM   12  C   UNL     1      -9.889   7.598  68.320  1.00  0.00    -0.181 A  
BRANCH  10  13
HETATM   13  C   UNL     1      -8.928   6.552  66.221  1.00  0.00    -0.156 C  
HETATM   14  O   UNL     1      -8.601   5.533  66.820  1.00  0.00    -0.111 OA 
HETATM   15  N   UNL     1      -8.699   6.750  64.872  1.00  0.00    -0.347 N  
HETATM   16  H   UNL     1      -9.065   7.587  64.418  1.00  0.00     0.000 HD 
BRANCH  15  17
HETATM   17  C   UNL     1      -7.942   5.781  64.087  1.00  0.00    -0.122 C  
HETATM   18  C   UNL     1      -6.577   5.540  64.723  1.00  0.00    -0.043 C  
HETATM   19  C   UNL     1      -8.714   4.468  63.958  1.00  0.00    -0.139 C  
ENDBRANCH  15  17
ENDBRANCH  10  13
ENDBRANCH   6   7
ENDBRANCH   4   6
ENDBRANCH   2   4
TORSDOF 5
ENDMDL
MODEL      174
REMARK 921   NORMALIZED FREE ENERGY PREDICTED BY IDOCK:   -2.22 KCAL/MOL
REMARK 922        TOTAL FREE ENERGY PREDICTED BY IDOCK:   -3.26 KCAL/MOL
REMARK 923 INTER-LIGAND FREE ENERGY PREDICTED BY IDOCK:   -2.99 KCAL/MOL
REMARK 924 INTRA-LIGAND FREE ENERGY PREDICTED BY IDOCK:   -0.27 KCAL/MOL
REMARK 927      BINDING AFFINITY PREDICTED BY RF-SCORE:    0.00 PKD
ROOT
HETATM    1  C   UNL     1      -7.730  16.792  66.686  1.00  0.00    -0.273 C  
HETATM    2  N   UNL     1      -8.324  16.221  67.897  1.00  0.00    -0.164 NA 
HETATM    3  H   UNL     1      -8.379  16.893  68.663  1.00  0.00     0.000 HD 
ENDROOT
BRANCH   2   4
HETATM    4  N   UNL     1      -9.620  15.663  67.548  1.00  0.00    -0.223 NA 
HETATM    5  H   UNL     1     -10.349  16.377  67.513  1.00  0.00     0.000 HD 
BRANCH   4   6
HETATM    6  C   UNL     1      -9.518  14.915  66.281  1.00  0.00    -0.309 C  
BRANCH   6   7
HETATM    7  C   UNL     1      -9.638  13.426  66.529  1.00  0.00    -0.277 A  
HETATM    8  C   UNL     1     -10.356  12.613  65.639  1.00  0.00    -0.293 A  
HETATM    9  C   UNL     1     -10.526  11.252  65.898  1.00  0.00    -0.314 A  
HETATM   10  C   UNL     1      -9.975  10.677  67.051  1.00  0.00    -0.243 A  
HETATM   11  C   UNL     1      -9.049  12.835  67.657  1.00  0.00    -0.193 A  
HETATM   12  C   UNL     1      -9.210  11.468  67.916  1.00  0.00    -0.168 A  
BRANCH  10  13
HETATM   13  C   UNL     1     -10.223   9.228  67.300  1.00  0.00    -0.252 C  
HETATM   14  O   UNL     1     -10.899   8.880  68.262  1.00  0.00    -0.127 OA 
HETATM   15  N   UNL     1      -9.614   8.340  66.434  1.00  0.00    -0.276 N  
HETATM   16  H   UNL     1      -9.130   8.695  65.609  1.00  0.00     0.000 HD 
BRANCH  15  17
HETATM   17  C   UNL     1      -9.652   6.903  66.680  1.00  0.00    -0.168 C  
HETATM   18  C   UNL     1      -9.475   6.140  65.372  1.00  0.00     0.406 C  
HETATM   19  C   UNL     1      -8.577   6.498  67.688  1.00  0.00    -0.116 C  
ENDBRANCH  15  17
ENDBRANCH  10  13
ENDBRANCH   6   7
ENDBRANCH   4   6
ENDBRANCH   2   4
TORSDOF 5
ENDMDL
MODEL      175
REMARK 921   NORMALIZED FREE ENERGY PREDICTED BY IDOCK:   -2.19 KCAL/MOL
REMARK 922        TOTAL FREE ENERGY PREDICTED BY IDOCK:   -3.22 KCAL/MOL
REMARK 923 INTER-LIGAND FREE ENERGY PREDICTED BY IDOCK:   -2.93 KCAL/MOL
REMARK 924 INTRA-LIGAND FREE ENERGY PREDICTED BY IDOCK:   -0.29 KCAL/MOL
REMARK 927      BINDING AFFINITY PREDICTED BY RF-SCORE:    0.00 PKD
ROOT
HETATM    1  C   UNL     1     -10.817   3.051  63.413  1.00  0.00    -0.216 C  
HETATM    2  N   UNL     1      -9.983   2.674  64.557  1.00  0.00    -0.344 NA 
HETATM    3  H   UNL     1      -9.019   2.470  64.291  1.00  0.00     0.000 HD 
ENDROOT
BRANCH   2   4
HETATM    4  N   UNL     1     -10.077   3.728  65.554  1.00  0.00    -0.411 NA 
HETATM    5  H   UNL     1     -11.039   4.042  65.690  1.00  0.00     0.000 HD 
BRANCH   4   6
HETATM    6  C   UNL     1      -9.459   3.280  66.815  1.00  0.00    -0.105 C  
BRANCH   6   7
HETATM    7  C   UNL     1      -9.361   4.428  67.799  1.00  0.00    -0.190 A  
HETATM    8  C   UNL     1      -9.148   5.738  67.344  1.00  0.00    -0.110 A  
HETATM    9  C   UNL     1      -8.991   6.789  68.249  1.00  0.00    -0.123 A  
HETATM   10  C   UNL     1      -9.048   6.549  69.628  1.00  0.00    -0.141 A  
HETATM   11  C   UNL     1      -9.465   4.202  69.180  1.00  0.00    -0.248 A  
HETATM   12  C   UNL     1      -9.315   5.255  70.091  1.00  0.00    -0.202 A  
BRANCH  10  13
HETATM   13  C   UNL     1      -8.831   7.700  70.550  1.00  0.00    -0.149 C  
HETATM   14  O   UNL     1      -9.006   8.846  70.151  1.00  0.00    -0.150 OA 
HETATM   15  N   UNL     1      -8.381   7.395  71.822  1.00  0.00    -0.106 N  
HETATM   16  H   UNL     1      -8.331   6.420  72.116  1.00  0.00     0.000 HD 
BRANCH  15  17
HETATM   17  C   UNL     1      -7.979   8.446  72.750  1.00  0.00    -0.095 C  
HETATM   18  C   UNL     1      -8.233   8.005  74.187  1.00  0.00    -0.318 C  
HETATM   19  C   UNL     1      -6.507   8.808  72.551  1.00  0.00    -0.019 C  
ENDBRANCH  15  17
ENDBRANCH  10  13
ENDBRANCH   6   7
ENDBRANCH   4   6
ENDBRANCH   2   4
TORSDOF 5
ENDMDL
MODEL      176
REMARK 921   NORMALIZED FREE ENERGY PREDICTED BY IDOCK:   -2.19 KCAL/MOL
REMARK 922        TOTAL FREE ENERGY PREDICTED BY IDOCK:   -3.22 KCAL/MOL
REMARK 923 INTER-LIGAND FREE ENERGY PREDICTED BY IDOCK:   -2.85 KCAL/MOL
REMARK 924 INTRA-LIGAND FREE ENERGY PREDICTED BY IDOCK:   -0.36 KCAL/MOL
REMARK 927      BINDING AFFINITY PREDICTED BY RF-SCORE:    0.00 PKD
ROOT
HETATM    1  C   UNL     1     -12.263  10.828  71.542  1.00  0.00    -0.199 C  
HETATM    2  N   UNL     1     -13.335   9.920  71.124  1.00  0.00    -0.454 NA 
HETATM    3  H   UNL     1     -13.820  10.244  70.287  1.00  0.00     0.000 HD 
ENDROOT
BRANCH   2   4
HETATM    4  N   UNL     1     -12.767   8.591  70.964  1.00  0.00    -0.494 NA 
HETATM    5  H   UNL     1     -12.627   8.349  69.983  1.00  0.00     0.000 HD 
BRANCH   4   6
HETATM    6  C   UNL     1     -11.522   8.482  71.746  1.00  0.00    -0.310 C  
BRANCH   6   7
HETATM    7  C   UNL     1     -10.479   7.695  70.980  1.00  0.00    -0.218 A  
HETATM    8  C   UNL     1      -9.717   8.313  69.976  1.00  0.00    -0.176 A  
HETATM    9  C   UNL     1      -8.802   7.576  69.223  1.00  0.00    -0.136 A  
HETATM   10  C   UNL     1      -8.627   6.207  69.463  1.00  0.00    -0.127 A  
HETATM   11  C   UNL     1     -10.264   6.334  71.248  1.00  0.00    -0.238 A  
HETATM   12  C   UNL     1      -9.341   5.594  70.499  1.00  0.00    -0.194 A  
BRANCH  10  13
HETATM   13  C   UNL     1      -7.668   5.459  68.600  1.00  0.00    -0.084 C  
HETATM   14  O   UNL     1      -7.232   5.978  67.578  1.00  0.00    -0.073 OA 
HETATM   15  N   UNL     1      -7.362   4.170  68.993  1.00  0.00    -0.054 N  
HETATM   16  H   UNL     1      -7.696   3.826  69.893  1.00  0.00     0.000 HD 
BRANCH  15  17
HETATM   17  C   UNL     1      -6.568   3.292  68.139  1.00  0.00    -0.037 C  
HETATM   18  C   UNL     1      -5.186   3.078  68.746  1.00  0.00    -0.012 C  
HETATM   19  C   UNL     1      -7.277   1.954  67.931  1.00  0.00    -0.047 C  
ENDBRANCH  15  17
ENDBRANCH  10  13
ENDBRANCH   6   7
ENDBRANCH   4   6
ENDBRANCH   2   4
TORSDOF 5
ENDMDL
MODEL      177
REMARK 921   NORMALIZED FREE ENERGY PREDICTED BY IDOCK:   -2.12 KCAL/MOL
REMARK 922        TOTAL FREE ENERGY PREDICTED BY IDOCK:   -3.13 KCAL/MOL
REMARK 923 INTER-LIGAND FREE ENERGY PREDICTED BY IDOCK:   -2.78 KCAL/MOL
REMARK 924 INTRA-LIGAND FREE ENERGY PREDICTED BY IDOCK:   -0.35 KCAL/MOL
REMARK 927      BINDING AFFINITY PREDICTED BY RF-SCORE:    0.00 PKD
ROOT
HETATM    1  C   UNL     1     -10.311  10.795  65.203  1.00  0.00    -0.271 C  
HETATM    2  N   UNL     1     -10.703  10.755  66.614  1.00  0.00    -0.236 NA 
HETATM    3  H   UNL     1     -11.709  10.639  66.740  1.00  0.00     0.000 HD 
ENDROOT
BRANCH   2   4
HETATM    4  N   UNL     1      -9.932   9.711  67.270  1.00  0.00    -0.185 NA 
HETATM    5  H   UNL     1      -9.738   9.934  68.247  1.00  0.00     0.000 HD 
BRANCH   4   6
HETATM    6  C   UNL     1     -10.620   8.415  67.125  1.00  0.00    -0.256 C  
BRANCH   6   7
HETATM    7  C   UNL     1     -10.191   7.457  68.217  1.00  0.00    -0.213 A  
HETATM    8  C   UNL     1      -9.129   7.786  69.074  1.00  0.00    -0.144 A  
HETATM    9  C   UNL     1      -8.687   6.879  70.038  1.00  0.00    -0.142 A  
HETATM   10  C   UNL     1      -9.302   5.627  70.168  1.00  0.00    -0.188 A  
HETATM   11  C   UNL     1     -10.834   6.221  68.383  1.00  0.00    -0.394 A  
HETATM   12  C   UNL     1     -10.398   5.312  69.355  1.00  0.00    -0.313 A  
BRANCH  10  13
HETATM   13  C   UNL     1      -8.762   4.681  71.185  1.00  0.00    -0.116 C  
HETATM   14  O   UNL     1      -9.509   3.871  71.725  1.00  0.00    -0.125 OA 
HETATM   15  N   UNL     1      -7.423   4.814  71.502  1.00  0.00    -0.075 N  
HETATM   16  H   UNL     1      -6.840   5.452  70.961  1.00  0.00     0.000 HD 
BRANCH  15  17
HETATM   17  C   UNL     1      -6.831   4.055  72.598  1.00  0.00    -0.050 C  
HETATM   18  C   UNL     1      -5.479   3.489  72.175  1.00  0.00    -0.004 C  
HETATM   19  C   UNL     1      -6.682   4.929  73.843  1.00  0.00    -0.070 C  
ENDBRANCH  15  17
ENDBRANCH  10  13
ENDBRANCH   6   7
ENDBRANCH   4   6
ENDBRANCH   2   4
TORSDOF 5
ENDMDL
MODEL      178
REMARK 921   NORMALIZED FREE ENERGY PREDICTED BY IDOCK:   -2.10 KCAL/MOL
REMARK 922        TOTAL FREE ENERGY PREDICTED BY IDOCK:   -3.11 KCAL/MOL
REMARK 923 INTER-LIGAND FREE ENERGY PREDICTED BY IDOCK:   -2.86 KCAL/MOL
REMARK 924 INTRA-LIGAND FREE ENERGY PREDICTED BY IDOCK:   -0.24 KCAL/MOL
REMARK 927      BINDING AFFINITY PREDICTED BY RF-SCORE:    0.00 PKD
ROOT
HETATM    1  C   UNL     1     -10.077   2.950  71.993  1.00  0.00    -0.114 C  
HETATM    2  N   UNL     1      -9.280   3.850  71.155  1.00  0.00    -0.121 NA 
HETATM    3  H   UNL     1      -9.854   4.424  70.537  1.00  0.00     0.000 HD 
ENDROOT
BRANCH   2   4
HETATM    4  N   UNL     1      -8.427   4.644  72.025  1.00  0.00    -0.116 NA 
HETATM    5  H   UNL     1      -7.894   4.063  72.673  1.00  0.00     0.000 HD 
BRANCH   4   6
HETATM    6  C   UNL     1      -7.555   5.512  71.214  1.00  0.00    -0.099 C  
BRANCH   6   7
HETATM    7  C   UNL     1      -8.368   6.580  70.511  1.00  0.00    -0.133 A  
HETATM    8  C   UNL     1      -8.335   6.693  69.113  1.00  0.00    -0.124 A  
HETATM    9  C   UNL     1      -9.030   7.716  68.466  1.00  0.00    -0.129 A  
HETATM   10  C   UNL     1      -9.775   8.643  69.205  1.00  0.00    -0.173 A  
HETATM   11  C   UNL     1      -9.154   7.482  71.243  1.00  0.00    -0.147 A  
HETATM   12  C   UNL     1      -9.859   8.505  70.596  1.00  0.00    -0.218 A  
BRANCH  10  13
HETATM   13  C   UNL     1     -10.462   9.741  68.467  1.00  0.00    -0.210 C  
HETATM   14  O   UNL     1     -11.451  10.279  68.952  1.00  0.00    -0.213 OA 
HETATM   15  N   UNL     1      -9.955  10.057  67.221  1.00  0.00    -0.188 N  
HETATM   16  H   UNL     1      -9.084   9.627  66.909  1.00  0.00     0.000 HD 
BRANCH  15  17
HETATM   17  C   UNL     1     -10.646  10.997  66.344  1.00  0.00    -0.251 C  
HETATM   18  C   UNL     1     -10.398  12.428  66.808  1.00  0.00    -0.239 C  
HETATM   19  C   UNL     1     -10.195  10.816  64.895  1.00  0.00    -0.388 C  
ENDBRANCH  15  17
ENDBRANCH  10  13
ENDBRANCH   6   7
ENDBRANCH   4   6
ENDBRANCH   2   4
TORSDOF 5
ENDMDL
MODEL      179
REMARK 921   NORMALIZED FREE ENERGY PREDICTED BY IDOCK:   -2.08 KCAL/MOL
REMARK 922        TOTAL FREE ENERGY PREDICTED BY IDOCK:   -3.08 KCAL/MOL
REMARK 923 INTER-LIGAND FREE ENERGY PREDICTED BY IDOCK:   -2.76 KCAL/MOL
REMARK 924 INTRA-LIGAND FREE ENERGY PREDICTED BY IDOCK:   -0.32 KCAL/MOL
REMARK 927      BINDING AFFINITY PREDICTED BY RF-SCORE:    0.00 PKD
ROOT
HETATM    1  C   UNL     1     -10.870   3.894  64.818  1.00  0.00    -0.012 C  
HETATM    2  N   UNL     1     -10.662   4.505  66.133  1.00  0.00    -0.500 NA 
HETATM    3  H   UNL     1      -9.730   4.326  66.507  1.00  0.00     0.000 HD 
ENDROOT
BRANCH   2   4
HETATM    4  N   UNL     1     -10.961   5.924  66.027  1.00  0.00    -0.484 NA 
HETATM    5  H   UNL     1     -11.768   6.103  65.428  1.00  0.00     0.000 HD 
BRANCH   4   6
HETATM    6  C   UNL     1     -11.132   6.501  67.373  1.00  0.00    -0.327 C  
BRANCH   6   7
HETATM    7  C   UNL     1     -10.454   7.853  67.465  1.00  0.00    -0.332 A  
HETATM    8  C   UNL     1      -9.359   8.156  66.641  1.00  0.00    -0.250 A  
HETATM    9  C   UNL     1      -8.689   9.374  66.768  1.00  0.00    -0.138 A  
HETATM   10  C   UNL     1      -9.105  10.314  67.719  1.00  0.00    -0.138 A  
HETATM   11  C   UNL     1     -10.896   8.818  68.382  1.00  0.00    -0.019 A  
HETATM   12  C   UNL     1     -10.231  10.044  68.506  1.00  0.00    -0.196 A  
BRANCH  10  13
HETATM   13  C   UNL     1      -8.328  11.580  67.841  1.00  0.00    -0.136 C  
HETATM   14  O   UNL     1      -8.091  12.253  66.844  1.00  0.00    -0.163 OA 
HETATM   15  N   UNL     1      -7.864  11.899  69.104  1.00  0.00    -0.343 N  
HETATM   16  H   UNL     1      -8.161  11.340  69.904  1.00  0.00     0.000 HD 
BRANCH  15  17
HETATM   17  C   UNL     1      -6.956  13.022  69.311  1.00  0.00     0.033 C  
HETATM   18  C   UNL     1      -7.730  14.239  69.808  1.00  0.00     0.400 C  
HETATM   19  C   UNL     1      -5.850  12.650  70.297  1.00  0.00    -0.156 C  
ENDBRANCH  15  17
ENDBRANCH  10  13
ENDBRANCH   6   7
ENDBRANCH   4   6
ENDBRANCH   2   4
TORSDOF 5
ENDMDL
MODEL      180
REMARK 921   NORMALIZED FREE ENERGY PREDICTED BY IDOCK:   -2.03 KCAL/MOL
REMARK 922        TOTAL FREE ENERGY PREDICTED BY IDOCK:   -3.01 KCAL/MOL
REMARK 923 INTER-LIGAND FREE ENERGY PREDICTED BY IDOCK:   -3.24 KCAL/MOL
REMARK 924 INTRA-LIGAND FREE ENERGY PREDICTED BY IDOCK:    0.23 KCAL/MOL
REMARK 927      BINDING AFFINITY PREDICTED BY RF-SCORE:    0.00 PKD
ROOT
HETATM    1  C   UNL     1     -10.407  15.512  65.105  1.00  0.00    -0.356 C  
HETATM    2  N   UNL     1      -9.850  14.276  65.660  1.00  0.00    -0.481 NA 
HETATM    3  H   UNL     1      -9.299  14.437  66.504  1.00  0.00     0.000 HD 
ENDROOT
BRANCH   2   4
HETATM    4  N   UNL     1     -10.942  13.341  65.875  1.00  0.00    -0.274 NA 
HETATM    5  H   UNL     1     -11.820  13.681  65.482  1.00  0.00     0.000 HD 
BRANCH   4   6
HETATM    6  C   UNL     1     -10.576  12.014  65.346  1.00  0.00    -0.278 C  
BRANCH   6   7
HETATM    7  C   UNL     1     -10.017  11.136  66.446  1.00  0.00    -0.257 A  
HETATM    8  C   UNL     1     -10.314   9.765  66.481  1.00  0.00    -0.262 A  
HETATM    9  C   UNL     1      -9.856   8.965  67.529  1.00  0.00    -0.237 A  
HETATM   10  C   UNL     1      -9.087   9.520  68.559  1.00  0.00    -0.131 A  
HETATM   11  C   UNL     1      -9.206  11.676  67.455  1.00  0.00    -0.172 A  
HETATM   12  C   UNL     1      -8.738  10.875  68.504  1.00  0.00    -0.153 A  
BRANCH  10  13
HETATM   13  C   UNL     1      -8.661   8.629  69.676  1.00  0.00    -0.131 C  
HETATM   14  O   UNL     1      -8.621   9.061  70.823  1.00  0.00    -0.180 OA 
HETATM   15  N   UNL     1      -8.276   7.347  69.329  1.00  0.00    -0.129 N  
HETATM   16  H   UNL     1      -8.407   7.025  68.370  1.00  0.00     0.000 HD 
BRANCH  15  17
HETATM   17  C   UNL     1      -7.686   6.447  70.314  1.00  0.00    -0.098 C  
HETATM   18  C   UNL     1      -7.355   5.105  69.669  1.00  0.00    -0.061 C  
HETATM   19  C   UNL     1      -6.435   7.068  70.934  1.00  0.00    -0.044 C  
ENDBRANCH  15  17
ENDBRANCH  10  13
ENDBRANCH   6   7
ENDBRANCH   4   6
ENDBRANCH   2   4
TORSDOF 5
ENDMDL
MODEL      181
REMARK 921   NORMALIZED FREE ENERGY PREDICTED BY IDOCK:   -2.01 KCAL/MOL
REMARK 922        TOTAL FREE ENERGY PREDICTED BY IDOCK:   -2.99 KCAL/MOL
REMARK 923 INTER-LIGAND FREE ENERGY PREDICTED BY IDOCK:   -2.67 KCAL/MOL
REMARK 924 INTRA-LIGAND FREE ENERGY PREDICTED BY IDOCK:   -0.32 KCAL/MOL
REMARK 927      BINDING AFFINITY PREDICTED BY RF-SCORE:    0.00 PKD
ROOT
HETATM    1  C   UNL     1     -10.965   2.404  63.005  1.00  0.00    -0.231 C  
HETATM    2  N   UNL     1      -9.880   2.028  63.915  1.00  0.00    -0.134 NA 
HETATM    3  H   UNL     1      -8.979   1.951  63.442  1.00  0.00     0.000 HD 
ENDROOT
BRANCH   2   4
HETATM    4  N   UNL     1      -9.856   2.981  65.013  1.00  0.00    -0.364 NA 
HETATM    5  H   UNL     1     -10.741   3.002  65.521  1.00  0.00     0.000 HD 
BRANCH   4   6
HETATM    6  C   UNL     1      -8.715   2.693  65.901  1.00  0.00    -0.127 C  
BRANCH   6   7
HETATM    7  C   UNL     1      -8.952   3.272  67.280  1.00  0.00    -0.180 A  
HETATM    8  C   UNL     1      -9.734   4.426  67.442  1.00  0.00    -0.217 A  
HETATM    9  C   UNL     1      -9.900   5.001  68.703  1.00  0.00    -0.227 A  
HETATM   10  C   UNL     1      -9.292   4.430  69.828  1.00  0.00    -0.224 A  
HETATM   11  C   UNL     1      -8.385   2.677  68.417  1.00  0.00    -0.085 A  
HETATM   12  C   UNL     1      -8.556   3.247  69.685  1.00  0.00    -0.112 A  
BRANCH  10  13
HETATM   13  C   UNL     1      -9.467   5.109  71.143  1.00  0.00    -0.153 C  
HETATM   14  O   UNL     1     -10.339   5.961  71.280  1.00  0.00    -0.205 OA 
HETATM   15  N   UNL     1      -8.575   4.762  72.140  1.00  0.00    -0.119 N  
HETATM   16  H   UNL     1      -7.925   3.991  71.986  1.00  0.00     0.000 HD 
BRANCH  15  17
HETATM   17  C   UNL     1      -8.549   5.480  73.409  1.00  0.00    -0.115 C  
HETATM   18  C   UNL     1      -8.302   4.509  74.559  1.00  0.00    -0.097 C  
HETATM   19  C   UNL     1      -7.481   6.573  73.391  1.00  0.00    -0.085 C  
ENDBRANCH  15  17
ENDBRANCH  10  13
ENDBRANCH   6   7
ENDBRANCH   4   6
ENDBRANCH   2   4
TORSDOF 5
ENDMDL
MODEL      182
REMARK 921   NORMALIZED FREE ENERGY PREDICTED BY IDOCK:   -1.96 KCAL/MOL
REMARK 922        TOTAL FREE ENERGY PREDICTED BY IDOCK:   -2.93 KCAL/MOL
REMARK 923 INTER-LIGAND FREE ENERGY PREDICTED BY IDOCK:   -2.60 KCAL/MOL
REMARK 924 INTRA-LIGAND FREE ENERGY PREDICTED BY IDOCK:   -0.32 KCAL/MOL
REMARK 927      BINDING AFFINITY PREDICTED BY RF-SCORE:    0.00 PKD
ROOT
HETATM    1  C   UNL     1     -11.071   2.341  63.046  1.00  0.00    -0.236 C  
HETATM    2  N   UNL     1     -10.144   1.674  63.964  1.00  0.00    -0.279 NA 
HETATM    3  H   UNL     1      -9.296   1.349  63.500  1.00  0.00     0.000 HD 
ENDROOT
BRANCH   2   4
HETATM    4  N   UNL     1      -9.867   2.580  65.068  1.00  0.00    -0.354 NA 
HETATM    5  H   UNL     1     -10.721   2.893  65.530  1.00  0.00     0.000 HD 
BRANCH   4   6
HETATM    6  C   UNL     1      -8.927   1.947  66.011  1.00  0.00    -0.097 C  
BRANCH   6   7
HETATM    7  C   UNL     1      -8.791   2.779  67.269  1.00  0.00    -0.164 A  
HETATM    8  C   UNL     1      -7.661   2.647  68.090  1.00  0.00    -0.055 A  
HETATM    9  C   UNL     1      -7.562   3.363  69.285  1.00  0.00    -0.051 A  
HETATM   10  C   UNL     1      -8.591   4.228  69.678  1.00  0.00    -0.103 A  
HETATM   11  C   UNL     1      -9.796   3.683  67.645  1.00  0.00     0.026 A  
HETATM   12  C   UNL     1      -9.697   4.408  68.839  1.00  0.00    -0.211 A  
BRANCH  10  13
HETATM   13  C   UNL     1      -8.453   4.934  70.984  1.00  0.00    -0.116 C  
HETATM   14  O   UNL     1      -7.406   4.852  71.617  1.00  0.00    -0.069 OA 
HETATM   15  N   UNL     1      -9.568   5.615  71.437  1.00  0.00    -0.151 N  
HETATM   16  H   UNL     1     -10.380   5.711  70.827  1.00  0.00     0.000 HD 
BRANCH  15  17
HETATM   17  C   UNL     1      -9.600   6.201  72.772  1.00  0.00    -0.155 C  
HETATM   18  C   UNL     1     -10.066   7.651  72.700  1.00  0.00    -0.298 C  
HETATM   19  C   UNL     1     -10.508   5.390  73.697  1.00  0.00    -0.291 C  
ENDBRANCH  15  17
ENDBRANCH  10  13
ENDBRANCH   6   7
ENDBRANCH   4   6
ENDBRANCH   2   4
TORSDOF 5
ENDMDL
MODEL      183
REMARK 921   NORMALIZED FREE ENERGY PREDICTED BY IDOCK:   -1.88 KCAL/MOL
REMARK 922        TOTAL FREE ENERGY PREDICTED BY IDOCK:   -2.82 KCAL/MOL
REMARK 923 INTER-LIGAND FREE ENERGY PREDICTED BY IDOCK:   -2.56 KCAL/MOL
REMARK 924 INTRA-LIGAND FREE ENERGY PREDICTED BY IDOCK:   -0.26 KCAL/MOL
REMARK 927      BINDING AFFINITY PREDICTED BY RF-SCORE:    0.00 PKD
ROOT
HETATM    1  C   UNL     1      -6.120   5.757  67.406  1.00  0.00    -0.022 C  
HETATM    2  N   UNL     1      -5.807   7.055  68.011  1.00  0.00    -0.024 NA 
HETATM    3  H   UNL     1      -4.807   7.188  68.161  1.00  0.00     0.000 HD 
ENDROOT
BRANCH   2   4
HETATM    4  N   UNL     1      -6.393   8.095  67.183  1.00  0.00    -0.055 NA 
HETATM    5  H   UNL     1      -7.391   7.945  67.027  1.00  0.00     0.000 HD 
BRANCH   4   6
HETATM    6  C   UNL     1      -6.118   9.418  67.772  1.00  0.00    -0.053 C  
BRANCH   6   7
HETATM    7  C   UNL     1      -7.271  10.367  67.518  1.00  0.00    -0.087 A  
HETATM    8  C   UNL     1      -7.028  11.696  67.138  1.00  0.00    -0.144 A  
HETATM    9  C   UNL     1      -8.086  12.591  66.968  1.00  0.00    -0.105 A  
HETATM   10  C   UNL     1      -9.407  12.173  67.170  1.00  0.00    -0.193 A  
HETATM   11  C   UNL     1      -8.599   9.942  67.672  1.00  0.00    -0.122 A  
HETATM   12  C   UNL     1      -9.663  10.835  67.495  1.00  0.00    -0.188 A  
BRANCH  10  13
HETATM   13  C   UNL     1     -10.494  13.181  67.017  1.00  0.00    -0.248 C  
HETATM   14  O   UNL     1     -11.646  12.813  66.815  1.00  0.00    -0.330 OA 
HETATM   15  N   UNL     1     -10.114  14.510  67.063  1.00  0.00    -0.252 N  
HETATM   16  H   UNL     1      -9.154  14.749  67.312  1.00  0.00     0.000 HD 
BRANCH  15  17
HETATM   17  C   UNL     1     -11.064  15.575  66.761  1.00  0.00    -0.206 C  
HETATM   18  C   UNL     1     -10.573  16.898  67.339  1.00  0.00    -0.294 C  
HETATM   19  C   UNL     1     -11.281  15.695  65.253  1.00  0.00    -0.236 C  
ENDBRANCH  15  17
ENDBRANCH  10  13
ENDBRANCH   6   7
ENDBRANCH   4   6
ENDBRANCH   2   4
TORSDOF 5
ENDMDL
MODEL      184
REMARK 921   NORMALIZED FREE ENERGY PREDICTED BY IDOCK:   -1.74 KCAL/MOL
REMARK 922        TOTAL FREE ENERGY PREDICTED BY IDOCK:   -2.64 KCAL/MOL
REMARK 923 INTER-LIGAND FREE ENERGY PREDICTED BY IDOCK:   -2.45 KCAL/MOL
REMARK 924 INTRA-LIGAND FREE ENERGY PREDICTED BY IDOCK:   -0.20 KCAL/MOL
REMARK 927      BINDING AFFINITY PREDICTED BY RF-SCORE:    0.00 PKD
ROOT
HETATM    1  C   UNL     1      -9.910   1.910  69.762  1.00  0.00     0.252 C  
HETATM    2  N   UNL     1      -8.857   2.571  68.987  1.00  0.00    -0.086 NA 
HETATM    3  H   UNL     1      -9.187   3.412  68.512  1.00  0.00     0.000 HD 
ENDROOT
BRANCH   2   4
HETATM    4  N   UNL     1      -7.736   2.832  69.875  1.00  0.00    -0.043 NA 
HETATM    5  H   UNL     1      -7.101   2.035  69.936  1.00  0.00     0.000 HD 
BRANCH   4   6
HETATM    6  C   UNL     1      -7.040   4.062  69.453  1.00  0.00    -0.046 C  
BRANCH   6   7
HETATM    7  C   UNL     1      -7.861   5.286  69.802  1.00  0.00    -0.073 A  
HETATM    8  C   UNL     1      -7.971   5.713  71.135  1.00  0.00    -0.112 A  
HETATM    9  C   UNL     1      -8.780   6.800  71.468  1.00  0.00    -0.127 A  
HETATM   10  C   UNL     1      -9.490   7.486  70.475  1.00  0.00    -0.164 A  
HETATM   11  C   UNL     1      -8.537   6.006  68.805  1.00  0.00    -0.112 A  
HETATM   12  C   UNL     1      -9.343   7.102  69.136  1.00  0.00    -0.141 A  
BRANCH  10  13
HETATM   13  C   UNL     1     -10.372   8.612  70.892  1.00  0.00    -0.211 C  
HETATM   14  O   UNL     1      -9.878   9.656  71.306  1.00  0.00    -0.153 OA 
HETATM   15  N   UNL     1     -11.734   8.383  70.833  1.00  0.00    -0.353 N  
HETATM   16  H   UNL     1     -12.081   7.524  70.406  1.00  0.00     0.000 HD 
BRANCH  15  17
HETATM   17  C   UNL     1     -12.684   9.351  71.372  1.00  0.00    -0.345 C  
HETATM   18  C   UNL     1     -12.851  10.518  70.404  1.00  0.00    -0.274 C  
HETATM   19  C   UNL     1     -14.032   8.688  71.653  1.00  0.00    -0.459 C  
ENDBRANCH  15  17
ENDBRANCH  10  13
ENDBRANCH   6   7
ENDBRANCH   4   6
ENDBRANCH   2   4
TORSDOF 5
ENDMDL
MODEL      185
REMARK 921   NORMALIZED FREE ENERGY PREDICTED BY IDOCK:   -1.55 KCAL/MOL
REMARK 922        TOTAL FREE ENERGY PREDICTED BY IDOCK:   -2.39 KCAL/MOL
REMARK 923 INTER-LIGAND FREE ENERGY PREDICTED BY IDOCK:   -2.18 KCAL/MOL
REMARK 924 INTRA-LIGAND FREE ENERGY PREDICTED BY IDOCK:   -0.20 KCAL/MOL
REMARK 927      BINDING AFFINITY PREDICTED BY RF-SCORE:    0.00 PKD
ROOT
HETATM    1  C   UNL     1      -9.405   9.338  70.487  1.00  0.00    -0.264 C  
HETATM    2  N   UNL     1     -10.554   8.831  71.242  1.00  0.00    -0.239 NA 
HETATM    3  H   UNL     1     -11.434   8.939  70.738  1.00  0.00     0.000 HD 
ENDROOT
BRANCH   2   4
HETATM    4  N   UNL     1     -10.283   7.451  71.610  1.00  0.00    -0.188 NA 
HETATM    5  H   UNL     1     -10.976   6.809  71.225  1.00  0.00     0.000 HD 
BRANCH   4   6
HETATM    6  C   UNL     1      -8.911   7.088  71.213  1.00  0.00    -0.133 C  
BRANCH   6   7
HETATM    7  C   UNL     1      -8.931   6.077  70.084  1.00  0.00    -0.150 A  
HETATM    8  C   UNL     1     -10.057   5.265  69.877  1.00  0.00    -0.333 A  
HETATM    9  C   UNL     1     -10.054   4.287  68.882  1.00  0.00     0.105 A  
HETATM   10  C   UNL     1      -8.927   4.106  68.070  1.00  0.00    -0.150 A  
HETATM   11  C   UNL     1      -7.823   5.923  69.237  1.00  0.00    -0.095 A  
HETATM   12  C   UNL     1      -7.821   4.948  68.232  1.00  0.00    -0.082 A  
BRANCH  10  13
HETATM   13  C   UNL     1      -8.963   3.018  67.051  1.00  0.00    -0.156 C  
HETATM   14  O   UNL     1      -9.162   1.860  67.399  1.00  0.00    -0.142 OA 
HETATM   15  N   UNL     1      -8.712   3.390  65.744  1.00  0.00    -0.118 N  
HETATM   16  H   UNL     1      -8.632   4.380  65.509  1.00  0.00     0.000 HD 
BRANCH  15  17
HETATM   17  C   UNL     1      -8.559   2.389  64.694  1.00  0.00    -0.093 C  
HETATM   18  C   UNL     1      -9.375   2.783  63.467  1.00  0.00    -0.098 C  
HETATM   19  C   UNL     1      -7.086   2.213  64.324  1.00  0.00    -0.048 C  
ENDBRANCH  15  17
ENDBRANCH  10  13
ENDBRANCH   6   7
ENDBRANCH   4   6
ENDBRANCH   2   4
TORSDOF 5
ENDMDL
MODEL      186
REMARK 921   NORMALIZED FREE ENERGY PREDICTED BY IDOCK:   -1.52 KCAL/MOL
REMARK 922        TOTAL FREE ENERGY PREDICTED BY IDOCK:   -2.36 KCAL/MOL
REMARK 923 INTER-LIGAND FREE ENERGY PREDICTED BY IDOCK:   -2.89 KCAL/MOL
REMARK 924 INTRA-LIGAND FREE ENERGY PREDICTED BY IDOCK:    0.53 KCAL/MOL
REMARK 927      BINDING AFFINITY PREDICTED BY RF-SCORE:    0.00 PKD
ROOT
HETATM    1  C   UNL     1      -6.287   9.214  65.012  1.00  0.00    -0.066 C  
HETATM    2  N   UNL     1      -5.432   9.989  65.915  1.00  0.00    -0.045 NA 
HETATM    3  H   UNL     1      -5.007  10.796  65.459  1.00  0.00     0.000 HD 
ENDROOT
BRANCH   2   4
HETATM    4  N   UNL     1      -6.218  10.355  67.082  1.00  0.00    -0.061 NA 
HETATM    5  H   UNL     1      -6.039   9.738  67.875  1.00  0.00     0.000 HD 
BRANCH   4   6
HETATM    6  C   UNL     1      -5.985  11.772  67.419  1.00  0.00    -0.105 C  
BRANCH   6   7
HETATM    7  C   UNL     1      -7.277  12.441  67.838  1.00  0.00    -0.110 A  
HETATM    8  C   UNL     1      -7.348  13.838  67.954  1.00  0.00    -0.155 A  
HETATM    9  C   UNL     1      -8.517  14.455  68.404  1.00  0.00    -0.165 A  
HETATM   10  C   UNL     1      -9.638  13.687  68.741  1.00  0.00    -0.017 A  
HETATM   11  C   UNL     1      -8.419  11.681  68.131  1.00  0.00    -0.156 A  
HETATM   12  C   UNL     1      -9.595  12.297  68.575  1.00  0.00    -0.128 A  
BRANCH  10  13
HETATM   13  C   UNL     1     -10.845  14.394  69.257  1.00  0.00    -0.239 C  
HETATM   14  O   UNL     1     -11.420  15.218  68.553  1.00  0.00    -0.309 OA 
HETATM   15  N   UNL     1     -11.221  14.105  70.556  1.00  0.00    -0.482 N  
HETATM   16  H   UNL     1     -10.749  13.354  71.060  1.00  0.00     0.000 HD 
BRANCH  15  17
HETATM   17  C   UNL     1     -12.282  14.857  71.217  1.00  0.00    -0.325 C  
HETATM   18  C   UNL     1     -11.715  16.126  71.845  1.00  0.00    -0.575 C  
HETATM   19  C   UNL     1     -13.398  15.199  70.230  1.00  0.00     0.049 C  
ENDBRANCH  15  17
ENDBRANCH  10  13
ENDBRANCH   6   7
ENDBRANCH   4   6
ENDBRANCH   2   4
TORSDOF 5
ENDMDL
MODEL      187
REMARK 921   NORMALIZED FREE ENERGY PREDICTED BY IDOCK:   -1.46 KCAL/MOL
REMARK 922        TOTAL FREE ENERGY PREDICTED BY IDOCK:   -2.28 KCAL/MOL
REMARK 923 INTER-LIGAND FREE ENERGY PREDICTED BY IDOCK:   -1.90 KCAL/MOL
REMARK 924 INTRA-LIGAND FREE ENERGY PREDICTED BY IDOCK:   -0.37 KCAL/MOL
REMARK 927      BINDING AFFINITY PREDICTED BY RF-SCORE:    0.00 PKD
ROOT
HETATM    1  C   UNL     1      -6.991  19.993  66.247  1.00  0.00    -0.245 C  
HETATM    2  N   UNL     1      -6.740  18.754  65.507  1.00  0.00    -0.406 NA 
HETATM    3  H   UNL     1      -5.746  18.573  65.369  1.00  0.00     0.000 HD 
ENDROOT
BRANCH   2   4
HETATM    4  N   UNL     1      -7.418  17.668  66.196  1.00  0.00    -0.386 NA 
HETATM    5  H   UNL     1      -7.292  16.774  65.719  1.00  0.00     0.000 HD 
BRANCH   4   6
HETATM    6  C   UNL     1      -6.975  17.613  67.601  1.00  0.00    -0.176 C  
BRANCH   6   7
HETATM    7  C   UNL     1      -6.743  16.180  68.032  1.00  0.00    -0.143 A  
HETATM    8  C   UNL     1      -6.560  15.170  67.074  1.00  0.00     0.469 A  
HETATM    9  C   UNL     1      -6.413  13.838  67.465  1.00  0.00    -0.089 A  
HETATM   10  C   UNL     1      -6.438  13.491  68.822  1.00  0.00    -0.098 A  
HETATM   11  C   UNL     1      -6.720  15.832  69.391  1.00  0.00    -0.184 A  
HETATM   12  C   UNL     1      -6.564  14.498  69.787  1.00  0.00    -0.158 A  
BRANCH  10  13
HETATM   13  C   UNL     1      -6.319  12.049  69.181  1.00  0.00    -0.093 C  
HETATM   14  O   UNL     1      -6.008  11.727  70.322  1.00  0.00    -0.151 OA 
HETATM   15  N   UNL     1      -6.523  11.141  68.159  1.00  0.00    -0.056 N  
HETATM   16  H   UNL     1      -6.857  11.470  67.253  1.00  0.00     0.000 HD 
BRANCH  15  17
HETATM   17  C   UNL     1      -6.271   9.718  68.357  1.00  0.00    -0.050 C  
HETATM   18  C   UNL     1      -7.589   8.958  68.461  1.00  0.00    -0.097 C  
HETATM   19  C   UNL     1      -5.416   9.157  67.221  1.00  0.00    -0.041 C  
ENDBRANCH  15  17
ENDBRANCH  10  13
ENDBRANCH   6   7
ENDBRANCH   4   6
ENDBRANCH   2   4
TORSDOF 5
ENDMDL
MODEL      188
REMARK 921   NORMALIZED FREE ENERGY PREDICTED BY IDOCK:   -1.36 KCAL/MOL
REMARK 922        TOTAL FREE ENERGY PREDICTED BY IDOCK:   -2.15 KCAL/MOL
REMARK 923 INTER-LIGAND FREE ENERGY PREDICTED BY IDOCK:   -2.67 KCAL/MOL
REMARK 924 INTRA-LIGAND FREE ENERGY PREDICTED BY IDOCK:    0.52 KCAL/MOL
REMARK 927      BINDING AFFINITY PREDICTED BY RF-SCORE:    0.00 PKD
ROOT
HETATM    1  C   UNL     1     -10.657   9.773  70.571  1.00  0.00    -0.312 C  
HETATM    2  N   UNL     1     -11.465   8.679  71.117  1.00  0.00    -0.271 NA 
HETATM    3  H   UNL     1     -12.411   8.659  70.735  1.00  0.00     0.000 HD 
ENDROOT
BRANCH   2   4
HETATM    4  N   UNL     1     -10.747   7.433  70.902  1.00  0.00    -0.232 NA 
HETATM    5  H   UNL     1     -11.236   6.816  70.252  1.00  0.00     0.000 HD 
BRANCH   4   6
HETATM    6  C   UNL     1      -9.369   7.719  70.462  1.00  0.00    -0.163 C  
BRANCH   6   7
HETATM    7  C   UNL     1      -9.144   7.218  69.051  1.00  0.00    -0.133 A  
HETATM    8  C   UNL     1     -10.145   6.494  68.385  1.00  0.00    -0.169 A  
HETATM    9  C   UNL     1      -9.918   5.973  67.110  1.00  0.00    -0.186 A  
HETATM   10  C   UNL     1      -8.686   6.171  66.474  1.00  0.00    -0.133 A  
HETATM   11  C   UNL     1      -7.929   7.454  68.389  1.00  0.00    -0.124 A  
HETATM   12  C   UNL     1      -7.701   6.940  67.107  1.00  0.00    -0.108 A  
BRANCH  10  13
HETATM   13  C   UNL     1      -8.481   5.557  65.131  1.00  0.00    -0.147 C  
HETATM   14  O   UNL     1      -8.263   4.354  65.036  1.00  0.00    -0.100 OA 
HETATM   15  N   UNL     1      -8.501   6.418  64.050  1.00  0.00    -0.335 N  
HETATM   16  H   UNL     1      -8.765   7.393  64.189  1.00  0.00     0.000 HD 
BRANCH  15  17
HETATM   17  C   UNL     1      -8.149   5.953  62.713  1.00  0.00    -0.104 C  
HETATM   18  C   UNL     1      -6.636   5.826  62.580  1.00  0.00    -0.032 C  
HETATM   19  C   UNL     1      -8.829   4.619  62.407  1.00  0.00    -0.122 C  
ENDBRANCH  15  17
ENDBRANCH  10  13
ENDBRANCH   6   7
ENDBRANCH   4   6
ENDBRANCH   2   4
TORSDOF 5
ENDMDL
MODEL      189
REMARK 921   NORMALIZED FREE ENERGY PREDICTED BY IDOCK:   -0.52 KCAL/MOL
REMARK 922        TOTAL FREE ENERGY PREDICTED BY IDOCK:   -1.06 KCAL/MOL
REMARK 923 INTER-LIGAND FREE ENERGY PREDICTED BY IDOCK:   -1.99 KCAL/MOL
REMARK 924 INTRA-LIGAND FREE ENERGY PREDICTED BY IDOCK:    0.93 KCAL/MOL
REMARK 927      BINDING AFFINITY PREDICTED BY RF-SCORE:    0.00 PKD
ROOT
HETATM    1  C   UNL     1     -11.614  12.333  70.322  1.00  0.00     0.004 C  
HETATM    2  N   UNL     1     -10.714  12.146  69.181  1.00  0.00    -0.417 NA 
HETATM    3  H   UNL     1     -10.391  13.029  68.786  1.00  0.00     0.000 HD 
ENDROOT
BRANCH   2   4
HETATM    4  N   UNL     1      -9.620  11.286  69.602  1.00  0.00    -0.080 NA 
HETATM    5  H   UNL     1      -9.904  10.307  69.666  1.00  0.00     0.000 HD 
BRANCH   4   6
HETATM    6  C   UNL     1      -8.465  11.470  68.704  1.00  0.00    -0.115 C  
BRANCH   6   7
HETATM    7  C   UNL     1      -8.067  12.930  68.638  1.00  0.00    -0.007 A  
HETATM    8  C   UNL     1      -6.723  13.293  68.465  1.00  0.00    -0.092 A  
HETATM    9  C   UNL     1      -6.343  14.636  68.470  1.00  0.00    -0.087 A  
HETATM   10  C   UNL     1      -7.302  15.642  68.643  1.00  0.00    -0.127 A  
HETATM   11  C   UNL     1      -9.029  13.944  68.763  1.00  0.00     0.004 A  
HETATM   12  C   UNL     1      -8.652  15.292  68.760  1.00  0.00    -0.190 A  
BRANCH  10  13
HETATM   13  C   UNL     1      -6.835  17.058  68.684  1.00  0.00    -0.187 C  
HETATM   14  O   UNL     1      -5.714  17.321  69.105  1.00  0.00    -0.167 OA 
HETATM   15  N   UNL     1      -7.743  18.018  68.279  1.00  0.00    -0.272 N  
HETATM   16  H   UNL     1      -8.630  17.728  67.866  1.00  0.00     0.000 HD 
BRANCH  15  17
HETATM   17  C   UNL     1      -7.454  19.439  68.433  1.00  0.00    -0.320 C  
HETATM   18  C   UNL     1      -8.172  20.243  67.355  1.00  0.00    -0.387 C  
HETATM   19  C   UNL     1      -7.858  19.926  69.825  1.00  0.00     0.448 C  
ENDBRANCH  15  17
ENDBRANCH  10  13
ENDBRANCH   6   7
ENDBRANCH   4   6
ENDBRANCH   2   4
TORSDOF 5
ENDMDL
