MODEL        1
REMARK 921   NORMALIZED FREE ENERGY PREDICTED BY IDOCK:   -6.57 KCAL/MOL
REMARK 922        TOTAL FREE ENERGY PREDICTED BY IDOCK:  -15.97 KCAL/MOL
REMARK 923 INTER-LIGAND FREE ENERGY PREDICTED BY IDOCK:  -13.10 KCAL/MOL
REMARK 924 INTRA-LIGAND FREE ENERGY PREDICTED BY IDOCK:   -2.86 KCAL/MOL
REMARK 927      BINDING AFFINITY PREDICTED BY RF-SCORE:    0.00 PKD
ROOT
HETATM    1 HG   UNL     2     -11.326  20.270  68.965  1.00  0.00    -0.393 Hg 
HETATM    2  C   UNL     3      -7.235   8.369  71.879  1.00  0.00    -0.111 C  
HETATM    3  C   UNL     3      -8.314   8.973  70.970  1.00  0.00    -0.189 C  
HETATM    4  C   UNL     4      -8.410  19.609  66.320  1.00  0.00    -0.372 C  
HETATM    5  C   UNL     4      -9.102  18.566  67.209  1.00  0.00    -0.277 C  
ENDROOT
BRANCH   3   6
HETATM    6  N   UNL     3      -8.831   8.040  69.932  1.00  0.00    -0.143 NA 
BRANCH   6   7
HETATM    7  C   UNL     3      -8.045   6.782  69.799  1.00  0.00    -0.126 C  
HETATM    8  C   UNL     3      -8.853   5.492  70.031  1.00  0.00    -0.139 C  
ENDBRANCH   6   7
BRANCH   6   9
HETATM    9  C   UNL     3     -10.266   7.717  70.134  1.00  0.00    -0.205 C  
BRANCH   9  10
HETATM   10  C   UNL     3     -10.941   8.516  71.246  1.00  0.00    -0.256 C  
BRANCH  10  11
HETATM   11  O   UNL     3     -11.828   9.438  70.740  1.00  0.00    -0.276 OA 
BRANCH  11  12
HETATM   12  C   UNL     3     -12.621  10.224  71.507  1.00  0.00    -0.440 C  
HETATM   13  O   UNL     3     -13.219   9.756  72.468  1.00  0.00    -0.338 OA 
BRANCH  12  14
HETATM   14  C   UNL     3     -12.661  11.668  71.217  1.00  0.00    -0.444 A  
HETATM   15  C   UNL     3     -12.847  14.421  70.677  1.00  0.00    -0.328 A  
HETATM   16  C   UNL     3     -12.118  13.583  69.822  1.00  0.00    -0.381 A  
HETATM   17  C   UNL     3     -12.024  12.213  70.087  1.00  0.00    -0.394 A  
HETATM   18  N   UNL     3     -12.946  15.815  70.414  1.00  0.00    -0.714 NA 
HETATM   19  C   UNL     3     -13.488  13.878  71.797  1.00  0.00    -0.464 A  
HETATM   20  C   UNL     3     -13.393  12.516  72.066  1.00  0.00    -0.528 A  
HETATM   21  H1  UNL     3     -13.476  16.424  71.036  1.00  0.00     0.000 HD 
HETATM   22  H2  UNL     3     -13.304  15.935  69.466  1.00  0.00     0.000 HD 
ENDBRANCH  12  14
ENDBRANCH  11  12
ENDBRANCH  10  11
ENDBRANCH   9  10
ENDBRANCH   6   9
ENDBRANCH   3   6
BRANCH   5  23
HETATM   23  C   UNL     4     -10.322  17.906  66.472  1.00  0.00    -0.362 C  
BRANCH  23  24
HETATM   24  N   UNL     4     -10.038  16.989  65.347  1.00  0.00    -0.579 NA 
HETATM   25  H   UNL     4      -9.109  17.011  64.926  1.00  0.00     0.000 HD 
BRANCH  24  26
HETATM   26  C   UNL     4     -10.926  16.147  64.862  1.00  0.00    -0.349 C  
HETATM   27  H   UNL     4     -12.445  15.952  63.560  1.00  0.00     0.000 HD 
HETATM   28  O   UNL     4     -11.804  16.560  63.909  1.00  0.00    -1.059 OA 
BRANCH  26  29
HETATM   29  C   UNL     4     -11.044  14.675  65.261  1.00  0.00    -0.363 A  
HETATM   30  C   UNL     4     -10.102  13.885  66.000  1.00  0.00    -0.313 A  
HETATM   31  C   UNL     4     -12.234  14.011  64.828  1.00  0.00    -0.454 A  
HETATM   32  C   UNL     4     -12.468  12.658  65.093  1.00  0.00    -0.531 A  
HETATM   33  C   UNL     4     -11.528  11.911  65.778  1.00  0.00    -0.326 A  
HETATM   34  C   UNL     4     -10.359  12.514  66.236  1.00  0.00    -0.269 A  
BRANCH  30  35
HETATM   35  O   UNL     4      -8.958  14.377  66.539  1.00  0.00    -0.239 OA 
BRANCH  35  36
HETATM   36  C   UNL     4      -8.588  14.238  67.862  1.00  0.00    -0.171 C  
HETATM   37  C   UNL     4      -7.195  13.705  67.980  1.00  0.00    -0.130 C  
HETATM   38  O   UNL     4      -6.171  14.380  67.424  1.00  0.00    -0.334 OA 
HETATM   39  O   UNL     4      -6.973  12.691  68.621  1.00  0.00    -0.082 OA 
ENDBRANCH  35  36
ENDBRANCH  30  35
ENDBRANCH  26  29
ENDBRANCH  24  26
ENDBRANCH  23  24
ENDBRANCH   5  23
BRANCH   5  40
HETATM   40  O   UNL     4      -8.157  17.545  67.575  1.00  0.00    -0.201 OA 
BRANCH  40  41
HETATM   41  C   UNL     4      -6.824  17.872  67.162  1.00  0.00    -0.178 C  
BRANCH  41  42
HETATM   42  C   UNL     4      -5.815  17.879  68.331  1.00  0.00    -0.172 C  
BRANCH  42  43
HETATM   43  O   UNL     4      -6.396  17.371  69.518  1.00  0.00    -0.244 OA 
HETATM   44  C   UNL     4      -5.370  17.000  70.423  1.00  0.00    -0.228 C  
ENDBRANCH  42  43
ENDBRANCH  41  42
ENDBRANCH  40  41
ENDBRANCH   5  40
TORSDOF 17
ENDMDL
MODEL        2
REMARK 921   NORMALIZED FREE ENERGY PREDICTED BY IDOCK:   -6.51 KCAL/MOL
REMARK 922        TOTAL FREE ENERGY PREDICTED BY IDOCK:  -15.85 KCAL/MOL
REMARK 923 INTER-LIGAND FREE ENERGY PREDICTED BY IDOCK:  -13.92 KCAL/MOL
REMARK 924 INTRA-LIGAND FREE ENERGY PREDICTED BY IDOCK:   -1.93 KCAL/MOL
REMARK 927      BINDING AFFINITY PREDICTED BY RF-SCORE:    0.00 PKD
ROOT
HETATM    1 HG   UNL     2      -8.000   5.467  66.527  1.00  0.00    -0.091 Hg 
HETATM    2  C   UNL     3      -7.065  18.092  69.098  1.00  0.00    -0.189 C  
HETATM    3  C   UNL     3      -7.953  17.209  68.210  1.00  0.00    -0.236 C  
HETATM    4  C   UNL     4     -10.371   5.954  69.702  1.00  0.00    -0.313 C  
HETATM    5  C   UNL     4      -9.793   7.058  68.805  1.00  0.00    -0.152 C  
ENDROOT
BRANCH   3   6
HETATM    6  N   UNL     3      -9.208  17.867  67.756  1.00  0.00    -0.255 NA 
BRANCH   6   7
HETATM    7  C   UNL     3      -9.060  18.667  66.508  1.00  0.00    -0.315 C  
HETATM    8  C   UNL     3     -10.173  19.704  66.274  1.00  0.00    -0.598 C  
ENDBRANCH   6   7
BRANCH   6   9
HETATM    9  C   UNL     3     -10.324  16.899  67.604  1.00  0.00    -0.317 C  
BRANCH   9  10
HETATM   10  C   UNL     3      -9.889  15.437  67.570  1.00  0.00    -0.217 C  
BRANCH  10  11
HETATM   11  O   UNL     3     -10.159  14.802  68.760  1.00  0.00    -0.225 OA 
BRANCH  11  12
HETATM   12  C   UNL     3     -11.384  14.341  69.109  1.00  0.00    -0.276 C  
HETATM   13  O   UNL     3     -11.994  13.575  68.374  1.00  0.00    -0.354 OA 
BRANCH  12  14
HETATM   14  C   UNL     3     -11.913  14.703  70.437  1.00  0.00    -0.375 A  
HETATM   15  C   UNL     3     -12.820  15.415  73.001  1.00  0.00    -0.463 A  
HETATM   16  C   UNL     3     -13.244  14.215  72.411  1.00  0.00    -0.566 A  
HETATM   17  C   UNL     3     -12.795  13.858  71.136  1.00  0.00    -0.423 A  
HETATM   18  N   UNL     3     -13.274  15.784  74.297  1.00  0.00    -0.719 NA 
HETATM   19  C   UNL     3     -11.937  16.252  72.309  1.00  0.00    -0.605 A  
HETATM   20  C   UNL     3     -11.491  15.901  71.038  1.00  0.00    -0.461 A  
HETATM   21  H1  UNL     3     -12.966  16.656  74.725  1.00  0.00     0.000 HD 
HETATM   22  H2  UNL     3     -13.062  15.020  74.939  1.00  0.00     0.000 HD 
ENDBRANCH  12  14
ENDBRANCH  11  12
ENDBRANCH  10  11
ENDBRANCH   9  10
ENDBRANCH   6   9
ENDBRANCH   3   6
BRANCH   5  23
HETATM   23  C   UNL     4     -10.782   7.425  67.641  1.00  0.00    -0.207 C  
BRANCH  23  24
HETATM   24  N   UNL     4     -10.202   7.855  66.350  1.00  0.00    -0.485 NA 
HETATM   25  H   UNL     4      -9.997   7.144  65.649  1.00  0.00     0.000 HD 
BRANCH  24  26
HETATM   26  C   UNL     4      -9.936   9.113  66.063  1.00  0.00    -0.223 C  
HETATM   27  H   UNL     4     -10.076  11.001  66.739  1.00  0.00     0.000 HD 
HETATM   28  O   UNL     4     -10.267  10.094  66.946  1.00  0.00    -0.215 OA 
BRANCH  26  29
HETATM   29  C   UNL     4      -9.229   9.590  64.795  1.00  0.00    -0.267 A  
HETATM   30  C   UNL     4      -9.683  10.569  63.849  1.00  0.00    -0.325 A  
HETATM   31  C   UNL     4      -7.970   8.970  64.518  1.00  0.00    -0.131 A  
HETATM   32  C   UNL     4      -7.222   9.284  63.379  1.00  0.00    -0.096 A  
HETATM   33  C   UNL     4      -7.699  10.207  62.466  1.00  0.00    -0.150 A  
HETATM   34  C   UNL     4      -8.912  10.851  62.697  1.00  0.00    -0.348 A  
BRANCH  30  35
HETATM   35  O   UNL     4     -10.819  11.296  63.997  1.00  0.00    -0.362 OA 
BRANCH  35  36
HETATM   36  C   UNL     4     -10.861  12.666  64.158  1.00  0.00    -0.396 C  
HETATM   37  C   UNL     4     -12.270  13.168  64.139  1.00  0.00    -0.398 C  
HETATM   38  O   UNL     4     -13.158  12.707  65.040  1.00  0.00    -0.808 OA 
HETATM   39  O   UNL     4     -12.608  14.033  63.346  1.00  0.00    -0.845 OA 
ENDBRANCH  35  36
ENDBRANCH  30  35
ENDBRANCH  26  29
ENDBRANCH  24  26
ENDBRANCH  23  24
ENDBRANCH   5  23
BRANCH   5  40
HETATM   40  O   UNL     4      -9.532   8.230  69.596  1.00  0.00    -0.162 OA 
BRANCH  40  41
HETATM   41  C   UNL     4     -10.733   8.793  70.140  1.00  0.00    -0.224 C  
BRANCH  41  42
HETATM   42  C   UNL     4     -10.635   9.077  71.653  1.00  0.00    -0.364 C  
BRANCH  42  43
HETATM   43  O   UNL     4     -11.702   8.477  72.362  1.00  0.00    -0.375 OA 
HETATM   44  C   UNL     4     -12.928   9.055  71.946  1.00  0.00    -0.389 C  
ENDBRANCH  42  43
ENDBRANCH  41  42
ENDBRANCH  40  41
ENDBRANCH   5  40
TORSDOF 17
ENDMDL
MODEL        3
REMARK 921   NORMALIZED FREE ENERGY PREDICTED BY IDOCK:   -6.48 KCAL/MOL
REMARK 922        TOTAL FREE ENERGY PREDICTED BY IDOCK:  -15.79 KCAL/MOL
REMARK 923 INTER-LIGAND FREE ENERGY PREDICTED BY IDOCK:  -12.81 KCAL/MOL
REMARK 924 INTRA-LIGAND FREE ENERGY PREDICTED BY IDOCK:   -2.98 KCAL/MOL
REMARK 927      BINDING AFFINITY PREDICTED BY RF-SCORE:    0.00 PKD
ROOT
HETATM    1 HG   UNL     2      -7.001  19.766  67.229  1.00  0.00    -0.194 Hg 
HETATM    2  C   UNL     3      -9.015   7.098  65.703  1.00  0.00     0.019 C  
HETATM    3  C   UNL     3      -8.878   8.058  66.892  1.00  0.00    -0.132 C  
HETATM    4  C   UNL     4     -10.974  19.475  66.962  1.00  0.00    -0.443 C  
HETATM    5  C   UNL     4      -9.980  18.328  67.191  1.00  0.00    -0.337 C  
ENDROOT
BRANCH   3   6
HETATM    6  N   UNL     3      -9.392   7.514  68.178  1.00  0.00    -0.137 NA 
BRANCH   6   7
HETATM    7  C   UNL     3     -10.759   6.929  68.089  1.00  0.00    -0.205 C  
HETATM    8  C   UNL     3     -11.237   6.217  69.368  1.00  0.00    -0.489 C  
ENDBRANCH   6   7
BRANCH   6   9
HETATM    9  C   UNL     3      -8.461   6.525  68.780  1.00  0.00    -0.122 C  
BRANCH   9  10
HETATM   10  C   UNL     3      -7.289   7.144  69.537  1.00  0.00    -0.089 C  
BRANCH  10  11
HETATM   11  O   UNL     3      -7.663   7.562  70.793  1.00  0.00    -0.081 OA 
BRANCH  11  12
HETATM   12  C   UNL     3      -8.291   8.735  71.043  1.00  0.00    -0.171 C  
HETATM   13  O   UNL     3      -7.746   9.801  70.786  1.00  0.00    -0.308 OA 
BRANCH  12  14
HETATM   14  C   UNL     3      -9.681   8.691  71.534  1.00  0.00    -0.333 A  
HETATM   15  C   UNL     3     -12.327   8.716  72.484  1.00  0.00    -0.309 A  
HETATM   16  C   UNL     3     -11.403   7.794  72.996  1.00  0.00    -0.331 A  
HETATM   17  C   UNL     3     -10.085   7.780  72.526  1.00  0.00    -0.301 A  
HETATM   18  N   UNL     3     -13.667   8.734  72.957  1.00  0.00    -0.999 NA 
HETATM   19  C   UNL     3     -11.923   9.628  71.502  1.00  0.00    -0.485 A  
HETATM   20  C   UNL     3     -10.614   9.614  71.029  1.00  0.00    -0.362 A  
HETATM   21  H1  UNL     3     -14.339   9.405  72.584  1.00  0.00     0.000 HD 
HETATM   22  H2  UNL     3     -13.646   8.834  73.972  1.00  0.00     0.000 HD 
ENDBRANCH  12  14
ENDBRANCH  11  12
ENDBRANCH  10  11
ENDBRANCH   9  10
ENDBRANCH   6   9
ENDBRANCH   3   6
BRANCH   5  23
HETATM   23  C   UNL     4      -9.767  18.054  68.723  1.00  0.00    -0.328 C  
BRANCH  23  24
HETATM   24  N   UNL     4     -10.783  17.241  69.428  1.00  0.00    -0.354 NA 
HETATM   25  H   UNL     4     -11.721  17.625  69.537  1.00  0.00     0.000 HD 
BRANCH  24  26
HETATM   26  C   UNL     4     -10.533  16.046  69.921  1.00  0.00    -0.287 C  
HETATM   27  H   UNL     4      -9.136  14.609  70.080  1.00  0.00     0.000 HD 
HETATM   28  O   UNL     4      -9.316  15.472  69.723  1.00  0.00    -0.274 OA 
BRANCH  26  29
HETATM   29  C   UNL     4     -11.511  15.225  70.762  1.00  0.00    -0.361 A  
HETATM   30  C   UNL     4     -12.290  14.092  70.350  1.00  0.00    -0.359 A  
HETATM   31  C   UNL     4     -11.673  15.653  72.116  1.00  0.00    -0.576 A  
HETATM   32  C   UNL     4     -12.556  15.017  72.996  1.00  0.00    -0.542 A  
HETATM   33  C   UNL     4     -13.319  13.949  72.563  1.00  0.00    -0.656 A  
HETATM   34  C   UNL     4     -13.187  13.482  71.257  1.00  0.00    -0.290 A  
BRANCH  30  35
HETATM   35  O   UNL     4     -12.205  13.520  69.123  1.00  0.00    -0.307 OA 
BRANCH  35  36
HETATM   36  C   UNL     4     -11.946  12.183  68.894  1.00  0.00    -0.242 C  
HETATM   37  C   UNL     4     -10.845  12.009  67.896  1.00  0.00    -0.215 C  
HETATM   38  O   UNL     4      -9.632  12.538  68.139  1.00  0.00    -0.206 OA 
HETATM   39  O   UNL     4     -11.025  11.346  66.887  1.00  0.00    -0.275 OA 
ENDBRANCH  35  36
ENDBRANCH  30  35
ENDBRANCH  26  29
ENDBRANCH  24  26
ENDBRANCH  23  24
ENDBRANCH   5  23
BRANCH   5  40
HETATM   40  O   UNL     4     -10.469  17.135  66.556  1.00  0.00    -0.312 OA 
BRANCH  40  41
HETATM   41  C   UNL     4      -9.411  16.222  66.235  1.00  0.00    -0.316 C  
BRANCH  41  42
HETATM   42  C   UNL     4      -9.920  14.901  65.621  1.00  0.00    -0.358 C  
BRANCH  42  43
HETATM   43  O   UNL     4     -11.312  14.741  65.820  1.00  0.00    -0.340 OA 
HETATM   44  C   UNL     4     -11.870  14.049  64.715  1.00  0.00    -0.403 C  
ENDBRANCH  42  43
ENDBRANCH  41  42
ENDBRANCH  40  41
ENDBRANCH   5  40
TORSDOF 17
ENDMDL
MODEL        4
REMARK 921   NORMALIZED FREE ENERGY PREDICTED BY IDOCK:   -6.31 KCAL/MOL
REMARK 922        TOTAL FREE ENERGY PREDICTED BY IDOCK:  -15.44 KCAL/MOL
REMARK 923 INTER-LIGAND FREE ENERGY PREDICTED BY IDOCK:  -12.02 KCAL/MOL
REMARK 924 INTRA-LIGAND FREE ENERGY PREDICTED BY IDOCK:   -3.42 KCAL/MOL
REMARK 927      BINDING AFFINITY PREDICTED BY RF-SCORE:    0.00 PKD
ROOT
HETATM    1 HG   UNL     2      -9.437  15.879  65.674  1.00  0.00    -0.239 Hg 
HETATM    2  C   UNL     3      -7.116   4.403  71.133  1.00  0.00    -0.037 C  
HETATM    3  C   UNL     3      -8.042   5.594  71.418  1.00  0.00    -0.118 C  
HETATM    4  C   UNL     4     -11.951  13.418  63.785  1.00  0.00    -0.517 C  
HETATM    5  C   UNL     4     -11.176  13.129  65.079  1.00  0.00    -0.298 C  
ENDROOT
BRANCH   3   6
HETATM    6  N   UNL     3      -9.169   5.284  72.339  1.00  0.00    -0.140 NA 
BRANCH   6   7
HETATM    7  C   UNL     3      -9.207   3.869  72.800  1.00  0.00    -0.111 C  
HETATM    8  C   UNL     3     -10.558   3.421  73.387  1.00  0.00    -0.283 C  
ENDBRANCH   6   7
BRANCH   6   9
HETATM    9  C   UNL     3      -9.200   6.195  73.512  1.00  0.00    -0.131 C  
BRANCH   9  10
HETATM   10  C   UNL     3     -10.492   6.995  73.652  1.00  0.00    -0.376 C  
BRANCH  10  11
HETATM   11  O   UNL     3     -10.567   8.003  72.720  1.00  0.00    -0.315 OA 
BRANCH  11  12
HETATM   12  C   UNL     3     -11.566   8.120  71.812  1.00  0.00    -0.291 C  
HETATM   13  O   UNL     3     -12.677   8.505  72.155  1.00  0.00    -0.340 OA 
BRANCH  12  14
HETATM   14  C   UNL     3     -11.252   7.872  70.393  1.00  0.00    -0.240 A  
HETATM   15  C   UNL     3     -10.597   7.311  67.718  1.00  0.00    -0.221 A  
HETATM   16  C   UNL     3     -10.415   8.603  68.232  1.00  0.00    -0.234 A  
HETATM   17  C   UNL     3     -10.739   8.885  69.563  1.00  0.00    -0.206 A  
HETATM   18  N   UNL     3     -10.271   7.018  66.366  1.00  0.00    -0.464 NA 
HETATM   19  C   UNL     3     -11.101   6.301  68.546  1.00  0.00    -0.397 A  
HETATM   20  C   UNL     3     -11.428   6.580  69.870  1.00  0.00    -0.467 A  
HETATM   21  H1  UNL     3     -10.403   6.078  65.992  1.00  0.00     0.000 HD 
HETATM   22  H2  UNL     3      -9.301   7.291  66.205  1.00  0.00     0.000 HD 
ENDBRANCH  12  14
ENDBRANCH  11  12
ENDBRANCH  10  11
ENDBRANCH   9  10
ENDBRANCH   6   9
ENDBRANCH   3   6
BRANCH   5  23
HETATM   23  C   UNL     4     -12.025  13.499  66.348  1.00  0.00    -0.414 C  
BRANCH  23  24
HETATM   24  N   UNL     4     -12.091  12.512  67.448  1.00  0.00    -0.455 NA 
HETATM   25  H   UNL     4     -12.637  11.663  67.306  1.00  0.00     0.000 HD 
BRANCH  24  26
HETATM   26  C   UNL     4     -11.480  12.678  68.602  1.00  0.00    -0.308 C  
HETATM   27  H   UNL     4      -9.681  12.724  69.500  1.00  0.00     0.000 HD 
HETATM   28  O   UNL     4     -10.123  12.604  68.667  1.00  0.00    -0.206 OA 
BRANCH  26  29
HETATM   29  C   UNL     4     -12.178  12.996  69.925  1.00  0.00    -0.271 A  
HETATM   30  C   UNL     4     -12.488  14.287  70.469  1.00  0.00    -0.361 A  
HETATM   31  C   UNL     4     -12.551  11.864  70.714  1.00  0.00    -0.325 A  
HETATM   32  C   UNL     4     -13.172  11.999  71.961  1.00  0.00    -0.481 A  
HETATM   33  C   UNL     4     -13.427  13.256  72.477  1.00  0.00    -0.620 A  
HETATM   34  C   UNL     4     -13.098  14.391  71.741  1.00  0.00    -0.428 A  
BRANCH  30  35
HETATM   35  O   UNL     4     -12.261  15.456  69.821  1.00  0.00    -0.337 OA 
BRANCH  35  36
HETATM   36  C   UNL     4     -11.118  16.220  69.950  1.00  0.00    -0.347 C  
HETATM   37  C   UNL     4     -10.291  16.168  68.704  1.00  0.00    -0.252 C  
HETATM   38  O   UNL     4     -10.820  16.570  67.533  1.00  0.00    -0.313 OA 
HETATM   39  O   UNL     4      -9.124  15.815  68.750  1.00  0.00    -0.188 OA 
ENDBRANCH  35  36
ENDBRANCH  30  35
ENDBRANCH  26  29
ENDBRANCH  24  26
ENDBRANCH  23  24
ENDBRANCH   5  23
BRANCH   5  40
HETATM   40  O   UNL     4     -10.828  11.735  65.128  1.00  0.00    -0.286 OA 
BRANCH  40  41
HETATM   41  C   UNL     4     -10.620  11.185  63.821  1.00  0.00    -0.356 C  
BRANCH  41  42
HETATM   42  C   UNL     4      -9.349  10.314  63.728  1.00  0.00    -0.295 C  
BRANCH  42  43
HETATM   43  O   UNL     4      -9.168   9.537  64.898  1.00  0.00    -0.234 OA 
HETATM   44  C   UNL     4      -7.856   9.735  65.398  1.00  0.00    -0.122 C  
ENDBRANCH  42  43
ENDBRANCH  41  42
ENDBRANCH  40  41
ENDBRANCH   5  40
TORSDOF 17
ENDMDL
MODEL        5
REMARK 921   NORMALIZED FREE ENERGY PREDICTED BY IDOCK:   -6.26 KCAL/MOL
REMARK 922        TOTAL FREE ENERGY PREDICTED BY IDOCK:  -15.34 KCAL/MOL
REMARK 923 INTER-LIGAND FREE ENERGY PREDICTED BY IDOCK:  -12.13 KCAL/MOL
REMARK 924 INTRA-LIGAND FREE ENERGY PREDICTED BY IDOCK:   -3.22 KCAL/MOL
REMARK 927      BINDING AFFINITY PREDICTED BY RF-SCORE:    0.00 PKD
ROOT
HETATM    1 HG   UNL     2      -7.826   6.202  66.811  1.00  0.00    -0.089 Hg 
HETATM    2  C   UNL     3      -6.463  18.879  68.885  1.00  0.00    -0.286 C  
HETATM    3  C   UNL     3      -7.200  18.000  67.865  1.00  0.00    -0.222 C  
HETATM    4  C   UNL     4     -10.797   7.062  69.336  1.00  0.00    -0.253 C  
HETATM    5  C   UNL     4      -9.947   8.061  68.539  1.00  0.00    -0.192 C  
ENDROOT
BRANCH   3   6
HETATM    6  N   UNL     3      -8.265  18.710  67.105  1.00  0.00    -0.248 NA 
BRANCH   6   7
HETATM    7  C   UNL     3      -7.763  19.812  66.238  1.00  0.00    -0.319 C  
HETATM    8  C   UNL     3      -6.566  19.435  65.347  1.00  0.00    -0.310 C  
ENDBRANCH   6   7
BRANCH   6   9
HETATM    9  C   UNL     3      -9.096  17.777  66.301  1.00  0.00    -0.175 C  
BRANCH   9  10
HETATM   10  C   UNL     3     -10.482  17.510  66.881  1.00  0.00    -0.285 C  
BRANCH  10  11
HETATM   11  O   UNL     3     -10.450  16.515  67.830  1.00  0.00    -0.290 OA 
BRANCH  11  12
HETATM   12  C   UNL     3     -10.582  16.736  69.160  1.00  0.00    -0.343 C  
HETATM   13  O   UNL     3     -10.173  17.775  69.663  1.00  0.00    -0.052 OA 
BRANCH  12  14
HETATM   14  C   UNL     3     -11.318  15.742  69.963  1.00  0.00    -0.354 A  
HETATM   15  C   UNL     3     -12.796  13.840  71.412  1.00  0.00    -0.369 A  
HETATM   16  C   UNL     3     -12.381  15.030  72.029  1.00  0.00    -0.421 A  
HETATM   17  C   UNL     3     -11.646  15.978  71.310  1.00  0.00    -0.506 A  
HETATM   18  N   UNL     3     -13.542  12.872  72.138  1.00  0.00    -0.536 NA 
HETATM   19  C   UNL     3     -12.476  13.609  70.070  1.00  0.00    -0.267 A  
HETATM   20  C   UNL     3     -11.742  14.549  69.353  1.00  0.00    -0.361 A  
HETATM   21  H1  UNL     3     -13.844  12.007  71.689  1.00  0.00     0.000 HD 
HETATM   22  H2  UNL     3     -14.364  13.332  72.531  1.00  0.00     0.000 HD 
ENDBRANCH  12  14
ENDBRANCH  11  12
ENDBRANCH  10  11
ENDBRANCH   9  10
ENDBRANCH   6   9
ENDBRANCH   3   6
BRANCH   5  23
HETATM   23  C   UNL     4     -10.618   8.415  67.164  1.00  0.00    -0.256 C  
BRANCH  23  24
HETATM   24  N   UNL     4      -9.745   8.516  65.974  1.00  0.00    -0.451 NA 
HETATM   25  H   UNL     4      -9.321   7.664  65.608  1.00  0.00     0.000 HD 
BRANCH  24  26
HETATM   26  C   UNL     4      -9.489   9.655  65.364  1.00  0.00    -0.278 C  
HETATM   27  H   UNL     4      -9.254  10.521  63.565  1.00  0.00     0.000 HD 
HETATM   28  O   UNL     4      -9.439   9.700  64.005  1.00  0.00    -0.177 OA 
BRANCH  26  29
HETATM   29  C   UNL     4      -9.271  10.995  66.067  1.00  0.00    -0.213 A  
HETATM   30  C   UNL     4     -10.125  12.147  66.051  1.00  0.00    -0.235 A  
HETATM   31  C   UNL     4      -8.060  11.108  66.818  1.00  0.00    -0.155 A  
HETATM   32  C   UNL     4      -7.710  12.284  67.491  1.00  0.00    -0.158 A  
HETATM   33  C   UNL     4      -8.536  13.391  67.431  1.00  0.00    -0.197 A  
HETATM   34  C   UNL     4      -9.735  13.327  66.726  1.00  0.00    -0.258 A  
BRANCH  30  35
HETATM   35  O   UNL     4     -11.338  12.183  65.444  1.00  0.00    -0.324 OA 
BRANCH  35  36
HETATM   36  C   UNL     4     -12.260  13.200  65.587  1.00  0.00    -0.466 C  
HETATM   37  C   UNL     4     -12.323  14.050  64.357  1.00  0.00    -0.367 C  
HETATM   38  O   UNL     4     -12.636  13.491  63.173  1.00  0.00    -0.762 OA 
HETATM   39  O   UNL     4     -12.144  15.255  64.429  1.00  0.00    -0.419 OA 
ENDBRANCH  35  36
ENDBRANCH  30  35
ENDBRANCH  26  29
ENDBRANCH  24  26
ENDBRANCH  23  24
ENDBRANCH   5  23
BRANCH   5  40
HETATM   40  O   UNL     4      -9.773   9.264  69.308  1.00  0.00    -0.162 OA 
BRANCH  40  41
HETATM   41  C   UNL     4     -10.999   9.992  69.453  1.00  0.00    -0.244 C  
BRANCH  41  42
HETATM   42  C   UNL     4     -11.470  10.096  70.919  1.00  0.00    -0.360 C  
BRANCH  42  43
HETATM   43  O   UNL     4     -12.876  10.236  71.002  1.00  0.00    -0.352 OA 
HETATM   44  C   UNL     4     -13.416   9.147  71.733  1.00  0.00    -0.416 C  
ENDBRANCH  42  43
ENDBRANCH  41  42
ENDBRANCH  40  41
ENDBRANCH   5  40
TORSDOF 17
ENDMDL
MODEL        6
REMARK 921   NORMALIZED FREE ENERGY PREDICTED BY IDOCK:   -6.19 KCAL/MOL
REMARK 922        TOTAL FREE ENERGY PREDICTED BY IDOCK:  -15.20 KCAL/MOL
REMARK 923 INTER-LIGAND FREE ENERGY PREDICTED BY IDOCK:  -12.80 KCAL/MOL
REMARK 924 INTRA-LIGAND FREE ENERGY PREDICTED BY IDOCK:   -2.40 KCAL/MOL
REMARK 927      BINDING AFFINITY PREDICTED BY RF-SCORE:    0.00 PKD
ROOT
HETATM    1 HG   UNL     2     -10.447  19.534  70.302  1.00  0.00    -0.575 Hg 
HETATM    2  C   UNL     3     -10.257   6.980  73.343  1.00  0.00    -0.342 C  
HETATM    3  C   UNL     3     -11.206   7.918  72.583  1.00  0.00    -0.398 C  
HETATM    4  C   UNL     4      -8.461  17.865  67.267  1.00  0.00    -0.242 C  
HETATM    5  C   UNL     4      -9.299  17.140  68.330  1.00  0.00    -0.265 C  
ENDROOT
BRANCH   3   6
HETATM    6  N   UNL     3     -12.189   7.217  71.714  1.00  0.00    -0.328 NA 
BRANCH   6   7
HETATM    7  C   UNL     3     -13.478   7.943  71.543  1.00  0.00    -0.306 C  
HETATM    8  C   UNL     3     -13.837   8.895  72.698  1.00  0.00    -0.393 C  
ENDBRANCH   6   7
BRANCH   6   9
HETATM    9  C   UNL     3     -11.621   6.882  70.383  1.00  0.00    -0.335 C  
BRANCH   9  10
HETATM   10  C   UNL     3     -10.615   7.899  69.854  1.00  0.00    -0.242 C  
BRANCH  10  11
HETATM   11  O   UNL     3     -10.807   8.153  68.516  1.00  0.00    -0.070 OA 
BRANCH  11  12
HETATM   12  C   UNL     3      -9.806   8.202  67.605  1.00  0.00    -0.169 C  
HETATM   13  O   UNL     3      -8.950   7.327  67.571  1.00  0.00    -0.122 OA 
BRANCH  12  14
HETATM   14  C   UNL     3      -9.833   9.277  66.596  1.00  0.00    -0.311 A  
HETATM   15  C   UNL     3      -9.779  11.309  64.654  1.00  0.00    -0.253 A  
HETATM   16  C   UNL     3     -10.368  11.545  65.905  1.00  0.00    -0.293 A  
HETATM   17  C   UNL     3     -10.396  10.536  66.873  1.00  0.00    -0.293 A  
HETATM   18  N   UNL     3      -9.748  12.330  63.666  1.00  0.00    -0.648 NA 
HETATM   19  C   UNL     3      -9.213  10.059  64.381  1.00  0.00    -0.316 A  
HETATM   20  C   UNL     3      -9.242   9.052  65.341  1.00  0.00    -0.241 A  
HETATM   21  H1  UNL     3      -9.320  12.159  62.756  1.00  0.00     0.000 HD 
HETATM   22  H2  UNL     3      -9.311  13.156  64.074  1.00  0.00     0.000 HD 
ENDBRANCH  12  14
ENDBRANCH  11  12
ENDBRANCH  10  11
ENDBRANCH   9  10
ENDBRANCH   6   9
ENDBRANCH   3   6
BRANCH   5  23
HETATM   23  C   UNL     4     -10.783  16.945  67.853  1.00  0.00    -0.344 C  
BRANCH  23  24
HETATM   24  N   UNL     4     -11.687  16.149  68.711  1.00  0.00    -0.318 NA 
HETATM   25  H   UNL     4     -12.085  16.592  69.539  1.00  0.00     0.000 HD 
BRANCH  24  26
HETATM   26  C   UNL     4     -12.002  14.896  68.458  1.00  0.00    -0.241 C  
HETATM   27  H   UNL     4     -12.253  13.545  66.990  1.00  0.00     0.000 HD 
HETATM   28  O   UNL     4     -12.026  14.449  67.173  1.00  0.00    -0.405 OA 
BRANCH  26  29
HETATM   29  C   UNL     4     -12.322  13.842  69.519  1.00  0.00    -0.275 A  
HETATM   30  C   UNL     4     -12.947  14.040  70.795  1.00  0.00    -0.230 A  
HETATM   31  C   UNL     4     -11.934  12.504  69.198  1.00  0.00    -0.287 A  
HETATM   32  C   UNL     4     -12.135  11.440  70.083  1.00  0.00    -0.439 A  
HETATM   33  C   UNL     4     -12.710  11.664  71.320  1.00  0.00    -0.444 A  
HETATM   34  C   UNL     4     -13.120  12.946  71.675  1.00  0.00    -0.430 A  
BRANCH  30  35
HETATM   35  O   UNL     4     -13.433  15.231  71.224  1.00  0.00    -0.454 OA 
BRANCH  35  36
HETATM   36  C   UNL     4     -13.820  15.502  72.522  1.00  0.00    -0.576 C  
HETATM   37  C   UNL     4     -12.648  15.896  73.363  1.00  0.00    -0.550 C  
HETATM   38  O   UNL     4     -11.904  16.963  73.016  1.00  0.00    -0.361 OA 
HETATM   39  O   UNL     4     -12.393  15.289  74.392  1.00  0.00    -0.633 OA 
ENDBRANCH  35  36
ENDBRANCH  30  35
ENDBRANCH  26  29
ENDBRANCH  24  26
ENDBRANCH  23  24
ENDBRANCH   5  23
BRANCH   5  40
HETATM   40  O   UNL     4      -8.715  15.856  68.607  1.00  0.00    -0.178 OA 
BRANCH  40  41
HETATM   41  C   UNL     4      -7.305  15.839  68.352  1.00  0.00    -0.117 C  
BRANCH  41  42
HETATM   42  C   UNL     4      -6.856  14.617  67.523  1.00  0.00    -0.149 C  
BRANCH  42  43
HETATM   43  O   UNL     4      -6.942  13.422  68.276  1.00  0.00    -0.085 OA 
HETATM   44  C   UNL     4      -6.575  12.322  67.459  1.00  0.00    -0.141 C  
ENDBRANCH  42  43
ENDBRANCH  41  42
ENDBRANCH  40  41
ENDBRANCH   5  40
TORSDOF 17
ENDMDL
MODEL        7
REMARK 921   NORMALIZED FREE ENERGY PREDICTED BY IDOCK:   -6.12 KCAL/MOL
REMARK 922        TOTAL FREE ENERGY PREDICTED BY IDOCK:  -15.06 KCAL/MOL
REMARK 923 INTER-LIGAND FREE ENERGY PREDICTED BY IDOCK:  -12.71 KCAL/MOL
REMARK 924 INTRA-LIGAND FREE ENERGY PREDICTED BY IDOCK:   -2.35 KCAL/MOL
REMARK 927      BINDING AFFINITY PREDICTED BY RF-SCORE:    0.00 PKD
ROOT
HETATM    1 HG   UNL     2      -8.359  16.477  65.368  1.00  0.00    -0.252 Hg 
HETATM    2  C   UNL     3      -9.648   4.922  70.996  1.00  0.00    -0.238 C  
HETATM    3  C   UNL     3      -9.955   6.376  71.378  1.00  0.00    -0.184 C  
HETATM    4  C   UNL     4     -11.963  15.248  64.167  1.00  0.00    -0.145 C  
HETATM    5  C   UNL     4     -11.117  14.652  65.301  1.00  0.00    -0.360 C  
ENDROOT
BRANCH   3   6
HETATM    6  N   UNL     3     -10.900   6.521  72.519  1.00  0.00    -0.229 NA 
BRANCH   6   7
HETATM    7  C   UNL     3     -10.237   6.737  73.835  1.00  0.00    -0.367 C  
HETATM    8  C   UNL     3      -9.078   7.750  73.812  1.00  0.00    -0.333 C  
ENDBRANCH   6   7
BRANCH   6   9
HETATM    9  C   UNL     3     -11.905   7.588  72.282  1.00  0.00    -0.289 C  
BRANCH   9  10
HETATM   10  C   UNL     3     -11.627   8.454  71.057  1.00  0.00    -0.275 C  
BRANCH  10  11
HETATM   11  O   UNL     3     -11.645   9.793  71.370  1.00  0.00    -0.364 OA 
BRANCH  11  12
HETATM   12  C   UNL     3     -11.830  10.779  70.459  1.00  0.00    -0.356 C  
HETATM   13  O   UNL     3     -11.550  10.599  69.281  1.00  0.00    -0.266 OA 
BRANCH  12  14
HETATM   14  C   UNL     3     -12.469  12.030  70.905  1.00  0.00    -0.384 A  
HETATM   15  C   UNL     3     -13.590  14.465  71.755  1.00  0.00    -0.395 A  
HETATM   16  C   UNL     3     -13.898  13.274  72.428  1.00  0.00    -0.630 A  
HETATM   17  C   UNL     3     -13.342  12.061  72.008  1.00  0.00    -0.447 A  
HETATM   18  N   UNL     3     -14.153  15.700  72.176  1.00  0.00    -0.502 NA 
HETATM   19  C   UNL     3     -12.716  14.435  70.662  1.00  0.00    -0.421 A  
HETATM   20  C   UNL     3     -12.163  13.230  70.239  1.00  0.00    -0.391 A  
HETATM   21  H1  UNL     3     -13.929  16.566  71.686  1.00  0.00     0.000 HD 
HETATM   22  H2  UNL     3     -13.938  15.828  73.165  1.00  0.00     0.000 HD 
ENDBRANCH  12  14
ENDBRANCH  11  12
ENDBRANCH  10  11
ENDBRANCH   9  10
ENDBRANCH   6   9
ENDBRANCH   3   6
BRANCH   5  23
HETATM   23  C   UNL     4     -11.475  15.304  66.684  1.00  0.00    -0.107 C  
BRANCH  23  24
HETATM   24  N   UNL     4     -10.522  15.124  67.801  1.00  0.00    -0.244 NA 
HETATM   25  H   UNL     4     -10.879  14.784  68.694  1.00  0.00     0.000 HD 
BRANCH  24  26
HETATM   26  C   UNL     4      -9.235  15.381  67.699  1.00  0.00    -0.187 C  
HETATM   27  H   UNL     4      -7.483  14.676  67.008  1.00  0.00     0.000 HD 
HETATM   28  O   UNL     4      -8.412  14.490  67.083  1.00  0.00    -0.200 OA 
BRANCH  26  29
HETATM   29  C   UNL     4      -8.556  16.658  68.195  1.00  0.00    -0.200 A  
HETATM   30  C   UNL     4      -9.153  17.943  68.419  1.00  0.00    -0.289 A  
HETATM   31  C   UNL     4      -7.153  16.553  68.452  1.00  0.00    -0.160 A  
HETATM   32  C   UNL     4      -6.393  17.645  68.883  1.00  0.00    -0.213 A  
HETATM   33  C   UNL     4      -6.988  18.881  69.057  1.00  0.00    -0.342 A  
HETATM   34  C   UNL     4      -8.354  19.033  68.837  1.00  0.00    -0.298 A  
BRANCH  30  35
HETATM   35  O   UNL     4     -10.480  18.195  68.287  1.00  0.00    -0.362 OA 
BRANCH  35  36
HETATM   36  C   UNL     4     -11.018  19.184  67.488  1.00  0.00    -0.306 C  
HETATM   37  C   UNL     4     -10.398  19.173  66.126  1.00  0.00    -0.484 C  
HETATM   38  O   UNL     4     -10.471  18.064  65.366  1.00  0.00    -0.621 OA 
HETATM   39  O   UNL     4      -9.873  20.180  65.677  1.00  0.00    -0.336 OA 
ENDBRANCH  35  36
ENDBRANCH  30  35
ENDBRANCH  26  29
ENDBRANCH  24  26
ENDBRANCH  23  24
ENDBRANCH   5  23
BRANCH   5  40
HETATM   40  O   UNL     4     -11.339  13.234  65.371  1.00  0.00    -0.293 OA 
BRANCH  40  41
HETATM   41  C   UNL     4     -11.150  12.595  64.101  1.00  0.00    -0.382 C  
BRANCH  41  42
HETATM   42  C   UNL     4     -10.538  11.183  64.221  1.00  0.00    -0.357 C  
BRANCH  42  43
HETATM   43  O   UNL     4      -9.878  11.010  65.462  1.00  0.00    -0.218 OA 
HETATM   44  C   UNL     4      -9.966   9.651  65.856  1.00  0.00    -0.281 C  
ENDBRANCH  42  43
ENDBRANCH  41  42
ENDBRANCH  40  41
ENDBRANCH   5  40
TORSDOF 17
ENDMDL
MODEL        8
REMARK 921   NORMALIZED FREE ENERGY PREDICTED BY IDOCK:   -6.11 KCAL/MOL
REMARK 922        TOTAL FREE ENERGY PREDICTED BY IDOCK:  -15.05 KCAL/MOL
REMARK 923 INTER-LIGAND FREE ENERGY PREDICTED BY IDOCK:  -12.03 KCAL/MOL
REMARK 924 INTRA-LIGAND FREE ENERGY PREDICTED BY IDOCK:   -3.03 KCAL/MOL
REMARK 927      BINDING AFFINITY PREDICTED BY RF-SCORE:    0.00 PKD
ROOT
HETATM    1 HG   UNL     2      -6.758  19.074  67.052  1.00  0.00    -0.186 Hg 
HETATM    2  C   UNL     3      -7.994   6.232  66.401  1.00  0.00    -0.109 C  
HETATM    3  C   UNL     3      -8.160   7.303  67.487  1.00  0.00    -0.114 C  
HETATM    4  C   UNL     4     -10.555  18.554  65.932  1.00  0.00    -0.336 C  
HETATM    5  C   UNL     4      -9.605  17.486  66.493  1.00  0.00    -0.285 C  
ENDROOT
BRANCH   3   6
HETATM    6  N   UNL     3      -8.938   6.853  68.674  1.00  0.00    -0.130 NA 
BRANCH   6   7
HETATM    7  C   UNL     3     -10.260   6.251  68.344  1.00  0.00    -0.172 C  
HETATM    8  C   UNL     3     -11.231   6.144  69.533  1.00  0.00    -0.482 C  
ENDBRANCH   6   7
BRANCH   6   9
HETATM    9  C   UNL     3      -8.162   5.920  69.531  1.00  0.00    -0.113 C  
BRANCH   9  10
HETATM   10  C   UNL     3      -6.963   6.557  70.228  1.00  0.00    -0.066 C  
BRANCH  10  11
HETATM   11  O   UNL     3      -7.306   7.068  71.458  1.00  0.00    -0.078 OA 
BRANCH  11  12
HETATM   12  C   UNL     3      -7.864   8.289  71.639  1.00  0.00    -0.114 C  
HETATM   13  O   UNL     3      -7.200   9.307  71.487  1.00  0.00    -0.308 OA 
BRANCH  12  14
HETATM   14  C   UNL     3      -9.309   8.361  71.922  1.00  0.00    -0.313 A  
HETATM   15  C   UNL     3     -12.056   8.606  72.468  1.00  0.00    -0.298 A  
HETATM   16  C   UNL     3     -11.276   7.685  73.180  1.00  0.00    -0.311 A  
HETATM   17  C   UNL     3      -9.909   7.561  72.912  1.00  0.00    -0.272 A  
HETATM   18  N   UNL     3     -13.446   8.736  72.735  1.00  0.00    -0.765 NA 
HETATM   19  C   UNL     3     -11.459   9.407  71.488  1.00  0.00    -0.467 A  
HETATM   20  C   UNL     3     -10.100   9.284  71.216  1.00  0.00    -0.361 A  
HETATM   21  H1  UNL     3     -14.014   9.406  72.217  1.00  0.00     0.000 HD 
HETATM   22  H2  UNL     3     -13.563   8.922  73.732  1.00  0.00     0.000 HD 
ENDBRANCH  12  14
ENDBRANCH  11  12
ENDBRANCH  10  11
ENDBRANCH   9  10
ENDBRANCH   6   9
ENDBRANCH   3   6
BRANCH   5  23
HETATM   23  C   UNL     4      -9.740  17.364  68.053  1.00  0.00    -0.281 C  
BRANCH  23  24
HETATM   24  N   UNL     4     -10.425  16.172  68.598  1.00  0.00    -0.254 NA 
HETATM   25  H   UNL     4     -11.431  16.220  68.757  1.00  0.00     0.000 HD 
BRANCH  24  26
HETATM   26  C   UNL     4      -9.798  15.051  68.886  1.00  0.00    -0.233 C  
HETATM   27  H   UNL     4      -8.125  14.282  69.694  1.00  0.00     0.000 HD 
HETATM   28  O   UNL     4      -8.577  15.091  69.486  1.00  0.00    -0.172 OA 
BRANCH  26  29
HETATM   29  C   UNL     4     -10.352  13.648  68.633  1.00  0.00    -0.223 A  
HETATM   30  C   UNL     4     -11.565  13.076  69.144  1.00  0.00    -0.316 A  
HETATM   31  C   UNL     4      -9.552  12.808  67.798  1.00  0.00    -0.204 A  
HETATM   32  C   UNL     4      -9.916  11.490  67.502  1.00  0.00    -0.207 A  
HETATM   33  C   UNL     4     -11.073  10.953  68.035  1.00  0.00    -0.351 A  
HETATM   34  C   UNL     4     -11.897  11.734  68.842  1.00  0.00    -0.381 A  
BRANCH  30  35
HETATM   35  O   UNL     4     -12.467  13.757  69.893  1.00  0.00    -0.299 OA 
BRANCH  35  36
HETATM   36  C   UNL     4     -12.312  14.056  71.232  1.00  0.00    -0.355 C  
HETATM   37  C   UNL     4     -13.323  13.335  72.067  1.00  0.00    -0.489 C  
HETATM   38  O   UNL     4     -13.379  11.991  72.038  1.00  0.00    -0.495 OA 
HETATM   39  O   UNL     4     -14.063  13.955  72.815  1.00  0.00    -0.668 OA 
ENDBRANCH  35  36
ENDBRANCH  30  35
ENDBRANCH  26  29
ENDBRANCH  24  26
ENDBRANCH  23  24
ENDBRANCH   5  23
BRANCH   5  40
HETATM   40  O   UNL     4      -9.901  16.216  65.888  1.00  0.00    -0.320 OA 
BRANCH  40  41
HETATM   41  C   UNL     4     -11.084  16.266  65.080  1.00  0.00    -0.254 C  
BRANCH  41  42
HETATM   42  C   UNL     4     -11.416  14.914  64.412  1.00  0.00    -0.247 C  
BRANCH  42  43
HETATM   43  O   UNL     4     -12.748  14.519  64.682  1.00  0.00    -0.630 OA 
HETATM   44  C   UNL     4     -12.742  13.430  65.589  1.00  0.00    -0.370 C  
ENDBRANCH  42  43
ENDBRANCH  41  42
ENDBRANCH  40  41
ENDBRANCH   5  40
TORSDOF 17
ENDMDL
MODEL        9
REMARK 921   NORMALIZED FREE ENERGY PREDICTED BY IDOCK:   -6.11 KCAL/MOL
REMARK 922        TOTAL FREE ENERGY PREDICTED BY IDOCK:  -15.04 KCAL/MOL
REMARK 923 INTER-LIGAND FREE ENERGY PREDICTED BY IDOCK:  -12.14 KCAL/MOL
REMARK 924 INTRA-LIGAND FREE ENERGY PREDICTED BY IDOCK:   -2.90 KCAL/MOL
REMARK 927      BINDING AFFINITY PREDICTED BY RF-SCORE:    0.00 PKD
ROOT
HETATM    1 HG   UNL     2     -11.321   7.307  74.196  1.00  0.00    -0.521 Hg 
HETATM    2  C   UNL     3      -9.869  18.715  68.311  1.00  0.00    -0.410 C  
HETATM    3  C   UNL     3      -9.357  17.285  68.089  1.00  0.00    -0.274 C  
HETATM    4  C   UNL     4     -14.360   7.420  71.610  1.00  0.00    -0.614 C  
HETATM    5  C   UNL     4     -13.132   8.341  71.629  1.00  0.00    -0.334 C  
ENDROOT
BRANCH   3   6
HETATM    6  N   UNL     3      -8.817  17.036  66.725  1.00  0.00    -0.230 NA 
BRANCH   6   7
HETATM    7  C   UNL     3      -7.343  16.823  66.683  1.00  0.00    -0.262 C  
HETATM    8  C   UNL     3      -6.564  17.880  65.880  1.00  0.00    -0.304 C  
ENDBRANCH   6   7
BRANCH   6   9
HETATM    9  C   UNL     3      -9.507  15.909  66.046  1.00  0.00    -0.354 C  
BRANCH   9  10
HETATM   10  C   UNL     3     -10.848  16.279  65.420  1.00  0.00    -0.273 C  
BRANCH  10  11
HETATM   11  O   UNL     3     -11.241  15.352  64.482  1.00  0.00    -0.373 OA 
BRANCH  11  12
HETATM   12  C   UNL     3     -11.939  14.229  64.776  1.00  0.00    -0.440 C  
HETATM   13  O   UNL     3     -13.150  14.276  64.948  1.00  0.00    -0.645 OA 
BRANCH  12  14
HETATM   14  C   UNL     3     -11.220  12.942  64.779  1.00  0.00    -0.336 A  
HETATM   15  C   UNL     3      -9.916  10.453  64.706  1.00  0.00    -0.339 A  
HETATM   16  C   UNL     3     -10.337  10.992  65.930  1.00  0.00    -0.315 A  
HETATM   17  C   UNL     3     -10.986  12.230  65.970  1.00  0.00    -0.327 A  
HETATM   18  N   UNL     3      -9.254   9.195  64.660  1.00  0.00    -0.441 NA 
HETATM   19  C   UNL     3     -10.155  11.157  63.521  1.00  0.00    -0.437 A  
HETATM   20  C   UNL     3     -10.798  12.391  63.557  1.00  0.00    -0.487 A  
HETATM   21  H1  UNL     3      -8.948   8.803  63.770  1.00  0.00     0.000 HD 
HETATM   22  H2  UNL     3      -9.844   8.506  65.126  1.00  0.00     0.000 HD 
ENDBRANCH  12  14
ENDBRANCH  11  12
ENDBRANCH  10  11
ENDBRANCH   9  10
ENDBRANCH   6   9
ENDBRANCH   3   6
BRANCH   5  23
HETATM   23  C   UNL     4     -11.986   7.784  70.711  1.00  0.00    -0.149 C  
BRANCH  23  24
HETATM   24  N   UNL     4     -10.849   7.098  71.363  1.00  0.00    -0.230 NA 
HETATM   25  H   UNL     4      -9.985   7.620  71.507  1.00  0.00     0.000 HD 
BRANCH  24  26
HETATM   26  C   UNL     4     -10.900   5.846  71.766  1.00  0.00    -0.260 C  
HETATM   27  H   UNL     4     -11.595   4.625  73.204  1.00  0.00     0.000 HD 
HETATM   28  O   UNL     4     -11.559   5.529  72.913  1.00  0.00    -0.297 OA 
BRANCH  26  29
HETATM   29  C   UNL     4     -10.293   4.660  71.016  1.00  0.00    -0.143 A  
HETATM   30  C   UNL     4      -9.941   4.584  69.627  1.00  0.00    -0.181 A  
HETATM   31  C   UNL     4     -10.065   3.484  71.797  1.00  0.00    -0.147 A  
HETATM   32  C   UNL     4      -9.543   2.312  71.242  1.00  0.00    -0.221 A  
HETATM   33  C   UNL     4      -9.244   2.255  69.893  1.00  0.00    -0.189 A  
HETATM   34  C   UNL     4      -9.432   3.378  69.091  1.00  0.00    -0.211 A  
BRANCH  30  35
HETATM   35  O   UNL     4     -10.031   5.627  68.764  1.00  0.00    -0.144 OA 
BRANCH  35  36
HETATM   36  C   UNL     4      -8.964   6.178  68.081  1.00  0.00    -0.114 C  
HETATM   37  C   UNL     4      -8.769   7.613  68.454  1.00  0.00    -0.127 C  
HETATM   38  O   UNL     4      -8.540   7.947  69.738  1.00  0.00    -0.130 OA 
HETATM   39  O   UNL     4      -8.762   8.480  67.594  1.00  0.00    -0.134 OA 
ENDBRANCH  35  36
ENDBRANCH  30  35
ENDBRANCH  26  29
ENDBRANCH  24  26
ENDBRANCH  23  24
ENDBRANCH   5  23
BRANCH   5  40
HETATM   40  O   UNL     4     -13.509   9.653  71.178  1.00  0.00    -0.356 OA 
BRANCH  40  41
HETATM   41  C   UNL     4     -12.626  10.668  71.673  1.00  0.00    -0.377 C  
BRANCH  41  42
HETATM   42  C   UNL     4     -12.535  11.895  70.742  1.00  0.00    -0.291 C  
BRANCH  42  43
HETATM   43  O   UNL     4     -13.005  13.066  71.384  1.00  0.00    -0.354 OA 
HETATM   44  C   UNL     4     -12.430  14.205  70.765  1.00  0.00    -0.366 C  
ENDBRANCH  42  43
ENDBRANCH  41  42
ENDBRANCH  40  41
ENDBRANCH   5  40
TORSDOF 17
ENDMDL
MODEL       10
REMARK 921   NORMALIZED FREE ENERGY PREDICTED BY IDOCK:   -6.03 KCAL/MOL
REMARK 922        TOTAL FREE ENERGY PREDICTED BY IDOCK:  -14.90 KCAL/MOL
REMARK 923 INTER-LIGAND FREE ENERGY PREDICTED BY IDOCK:  -11.72 KCAL/MOL
REMARK 924 INTRA-LIGAND FREE ENERGY PREDICTED BY IDOCK:   -3.18 KCAL/MOL
REMARK 927      BINDING AFFINITY PREDICTED BY RF-SCORE:    0.00 PKD
ROOT
HETATM    1 HG   UNL     2      -9.865  15.340  64.794  1.00  0.00    -0.295 Hg 
HETATM    2  C   UNL     3      -7.716   6.890  74.326  1.00  0.00    -0.122 C  
HETATM    3  C   UNL     3      -8.941   7.607  73.741  1.00  0.00    -0.261 C  
HETATM    4  C   UNL     4     -10.144  11.793  62.981  1.00  0.00    -0.263 C  
HETATM    5  C   UNL     4     -10.145  12.058  64.494  1.00  0.00    -0.265 C  
ENDROOT
BRANCH   3   6
HETATM    6  N   UNL     3     -10.243   6.994  74.118  1.00  0.00    -0.312 NA 
BRANCH   6   7
HETATM    7  C   UNL     3     -11.378   7.384  73.235  1.00  0.00    -0.029 C  
HETATM    8  C   UNL     3     -11.073   8.544  72.271  1.00  0.00    -0.430 C  
ENDBRANCH   6   7
BRANCH   6   9
HETATM    9  C   UNL     3     -10.161   5.513  74.205  1.00  0.00    -0.275 C  
BRANCH   9  10
HETATM   10  C   UNL     3     -11.044   4.774  73.204  1.00  0.00    -0.310 C  
BRANCH  10  11
HETATM   11  O   UNL     3     -10.294   4.078  72.285  1.00  0.00    -0.175 OA 
BRANCH  11  12
HETATM   12  C   UNL     3      -9.303   4.632  71.545  1.00  0.00    -0.148 C  
HETATM   13  O   UNL     3      -8.140   4.278  71.697  1.00  0.00    -0.086 OA 
BRANCH  12  14
HETATM   14  C   UNL     3      -9.673   5.590  70.488  1.00  0.00    -0.241 A  
HETATM   15  C   UNL     3     -10.352   7.498  68.539  1.00  0.00    -0.199 A  
HETATM   16  C   UNL     3     -11.241   6.459  68.847  1.00  0.00    -0.385 A  
HETATM   17  C   UNL     3     -10.907   5.508  69.816  1.00  0.00    -0.291 A  
HETATM   18  N   UNL     3     -10.686   8.467  67.553  1.00  0.00    -0.479 NA 
HETATM   19  C   UNL     3      -9.128   7.584  69.212  1.00  0.00    -0.138 A  
HETATM   20  C   UNL     3      -8.790   6.638  70.174  1.00  0.00    -0.141 A  
HETATM   21  H1  UNL     3     -10.040   9.223  67.329  1.00  0.00     0.000 HD 
HETATM   22  H2  UNL     3     -11.585   8.880  67.804  1.00  0.00     0.000 HD 
ENDBRANCH  12  14
ENDBRANCH  11  12
ENDBRANCH  10  11
ENDBRANCH   9  10
ENDBRANCH   6   9
ENDBRANCH   3   6
BRANCH   5  23
HETATM   23  C   UNL     4     -11.607  12.222  65.044  1.00  0.00    -0.343 C  
BRANCH  23  24
HETATM   24  N   UNL     4     -11.834  13.213  66.119  1.00  0.00    -0.381 NA 
HETATM   25  H   UNL     4     -11.955  14.192  65.859  1.00  0.00     0.000 HD 
BRANCH  24  26
HETATM   26  C   UNL     4     -11.887  12.892  67.395  1.00  0.00    -0.360 C  
HETATM   27  H   UNL     4     -12.020  11.354  68.682  1.00  0.00     0.000 HD 
HETATM   28  O   UNL     4     -11.982  11.585  67.762  1.00  0.00    -0.623 OA 
BRANCH  26  29
HETATM   29  C   UNL     4     -11.813  13.889  68.552  1.00  0.00    -0.401 A  
HETATM   30  C   UNL     4     -11.347  15.246  68.516  1.00  0.00    -0.327 A  
HETATM   31  C   UNL     4     -12.249  13.396  69.821  1.00  0.00    -0.307 A  
HETATM   32  C   UNL     4     -12.211  14.184  70.976  1.00  0.00    -0.432 A  
HETATM   33  C   UNL     4     -11.726  15.478  70.920  1.00  0.00    -0.413 A  
HETATM   34  C   UNL     4     -11.304  16.010  69.705  1.00  0.00    -0.332 A  
BRANCH  30  35
HETATM   35  O   UNL     4     -10.962  15.885  67.383  1.00  0.00    -0.318 OA 
BRANCH  35  36
HETATM   36  C   UNL     4     -10.807  17.252  67.265  1.00  0.00    -0.124 C  
HETATM   37  C   UNL     4     -10.346  17.626  65.892  1.00  0.00    -0.257 C  
HETATM   38  O   UNL     4     -11.090  17.289  64.822  1.00  0.00    -0.954 OA 
HETATM   39  O   UNL     4      -9.327  18.281  65.738  1.00  0.00    -0.460 OA 
ENDBRANCH  35  36
ENDBRANCH  30  35
ENDBRANCH  26  29
ENDBRANCH  24  26
ENDBRANCH  23  24
ENDBRANCH   5  23
BRANCH   5  40
HETATM   40  O   UNL     4      -9.500  10.967  65.172  1.00  0.00    -0.204 OA 
BRANCH  40  41
HETATM   41  C   UNL     4      -9.255   9.858  64.298  1.00  0.00    -0.265 C  
BRANCH  41  42
HETATM   42  C   UNL     4      -7.999   9.049  64.687  1.00  0.00    -0.128 C  
BRANCH  42  43
HETATM   43  O   UNL     4      -8.194   8.343  65.899  1.00  0.00    -0.110 OA 
HETATM   44  C   UNL     4      -8.180   6.949  65.640  1.00  0.00    -0.134 C  
ENDBRANCH  42  43
ENDBRANCH  41  42
ENDBRANCH  40  41
ENDBRANCH   5  40
TORSDOF 17
ENDMDL
MODEL       11
REMARK 921   NORMALIZED FREE ENERGY PREDICTED BY IDOCK:   -5.92 KCAL/MOL
REMARK 922        TOTAL FREE ENERGY PREDICTED BY IDOCK:  -14.66 KCAL/MOL
REMARK 923 INTER-LIGAND FREE ENERGY PREDICTED BY IDOCK:  -11.67 KCAL/MOL
REMARK 924 INTRA-LIGAND FREE ENERGY PREDICTED BY IDOCK:   -2.99 KCAL/MOL
REMARK 927      BINDING AFFINITY PREDICTED BY RF-SCORE:    0.00 PKD
ROOT
HETATM    1 HG   UNL     2     -12.244   5.107  65.084  1.00  0.00    -0.717 Hg 
HETATM    2  C   UNL     3      -7.871  17.223  66.055  1.00  0.00    -0.210 C  
HETATM    3  C   UNL     3      -8.952  16.381  66.747  1.00  0.00    -0.236 C  
HETATM    4  C   UNL     4      -9.269   4.819  67.731  1.00  0.00    -0.145 C  
HETATM    5  C   UNL     4      -9.946   6.107  67.242  1.00  0.00    -0.144 C  
ENDROOT
BRANCH   3   6
HETATM    6  N   UNL     3      -9.426  16.941  68.041  1.00  0.00    -0.238 NA 
BRANCH   6   7
HETATM    7  C   UNL     3     -10.721  17.671  67.951  1.00  0.00    -0.337 C  
HETATM    8  C   UNL     3     -10.682  18.944  67.087  1.00  0.00    -0.506 C  
ENDBRANCH   6   7
BRANCH   6   9
HETATM    9  C   UNL     3      -9.505  15.906  69.104  1.00  0.00    -0.260 C  
BRANCH   9  10
HETATM   10  C   UNL     3      -9.223  14.486  68.621  1.00  0.00    -0.192 C  
BRANCH  10  11
HETATM   11  O   UNL     3     -10.173  13.600  69.073  1.00  0.00    -0.135 OA 
BRANCH  11  12
HETATM   12  C   UNL     3     -11.441  13.545  68.599  1.00  0.00    -0.308 C  
HETATM   13  O   UNL     3     -12.394  13.706  69.351  1.00  0.00    -0.292 OA 
BRANCH  12  14
HETATM   14  C   UNL     3     -11.637  13.392  67.146  1.00  0.00    -0.399 A  
HETATM   15  C   UNL     3     -12.112  13.138  64.387  1.00  0.00    -0.410 A  
HETATM   16  C   UNL     3     -11.568  12.067  65.110  1.00  0.00    -0.330 A  
HETATM   17  C   UNL     3     -11.331  12.190  66.483  1.00  0.00    -0.405 A  
HETATM   18  N   UNL     3     -12.354  13.020  62.991  1.00  0.00    -0.780 NA 
HETATM   19  C   UNL     3     -12.423  14.332  65.048  1.00  0.00    -0.409 A  
HETATM   20  C   UNL     3     -12.185  14.459  66.413  1.00  0.00    -0.363 A  
HETATM   21  H1  UNL     3     -12.750  13.799  62.466  1.00  0.00     0.000 HD 
HETATM   22  H2  UNL     3     -12.942  12.200  62.838  1.00  0.00     0.000 HD 
ENDBRANCH  12  14
ENDBRANCH  11  12
ENDBRANCH  10  11
ENDBRANCH   9  10
ENDBRANCH   6   9
ENDBRANCH   3   6
BRANCH   5  23
HETATM   23  C   UNL     4     -11.136   6.520  68.180  1.00  0.00    -0.240 C  
BRANCH  23  24
HETATM   24  N   UNL     4     -11.202   5.907  69.525  1.00  0.00    -0.346 NA 
HETATM   25  H   UNL     4     -11.426   4.915  69.595  1.00  0.00     0.000 HD 
BRANCH  24  26
HETATM   26  C   UNL     4     -10.986   6.581  70.635  1.00  0.00    -0.287 C  
HETATM   27  H   UNL     4      -9.941   6.599  72.352  1.00  0.00     0.000 HD 
HETATM   28  O   UNL     4     -10.097   6.112  71.551  1.00  0.00    -0.188 OA 
BRANCH  26  29
HETATM   29  C   UNL     4     -11.640   7.917  70.989  1.00  0.00    -0.299 A  
HETATM   30  C   UNL     4     -11.065   9.229  70.905  1.00  0.00    -0.306 A  
HETATM   31  C   UNL     4     -12.983   7.838  71.474  1.00  0.00    -0.357 A  
HETATM   32  C   UNL     4     -13.700   8.974  71.865  1.00  0.00    -0.495 A  
HETATM   33  C   UNL     4     -13.109  10.223  71.806  1.00  0.00    -0.570 A  
HETATM   34  C   UNL     4     -11.809  10.356  71.325  1.00  0.00    -0.381 A  
BRANCH  30  35
HETATM   35  O   UNL     4      -9.830   9.484  70.405  1.00  0.00    -0.239 OA 
BRANCH  35  36
HETATM   36  C   UNL     4      -9.582  10.030  69.161  1.00  0.00    -0.210 C  
HETATM   37  C   UNL     4      -8.117  10.248  68.950  1.00  0.00    -0.123 C  
HETATM   38  O   UNL     4      -7.267   9.207  69.025  1.00  0.00    -0.069 OA 
HETATM   39  O   UNL     4      -7.692  11.355  68.659  1.00  0.00    -0.124 OA 
ENDBRANCH  35  36
ENDBRANCH  30  35
ENDBRANCH  26  29
ENDBRANCH  24  26
ENDBRANCH  23  24
ENDBRANCH   5  23
BRANCH   5  40
HETATM   40  O   UNL     4      -8.979   7.171  67.201  1.00  0.00    -0.122 OA 
BRANCH  40  41
HETATM   41  C   UNL     4      -9.194   8.052  66.092  1.00  0.00    -0.163 C  
BRANCH  41  42
HETATM   42  C   UNL     4      -7.883   8.489  65.405  1.00  0.00    -0.107 C  
BRANCH  42  43
HETATM   43  O   UNL     4      -7.905   9.866  65.078  1.00  0.00    -0.120 OA 
HETATM   44  C   UNL     4      -6.658  10.451  65.414  1.00  0.00    -0.109 C  
ENDBRANCH  42  43
ENDBRANCH  41  42
ENDBRANCH  40  41
ENDBRANCH   5  40
TORSDOF 17
ENDMDL
MODEL       12
REMARK 921   NORMALIZED FREE ENERGY PREDICTED BY IDOCK:   -5.89 KCAL/MOL
REMARK 922        TOTAL FREE ENERGY PREDICTED BY IDOCK:  -14.62 KCAL/MOL
REMARK 923 INTER-LIGAND FREE ENERGY PREDICTED BY IDOCK:  -10.52 KCAL/MOL
REMARK 924 INTRA-LIGAND FREE ENERGY PREDICTED BY IDOCK:   -4.10 KCAL/MOL
REMARK 927      BINDING AFFINITY PREDICTED BY RF-SCORE:    0.00 PKD
ROOT
HETATM    1 HG   UNL     2     -10.974  19.541  68.879  1.00  0.00    -0.452 Hg 
HETATM    2  C   UNL     3     -10.451   7.540  73.629  1.00  0.00    -0.285 C  
HETATM    3  C   UNL     3     -11.178   8.238  72.471  1.00  0.00    -0.376 C  
HETATM    4  C   UNL     4      -7.893  17.901  66.941  1.00  0.00    -0.245 C  
HETATM    5  C   UNL     4      -8.959  17.167  67.765  1.00  0.00    -0.226 C  
ENDROOT
BRANCH   3   6
HETATM    6  N   UNL     3     -11.718   7.310  71.442  1.00  0.00    -0.273 NA 
BRANCH   6   7
HETATM    7  C   UNL     3     -13.185   7.433  71.220  1.00  0.00    -0.281 C  
HETATM    8  C   UNL     3     -13.883   8.481  72.105  1.00  0.00    -0.446 C  
ENDBRANCH   6   7
BRANCH   6   9
HETATM    9  C   UNL     3     -11.002   7.433  70.146  1.00  0.00    -0.255 C  
BRANCH   9  10
HETATM   10  C   UNL     3      -9.660   6.707  70.097  1.00  0.00    -0.161 C  
BRANCH  10  11
HETATM   11  O   UNL     3      -8.690   7.478  69.499  1.00  0.00    -0.136 OA 
BRANCH  11  12
HETATM   12  C   UNL     3      -8.653   7.751  68.173  1.00  0.00    -0.123 C  
HETATM   13  O   UNL     3      -8.762   6.853  67.348  1.00  0.00    -0.120 OA 
BRANCH  12  14
HETATM   14  C   UNL     3      -8.582   9.163  67.754  1.00  0.00    -0.121 A  
HETATM   15  C   UNL     3      -8.522  11.878  67.029  1.00  0.00    -0.177 A  
HETATM   16  C   UNL     3      -8.640  10.888  66.043  1.00  0.00    -0.179 A  
HETATM   17  C   UNL     3      -8.670   9.536  66.400  1.00  0.00    -0.149 A  
HETATM   18  N   UNL     3      -8.490  13.254  66.672  1.00  0.00    -0.423 NA 
HETATM   19  C   UNL     3      -8.441  11.507  68.376  1.00  0.00    -0.159 A  
HETATM   20  C   UNL     3      -8.468  10.163  68.735  1.00  0.00    -0.131 A  
HETATM   21  H1  UNL     3      -8.404  13.974  67.389  1.00  0.00     0.000 HD 
HETATM   22  H2  UNL     3      -9.318  13.458  66.112  1.00  0.00     0.000 HD 
ENDBRANCH  12  14
ENDBRANCH  11  12
ENDBRANCH  10  11
ENDBRANCH   9  10
ENDBRANCH   6   9
ENDBRANCH   3   6
BRANCH   5  23
HETATM   23  C   UNL     4     -10.157  16.698  66.864  1.00  0.00    -0.280 C  
BRANCH  23  24
HETATM   24  N   UNL     4     -10.667  15.322  67.050  1.00  0.00    -0.308 NA 
HETATM   25  H   UNL     4     -10.389  14.606  66.380  1.00  0.00     0.000 HD 
BRANCH  24  26
HETATM   26  C   UNL     4     -11.463  14.978  68.041  1.00  0.00    -0.342 C  
HETATM   27  H   UNL     4     -12.735  15.684  69.429  1.00  0.00     0.000 HD 
HETATM   28  O   UNL     4     -12.161  15.932  68.714  1.00  0.00    -0.297 OA 
BRANCH  26  29
HETATM   29  C   UNL     4     -11.716  13.542  68.501  1.00  0.00    -0.392 A  
HETATM   30  C   UNL     4     -11.866  12.370  67.687  1.00  0.00    -0.295 A  
HETATM   31  C   UNL     4     -11.829  13.356  69.915  1.00  0.00    -0.385 A  
HETATM   32  C   UNL     4     -12.089  12.104  70.481  1.00  0.00    -0.383 A  
HETATM   33  C   UNL     4     -12.263  10.997  69.671  1.00  0.00    -0.370 A  
HETATM   34  C   UNL     4     -12.146  11.121  68.289  1.00  0.00    -0.011 A  
BRANCH  30  35
HETATM   35  O   UNL     4     -11.721  12.360  66.339  1.00  0.00    -0.389 OA 
BRANCH  35  36
HETATM   36  C   UNL     4     -12.732  12.630  65.437  1.00  0.00    -0.038 C  
HETATM   37  C   UNL     4     -12.176  12.996  64.097  1.00  0.00    -0.401 C  
HETATM   38  O   UNL     4     -11.380  12.130  63.444  1.00  0.00    -0.424 OA 
HETATM   39  O   UNL     4     -12.482  14.053  63.568  1.00  0.00    -0.826 OA 
ENDBRANCH  35  36
ENDBRANCH  30  35
ENDBRANCH  26  29
ENDBRANCH  24  26
ENDBRANCH  23  24
ENDBRANCH   5  23
BRANCH   5  40
HETATM   40  O   UNL     4      -8.368  16.023  68.405  1.00  0.00    -0.166 OA 
BRANCH  40  41
HETATM   41  C   UNL     4      -6.982  16.231  68.708  1.00  0.00    -0.159 C  
BRANCH  41  42
HETATM   42  C   UNL     4      -6.098  15.017  68.352  1.00  0.00    -0.105 C  
BRANCH  42  43
HETATM   43  O   UNL     4      -5.830  14.222  69.492  1.00  0.00    -0.092 OA 
HETATM   44  C   UNL     4      -5.620  15.063  70.614  1.00  0.00    -0.134 C  
ENDBRANCH  42  43
ENDBRANCH  41  42
ENDBRANCH  40  41
ENDBRANCH   5  40
TORSDOF 17
ENDMDL
MODEL       13
REMARK 921   NORMALIZED FREE ENERGY PREDICTED BY IDOCK:   -5.89 KCAL/MOL
REMARK 922        TOTAL FREE ENERGY PREDICTED BY IDOCK:  -14.61 KCAL/MOL
REMARK 923 INTER-LIGAND FREE ENERGY PREDICTED BY IDOCK:  -11.65 KCAL/MOL
REMARK 924 INTRA-LIGAND FREE ENERGY PREDICTED BY IDOCK:   -2.96 KCAL/MOL
REMARK 927      BINDING AFFINITY PREDICTED BY RF-SCORE:    0.00 PKD
ROOT
HETATM    1 HG   UNL     2     -10.388   8.413  73.114  1.00  0.00    -0.272 Hg 
HETATM    2  C   UNL     3      -7.746  20.242  68.646  1.00  0.00     0.074 C  
HETATM    3  C   UNL     3      -7.718  18.816  68.079  1.00  0.00    -0.263 C  
HETATM    4  C   UNL     4     -13.904   9.695  71.725  1.00  0.00    -0.261 C  
HETATM    5  C   UNL     4     -12.526  10.316  71.456  1.00  0.00    -0.422 C  
ENDROOT
BRANCH   3   6
HETATM    6  N   UNL     3      -7.682  18.751  66.593  1.00  0.00    -0.239 NA 
BRANCH   6   7
HETATM    7  C   UNL     3      -6.804  17.677  66.050  1.00  0.00    -0.273 C  
HETATM    8  C   UNL     3      -5.431  18.162  65.549  1.00  0.00    -0.213 C  
ENDBRANCH   6   7
BRANCH   6   9
HETATM    9  C   UNL     3      -9.041  18.634  66.004  1.00  0.00     0.025 C  
BRANCH   9  10
HETATM   10  C   UNL     3     -10.002  17.766  66.810  1.00  0.00    -0.333 C  
BRANCH  10  11
HETATM   11  O   UNL     3     -10.051  16.480  66.325  1.00  0.00    -0.300 OA 
BRANCH  11  12
HETATM   12  C   UNL     3     -10.961  15.557  66.720  1.00  0.00    -0.257 C  
HETATM   13  O   UNL     3     -11.535  15.669  67.796  1.00  0.00    -0.307 OA 
BRANCH  12  14
HETATM   14  C   UNL     3     -11.315  14.479  65.779  1.00  0.00    -0.336 A  
HETATM   15  C   UNL     3     -11.949  12.484  63.903  1.00  0.00    -0.480 A  
HETATM   16  C   UNL     3     -12.910  12.909  64.831  1.00  0.00    -0.370 A  
HETATM   17  C   UNL     3     -12.598  13.902  65.765  1.00  0.00    -0.533 A  
HETATM   18  N   UNL     3     -12.260  11.474  62.951  1.00  0.00    -0.855 NA 
HETATM   19  C   UNL     3     -10.675  13.062  63.911  1.00  0.00    -0.316 A  
HETATM   20  C   UNL     3     -10.360  14.048  64.842  1.00  0.00    -0.434 A  
HETATM   21  H1  UNL     3     -11.561  11.165  62.276  1.00  0.00     0.000 HD 
HETATM   22  H2  UNL     3     -13.092  11.765  62.438  1.00  0.00     0.000 HD 
ENDBRANCH  12  14
ENDBRANCH  11  12
ENDBRANCH  10  11
ENDBRANCH   9  10
ENDBRANCH   6   9
ENDBRANCH   3   6
BRANCH   5  23
HETATM   23  C   UNL     4     -11.885   9.737  70.144  1.00  0.00    -0.079 C  
BRANCH  23  24
HETATM   24  N   UNL     4     -12.052  10.509  68.893  1.00  0.00    -0.747 NA 
HETATM   25  H   UNL     4     -12.943  10.450  68.401  1.00  0.00     0.000 HD 
BRANCH  24  26
HETATM   26  C   UNL     4     -11.105  11.270  68.385  1.00  0.00    -0.240 C  
HETATM   27  H   UNL     4     -10.414  13.155  68.272  1.00  0.00     0.000 HD 
HETATM   28  O   UNL     4     -11.098  12.606  68.639  1.00  0.00    -0.239 OA 
BRANCH  26  29
HETATM   29  C   UNL     4      -9.942  10.764  67.530  1.00  0.00    -0.203 A  
HETATM   30  C   UNL     4      -8.556  10.680  67.890  1.00  0.00    -0.124 A  
HETATM   31  C   UNL     4     -10.285  10.340  66.208  1.00  0.00    -0.287 A  
HETATM   32  C   UNL     4      -9.323   9.881  65.302  1.00  0.00    -0.309 A  
HETATM   33  C   UNL     4      -7.989   9.842  65.665  1.00  0.00    -0.117 A  
HETATM   34  C   UNL     4      -7.605  10.229  66.946  1.00  0.00    -0.105 A  
BRANCH  30  35
HETATM   35  O   UNL     4      -8.074  10.979  69.123  1.00  0.00    -0.135 OA 
BRANCH  35  36
HETATM   36  C   UNL     4      -7.350  10.112  69.917  1.00  0.00    -0.165 C  
HETATM   37  C   UNL     4      -8.242   9.099  70.562  1.00  0.00    -0.180 C  
HETATM   38  O   UNL     4      -8.996   8.287  69.797  1.00  0.00    -0.144 OA 
HETATM   39  O   UNL     4      -8.252   8.966  71.775  1.00  0.00    -0.318 OA 
ENDBRANCH  35  36
ENDBRANCH  30  35
ENDBRANCH  26  29
ENDBRANCH  24  26
ENDBRANCH  23  24
ENDBRANCH   5  23
BRANCH   5  40
HETATM   40  O   UNL     4     -12.657  11.742  71.334  1.00  0.00    -0.337 OA 
BRANCH  40  41
HETATM   41  C   UNL     4     -13.579  12.283  72.288  1.00  0.00    -0.196 C  
BRANCH  41  42
HETATM   42  C   UNL     4     -13.506  13.821  72.395  1.00  0.00    -0.571 C  
BRANCH  42  43
HETATM   43  O   UNL     4     -12.475  14.346  71.580  1.00  0.00    -0.334 OA 
HETATM   44  C   UNL     4     -12.432  15.756  71.724  1.00  0.00    -0.459 C  
ENDBRANCH  42  43
ENDBRANCH  41  42
ENDBRANCH  40  41
ENDBRANCH   5  40
TORSDOF 17
ENDMDL
MODEL       14
REMARK 921   NORMALIZED FREE ENERGY PREDICTED BY IDOCK:   -5.88 KCAL/MOL
REMARK 922        TOTAL FREE ENERGY PREDICTED BY IDOCK:  -14.58 KCAL/MOL
REMARK 923 INTER-LIGAND FREE ENERGY PREDICTED BY IDOCK:  -12.18 KCAL/MOL
REMARK 924 INTRA-LIGAND FREE ENERGY PREDICTED BY IDOCK:   -2.41 KCAL/MOL
REMARK 927      BINDING AFFINITY PREDICTED BY RF-SCORE:    0.00 PKD
ROOT
HETATM    1 HG   UNL     2     -12.356   4.151  73.033  1.00  0.00    -0.136 Hg 
HETATM    2  C   UNL     3      -9.194  11.338  62.775  1.00  0.00    -0.354 C  
HETATM    3  C   UNL     3     -10.122  11.493  63.988  1.00  0.00    -0.321 C  
HETATM    4  C   UNL     4      -9.162   6.200  74.274  1.00  0.00    -0.156 C  
HETATM    5  C   UNL     4     -10.005   6.478  73.022  1.00  0.00    -0.172 C  
ENDROOT
BRANCH   3   6
HETATM    6  N   UNL     3     -10.545  12.894  64.257  1.00  0.00    -0.389 NA 
BRANCH   6   7
HETATM    7  C   UNL     3     -11.977  13.168  63.954  1.00  0.00    -0.488 C  
HETATM    8  C   UNL     3     -12.773  11.948  63.456  1.00  0.00    -0.530 C  
ENDBRANCH   6   7
BRANCH   6   9
HETATM    9  C   UNL     3     -10.237  13.314  65.649  1.00  0.00    -0.289 C  
BRANCH   9  10
HETATM   10  C   UNL     3     -11.467  13.530  66.527  1.00  0.00    -0.339 C  
BRANCH  10  11
HETATM   11  O   UNL     3     -11.522  14.816  67.013  1.00  0.00    -0.350 OA 
BRANCH  11  12
HETATM   12  C   UNL     3     -10.570  15.365  67.805  1.00  0.00    -0.274 C  
HETATM   13  O   UNL     3      -9.978  14.683  68.632  1.00  0.00    -0.223 OA 
BRANCH  12  14
HETATM   14  C   UNL     3     -10.197  16.772  67.574  1.00  0.00    -0.289 A  
HETATM   15  C   UNL     3      -9.563  19.486  67.204  1.00  0.00    -0.331 A  
HETATM   16  C   UNL     3      -9.760  18.651  66.095  1.00  0.00    -0.256 A  
HETATM   17  C   UNL     3     -10.076  17.300  66.275  1.00  0.00    -0.323 A  
HETATM   18  N   UNL     3      -9.241  20.860  67.027  1.00  0.00    -0.650 NA 
HETATM   19  C   UNL     3      -9.691  18.963  68.496  1.00  0.00    -0.441 A  
HETATM   20  C   UNL     3     -10.001  17.619  68.679  1.00  0.00    -0.367 A  
HETATM   21  H1  UNL     3      -9.098  21.467  67.833  1.00  0.00     0.000 HD 
HETATM   22  H2  UNL     3      -9.956  21.281  66.433  1.00  0.00     0.000 HD 
ENDBRANCH  12  14
ENDBRANCH  11  12
ENDBRANCH  10  11
ENDBRANCH   9  10
ENDBRANCH   6   9
ENDBRANCH   3   6
BRANCH   5  23
HETATM   23  C   UNL     4     -11.151   7.509  73.322  1.00  0.00    -0.241 C  
BRANCH  23  24
HETATM   24  N   UNL     4     -12.330   7.513  72.429  1.00  0.00    -0.519 NA 
HETATM   25  H   UNL     4     -12.622   6.632  72.006  1.00  0.00     0.000 HD 
BRANCH  24  26
HETATM   26  C   UNL     4     -13.021   8.600  72.152  1.00  0.00    -0.387 C  
HETATM   27  H   UNL     4     -14.772   9.538  72.458  1.00  0.00     0.000 HD 
HETATM   28  O   UNL     4     -14.274   8.753  72.657  1.00  0.00    -0.527 OA 
BRANCH  26  29
HETATM   29  C   UNL     4     -12.510   9.771  71.312  1.00  0.00    -0.461 A  
HETATM   30  C   UNL     4     -11.560   9.735  70.237  1.00  0.00    -0.220 A  
HETATM   31  C   UNL     4     -13.038  11.054  71.655  1.00  0.00    -0.543 A  
HETATM   32  C   UNL     4     -12.641  12.221  70.993  1.00  0.00    -0.352 A  
HETATM   33  C   UNL     4     -11.699  12.162  69.984  1.00  0.00    -0.330 A  
HETATM   34  C   UNL     4     -11.166  10.934  69.600  1.00  0.00    -0.348 A  
BRANCH  30  35
HETATM   35  O   UNL     4     -11.016   8.594  69.745  1.00  0.00    -0.216 OA 
BRANCH  35  36
HETATM   36  C   UNL     4     -10.499   8.453  68.472  1.00  0.00    -0.164 C  
HETATM   37  C   UNL     4     -10.229   7.017  68.155  1.00  0.00    -0.181 C  
HETATM   38  O   UNL     4     -11.233   6.121  68.198  1.00  0.00    -0.314 OA 
HETATM   39  O   UNL     4      -9.115   6.659  67.805  1.00  0.00    -0.116 OA 
ENDBRANCH  35  36
ENDBRANCH  30  35
ENDBRANCH  26  29
ENDBRANCH  24  26
ENDBRANCH  23  24
ENDBRANCH   5  23
BRANCH   5  40
HETATM   40  O   UNL     4      -9.161   6.994  71.979  1.00  0.00    -0.133 OA 
BRANCH  40  41
HETATM   41  C   UNL     4      -8.696   8.318  72.268  1.00  0.00    -0.200 C  
BRANCH  41  42
HETATM   42  C   UNL     4      -7.915   8.953  71.097  1.00  0.00    -0.144 C  
BRANCH  42  43
HETATM   43  O   UNL     4      -7.433   7.966  70.204  1.00  0.00    -0.075 OA 
HETATM   44  C   UNL     4      -6.049   8.175  69.974  1.00  0.00    -0.029 C  
ENDBRANCH  42  43
ENDBRANCH  41  42
ENDBRANCH  40  41
ENDBRANCH   5  40
TORSDOF 17
ENDMDL
MODEL       15
REMARK 921   NORMALIZED FREE ENERGY PREDICTED BY IDOCK:   -5.87 KCAL/MOL
REMARK 922        TOTAL FREE ENERGY PREDICTED BY IDOCK:  -14.57 KCAL/MOL
REMARK 923 INTER-LIGAND FREE ENERGY PREDICTED BY IDOCK:  -11.98 KCAL/MOL
REMARK 924 INTRA-LIGAND FREE ENERGY PREDICTED BY IDOCK:   -2.59 KCAL/MOL
REMARK 927      BINDING AFFINITY PREDICTED BY RF-SCORE:    0.00 PKD
ROOT
HETATM    1 HG   UNL     2     -12.141   4.371  73.403  1.00  0.00    -0.270 Hg 
HETATM    2  C   UNL     3     -10.033  11.580  62.893  1.00  0.00    -0.246 C  
HETATM    3  C   UNL     3     -10.622  11.813  64.291  1.00  0.00    -0.335 C  
HETATM    4  C   UNL     4      -8.423   5.726  73.928  1.00  0.00    -0.118 C  
HETATM    5  C   UNL     4      -9.455   6.237  72.913  1.00  0.00    -0.146 C  
ENDROOT
BRANCH   3   6
HETATM    6  N   UNL     3     -10.701  13.244  64.690  1.00  0.00    -0.377 NA 
BRANCH   6   7
HETATM    7  C   UNL     3     -12.091  13.762  64.829  1.00  0.00    -0.410 C  
HETATM    8  C   UNL     3     -12.316  15.165  64.238  1.00  0.00    -0.198 C  
ENDBRANCH   6   7
BRANCH   6   9
HETATM    9  C   UNL     3      -9.934  13.524  65.930  1.00  0.00    -0.283 C  
BRANCH   9  10
HETATM   10  C   UNL     3     -10.774  13.518  67.204  1.00  0.00    -0.279 C  
BRANCH  10  11
HETATM   11  O   UNL     3     -10.407  14.532  68.057  1.00  0.00    -0.225 OA 
BRANCH  11  12
HETATM   12  C   UNL     3     -11.170  15.623  68.307  1.00  0.00    -0.353 C  
HETATM   13  O   UNL     3     -12.225  15.519  68.921  1.00  0.00    -0.245 OA 
BRANCH  12  14
HETATM   14  C   UNL     3     -10.649  16.944  67.912  1.00  0.00    -0.361 A  
HETATM   15  C   UNL     3      -9.726  19.510  67.227  1.00  0.00    -0.343 A  
HETATM   16  C   UNL     3     -10.049  18.586  66.223  1.00  0.00    -0.422 A  
HETATM   17  C   UNL     3     -10.509  17.309  66.560  1.00  0.00    -0.260 A  
HETATM   18  N   UNL     3      -9.257  20.809  66.891  1.00  0.00    -0.634 NA 
HETATM   19  C   UNL     3      -9.873  19.150  68.572  1.00  0.00    -0.483 A  
HETATM   20  C   UNL     3     -10.327  17.879  68.911  1.00  0.00    -0.272 A  
HETATM   21  H1  UNL     3      -9.023  21.481  67.621  1.00  0.00     0.000 HD 
HETATM   22  H2  UNL     3      -9.938  21.242  66.265  1.00  0.00     0.000 HD 
ENDBRANCH  12  14
ENDBRANCH  11  12
ENDBRANCH  10  11
ENDBRANCH   9  10
ENDBRANCH   6   9
ENDBRANCH   3   6
BRANCH   5  23
HETATM   23  C   UNL     4     -10.289   7.433  73.498  1.00  0.00    -0.353 C  
BRANCH  23  24
HETATM   24  N   UNL     4     -11.731   7.494  73.174  1.00  0.00    -0.596 NA 
HETATM   25  H   UNL     4     -12.404   7.289  73.913  1.00  0.00     0.000 HD 
BRANCH  24  26
HETATM   26  C   UNL     4     -12.188   7.799  71.978  1.00  0.00    -0.305 C  
HETATM   27  H   UNL     4     -13.159   7.078  70.372  1.00  0.00     0.000 HD 
HETATM   28  O   UNL     4     -12.829   6.857  71.235  1.00  0.00    -0.359 OA 
BRANCH  26  29
HETATM   29  C   UNL     4     -12.095   9.183  71.333  1.00  0.00    -0.409 A  
HETATM   30  C   UNL     4     -11.271   9.586  70.230  1.00  0.00    -0.261 A  
HETATM   31  C   UNL     4     -12.922  10.194  71.915  1.00  0.00    -0.549 A  
HETATM   32  C   UNL     4     -12.921  11.513  71.451  1.00  0.00    -0.450 A  
HETATM   33  C   UNL     4     -12.092  11.882  70.408  1.00  0.00    -0.421 A  
HETATM   34  C   UNL     4     -11.279  10.932  69.795  1.00  0.00    -0.351 A  
BRANCH  30  35
HETATM   35  O   UNL     4     -10.481   8.738  69.525  1.00  0.00    -0.215 OA 
BRANCH  35  36
HETATM   36  C   UNL     4      -9.351   9.113  68.825  1.00  0.00    -0.139 C  
HETATM   37  C   UNL     4      -9.131   8.228  67.640  1.00  0.00    -0.131 C  
HETATM   38  O   UNL     4     -10.082   8.129  66.692  1.00  0.00    -0.270 OA 
HETATM   39  O   UNL     4      -8.074   7.634  67.499  1.00  0.00    -0.117 OA 
ENDBRANCH  35  36
ENDBRANCH  30  35
ENDBRANCH  26  29
ENDBRANCH  24  26
ENDBRANCH  23  24
ENDBRANCH   5  23
BRANCH   5  40
HETATM   40  O   UNL     4      -8.781   6.666  71.718  1.00  0.00    -0.130 OA 
BRANCH  40  41
HETATM   41  C   UNL     4      -8.948   5.735  70.641  1.00  0.00    -0.140 C  
BRANCH  41  42
HETATM   42  C   UNL     4     -10.098   4.735  70.881  1.00  0.00    -0.205 C  
BRANCH  42  43
HETATM   43  O   UNL     4      -9.707   3.412  70.563  1.00  0.00    -0.177 OA 
HETATM   44  C   UNL     4      -9.660   2.636  71.749  1.00  0.00    -0.147 C  
ENDBRANCH  42  43
ENDBRANCH  41  42
ENDBRANCH  40  41
ENDBRANCH   5  40
TORSDOF 17
ENDMDL
MODEL       16
REMARK 921   NORMALIZED FREE ENERGY PREDICTED BY IDOCK:   -5.87 KCAL/MOL
REMARK 922        TOTAL FREE ENERGY PREDICTED BY IDOCK:  -14.57 KCAL/MOL
REMARK 923 INTER-LIGAND FREE ENERGY PREDICTED BY IDOCK:  -12.26 KCAL/MOL
REMARK 924 INTRA-LIGAND FREE ENERGY PREDICTED BY IDOCK:   -2.32 KCAL/MOL
REMARK 927      BINDING AFFINITY PREDICTED BY RF-SCORE:    0.00 PKD
ROOT
HETATM    1 HG   UNL     2     -10.647  19.146  70.119  1.00  0.00    -0.569 Hg 
HETATM    2  C   UNL     3      -6.376   7.155  67.915  1.00  0.00    -0.044 C  
HETATM    3  C   UNL     3      -7.633   7.961  67.561  1.00  0.00    -0.105 C  
HETATM    4  C   UNL     4      -8.555  19.504  66.737  1.00  0.00    -0.350 C  
HETATM    5  C   UNL     4      -9.027  18.199  67.395  1.00  0.00    -0.256 C  
ENDROOT
BRANCH   3   6
HETATM    6  N   UNL     3      -8.438   7.381  66.453  1.00  0.00    -0.122 NA 
BRANCH   6   7
HETATM    7  C   UNL     3      -7.919   6.083  65.937  1.00  0.00    -0.111 C  
HETATM    8  C   UNL     3      -7.877   5.972  64.402  1.00  0.00    -0.113 C  
ENDBRANCH   6   7
BRANCH   6   9
HETATM    9  C   UNL     3      -9.872   7.239  66.816  1.00  0.00    -0.212 C  
BRANCH   9  10
HETATM   10  C   UNL     3     -10.220   5.921  67.501  1.00  0.00    -0.190 C  
BRANCH  10  11
HETATM   11  O   UNL     3     -11.233   6.080  68.419  1.00  0.00    -0.287 OA 
BRANCH  11  12
HETATM   12  C   UNL     3     -11.040   6.107  69.759  1.00  0.00    -0.416 C  
HETATM   13  O   UNL     3     -10.181   5.406  70.279  1.00  0.00    -0.224 OA 
BRANCH  12  14
HETATM   14  C   UNL     3     -11.817   7.072  70.557  1.00  0.00    -0.337 A  
HETATM   15  C   UNL     3     -13.385   8.898  72.011  1.00  0.00    -0.421 A  
HETATM   16  C   UNL     3     -12.094   9.252  71.596  1.00  0.00    -0.451 A  
HETATM   17  C   UNL     3     -11.311   8.347  70.872  1.00  0.00    -0.298 A  
HETATM   18  N   UNL     3     -14.185   9.813  72.748  1.00  0.00    -0.551 NA 
HETATM   19  C   UNL     3     -13.892   7.633  71.691  1.00  0.00    -0.480 A  
HETATM   20  C   UNL     3     -13.115   6.728  70.974  1.00  0.00    -0.004 A  
HETATM   21  H1  UNL     3     -15.124   9.555  73.049  1.00  0.00     0.000 HD 
HETATM   22  H2  UNL     3     -14.248  10.682  72.216  1.00  0.00     0.000 HD 
ENDBRANCH  12  14
ENDBRANCH  11  12
ENDBRANCH  10  11
ENDBRANCH   9  10
ENDBRANCH   6   9
ENDBRANCH   3   6
BRANCH   5  23
HETATM   23  C   UNL     4     -10.421  17.747  66.832  1.00  0.00    -0.307 C  
BRANCH  23  24
HETATM   24  N   UNL     4     -10.788  16.319  66.957  1.00  0.00    -0.236 NA 
HETATM   25  H   UNL     4     -10.834  15.754  66.109  1.00  0.00     0.000 HD 
BRANCH  24  26
HETATM   26  C   UNL     4     -11.057  15.743  68.110  1.00  0.00    -0.341 C  
HETATM   27  H   UNL     4     -11.336  16.080  70.072  1.00  0.00     0.000 HD 
HETATM   28  O   UNL     4     -11.142  16.495  69.240  1.00  0.00    -0.308 OA 
BRANCH  26  29
HETATM   29  C   UNL     4     -11.332  14.251  68.299  1.00  0.00    -0.314 A  
HETATM   30  C   UNL     4     -11.250  13.209  67.316  1.00  0.00    -0.287 A  
HETATM   31  C   UNL     4     -11.732  13.858  69.614  1.00  0.00    -0.370 A  
HETATM   32  C   UNL     4     -12.045  12.532  69.931  1.00  0.00    -0.322 A  
HETATM   33  C   UNL     4     -11.990  11.553  68.956  1.00  0.00    -0.377 A  
HETATM   34  C   UNL     4     -11.591  11.881  67.663  1.00  0.00    -0.382 A  
BRANCH  30  35
HETATM   35  O   UNL     4     -10.825  13.401  66.043  1.00  0.00    -0.273 OA 
BRANCH  35  36
HETATM   36  C   UNL     4     -11.112  12.564  64.982  1.00  0.00    -0.299 C  
HETATM   37  C   UNL     4     -12.404  12.943  64.331  1.00  0.00    -0.398 C  
HETATM   38  O   UNL     4     -12.560  14.180  63.821  1.00  0.00    -0.804 OA 
HETATM   39  O   UNL     4     -13.301  12.123  64.210  1.00  0.00    -0.761 OA 
ENDBRANCH  35  36
ENDBRANCH  30  35
ENDBRANCH  26  29
ENDBRANCH  24  26
ENDBRANCH  23  24
ENDBRANCH   5  23
BRANCH   5  40
HETATM   40  O   UNL     4      -8.058  17.164  67.157  1.00  0.00    -0.180 OA 
BRANCH  40  41
HETATM   41  C   UNL     4      -7.040  17.136  68.166  1.00  0.00    -0.180 C  
BRANCH  41  42
HETATM   42  C   UNL     4      -6.226  15.824  68.166  1.00  0.00    -0.123 C  
BRANCH  42  43
HETATM   43  O   UNL     4      -6.597  14.987  67.087  1.00  0.00    -0.281 OA 
HETATM   44  C   UNL     4      -7.412  13.931  67.569  1.00  0.00    -0.169 C  
ENDBRANCH  42  43
ENDBRANCH  41  42
ENDBRANCH  40  41
ENDBRANCH   5  40
TORSDOF 17
ENDMDL
MODEL       17
REMARK 921   NORMALIZED FREE ENERGY PREDICTED BY IDOCK:   -5.85 KCAL/MOL
REMARK 922        TOTAL FREE ENERGY PREDICTED BY IDOCK:  -14.52 KCAL/MOL
REMARK 923 INTER-LIGAND FREE ENERGY PREDICTED BY IDOCK:  -12.04 KCAL/MOL
REMARK 924 INTRA-LIGAND FREE ENERGY PREDICTED BY IDOCK:   -2.48 KCAL/MOL
REMARK 927      BINDING AFFINITY PREDICTED BY RF-SCORE:    0.00 PKD
ROOT
HETATM    1 HG   UNL     2     -10.457   7.377  65.980  1.00  0.00    -0.442 Hg 
HETATM    2  C   UNL     3      -7.029  19.825  65.571  1.00  0.00    -0.330 C  
HETATM    3  C   UNL     3      -8.066  18.990  66.335  1.00  0.00    -0.297 C  
HETATM    4  C   UNL     4      -7.555   7.639  68.709  1.00  0.00    -0.102 C  
HETATM    5  C   UNL     4      -8.309   8.803  68.052  1.00  0.00    -0.119 C  
ENDROOT
BRANCH   3   6
HETATM    6  N   UNL     3      -8.621  19.662  67.541  1.00  0.00    -0.302 NA 
BRANCH   6   7
HETATM    7  C   UNL     3      -9.913  20.366  67.306  1.00  0.00    -0.424 C  
HETATM    8  C   UNL     3     -10.880  19.634  66.358  1.00  0.00    -0.436 C  
ENDBRANCH   6   7
BRANCH   6   9
HETATM    9  C   UNL     3      -8.758  18.730  68.689  1.00  0.00    -0.325 C  
BRANCH   9  10
HETATM   10  C   UNL     3      -8.255  17.316  68.414  1.00  0.00    -0.260 C  
BRANCH  10  11
HETATM   11  O   UNL     3      -8.951  16.380  69.143  1.00  0.00    -0.250 OA 
BRANCH  11  12
HETATM   12  C   UNL     3     -10.146  15.866  68.767  1.00  0.00    -0.221 C  
HETATM   13  O   UNL     3     -10.445  15.785  67.582  1.00  0.00    -0.269 OA 
BRANCH  12  14
HETATM   14  C   UNL     3     -11.028  15.315  69.812  1.00  0.00    -0.295 A  
HETATM   15  C   UNL     3     -12.780  14.234  71.727  1.00  0.00    -0.347 A  
HETATM   16  C   UNL     3     -12.281  15.535  71.884  1.00  0.00    -0.477 A  
HETATM   17  C   UNL     3     -11.410  16.076  70.933  1.00  0.00    -0.421 A  
HETATM   18  N   UNL     3     -13.665  13.678  72.691  1.00  0.00    -0.730 NA 
HETATM   19  C   UNL     3     -12.406  13.479  70.609  1.00  0.00    -0.432 A  
HETATM   20  C   UNL     3     -11.537  14.013  69.663  1.00  0.00    -0.348 A  
HETATM   21  H1  UNL     3     -14.028  12.732  72.577  1.00  0.00     0.000 HD 
HETATM   22  H2  UNL     3     -14.456  14.312  72.800  1.00  0.00     0.000 HD 
ENDBRANCH  12  14
ENDBRANCH  11  12
ENDBRANCH  10  11
ENDBRANCH   9  10
ENDBRANCH   6   9
ENDBRANCH   3   6
BRANCH   5  23
HETATM   23  C   UNL     4      -9.555   9.232  68.906  1.00  0.00    -0.155 C  
BRANCH  23  24
HETATM   24  N   UNL     4      -9.317   9.721  70.281  1.00  0.00    -0.346 NA 
HETATM   25  H   UNL     4      -8.675  10.502  70.414  1.00  0.00     0.000 HD 
BRANCH  24  26
HETATM   26  C   UNL     4      -9.894   9.196  71.342  1.00  0.00    -0.284 C  
HETATM   27  H   UNL     4      -9.575   8.563  73.224  1.00  0.00     0.000 HD 
HETATM   28  O   UNL     4      -9.158   8.942  72.458  1.00  0.00    -0.349 OA 
BRANCH  26  29
HETATM   29  C   UNL     4     -11.382   8.866  71.455  1.00  0.00    -0.395 A  
HETATM   30  C   UNL     4     -11.996   7.570  71.489  1.00  0.00    -0.307 A  
HETATM   31  C   UNL     4     -12.262   9.991  71.520  1.00  0.00    -0.496 A  
HETATM   32  C   UNL     4     -13.651   9.845  71.596  1.00  0.00    -0.340 A  
HETATM   33  C   UNL     4     -14.219   8.584  71.593  1.00  0.00    -0.496 A  
HETATM   34  C   UNL     4     -13.405   7.455  71.548  1.00  0.00    -0.435 A  
BRANCH  30  35
HETATM   35  O   UNL     4     -11.304   6.403  71.504  1.00  0.00    -0.270 OA 
BRANCH  35  36
HETATM   36  C   UNL     4     -10.789   5.807  72.638  1.00  0.00    -0.254 C  
HETATM   37  C   UNL     4      -9.516   5.082  72.337  1.00  0.00    -0.140 C  
HETATM   38  O   UNL     4      -8.470   5.753  71.819  1.00  0.00    -0.128 OA 
HETATM   39  O   UNL     4      -9.400   3.897  72.606  1.00  0.00    -0.113 OA 
ENDBRANCH  35  36
ENDBRANCH  30  35
ENDBRANCH  26  29
ENDBRANCH  24  26
ENDBRANCH  23  24
ENDBRANCH   5  23
BRANCH   5  40
HETATM   40  O   UNL     4      -7.423   9.926  67.904  1.00  0.00    -0.088 OA 
BRANCH  40  41
HETATM   41  C   UNL     4      -7.960  10.924  67.025  1.00  0.00    -0.132 C  
BRANCH  41  42
HETATM   42  C   UNL     4      -8.394  12.208  67.764  1.00  0.00    -0.159 C  
BRANCH  42  43
HETATM   43  O   UNL     4      -7.919  13.368  67.106  1.00  0.00    -0.147 OA 
HETATM   44  C   UNL     4      -6.666  13.741  67.655  1.00  0.00    -0.176 C  
ENDBRANCH  42  43
ENDBRANCH  41  42
ENDBRANCH  40  41
ENDBRANCH   5  40
TORSDOF 17
ENDMDL
MODEL       18
REMARK 921   NORMALIZED FREE ENERGY PREDICTED BY IDOCK:   -5.84 KCAL/MOL
REMARK 922        TOTAL FREE ENERGY PREDICTED BY IDOCK:  -14.50 KCAL/MOL
REMARK 923 INTER-LIGAND FREE ENERGY PREDICTED BY IDOCK:  -11.64 KCAL/MOL
REMARK 924 INTRA-LIGAND FREE ENERGY PREDICTED BY IDOCK:   -2.85 KCAL/MOL
REMARK 927      BINDING AFFINITY PREDICTED BY RF-SCORE:    0.00 PKD
ROOT
HETATM    1 HG   UNL     2      -9.140  15.003  70.445  1.00  0.00    -0.405 Hg 
HETATM    2  C   UNL     3      -6.828   2.729  73.744  1.00  0.00    -0.031 C  
HETATM    3  C   UNL     3      -8.066   3.558  73.373  1.00  0.00    -0.075 C  
HETATM    4  C   UNL     4      -8.363  13.226  66.955  1.00  0.00    -0.092 C  
HETATM    5  C   UNL     4      -8.666  12.536  68.293  1.00  0.00    -0.171 C  
ENDROOT
BRANCH   3   6
HETATM    6  N   UNL     3      -9.253   2.746  72.991  1.00  0.00    -0.088 NA 
BRANCH   6   7
HETATM    7  C   UNL     3     -10.275   2.618  74.066  1.00  0.00    -0.128 C  
HETATM    8  C   UNL     3     -11.652   2.124  73.587  1.00  0.00    -0.274 C  
ENDBRANCH   6   7
BRANCH   6   9
HETATM    9  C   UNL     3      -9.892   3.240  71.745  1.00  0.00    -0.159 C  
BRANCH   9  10
HETATM   10  C   UNL     3      -9.633   4.714  71.447  1.00  0.00    -0.166 C  
BRANCH  10  11
HETATM   11  O   UNL     3     -10.785   5.459  71.540  1.00  0.00    -0.239 OA 
BRANCH  11  12
HETATM   12  C   UNL     3     -11.203   6.326  70.586  1.00  0.00    -0.337 C  
HETATM   13  O   UNL     3     -11.201   6.002  69.405  1.00  0.00    -0.395 OA 
BRANCH  12  14
HETATM   14  C   UNL     3     -11.753   7.624  71.016  1.00  0.00    -0.306 A  
HETATM   15  C   UNL     3     -12.897  10.074  71.787  1.00  0.00    -0.446 A  
HETATM   16  C   UNL     3     -11.631  10.046  71.185  1.00  0.00    -0.460 A  
HETATM   17  C   UNL     3     -11.059   8.829  70.800  1.00  0.00    -0.306 A  
HETATM   18  N   UNL     3     -13.483  11.308  72.181  1.00  0.00    -0.528 NA 
HETATM   19  C   UNL     3     -13.591   8.877  71.995  1.00  0.00    -0.489 A  
HETATM   20  C   UNL     3     -13.024   7.664  71.616  1.00  0.00    -0.385 A  
HETATM   21  H1  UNL     3     -14.404  11.328  72.618  1.00  0.00     0.000 HD 
HETATM   22  H2  UNL     3     -13.501  11.926  71.370  1.00  0.00     0.000 HD 
ENDBRANCH  12  14
ENDBRANCH  11  12
ENDBRANCH  10  11
ENDBRANCH   9  10
ENDBRANCH   6   9
ENDBRANCH   3   6
BRANCH   5  23
HETATM   23  C   UNL     4     -10.199  12.230  68.444  1.00  0.00    -0.217 C  
BRANCH  23  24
HETATM   24  N   UNL     4     -11.159  13.245  67.959  1.00  0.00    -0.246 NA 
HETATM   25  H   UNL     4     -11.770  13.003  67.179  1.00  0.00     0.000 HD 
BRANCH  24  26
HETATM   26  C   UNL     4     -11.262  14.448  68.484  1.00  0.00    -0.265 C  
HETATM   27  H   UNL     4     -11.696  15.458  70.168  1.00  0.00     0.000 HD 
HETATM   28  O   UNL     4     -11.622  14.590  69.789  1.00  0.00    -0.266 OA 
BRANCH  26  29
HETATM   29  C   UNL     4     -10.967  15.754  67.746  1.00  0.00    -0.314 A  
HETATM   30  C   UNL     4     -10.805  15.949  66.333  1.00  0.00    -0.193 A  
HETATM   31  C   UNL     4     -10.823  16.913  68.571  1.00  0.00    -0.335 A  
HETATM   32  C   UNL     4     -10.524  18.171  68.039  1.00  0.00    -0.387 A  
HETATM   33  C   UNL     4     -10.339  18.325  66.678  1.00  0.00    -0.400 A  
HETATM   34  C   UNL     4     -10.484  17.231  65.828  1.00  0.00    -0.237 A  
BRANCH  30  35
HETATM   35  O   UNL     4     -10.974  14.971  65.409  1.00  0.00    -0.334 OA 
BRANCH  35  36
HETATM   36  C   UNL     4     -12.151  14.723  64.732  1.00  0.00    -0.381 C  
HETATM   37  C   UNL     4     -12.397  13.253  64.597  1.00  0.00    -0.391 C  
HETATM   38  O   UNL     4     -12.486  12.485  65.699  1.00  0.00    -0.648 OA 
HETATM   39  O   UNL     4     -12.568  12.753  63.497  1.00  0.00    -0.703 OA 
ENDBRANCH  35  36
ENDBRANCH  30  35
ENDBRANCH  26  29
ENDBRANCH  24  26
ENDBRANCH  23  24
ENDBRANCH   5  23
BRANCH   5  40
HETATM   40  O   UNL     4      -7.924  11.308  68.378  1.00  0.00    -0.124 OA 
BRANCH  40  41
HETATM   41  C   UNL     4      -8.742  10.164  68.102  1.00  0.00    -0.122 C  
BRANCH  41  42
HETATM   42  C   UNL     4      -8.256   9.355  66.880  1.00  0.00    -0.116 C  
BRANCH  42  43
HETATM   43  O   UNL     4      -9.301   8.578  66.326  1.00  0.00    -0.193 OA 
HETATM   44  C   UNL     4     -10.420   8.604  67.197  1.00  0.00    -0.289 C  
ENDBRANCH  42  43
ENDBRANCH  41  42
ENDBRANCH  40  41
ENDBRANCH   5  40
TORSDOF 17
ENDMDL
MODEL       19
REMARK 921   NORMALIZED FREE ENERGY PREDICTED BY IDOCK:   -5.83 KCAL/MOL
REMARK 922        TOTAL FREE ENERGY PREDICTED BY IDOCK:  -14.49 KCAL/MOL
REMARK 923 INTER-LIGAND FREE ENERGY PREDICTED BY IDOCK:  -11.13 KCAL/MOL
REMARK 924 INTRA-LIGAND FREE ENERGY PREDICTED BY IDOCK:   -3.36 KCAL/MOL
REMARK 927      BINDING AFFINITY PREDICTED BY RF-SCORE:    0.00 PKD
ROOT
HETATM    1 HG   UNL     2     -10.656   8.442  73.688  1.00  0.00    -0.244 Hg 
HETATM    2  C   UNL     3     -10.209  20.564  69.248  1.00  0.00     0.234 C  
HETATM    3  C   UNL     3      -9.584  19.220  68.851  1.00  0.00    -0.406 C  
HETATM    4  C   UNL     4     -13.725   8.619  71.140  1.00  0.00    -0.082 C  
HETATM    5  C   UNL     4     -12.576   9.629  71.270  1.00  0.00    -0.352 C  
ENDROOT
BRANCH   3   6
HETATM    6  N   UNL     3      -9.041  19.185  67.466  1.00  0.00    -0.291 NA 
BRANCH   6   7
HETATM    7  C   UNL     3      -7.643  18.681  67.372  1.00  0.00    -0.227 C  
HETATM    8  C   UNL     3      -7.352  17.820  66.129  1.00  0.00    -0.335 C  
ENDBRANCH   6   7
BRANCH   6   9
HETATM    9  C   UNL     3      -9.915  18.418  66.541  1.00  0.00    -0.379 C  
BRANCH   9  10
HETATM   10  C   UNL     3     -10.922  17.507  67.237  1.00  0.00    -0.013 C  
BRANCH  10  11
HETATM   11  O   UNL     3     -10.507  16.196  67.230  1.00  0.00    -0.300 OA 
BRANCH  11  12
HETATM   12  C   UNL     3     -11.345  15.138  67.348  1.00  0.00    -0.306 C  
HETATM   13  O   UNL     3     -12.107  15.050  68.303  1.00  0.00    -0.240 OA 
BRANCH  12  14
HETATM   14  C   UNL     3     -11.386  14.155  66.250  1.00  0.00    -0.340 A  
HETATM   15  C   UNL     3     -11.431  12.360  64.087  1.00  0.00    -0.381 A  
HETATM   16  C   UNL     3     -12.536  12.457  64.945  1.00  0.00    -0.439 A  
HETATM   17  C   UNL     3     -12.517  13.350  66.022  1.00  0.00    -0.431 A  
HETATM   18  N   UNL     3     -11.444  11.454  62.992  1.00  0.00    -0.852 NA 
HETATM   19  C   UNL     3     -10.309  13.166  64.309  1.00  0.00    -0.361 A  
HETATM   20  C   UNL     3     -10.285  14.053  65.382  1.00  0.00    -0.368 A  
HETATM   21  H1  UNL     3     -10.641  11.383  62.368  1.00  0.00     0.000 HD 
HETATM   22  H2  UNL     3     -12.271  11.648  62.427  1.00  0.00     0.000 HD 
ENDBRANCH  12  14
ENDBRANCH  11  12
ENDBRANCH  10  11
ENDBRANCH   9  10
ENDBRANCH   6   9
ENDBRANCH   3   6
BRANCH   5  23
HETATM   23  C   UNL     4     -11.399   9.285  70.289  1.00  0.00    -0.203 C  
BRANCH  23  24
HETATM   24  N   UNL     4     -11.494   9.773  68.896  1.00  0.00    -0.477 NA 
HETATM   25  H   UNL     4     -12.206   9.370  68.288  1.00  0.00     0.000 HD 
BRANCH  24  26
HETATM   26  C   UNL     4     -10.702  10.703  68.404  1.00  0.00    -0.222 C  
HETATM   27  H   UNL     4     -10.124  12.619  68.598  1.00  0.00     0.000 HD 
HETATM   28  O   UNL     4     -10.695  11.948  68.953  1.00  0.00    -0.221 OA 
BRANCH  26  29
HETATM   29  C   UNL     4      -9.723  10.497  67.247  1.00  0.00    -0.197 A  
HETATM   30  C   UNL     4      -8.375  10.975  67.140  1.00  0.00    -0.132 A  
HETATM   31  C   UNL     4     -10.225   9.747  66.139  1.00  0.00    -0.278 A  
HETATM   32  C   UNL     4      -9.455   9.502  64.997  1.00  0.00    -0.273 A  
HETATM   33  C   UNL     4      -8.170  10.005  64.905  1.00  0.00    -0.154 A  
HETATM   34  C   UNL     4      -7.627  10.727  65.965  1.00  0.00    -0.130 A  
BRANCH  30  35
HETATM   35  O   UNL     4      -7.726  11.643  68.127  1.00  0.00    -0.107 OA 
BRANCH  35  36
HETATM   36  C   UNL     4      -7.424  12.990  68.098  1.00  0.00    -0.130 C  
HETATM   37  C   UNL     4      -5.946  13.213  68.154  1.00  0.00    -0.104 C  
HETATM   38  O   UNL     4      -5.153  12.681  67.205  1.00  0.00    -0.306 OA 
HETATM   39  O   UNL     4      -5.458  13.917  69.024  1.00  0.00    -0.079 OA 
ENDBRANCH  35  36
ENDBRANCH  30  35
ENDBRANCH  26  29
ENDBRANCH  24  26
ENDBRANCH  23  24
ENDBRANCH   5  23
BRANCH   5  40
HETATM   40  O   UNL     4     -13.064  10.951  70.985  1.00  0.00    -0.331 OA 
BRANCH  40  41
HETATM   41  C   UNL     4     -12.981  11.815  72.125  1.00  0.00    -0.118 C  
BRANCH  41  42
HETATM   42  C   UNL     4     -13.263  13.293  71.784  1.00  0.00    -0.405 C  
BRANCH  42  43
HETATM   43  O   UNL     4     -14.015  13.924  72.804  1.00  0.00    -0.697 OA 
HETATM   44  C   UNL     4     -13.466  15.204  73.071  1.00  0.00    -0.452 C  
ENDBRANCH  42  43
ENDBRANCH  41  42
ENDBRANCH  40  41
ENDBRANCH   5  40
TORSDOF 17
ENDMDL
MODEL       20
REMARK 921   NORMALIZED FREE ENERGY PREDICTED BY IDOCK:   -5.82 KCAL/MOL
REMARK 922        TOTAL FREE ENERGY PREDICTED BY IDOCK:  -14.47 KCAL/MOL
REMARK 923 INTER-LIGAND FREE ENERGY PREDICTED BY IDOCK:  -11.25 KCAL/MOL
REMARK 924 INTRA-LIGAND FREE ENERGY PREDICTED BY IDOCK:   -3.23 KCAL/MOL
REMARK 927      BINDING AFFINITY PREDICTED BY RF-SCORE:    0.00 PKD
ROOT
HETATM    1 HG   UNL     2     -11.801   5.277  65.301  1.00  0.00    -0.726 Hg 
HETATM    2  C   UNL     3      -7.428  17.413  65.981  1.00  0.00    -0.255 C  
HETATM    3  C   UNL     3      -8.454  16.565  66.746  1.00  0.00    -0.238 C  
HETATM    4  C   UNL     4      -8.647   5.000  67.733  1.00  0.00    -0.103 C  
HETATM    5  C   UNL     4      -9.362   6.286  67.294  1.00  0.00    -0.118 C  
ENDROOT
BRANCH   3   6
HETATM    6  N   UNL     3      -8.839  17.121  68.071  1.00  0.00    -0.224 NA 
BRANCH   6   7
HETATM    7  C   UNL     3     -10.295  17.401  68.215  1.00  0.00    -0.374 C  
HETATM    8  C   UNL     3     -10.984  16.644  69.364  1.00  0.00    -0.235 C  
ENDBRANCH   6   7
BRANCH   6   9
HETATM    9  C   UNL     3      -8.379  16.263  69.193  1.00  0.00    -0.211 C  
BRANCH   9  10
HETATM   10  C   UNL     3      -7.869  14.890  68.767  1.00  0.00    -0.149 C  
BRANCH  10  11
HETATM   11  O   UNL     3      -8.838  13.924  68.906  1.00  0.00    -0.049 OA 
BRANCH  11  12
HETATM   12  C   UNL     3      -9.118  12.994  67.962  1.00  0.00    -0.210 C  
HETATM   13  O   UNL     3      -8.671  11.857  68.056  1.00  0.00    -0.158 OA 
BRANCH  12  14
HETATM   14  C   UNL     3     -10.052  13.356  66.881  1.00  0.00    -0.255 A  
HETATM   15  C   UNL     3     -11.757  14.110  64.776  1.00  0.00    -0.410 A  
HETATM   16  C   UNL     3     -12.207  14.169  66.103  1.00  0.00    -0.465 A  
HETATM   17  C   UNL     3     -11.361  13.795  67.152  1.00  0.00    -0.344 A  
HETATM   18  N   UNL     3     -12.612  14.488  63.705  1.00  0.00    -0.992 NA 
HETATM   19  C   UNL     3     -10.452  13.680  64.506  1.00  0.00    -0.411 A  
HETATM   20  C   UNL     3      -9.609  13.304  65.548  1.00  0.00     0.036 A  
HETATM   21  H1  UNL     3     -12.284  14.445  62.740  1.00  0.00     0.000 HD 
HETATM   22  H2  UNL     3     -12.951  15.433  63.886  1.00  0.00     0.000 HD 
ENDBRANCH  12  14
ENDBRANCH  11  12
ENDBRANCH  10  11
ENDBRANCH   9  10
ENDBRANCH   6   9
ENDBRANCH   3   6
BRANCH   5  23
HETATM   23  C   UNL     4     -10.485   6.692  68.314  1.00  0.00    -0.209 C  
BRANCH  23  24
HETATM   24  N   UNL     4     -10.792   8.131  68.469  1.00  0.00    -0.425 NA 
HETATM   25  H   UNL     4     -11.302   8.602  67.722  1.00  0.00     0.000 HD 
BRANCH  24  26
HETATM   26  C   UNL     4     -10.438   8.833  69.526  1.00  0.00    -0.220 C  
HETATM   27  H   UNL     4      -8.879   9.371  70.676  1.00  0.00     0.000 HD 
HETATM   28  O   UNL     4      -9.134   8.865  69.913  1.00  0.00    -0.149 OA 
BRANCH  26  29
HETATM   29  C   UNL     4     -11.389   9.680  70.372  1.00  0.00    -0.337 A  
HETATM   30  C   UNL     4     -12.162   9.267  71.508  1.00  0.00    -0.362 A  
HETATM   31  C   UNL     4     -11.529  11.044  69.966  1.00  0.00    -0.398 A  
HETATM   32  C   UNL     4     -12.386  11.931  70.626  1.00  0.00    -0.405 A  
HETATM   33  C   UNL     4     -13.145  11.498  71.697  1.00  0.00    -0.478 A  
HETATM   34  C   UNL     4     -13.033  10.183  72.142  1.00  0.00    -0.436 A  
BRANCH  30  35
HETATM   35  O   UNL     4     -12.095   8.030  72.060  1.00  0.00    -0.301 OA 
BRANCH  35  36
HETATM   36  C   UNL     4     -11.114   7.612  72.936  1.00  0.00    -0.393 C  
HETATM   37  C   UNL     4     -10.836   6.150  72.778  1.00  0.00    -0.250 C  
HETATM   38  O   UNL     4     -10.435   5.670  71.586  1.00  0.00    -0.214 OA 
HETATM   39  O   UNL     4     -10.921   5.397  73.736  1.00  0.00    -0.283 OA 
ENDBRANCH  35  36
ENDBRANCH  30  35
ENDBRANCH  26  29
ENDBRANCH  24  26
ENDBRANCH  23  24
ENDBRANCH   5  23
BRANCH   5  40
HETATM   40  O   UNL     4      -8.406   7.354  67.187  1.00  0.00    -0.116 OA 
BRANCH  40  41
HETATM   41  C   UNL     4      -7.921   7.512  65.848  1.00  0.00    -0.117 C  
BRANCH  41  42
HETATM   42  C   UNL     4      -8.653   8.624  65.067  1.00  0.00    -0.158 C  
BRANCH  42  43
HETATM   43  O   UNL     4      -9.179   9.606  65.940  1.00  0.00    -0.166 OA 
HETATM   44  C   UNL     4     -10.471   9.988  65.496  1.00  0.00     0.063 C  
ENDBRANCH  42  43
ENDBRANCH  41  42
ENDBRANCH  40  41
ENDBRANCH   5  40
TORSDOF 17
ENDMDL
MODEL       21
REMARK 921   NORMALIZED FREE ENERGY PREDICTED BY IDOCK:   -5.75 KCAL/MOL
REMARK 922        TOTAL FREE ENERGY PREDICTED BY IDOCK:  -14.34 KCAL/MOL
REMARK 923 INTER-LIGAND FREE ENERGY PREDICTED BY IDOCK:  -11.28 KCAL/MOL
REMARK 924 INTRA-LIGAND FREE ENERGY PREDICTED BY IDOCK:   -3.05 KCAL/MOL
REMARK 927      BINDING AFFINITY PREDICTED BY RF-SCORE:    0.00 PKD
ROOT
HETATM    1 HG   UNL     2      -6.681  17.929  67.194  1.00  0.00    -0.152 Hg 
HETATM    2  C   UNL     3      -7.409   5.088  65.997  1.00  0.00    -0.078 C  
HETATM    3  C   UNL     3      -7.601   6.103  67.132  1.00  0.00    -0.092 C  
HETATM    4  C   UNL     4     -10.470  17.304  66.103  1.00  0.00    -0.279 C  
HETATM    5  C   UNL     4      -9.470  16.252  66.604  1.00  0.00    -0.248 C  
ENDROOT
BRANCH   3   6
HETATM    6  N   UNL     3      -8.342   5.571  68.307  1.00  0.00    -0.099 NA 
BRANCH   6   7
HETATM    7  C   UNL     3      -9.098   4.316  68.035  1.00  0.00    -0.131 C  
HETATM    8  C   UNL     3      -9.475   3.508  69.289  1.00  0.00    -0.233 C  
ENDBRANCH   6   7
BRANCH   6   9
HETATM    9  C   UNL     3      -7.458   5.379  69.486  1.00  0.00    -0.069 C  
BRANCH   9  10
HETATM   10  C   UNL     3      -6.874   6.670  70.051  1.00  0.00    -0.054 C  
BRANCH  10  11
HETATM   11  O   UNL     3      -7.655   7.178  71.063  1.00  0.00    -0.083 OA 
BRANCH  11  12
HETATM   12  C   UNL     3      -8.523   8.207  70.903  1.00  0.00    -0.130 C  
HETATM   13  O   UNL     3      -8.134   9.291  70.489  1.00  0.00    -0.142 OA 
BRANCH  12  14
HETATM   14  C   UNL     3      -9.955   7.954  71.142  1.00  0.00    -0.198 A  
HETATM   15  C   UNL     3     -12.663   7.443  71.700  1.00  0.00    -0.365 A  
HETATM   16  C   UNL     3     -12.066   6.901  70.554  1.00  0.00    -0.315 A  
HETATM   17  C   UNL     3     -10.718   7.152  70.273  1.00  0.00    -0.258 A  
HETATM   18  N   UNL     3     -14.032   7.192  71.990  1.00  0.00    -0.577 NA 
HETATM   19  C   UNL     3     -11.902   8.235  72.569  1.00  0.00    -0.439 A  
HETATM   20  C   UNL     3     -10.563   8.490  72.291  1.00  0.00    -0.408 A  
HETATM   21  H1  UNL     3     -14.466   7.587  72.824  1.00  0.00     0.000 HD 
HETATM   22  H2  UNL     3     -14.175   6.182  72.003  1.00  0.00     0.000 HD 
ENDBRANCH  12  14
ENDBRANCH  11  12
ENDBRANCH  10  11
ENDBRANCH   9  10
ENDBRANCH   6   9
ENDBRANCH   3   6
BRANCH   5  23
HETATM   23  C   UNL     4      -9.576  16.058  68.159  1.00  0.00    -0.209 C  
BRANCH  23  24
HETATM   24  N   UNL     4     -10.206  14.817  68.660  1.00  0.00    -0.230 NA 
HETATM   25  H   UNL     4      -9.721  13.932  68.511  1.00  0.00     0.000 HD 
BRANCH  24  26
HETATM   26  C   UNL     4     -11.363  14.800  69.288  1.00  0.00    -0.294 C  
HETATM   27  H   UNL     4     -13.012  15.876  69.693  1.00  0.00     0.000 HD 
HETATM   28  O   UNL     4     -12.178  15.888  69.239  1.00  0.00    -0.273 OA 
BRANCH  26  29
HETATM   29  C   UNL     4     -11.916  13.609  70.071  1.00  0.00    -0.413 A  
HETATM   30  C   UNL     4     -11.749  12.213  69.785  1.00  0.00    -0.310 A  
HETATM   31  C   UNL     4     -12.705  13.935  71.218  1.00  0.00    -0.444 A  
HETATM   32  C   UNL     4     -13.301  12.951  72.015  1.00  0.00    -0.579 A  
HETATM   33  C   UNL     4     -13.151  11.614  71.696  1.00  0.00    -0.456 A  
HETATM   34  C   UNL     4     -12.379  11.243  70.598  1.00  0.00    -0.477 A  
BRANCH  30  35
HETATM   35  O   UNL     4     -10.978  11.734  68.776  1.00  0.00    -0.211 OA 
BRANCH  35  36
HETATM   36  C   UNL     4     -11.439  11.422  67.513  1.00  0.00    -0.260 C  
HETATM   37  C   UNL     4     -10.650  10.303  66.911  1.00  0.00    -0.217 C  
HETATM   38  O   UNL     4     -10.590   9.113  67.538  1.00  0.00    -0.267 OA 
HETATM   39  O   UNL     4     -10.103  10.444  65.828  1.00  0.00    -0.251 OA 
ENDBRANCH  35  36
ENDBRANCH  30  35
ENDBRANCH  26  29
ENDBRANCH  24  26
ENDBRANCH  23  24
ENDBRANCH   5  23
BRANCH   5  40
HETATM   40  O   UNL     4      -9.724  14.998  65.948  1.00  0.00    -0.306 OA 
BRANCH  40  41
HETATM   41  C   UNL     4     -10.758  15.105  64.961  1.00  0.00    -0.430 C  
BRANCH  41  42
HETATM   42  C   UNL     4     -11.657  13.853  64.892  1.00  0.00    -0.359 C  
BRANCH  42  43
HETATM   43  O   UNL     4     -11.351  13.059  63.761  1.00  0.00    -0.407 OA 
HETATM   44  C   UNL     4     -12.364  12.085  63.580  1.00  0.00    -0.539 C  
ENDBRANCH  42  43
ENDBRANCH  41  42
ENDBRANCH  40  41
ENDBRANCH   5  40
TORSDOF 17
ENDMDL
MODEL       22
REMARK 921   NORMALIZED FREE ENERGY PREDICTED BY IDOCK:   -5.75 KCAL/MOL
REMARK 922        TOTAL FREE ENERGY PREDICTED BY IDOCK:  -14.33 KCAL/MOL
REMARK 923 INTER-LIGAND FREE ENERGY PREDICTED BY IDOCK:  -11.73 KCAL/MOL
REMARK 924 INTRA-LIGAND FREE ENERGY PREDICTED BY IDOCK:   -2.61 KCAL/MOL
REMARK 927      BINDING AFFINITY PREDICTED BY RF-SCORE:    0.00 PKD
ROOT
HETATM    1 HG   UNL     2     -11.790   5.218  66.408  1.00  0.00    -0.436 Hg 
HETATM    2  C   UNL     3     -10.653  18.066  65.710  1.00  0.00    -0.174 C  
HETATM    3  C   UNL     3     -10.638  17.016  66.829  1.00  0.00    -0.191 C  
HETATM    4  C   UNL     4      -7.875   5.783  65.865  1.00  0.00    -0.101 C  
HETATM    5  C   UNL     4      -8.913   6.844  66.256  1.00  0.00    -0.151 C  
ENDROOT
BRANCH   3   6
HETATM    6  N   UNL     3     -10.056  17.499  68.111  1.00  0.00    -0.321 NA 
BRANCH   6   7
HETATM    7  C   UNL     3     -10.080  18.979  68.272  1.00  0.00    -0.396 C  
HETATM    8  C   UNL     3      -8.695  19.631  68.432  1.00  0.00    -0.357 C  
ENDBRANCH   6   7
BRANCH   6   9
HETATM    9  C   UNL     3     -10.688  16.855  69.291  1.00  0.00    -0.288 C  
BRANCH   9  10
HETATM   10  C   UNL     3      -9.994  15.578  69.757  1.00  0.00    -0.274 C  
BRANCH  10  11
HETATM   11  O   UNL     3     -10.713  14.457  69.412  1.00  0.00    -0.232 OA 
BRANCH  11  12
HETATM   12  C   UNL     3     -10.313  13.562  68.476  1.00  0.00    -0.240 C  
HETATM   13  O   UNL     3      -9.591  12.621  68.782  1.00  0.00    -0.067 OA 
BRANCH  12  14
HETATM   14  C   UNL     3     -10.851  13.694  67.110  1.00  0.00    -0.292 A  
HETATM   15  C   UNL     3     -11.941  13.857  64.524  1.00  0.00    -0.437 A  
HETATM   16  C   UNL     3     -10.552  13.906  64.707  1.00  0.00    -0.444 A  
HETATM   17  C   UNL     3     -10.006  13.824  65.993  1.00  0.00    -0.319 A  
HETATM   18  N   UNL     3     -12.502  13.941  63.220  1.00  0.00    -1.112 NA 
HETATM   19  C   UNL     3     -12.782  13.720  65.635  1.00  0.00    -0.523 A  
HETATM   20  C   UNL     3     -12.242  13.642  66.915  1.00  0.00    -0.398 A  
HETATM   21  H1  UNL     3     -13.512  13.905  63.087  1.00  0.00     0.000 HD 
HETATM   22  H2  UNL     3     -12.078  13.213  62.644  1.00  0.00     0.000 HD 
ENDBRANCH  12  14
ENDBRANCH  11  12
ENDBRANCH  10  11
ENDBRANCH   9  10
ENDBRANCH   6   9
ENDBRANCH   3   6
BRANCH   5  23
HETATM   23  C   UNL     4      -9.019   6.993  67.816  1.00  0.00    -0.121 C  
BRANCH  23  24
HETATM   24  N   UNL     4     -10.256   6.521  68.475  1.00  0.00    -0.160 NA 
HETATM   25  H   UNL     4     -11.153   6.793  68.074  1.00  0.00     0.000 HD 
BRANCH  24  26
HETATM   26  C   UNL     4     -10.254   5.768  69.555  1.00  0.00    -0.239 C  
HETATM   27  H   UNL     4     -10.121   3.875  70.219  1.00  0.00     0.000 HD 
HETATM   28  O   UNL     4     -10.123   4.419  69.440  1.00  0.00    -0.162 OA 
BRANCH  26  29
HETATM   29  C   UNL     4     -10.354   6.292  70.988  1.00  0.00    -0.258 A  
HETATM   30  C   UNL     4     -10.918   7.534  71.434  1.00  0.00    -0.231 A  
HETATM   31  C   UNL     4      -9.804   5.442  71.997  1.00  0.00    -0.212 A  
HETATM   32  C   UNL     4      -9.796   5.802  73.349  1.00  0.00    -0.167 A  
HETATM   33  C   UNL     4     -10.316   7.020  73.747  1.00  0.00    -0.408 A  
HETATM   34  C   UNL     4     -10.879   7.877  72.805  1.00  0.00    -0.451 A  
BRANCH  30  35
HETATM   35  O   UNL     4     -11.538   8.421  70.616  1.00  0.00    -0.270 OA 
BRANCH  35  36
HETATM   36  C   UNL     4     -12.491   9.334  71.023  1.00  0.00    -0.211 C  
HETATM   37  C   UNL     4     -12.274  10.665  70.375  1.00  0.00    -0.345 C  
HETATM   38  O   UNL     4     -12.281  10.765  69.033  1.00  0.00    -0.421 OA 
HETATM   39  O   UNL     4     -12.144  11.671  71.056  1.00  0.00    -0.295 OA 
ENDBRANCH  35  36
ENDBRANCH  30  35
ENDBRANCH  26  29
ENDBRANCH  24  26
ENDBRANCH  23  24
ENDBRANCH   5  23
BRANCH   5  40
HETATM   40  O   UNL     4      -8.547   8.109  65.680  1.00  0.00    -0.151 OA 
BRANCH  40  41
HETATM   41  C   UNL     4      -9.449   9.156  66.060  1.00  0.00    -0.255 C  
BRANCH  41  42
HETATM   42  C   UNL     4      -8.898  10.566  65.761  1.00  0.00    -0.175 C  
BRANCH  42  43
HETATM   43  O   UNL     4      -8.369  10.646  64.451  1.00  0.00    -0.136 OA 
HETATM   44  C   UNL     4      -9.431  10.630  63.512  1.00  0.00    -0.308 C  
ENDBRANCH  42  43
ENDBRANCH  41  42
ENDBRANCH  40  41
ENDBRANCH   5  40
TORSDOF 17
ENDMDL
MODEL       23
REMARK 921   NORMALIZED FREE ENERGY PREDICTED BY IDOCK:   -5.69 KCAL/MOL
REMARK 922        TOTAL FREE ENERGY PREDICTED BY IDOCK:  -14.20 KCAL/MOL
REMARK 923 INTER-LIGAND FREE ENERGY PREDICTED BY IDOCK:  -11.95 KCAL/MOL
REMARK 924 INTRA-LIGAND FREE ENERGY PREDICTED BY IDOCK:   -2.25 KCAL/MOL
REMARK 927      BINDING AFFINITY PREDICTED BY RF-SCORE:    0.00 PKD
ROOT
HETATM    1 HG   UNL     2      -9.423  13.064  63.533  1.00  0.00    -0.507 Hg 
HETATM    2  C   UNL     3      -9.388   3.831  72.567  1.00  0.00    -0.164 C  
HETATM    3  C   UNL     3      -8.833   5.257  72.444  1.00  0.00    -0.128 C  
HETATM    4  C   UNL     4     -12.781  13.746  65.582  1.00  0.00    -0.523 C  
HETATM    5  C   UNL     4     -11.613  12.842  66.001  1.00  0.00    -0.375 C  
ENDROOT
BRANCH   3   6
HETATM    6  N   UNL     3      -8.466   5.883  73.743  1.00  0.00    -0.115 NA 
BRANCH   6   7
HETATM    7  C   UNL     3      -7.006   6.126  73.911  1.00  0.00    -0.083 C  
HETATM    8  C   UNL     3      -6.265   6.506  72.617  1.00  0.00    -0.054 C  
ENDBRANCH   6   7
BRANCH   6   9
HETATM    9  C   UNL     3      -9.216   7.140  73.991  1.00  0.00    -0.243 C  
BRANCH   9  10
HETATM   10  C   UNL     3     -10.661   7.118  73.501  1.00  0.00    -0.374 C  
BRANCH  10  11
HETATM   11  O   UNL     3     -11.013   8.307  72.906  1.00  0.00    -0.324 OA 
BRANCH  11  12
HETATM   12  C   UNL     3     -11.541   8.403  71.663  1.00  0.00    -0.289 C  
HETATM   13  O   UNL     3     -12.482   9.155  71.442  1.00  0.00    -0.308 OA 
BRANCH  12  14
HETATM   14  C   UNL     3     -10.889   7.661  70.569  1.00  0.00    -0.249 A  
HETATM   15  C   UNL     3      -9.621   6.339  68.436  1.00  0.00    -0.121 A  
HETATM   16  C   UNL     3     -10.906   5.952  68.841  1.00  0.00    -0.373 A  
HETATM   17  C   UNL     3     -11.540   6.607  69.901  1.00  0.00    -0.393 A  
HETATM   18  N   UNL     3      -8.971   5.676  67.359  1.00  0.00    -0.109 NA 
HETATM   19  C   UNL     3      -8.977   7.393  69.095  1.00  0.00    -0.135 A  
HETATM   20  C   UNL     3      -9.603   8.045  70.152  1.00  0.00    -0.175 A  
HETATM   21  H1  UNL     3      -8.037   5.959  67.065  1.00  0.00     0.000 HD 
HETATM   22  H2  UNL     3      -9.586   5.710  66.546  1.00  0.00     0.000 HD 
ENDBRANCH  12  14
ENDBRANCH  11  12
ENDBRANCH  10  11
ENDBRANCH   9  10
ENDBRANCH   6   9
ENDBRANCH   3   6
BRANCH   5  23
HETATM   23  C   UNL     4     -10.570  13.626  66.877  1.00  0.00    -0.271 C  
BRANCH  23  24
HETATM   24  N   UNL     4      -9.653  14.560  66.189  1.00  0.00    -0.376 NA 
HETATM   25  H   UNL     4      -8.724  14.227  65.930  1.00  0.00     0.000 HD 
BRANCH  24  26
HETATM   26  C   UNL     4      -9.977  15.802  65.896  1.00  0.00    -0.352 C  
HETATM   27  H   UNL     4     -10.837  16.977  64.510  1.00  0.00     0.000 HD 
HETATM   28  O   UNL     4     -10.603  16.081  64.721  1.00  0.00    -0.600 OA 
BRANCH  26  29
HETATM   29  C   UNL     4      -9.739  17.007  66.808  1.00  0.00    -0.276 A  
HETATM   30  C   UNL     4     -10.306  17.258  68.102  1.00  0.00    -0.357 A  
HETATM   31  C   UNL     4      -8.855  18.006  66.294  1.00  0.00    -0.194 A  
HETATM   32  C   UNL     4      -8.565  19.177  67.002  1.00  0.00    -0.309 A  
HETATM   33  C   UNL     4      -9.152  19.409  68.232  1.00  0.00    -0.397 A  
HETATM   34  C   UNL     4     -10.008  18.460  68.784  1.00  0.00    -0.404 A  
BRANCH  30  35
HETATM   35  O   UNL     4     -11.109  16.384  68.759  1.00  0.00    -0.328 OA 
BRANCH  35  36
HETATM   36  C   UNL     4     -10.801  15.787  69.965  1.00  0.00    -0.342 C  
HETATM   37  C   UNL     4     -11.945  15.889  70.925  1.00  0.00    -0.394 C  
HETATM   38  O   UNL     4     -13.141  15.365  70.599  1.00  0.00    -0.426 OA 
HETATM   39  O   UNL     4     -11.786  16.396  72.024  1.00  0.00    -0.511 OA 
ENDBRANCH  35  36
ENDBRANCH  30  35
ENDBRANCH  26  29
ENDBRANCH  24  26
ENDBRANCH  23  24
ENDBRANCH   5  23
BRANCH   5  40
HETATM   40  O   UNL     4     -12.117  11.723  66.749  1.00  0.00    -0.547 OA 
BRANCH  40  41
HETATM   41  C   UNL     4     -11.106  11.123  67.569  1.00  0.00    -0.291 C  
BRANCH  41  42
HETATM   42  C   UNL     4     -10.570   9.795  66.992  1.00  0.00    -0.199 C  
BRANCH  42  43
HETATM   43  O   UNL     4      -9.594  10.024  65.992  1.00  0.00    -0.191 OA 
HETATM   44  C   UNL     4      -8.456  10.638  66.576  1.00  0.00    -0.144 C  
ENDBRANCH  42  43
ENDBRANCH  41  42
ENDBRANCH  40  41
ENDBRANCH   5  40
TORSDOF 17
ENDMDL
MODEL       24
REMARK 921   NORMALIZED FREE ENERGY PREDICTED BY IDOCK:   -5.66 KCAL/MOL
REMARK 922        TOTAL FREE ENERGY PREDICTED BY IDOCK:  -14.14 KCAL/MOL
REMARK 923 INTER-LIGAND FREE ENERGY PREDICTED BY IDOCK:  -11.48 KCAL/MOL
REMARK 924 INTRA-LIGAND FREE ENERGY PREDICTED BY IDOCK:   -2.66 KCAL/MOL
REMARK 927      BINDING AFFINITY PREDICTED BY RF-SCORE:    0.00 PKD
ROOT
HETATM    1 HG   UNL     2     -10.371   8.381  73.384  1.00  0.00    -0.299 Hg 
HETATM    2  C   UNL     3      -6.646  19.990  69.115  1.00  0.00    -0.345 C  
HETATM    3  C   UNL     3      -6.761  18.580  68.519  1.00  0.00    -0.255 C  
HETATM    4  C   UNL     4     -13.761  10.024  72.063  1.00  0.00    -0.252 C  
HETATM    5  C   UNL     4     -12.332  10.514  71.790  1.00  0.00    -0.167 C  
ENDROOT
BRANCH   3   6
HETATM    6  N   UNL     3      -6.747  18.543  67.032  1.00  0.00    -0.191 NA 
BRANCH   6   7
HETATM    7  C   UNL     3      -5.611  17.773  66.453  1.00  0.00    -0.189 C  
HETATM    8  C   UNL     3      -5.273  16.469  67.198  1.00  0.00    -0.115 C  
ENDBRANCH   6   7
BRANCH   6   9
HETATM    9  C   UNL     3      -8.029  18.044  66.472  1.00  0.00    -0.263 C  
BRANCH   9  10
HETATM   10  C   UNL     3      -8.915  17.317  67.479  1.00  0.00    -0.222 C  
BRANCH  10  11
HETATM   11  O   UNL     3      -9.358  16.112  66.986  1.00  0.00    -0.210 OA 
BRANCH  11  12
HETATM   12  C   UNL     3     -10.638  15.680  67.085  1.00  0.00    -0.308 C  
HETATM   13  O   UNL     3     -11.413  16.203  67.876  1.00  0.00    -0.248 OA 
BRANCH  12  14
HETATM   14  C   UNL     3     -11.098  14.640  66.147  1.00  0.00    -0.334 A  
HETATM   15  C   UNL     3     -11.932  12.715  64.275  1.00  0.00    -0.408 A  
HETATM   16  C   UNL     3     -12.828  13.192  65.243  1.00  0.00    -0.332 A  
HETATM   17  C   UNL     3     -12.416  14.150  66.175  1.00  0.00    -0.426 A  
HETATM   18  N   UNL     3     -12.345  11.741  63.325  1.00  0.00    -0.916 NA 
HETATM   19  C   UNL     3     -10.623  13.208  64.242  1.00  0.00    -0.432 A  
HETATM   20  C   UNL     3     -10.208  14.159  65.170  1.00  0.00    -0.411 A  
HETATM   21  H1  UNL     3     -11.693  11.395  62.622  1.00  0.00     0.000 HD 
HETATM   22  H2  UNL     3     -13.174  12.093  62.847  1.00  0.00     0.000 HD 
ENDBRANCH  12  14
ENDBRANCH  11  12
ENDBRANCH  10  11
ENDBRANCH   9  10
ENDBRANCH   6   9
ENDBRANCH   3   6
BRANCH   5  23
HETATM   23  C   UNL     4     -11.763   9.904  70.459  1.00  0.00    -0.295 C  
BRANCH  23  24
HETATM   24  N   UNL     4     -10.295   9.892  70.275  1.00  0.00    -0.280 NA 
HETATM   25  H   UNL     4      -9.853  10.705  69.845  1.00  0.00     0.000 HD 
BRANCH  24  26
HETATM   26  C   UNL     4      -9.532   8.883  70.639  1.00  0.00    -0.214 C  
HETATM   27  H   UNL     4      -8.010   8.341  71.836  1.00  0.00     0.000 HD 
HETATM   28  O   UNL     4      -8.561   9.069  71.573  1.00  0.00    -0.303 OA 
BRANCH  26  29
HETATM   29  C   UNL     4      -9.665   7.452  70.115  1.00  0.00    -0.175 A  
HETATM   30  C   UNL     4      -9.646   7.009  68.750  1.00  0.00    -0.139 A  
HETATM   31  C   UNL     4      -9.843   6.443  71.112  1.00  0.00    -0.198 A  
HETATM   32  C   UNL     4     -10.007   5.094  70.782  1.00  0.00    -0.285 A  
HETATM   33  C   UNL     4     -10.019   4.699  69.457  1.00  0.00    -0.266 A  
HETATM   34  C   UNL     4      -9.833   5.641  68.448  1.00  0.00    -0.178 A  
BRANCH  30  35
HETATM   35  O   UNL     4      -9.421   7.827  67.691  1.00  0.00    -0.140 OA 
BRANCH  35  36
HETATM   36  C   UNL     4     -10.404   8.509  67.001  1.00  0.00    -0.309 C  
HETATM   37  C   UNL     4     -10.037   9.948  66.822  1.00  0.00    -0.230 C  
HETATM   38  O   UNL     4      -8.901  10.274  66.178  1.00  0.00    -0.145 OA 
HETATM   39  O   UNL     4     -10.787  10.830  67.208  1.00  0.00    -0.260 OA 
ENDBRANCH  35  36
ENDBRANCH  30  35
ENDBRANCH  26  29
ENDBRANCH  24  26
ENDBRANCH  23  24
ENDBRANCH   5  23
BRANCH   5  40
HETATM   40  O   UNL     4     -12.326  11.949  71.697  1.00  0.00    -0.066 OA 
BRANCH  40  41
HETATM   41  C   UNL     4     -13.491  12.533  72.293  1.00  0.00    -0.386 C  
BRANCH  41  42
HETATM   42  C   UNL     4     -13.290  14.010  72.692  1.00  0.00    -0.543 C  
BRANCH  42  43
HETATM   43  O   UNL     4     -12.853  14.787  71.592  1.00  0.00    -0.301 OA 
HETATM   44  C   UNL     4     -11.664  15.475  71.944  1.00  0.00    -0.446 C  
ENDBRANCH  42  43
ENDBRANCH  41  42
ENDBRANCH  40  41
ENDBRANCH   5  40
TORSDOF 17
ENDMDL
MODEL       25
REMARK 921   NORMALIZED FREE ENERGY PREDICTED BY IDOCK:   -5.63 KCAL/MOL
REMARK 922        TOTAL FREE ENERGY PREDICTED BY IDOCK:  -14.09 KCAL/MOL
REMARK 923 INTER-LIGAND FREE ENERGY PREDICTED BY IDOCK:  -10.70 KCAL/MOL
REMARK 924 INTRA-LIGAND FREE ENERGY PREDICTED BY IDOCK:   -3.38 KCAL/MOL
REMARK 927      BINDING AFFINITY PREDICTED BY RF-SCORE:    0.00 PKD
ROOT
HETATM    1 HG   UNL     2     -11.501  14.713  74.510  1.00  0.00    -0.535 Hg 
HETATM    2  C   UNL     3      -5.748  10.283  63.826  1.00  0.00    -0.145 C  
HETATM    3  C   UNL     3      -6.513   9.666  65.005  1.00  0.00    -0.090 C  
HETATM    4  C   UNL     4     -14.386  14.882  71.755  1.00  0.00    -0.668 C  
HETATM    5  C   UNL     4     -13.049  14.135  71.645  1.00  0.00    -0.351 C  
ENDROOT
BRANCH   3   6
HETATM    6  N   UNL     3      -7.001   8.282  64.757  1.00  0.00    -0.074 NA 
BRANCH   6   7
HETATM    7  C   UNL     3      -6.063   7.216  65.208  1.00  0.00    -0.037 C  
HETATM    8  C   UNL     3      -5.448   7.448  66.600  1.00  0.00    -0.024 C  
ENDBRANCH   6   7
BRANCH   6   9
HETATM    9  C   UNL     3      -8.346   8.049  65.343  1.00  0.00    -0.153 C  
BRANCH   9  10
HETATM   10  C   UNL     3      -8.646   6.589  65.668  1.00  0.00    -0.126 C  
BRANCH  10  11
HETATM   11  O   UNL     3      -9.442   6.472  66.784  1.00  0.00    -0.148 OA 
BRANCH  11  12
HETATM   12  C   UNL     3      -9.231   5.568  67.771  1.00  0.00    -0.107 C  
HETATM   13  O   UNL     3      -8.353   4.722  67.664  1.00  0.00    -0.104 OA 
BRANCH  12  14
HETATM   14  C   UNL     3     -10.014   5.697  69.013  1.00  0.00    -0.233 A  
HETATM   15  C   UNL     3     -11.513   6.051  71.366  1.00  0.00    -0.199 A  
HETATM   16  C   UNL     3     -10.336   5.289  71.388  1.00  0.00    -0.290 A  
HETATM   17  C   UNL     3      -9.588   5.111  70.219  1.00  0.00    -0.249 A  
HETATM   18  N   UNL     3     -12.278   6.234  72.550  1.00  0.00    -0.539 NA 
HETATM   19  C   UNL     3     -11.933   6.640  70.168  1.00  0.00    -0.250 A  
HETATM   20  C   UNL     3     -11.193   6.463  69.002  1.00  0.00    -0.402 A  
HETATM   21  H1  UNL     3     -13.134   6.788  72.533  1.00  0.00     0.000 HD 
HETATM   22  H2  UNL     3     -11.664   6.615  73.270  1.00  0.00     0.000 HD 
ENDBRANCH  12  14
ENDBRANCH  11  12
ENDBRANCH  10  11
ENDBRANCH   9  10
ENDBRANCH   6   9
ENDBRANCH   3   6
BRANCH   5  23
HETATM   23  C   UNL     4     -13.185  12.645  72.123  1.00  0.00    -0.421 C  
BRANCH  23  24
HETATM   24  N   UNL     4     -13.014  11.577  71.114  1.00  0.00    -0.302 NA 
HETATM   25  H   UNL     4     -13.349  11.746  70.166  1.00  0.00     0.000 HD 
BRANCH  24  26
HETATM   26  C   UNL     4     -12.452  10.417  71.382  1.00  0.00    -0.415 C  
HETATM   27  H   UNL     4     -12.726   8.645  72.291  1.00  0.00     0.000 HD 
HETATM   28  O   UNL     4     -13.133   9.482  72.098  1.00  0.00    -0.404 OA 
BRANCH  26  29
HETATM   29  C   UNL     4     -11.060   9.990  70.913  1.00  0.00    -0.385 A  
HETATM   30  C   UNL     4     -10.442  10.246  69.644  1.00  0.00    -0.253 A  
HETATM   31  C   UNL     4     -10.295   9.234  71.855  1.00  0.00    -0.084 A  
HETATM   32  C   UNL     4      -9.017   8.750  71.556  1.00  0.00    -0.306 A  
HETATM   33  C   UNL     4      -8.459   8.983  70.312  1.00  0.00    -0.180 A  
HETATM   34  C   UNL     4      -9.156   9.728  69.365  1.00  0.00    -0.209 A  
BRANCH  30  35
HETATM   35  O   UNL     4     -11.003  11.002  68.667  1.00  0.00    -0.190 OA 
BRANCH  35  36
HETATM   36  C   UNL     4     -10.961  10.704  67.319  1.00  0.00    -0.284 C  
HETATM   37  C   UNL     4     -11.273  11.909  66.490  1.00  0.00    -0.327 C  
HETATM   38  O   UNL     4     -10.511  13.014  66.602  1.00  0.00    -0.260 OA 
HETATM   39  O   UNL     4     -12.180  11.881  65.673  1.00  0.00    -0.413 OA 
ENDBRANCH  35  36
ENDBRANCH  30  35
ENDBRANCH  26  29
ENDBRANCH  24  26
ENDBRANCH  23  24
ENDBRANCH   5  23
BRANCH   5  40
HETATM   40  O   UNL     4     -12.597  14.159  70.280  1.00  0.00    -0.346 OA 
BRANCH  40  41
HETATM   41  C   UNL     4     -12.038  15.428  69.919  1.00  0.00    -0.355 C  
BRANCH  41  42
HETATM   42  C   UNL     4     -11.084  15.345  68.709  1.00  0.00    -0.283 C  
BRANCH  42  43
HETATM   43  O   UNL     4     -10.592  16.623  68.350  1.00  0.00    -0.305 OA 
HETATM   44  C   UNL     4      -9.222  16.717  68.703  1.00  0.00    -0.257 C  
ENDBRANCH  42  43
ENDBRANCH  41  42
ENDBRANCH  40  41
ENDBRANCH   5  40
TORSDOF 17
ENDMDL
MODEL       26
REMARK 921   NORMALIZED FREE ENERGY PREDICTED BY IDOCK:   -5.58 KCAL/MOL
REMARK 922        TOTAL FREE ENERGY PREDICTED BY IDOCK:  -13.98 KCAL/MOL
REMARK 923 INTER-LIGAND FREE ENERGY PREDICTED BY IDOCK:  -11.67 KCAL/MOL
REMARK 924 INTRA-LIGAND FREE ENERGY PREDICTED BY IDOCK:   -2.31 KCAL/MOL
REMARK 927      BINDING AFFINITY PREDICTED BY RF-SCORE:    0.00 PKD
ROOT
HETATM    1 HG   UNL     2      -7.689   2.868  73.291  1.00  0.00    -0.044 Hg 
HETATM    2  C   UNL     3      -8.895  10.579  62.998  1.00  0.00    -0.226 C  
HETATM    3  C   UNL     3      -9.759  10.218  64.214  1.00  0.00    -0.308 C  
HETATM    4  C   UNL     4      -6.091   6.316  74.513  1.00  0.00    -0.065 C  
HETATM    5  C   UNL     4      -6.954   6.092  73.263  1.00  0.00    -0.080 C  
ENDROOT
BRANCH   3   6
HETATM    6  N   UNL     3     -10.867  11.175  64.481  1.00  0.00    -0.298 NA 
BRANCH   6   7
HETATM    7  C   UNL     3     -11.049  11.511  65.920  1.00  0.00    -0.214 C  
HETATM    8  C   UNL     3      -9.891  11.069  66.834  1.00  0.00    -0.222 C  
ENDBRANCH   6   7
BRANCH   6   9
HETATM    9  C   UNL     3     -10.733  12.423  63.687  1.00  0.00    -0.455 C  
BRANCH   9  10
HETATM   10  C   UNL     3     -12.058  13.020  63.225  1.00  0.00    -0.422 C  
BRANCH  10  11
HETATM   11  O   UNL     3     -12.553  13.923  64.138  1.00  0.00    -0.675 OA 
BRANCH  11  12
HETATM   12  C   UNL     3     -11.895  15.042  64.525  1.00  0.00    -0.371 C  
HETATM   13  O   UNL     3     -12.026  16.089  63.903  1.00  0.00    -0.855 OA 
BRANCH  12  14
HETATM   14  C   UNL     3     -11.105  14.991  65.768  1.00  0.00    -0.346 A  
HETATM   15  C   UNL     3      -9.666  14.966  68.184  1.00  0.00    -0.214 A  
HETATM   16  C   UNL     3      -8.995  15.142  66.966  1.00  0.00    -0.255 A  
HETATM   17  C   UNL     3      -9.707  15.155  65.762  1.00  0.00    -0.379 A  
HETATM   18  N   UNL     3      -8.947  14.950  69.410  1.00  0.00    -0.417 NA 
HETATM   19  C   UNL     3     -11.057  14.810  68.191  1.00  0.00    -0.288 A  
HETATM   20  C   UNL     3     -11.769  14.820  66.995  1.00  0.00    -0.330 A  
HETATM   21  H1  UNL     3      -9.436  14.822  70.296  1.00  0.00     0.000 HD 
HETATM   22  H2  UNL     3      -8.398  15.808  69.469  1.00  0.00     0.000 HD 
ENDBRANCH  12  14
ENDBRANCH  11  12
ENDBRANCH  10  11
ENDBRANCH   9  10
ENDBRANCH   6   9
ENDBRANCH   3   6
BRANCH   5  23
HETATM   23  C   UNL     4      -8.474   6.349  73.565  1.00  0.00    -0.120 C  
BRANCH  23  24
HETATM   24  N   UNL     4      -9.341   5.175  73.804  1.00  0.00    -0.132 NA 
HETATM   25  H   UNL     4      -9.127   4.566  74.594  1.00  0.00     0.000 HD 
BRANCH  24  26
HETATM   26  C   UNL     4     -10.375   4.876  73.045  1.00  0.00    -0.186 C  
HETATM   27  H   UNL     4     -12.105   3.855  72.979  1.00  0.00     0.000 HD 
HETATM   28  O   UNL     4     -11.359   4.070  73.527  1.00  0.00    -0.262 OA 
BRANCH  26  29
HETATM   29  C   UNL     4     -10.600   5.402  71.627  1.00  0.00    -0.284 A  
HETATM   30  C   UNL     4     -11.536   6.402  71.197  1.00  0.00    -0.323 A  
HETATM   31  C   UNL     4      -9.785   4.811  70.612  1.00  0.00    -0.271 A  
HETATM   32  C   UNL     4      -9.900   5.171  69.265  1.00  0.00    -0.260 A  
HETATM   33  C   UNL     4     -10.834   6.112  68.873  1.00  0.00    -0.406 A  
HETATM   34  C   UNL     4     -11.640   6.730  69.826  1.00  0.00    -0.284 A  
BRANCH  30  35
HETATM   35  O   UNL     4     -12.333   7.105  72.039  1.00  0.00    -0.304 OA 
BRANCH  35  36
HETATM   36  C   UNL     4     -12.020   8.339  72.573  1.00  0.00    -0.356 C  
HETATM   37  C   UNL     4     -13.128   9.320  72.354  1.00  0.00    -0.406 C  
HETATM   38  O   UNL     4     -14.358   9.059  72.837  1.00  0.00    -0.550 OA 
HETATM   39  O   UNL     4     -12.914  10.379  71.786  1.00  0.00    -0.420 OA 
ENDBRANCH  35  36
ENDBRANCH  30  35
ENDBRANCH  26  29
ENDBRANCH  24  26
ENDBRANCH  23  24
ENDBRANCH   5  23
BRANCH   5  40
HETATM   40  O   UNL     4      -6.520   6.976  72.216  1.00  0.00    -0.052 OA 
BRANCH  40  41
HETATM   41  C   UNL     4      -7.096   8.282  72.339  1.00  0.00    -0.098 C  
BRANCH  41  42
HETATM   42  C   UNL     4      -7.447   8.918  70.977  1.00  0.00    -0.110 C  
BRANCH  42  43
HETATM   43  O   UNL     4      -8.740   8.535  70.547  1.00  0.00    -0.136 OA 
HETATM   44  C   UNL     4      -9.496   9.693  70.235  1.00  0.00    -0.248 C  
ENDBRANCH  42  43
ENDBRANCH  41  42
ENDBRANCH  40  41
ENDBRANCH   5  40
TORSDOF 17
ENDMDL
MODEL       27
REMARK 921   NORMALIZED FREE ENERGY PREDICTED BY IDOCK:   -5.57 KCAL/MOL
REMARK 922        TOTAL FREE ENERGY PREDICTED BY IDOCK:  -13.98 KCAL/MOL
REMARK 923 INTER-LIGAND FREE ENERGY PREDICTED BY IDOCK:  -11.06 KCAL/MOL
REMARK 924 INTRA-LIGAND FREE ENERGY PREDICTED BY IDOCK:   -2.92 KCAL/MOL
REMARK 927      BINDING AFFINITY PREDICTED BY RF-SCORE:    0.00 PKD
ROOT
HETATM    1 HG   UNL     2      -9.375  16.376  65.266  1.00  0.00    -0.257 Hg 
HETATM    2  C   UNL     3      -6.595   5.573  71.780  1.00  0.00    -0.052 C  
HETATM    3  C   UNL     3      -7.364   6.869  72.070  1.00  0.00    -0.087 C  
HETATM    4  C   UNL     4     -12.380  13.919  64.331  1.00  0.00    -0.400 C  
HETATM    5  C   UNL     4     -11.360  13.737  65.464  1.00  0.00    -0.307 C  
ENDROOT
BRANCH   3   6
HETATM    6  N   UNL     3      -8.279   6.787  73.240  1.00  0.00    -0.110 NA 
BRANCH   6   7
HETATM    7  C   UNL     3      -7.602   6.954  74.556  1.00  0.00    -0.115 C  
HETATM    8  C   UNL     3      -6.421   7.941  74.550  1.00  0.00    -0.113 C  
ENDBRANCH   6   7
BRANCH   6   9
HETATM    9  C   UNL     3      -9.412   7.741  73.134  1.00  0.00    -0.264 C  
BRANCH   9  10
HETATM   10  C   UNL     3     -10.771   7.148  73.494  1.00  0.00    -0.333 C  
BRANCH  10  11
HETATM   11  O   UNL     3     -11.183   6.225  72.561  1.00  0.00    -0.256 OA 
BRANCH  11  12
HETATM   12  C   UNL     3     -11.608   6.548  71.316  1.00  0.00    -0.327 C  
HETATM   13  O   UNL     3     -12.465   7.407  71.153  1.00  0.00    -0.336 OA 
BRANCH  12  14
HETATM   14  C   UNL     3     -10.941   5.913  70.165  1.00  0.00    -0.412 A  
HETATM   15  C   UNL     3      -9.764   4.694  67.921  1.00  0.00    -0.143 A  
HETATM   16  C   UNL     3      -9.465   4.233  69.211  1.00  0.00    -0.254 A  
HETATM   17  C   UNL     3     -10.049   4.837  70.330  1.00  0.00    -0.304 A  
HETATM   18  N   UNL     3      -9.173   4.086  66.781  1.00  0.00    -0.152 NA 
HETATM   19  C   UNL     3     -10.657   5.760  67.757  1.00  0.00    -0.310 A  
HETATM   20  C   UNL     3     -11.237   6.365  68.868  1.00  0.00    -0.385 A  
HETATM   21  H1  UNL     3      -9.391   4.421  65.843  1.00  0.00     0.000 HD 
HETATM   22  H2  UNL     3      -9.369   3.085  66.816  1.00  0.00     0.000 HD 
ENDBRANCH  12  14
ENDBRANCH  11  12
ENDBRANCH  10  11
ENDBRANCH   9  10
ENDBRANCH   6   9
ENDBRANCH   3   6
BRANCH   5  23
HETATM   23  C   UNL     4     -11.888  14.348  66.811  1.00  0.00    -0.410 C  
BRANCH  23  24
HETATM   24  N   UNL     4     -10.970  14.363  67.971  1.00  0.00    -0.252 NA 
HETATM   25  H   UNL     4      -9.967  14.297  67.797  1.00  0.00     0.000 HD 
BRANCH  24  26
HETATM   26  C   UNL     4     -11.385  14.457  69.217  1.00  0.00    -0.284 C  
HETATM   27  H   UNL     4     -11.644  15.725  70.756  1.00  0.00     0.000 HD 
HETATM   28  O   UNL     4     -11.344  15.657  69.857  1.00  0.00    -0.281 OA 
BRANCH  26  29
HETATM   29  C   UNL     4     -11.969  13.304  70.034  1.00  0.00    -0.399 A  
HETATM   30  C   UNL     4     -11.853  11.897  69.779  1.00  0.00    -0.340 A  
HETATM   31  C   UNL     4     -12.733  13.684  71.182  1.00  0.00    -0.432 A  
HETATM   32  C   UNL     4     -13.352  12.740  72.008  1.00  0.00    -0.565 A  
HETATM   33  C   UNL     4     -13.252  11.392  71.719  1.00  0.00    -0.472 A  
HETATM   34  C   UNL     4     -12.506  10.968  70.622  1.00  0.00    -0.465 A  
BRANCH  30  35
HETATM   35  O   UNL     4     -11.112  11.368  68.774  1.00  0.00    -0.199 OA 
BRANCH  35  36
HETATM   36  C   UNL     4     -10.915  10.017  68.567  1.00  0.00    -0.209 C  
HETATM   37  C   UNL     4      -9.519   9.614  68.924  1.00  0.00    -0.157 C  
HETATM   38  O   UNL     4      -9.060   9.823  70.172  1.00  0.00    -0.227 OA 
HETATM   39  O   UNL     4      -8.810   9.049  68.106  1.00  0.00    -0.133 OA 
ENDBRANCH  35  36
ENDBRANCH  30  35
ENDBRANCH  26  29
ENDBRANCH  24  26
ENDBRANCH  23  24
ENDBRANCH   5  23
BRANCH   5  40
HETATM   40  O   UNL     4     -11.091  12.337  65.648  1.00  0.00    -0.295 OA 
BRANCH  40  41
HETATM   41  C   UNL     4     -10.145  11.840  64.694  1.00  0.00    -0.272 C  
BRANCH  41  42
HETATM   42  C   UNL     4      -9.798  10.351  64.907  1.00  0.00    -0.334 C  
BRANCH  42  43
HETATM   43  O   UNL     4      -9.406   9.733  63.695  1.00  0.00    -0.253 OA 
HETATM   44  C   UNL     4      -8.091  10.144  63.361  1.00  0.00    -0.161 C  
ENDBRANCH  42  43
ENDBRANCH  41  42
ENDBRANCH  40  41
ENDBRANCH   5  40
TORSDOF 17
ENDMDL
MODEL       28
REMARK 921   NORMALIZED FREE ENERGY PREDICTED BY IDOCK:   -5.56 KCAL/MOL
REMARK 922        TOTAL FREE ENERGY PREDICTED BY IDOCK:  -13.95 KCAL/MOL
REMARK 923 INTER-LIGAND FREE ENERGY PREDICTED BY IDOCK:  -11.58 KCAL/MOL
REMARK 924 INTRA-LIGAND FREE ENERGY PREDICTED BY IDOCK:   -2.37 KCAL/MOL
REMARK 927      BINDING AFFINITY PREDICTED BY RF-SCORE:    0.00 PKD
ROOT
HETATM    1 HG   UNL     2     -11.896   5.434  65.263  1.00  0.00    -0.713 Hg 
HETATM    2  C   UNL     3      -7.806  17.664  66.006  1.00  0.00    -0.201 C  
HETATM    3  C   UNL     3      -8.830  16.796  66.750  1.00  0.00    -0.230 C  
HETATM    4  C   UNL     4      -8.793   5.232  67.767  1.00  0.00    -0.105 C  
HETATM    5  C   UNL     4      -9.525   6.501  67.308  1.00  0.00    -0.125 C  
ENDROOT
BRANCH   3   6
HETATM    6  N   UNL     3      -9.257  17.347  68.065  1.00  0.00    -0.259 NA 
BRANCH   6   7
HETATM    7  C   UNL     3      -8.808  18.745  68.315  1.00  0.00    -0.333 C  
HETATM    8  C   UNL     3      -9.947  19.768  68.467  1.00  0.00    -0.538 C  
ENDBRANCH   6   7
BRANCH   6   9
HETATM    9  C   UNL     3     -10.726  17.248  68.263  1.00  0.00    -0.349 C  
BRANCH   9  10
HETATM   10  C   UNL     3     -11.176  16.002  69.020  1.00  0.00    -0.347 C  
BRANCH  10  11
HETATM   11  O   UNL     3     -12.022  15.227  68.260  1.00  0.00    -0.297 OA 
BRANCH  11  12
HETATM   12  C   UNL     3     -11.960  13.875  68.203  1.00  0.00    -0.350 C  
HETATM   13  O   UNL     3     -12.084  13.202  69.218  1.00  0.00    -0.289 OA 
BRANCH  12  14
HETATM   14  C   UNL     3     -11.843  13.238  66.878  1.00  0.00    -0.446 A  
HETATM   15  C   UNL     3     -11.511  12.018  64.367  1.00  0.00    -0.343 A  
HETATM   16  C   UNL     3     -12.284  13.181  64.489  1.00  0.00    -0.466 A  
HETATM   17  C   UNL     3     -12.451  13.791  65.737  1.00  0.00    -0.527 A  
HETATM   18  N   UNL     3     -11.339  11.393  63.102  1.00  0.00    -0.864 NA 
HETATM   19  C   UNL     3     -10.900  11.472  65.502  1.00  0.00    -0.313 A  
HETATM   20  C   UNL     3     -11.066  12.074  66.745  1.00  0.00    -0.353 A  
HETATM   21  H1  UNL     3     -10.776  10.547  63.014  1.00  0.00     0.000 HD 
HETATM   22  H2  UNL     3     -10.975  12.088  62.450  1.00  0.00     0.000 HD 
ENDBRANCH  12  14
ENDBRANCH  11  12
ENDBRANCH  10  11
ENDBRANCH   9  10
ENDBRANCH   6   9
ENDBRANCH   3   6
BRANCH   5  23
HETATM   23  C   UNL     4     -10.680   6.885  68.301  1.00  0.00    -0.214 C  
BRANCH  23  24
HETATM   24  N   UNL     4     -11.029   8.316  68.437  1.00  0.00    -0.425 NA 
HETATM   25  H   UNL     4     -11.604   8.746  67.713  1.00  0.00     0.000 HD 
BRANCH  24  26
HETATM   26  C   UNL     4     -10.632   9.061  69.447  1.00  0.00    -0.221 C  
HETATM   27  H   UNL     4     -11.121  10.632  70.603  1.00  0.00     0.000 HD 
HETATM   28  O   UNL     4     -11.408  10.094  69.874  1.00  0.00    -0.251 OA 
BRANCH  26  29
HETATM   29  C   UNL     4      -9.344   8.843  70.242  1.00  0.00    -0.208 A  
HETATM   30  C   UNL     4      -9.127   7.940  71.336  1.00  0.00    -0.136 A  
HETATM   31  C   UNL     4      -8.231   9.650  69.850  1.00  0.00    -0.184 A  
HETATM   32  C   UNL     4      -6.997   9.582  70.505  1.00  0.00    -0.124 A  
HETATM   33  C   UNL     4      -6.825   8.727  71.578  1.00  0.00    -0.087 A  
HETATM   34  C   UNL     4      -7.873   7.908  71.989  1.00  0.00    -0.123 A  
BRANCH  30  35
HETATM   35  O   UNL     4     -10.056   7.060  71.788  1.00  0.00    -0.185 OA 
BRANCH  35  36
HETATM   36  C   UNL     4     -10.970   7.325  72.788  1.00  0.00    -0.323 C  
HETATM   37  C   UNL     4     -12.279   7.773  72.218  1.00  0.00    -0.256 C  
HETATM   38  O   UNL     4     -12.948   6.972  71.369  1.00  0.00    -0.382 OA 
HETATM   39  O   UNL     4     -12.769   8.838  72.559  1.00  0.00    -0.396 OA 
ENDBRANCH  35  36
ENDBRANCH  30  35
ENDBRANCH  26  29
ENDBRANCH  24  26
ENDBRANCH  23  24
ENDBRANCH   5  23
BRANCH   5  40
HETATM   40  O   UNL     4      -8.591   7.590  67.220  1.00  0.00    -0.117 OA 
BRANCH  40  41
HETATM   41  C   UNL     4      -8.649   8.249  65.948  1.00  0.00    -0.150 C  
BRANCH  41  42
HETATM   42  C   UNL     4      -7.798   9.536  65.896  1.00  0.00    -0.100 C  
BRANCH  42  43
HETATM   43  O   UNL     4      -7.286   9.763  64.596  1.00  0.00    -0.122 OA 
HETATM   44  C   UNL     4      -5.971  10.282  64.692  1.00  0.00    -0.130 C  
ENDBRANCH  42  43
ENDBRANCH  41  42
ENDBRANCH  40  41
ENDBRANCH   5  40
TORSDOF 17
ENDMDL
MODEL       29
REMARK 921   NORMALIZED FREE ENERGY PREDICTED BY IDOCK:   -5.53 KCAL/MOL
REMARK 922        TOTAL FREE ENERGY PREDICTED BY IDOCK:  -13.88 KCAL/MOL
REMARK 923 INTER-LIGAND FREE ENERGY PREDICTED BY IDOCK:  -11.57 KCAL/MOL
REMARK 924 INTRA-LIGAND FREE ENERGY PREDICTED BY IDOCK:   -2.31 KCAL/MOL
REMARK 927      BINDING AFFINITY PREDICTED BY RF-SCORE:    0.00 PKD
ROOT
HETATM    1 HG   UNL     2      -8.414  16.318  65.410  1.00  0.00    -0.250 Hg 
HETATM    2  C   UNL     3      -9.636   4.815  71.159  1.00  0.00    -0.235 C  
HETATM    3  C   UNL     3      -9.902   6.276  71.546  1.00  0.00    -0.173 C  
HETATM    4  C   UNL     4     -12.087  15.142  64.378  1.00  0.00    -0.313 C  
HETATM    5  C   UNL     4     -11.200  14.538  65.477  1.00  0.00    -0.335 C  
ENDROOT
BRANCH   3   6
HETATM    6  N   UNL     3     -10.792   6.442  72.727  1.00  0.00    -0.238 NA 
BRANCH   6   7
HETATM    7  C   UNL     3     -10.071   6.735  73.997  1.00  0.00    -0.359 C  
HETATM    8  C   UNL     3      -8.858   7.670  73.846  1.00  0.00    -0.311 C  
ENDBRANCH   6   7
BRANCH   6   9
HETATM    9  C   UNL     3     -11.842   7.467  72.497  1.00  0.00    -0.221 C  
BRANCH   9  10
HETATM   10  C   UNL     3     -11.892   8.007  71.071  1.00  0.00    -0.263 C  
BRANCH  10  11
HETATM   11  O   UNL     3     -11.297   9.244  70.977  1.00  0.00    -0.271 OA 
BRANCH  11  12
HETATM   12  C   UNL     3     -11.605  10.160  70.028  1.00  0.00    -0.253 C  
HETATM   13  O   UNL     3     -12.661  10.778  70.077  1.00  0.00    -0.308 OA 
BRANCH  12  14
HETATM   14  C   UNL     3     -10.594  10.464  68.998  1.00  0.00    -0.247 A  
HETATM   15  C   UNL     3      -8.693  10.951  66.985  1.00  0.00    -0.141 A  
HETATM   16  C   UNL     3      -8.334  11.066  68.336  1.00  0.00    -0.139 A  
HETATM   17  C   UNL     3      -9.278  10.824  69.340  1.00  0.00    -0.003 A  
HETATM   18  N   UNL     3      -7.739  11.196  65.960  1.00  0.00    -0.345 NA 
HETATM   19  C   UNL     3     -10.001  10.586  66.645  1.00  0.00    -0.260 A  
HETATM   20  C   UNL     3     -10.943  10.348  67.642  1.00  0.00    -0.374 A  
HETATM   21  H1  UNL     3      -8.000  11.113  64.978  1.00  0.00     0.000 HD 
HETATM   22  H2  UNL     3      -6.930  10.598  66.127  1.00  0.00     0.000 HD 
ENDBRANCH  12  14
ENDBRANCH  11  12
ENDBRANCH  10  11
ENDBRANCH   9  10
ENDBRANCH   6   9
ENDBRANCH   3   6
BRANCH   5  23
HETATM   23  C   UNL     4     -11.485  15.203  66.871  1.00  0.00    -0.214 C  
BRANCH  23  24
HETATM   24  N   UNL     4     -10.509  14.975  67.959  1.00  0.00    -0.240 NA 
HETATM   25  H   UNL     4     -10.847  14.595  68.843  1.00  0.00     0.000 HD 
BRANCH  24  26
HETATM   26  C   UNL     4      -9.225  15.240  67.841  1.00  0.00    -0.184 C  
HETATM   27  H   UNL     4      -7.465  14.513  67.195  1.00  0.00     0.000 HD 
HETATM   28  O   UNL     4      -8.392  14.322  67.280  1.00  0.00    -0.191 OA 
BRANCH  26  29
HETATM   29  C   UNL     4      -8.560  16.552  68.259  1.00  0.00    -0.200 A  
HETATM   30  C   UNL     4      -9.131  17.868  68.256  1.00  0.00    -0.278 A  
HETATM   31  C   UNL     4      -7.201  16.446  68.690  1.00  0.00    -0.178 A  
HETATM   32  C   UNL     4      -6.455  17.565  69.075  1.00  0.00    -0.227 A  
HETATM   33  C   UNL     4      -7.019  18.826  69.030  1.00  0.00    -0.323 A  
HETATM   34  C   UNL     4      -8.345  18.982  68.633  1.00  0.00    -0.397 A  
BRANCH  30  35
HETATM   35  O   UNL     4     -10.423  18.133  67.939  1.00  0.00    -0.380 OA 
BRANCH  35  36
HETATM   36  C   UNL     4     -10.862  19.288  67.323  1.00  0.00    -0.449 C  
HETATM   37  C   UNL     4     -10.535  19.278  65.863  1.00  0.00    -0.451 C  
HETATM   38  O   UNL     4     -11.007  18.291  65.078  1.00  0.00    -0.684 OA 
HETATM   39  O   UNL     4      -9.888  20.187  65.367  1.00  0.00    -0.212 OA 
ENDBRANCH  35  36
ENDBRANCH  30  35
ENDBRANCH  26  29
ENDBRANCH  24  26
ENDBRANCH  23  24
ENDBRANCH   5  23
BRANCH   5  40
HETATM   40  O   UNL     4     -11.442  13.123  65.565  1.00  0.00    -0.304 OA 
BRANCH  40  41
HETATM   41  C   UNL     4     -12.348  12.667  64.553  1.00  0.00    -0.464 C  
BRANCH  41  42
HETATM   42  C   UNL     4     -11.674  11.754  63.506  1.00  0.00    -0.383 C  
BRANCH  42  43
HETATM   43  O   UNL     4     -10.284  12.010  63.417  1.00  0.00    -0.428 OA 
HETATM   44  C   UNL     4      -9.637  10.892  62.832  1.00  0.00    -0.344 C  
ENDBRANCH  42  43
ENDBRANCH  41  42
ENDBRANCH  40  41
ENDBRANCH   5  40
TORSDOF 17
ENDMDL
MODEL       30
REMARK 921   NORMALIZED FREE ENERGY PREDICTED BY IDOCK:   -5.52 KCAL/MOL
REMARK 922        TOTAL FREE ENERGY PREDICTED BY IDOCK:  -13.87 KCAL/MOL
REMARK 923 INTER-LIGAND FREE ENERGY PREDICTED BY IDOCK:  -10.45 KCAL/MOL
REMARK 924 INTRA-LIGAND FREE ENERGY PREDICTED BY IDOCK:   -3.42 KCAL/MOL
REMARK 927      BINDING AFFINITY PREDICTED BY RF-SCORE:    0.00 PKD
ROOT
HETATM    1 HG   UNL     2     -11.601   5.576  65.410  1.00  0.00    -0.632 Hg 
HETATM    2  C   UNL     3      -7.973  17.957  66.045  1.00  0.00    -0.162 C  
HETATM    3  C   UNL     3      -8.856  17.022  66.883  1.00  0.00    -0.230 C  
HETATM    4  C   UNL     4      -8.198   5.448  67.493  1.00  0.00    -0.100 C  
HETATM    5  C   UNL     4      -9.036   6.694  67.174  1.00  0.00    -0.128 C  
ENDROOT
BRANCH   3   6
HETATM    6  N   UNL     3      -9.134  17.515  68.259  1.00  0.00    -0.266 NA 
BRANCH   6   7
HETATM    7  C   UNL     3      -8.763  18.939  68.482  1.00  0.00    -0.347 C  
HETATM    8  C   UNL     3      -9.948  19.871  68.794  1.00  0.00    -0.462 C  
ENDBRANCH   6   7
BRANCH   6   9
HETATM    9  C   UNL     3     -10.549  17.296  68.656  1.00  0.00    -0.329 C  
BRANCH   9  10
HETATM   10  C   UNL     3     -10.861  15.874  69.113  1.00  0.00    -0.268 C  
BRANCH  10  11
HETATM   11  O   UNL     3     -11.754  15.256  68.269  1.00  0.00    -0.343 OA 
BRANCH  11  12
HETATM   12  C   UNL     3     -11.391  14.429  67.259  1.00  0.00    -0.342 C  
HETATM   13  O   UNL     3     -11.827  14.599  66.128  1.00  0.00    -0.352 OA 
BRANCH  12  14
HETATM   14  C   UNL     3     -10.383  13.390  67.537  1.00  0.00    -0.226 A  
HETATM   15  C   UNL     3      -8.501  11.399  68.168  1.00  0.00    -0.152 A  
HETATM   16  C   UNL     3      -8.085  12.598  67.573  1.00  0.00    -0.178 A  
HETATM   17  C   UNL     3      -9.019  13.591  67.258  1.00  0.00    -0.222 A  
HETATM   18  N   UNL     3      -7.557  10.386  68.490  1.00  0.00    -0.091 NA 
HETATM   19  C   UNL     3      -9.857  11.202  68.453  1.00  0.00    -0.188 A  
HETATM   20  C   UNL     3     -10.789  12.186  68.138  1.00  0.00    -0.256 A  
HETATM   21  H1  UNL     3      -7.860   9.514  68.923  1.00  0.00     0.000 HD 
HETATM   22  H2  UNL     3      -6.833  10.799  69.077  1.00  0.00     0.000 HD 
ENDBRANCH  12  14
ENDBRANCH  11  12
ENDBRANCH  10  11
ENDBRANCH   9  10
ENDBRANCH   6   9
ENDBRANCH   3   6
BRANCH   5  23
HETATM   23  C   UNL     4     -10.070   6.996  68.318  1.00  0.00    -0.167 C  
BRANCH  23  24
HETATM   24  N   UNL     4      -9.561   7.089  69.703  1.00  0.00    -0.151 NA 
HETATM   25  H   UNL     4      -8.976   6.333  70.058  1.00  0.00     0.000 HD 
BRANCH  24  26
HETATM   26  C   UNL     4      -9.827   8.102  70.501  1.00  0.00    -0.186 C  
HETATM   27  H   UNL     4      -9.022   9.672  71.464  1.00  0.00     0.000 HD 
HETATM   28  O   UNL     4      -8.829   8.942  70.888  1.00  0.00    -0.180 OA 
BRANCH  26  29
HETATM   29  C   UNL     4     -11.218   8.459  71.027  1.00  0.00    -0.304 A  
HETATM   30  C   UNL     4     -12.215   7.571  71.554  1.00  0.00    -0.331 A  
HETATM   31  C   UNL     4     -11.563   9.845  70.971  1.00  0.00    -0.470 A  
HETATM   32  C   UNL     4     -12.812  10.318  71.389  1.00  0.00    -0.544 A  
HETATM   33  C   UNL     4     -13.766   9.436  71.861  1.00  0.00    -0.440 A  
HETATM   34  C   UNL     4     -13.475   8.077  71.951  1.00  0.00    -0.342 A  
BRANCH  30  35
HETATM   35  O   UNL     4     -12.024   6.241  71.737  1.00  0.00    -0.321 OA 
BRANCH  35  36
HETATM   36  C   UNL     4     -11.319   5.684  72.785  1.00  0.00    -0.299 C  
HETATM   37  C   UNL     4     -10.517   4.506  72.330  1.00  0.00    -0.168 C  
HETATM   38  O   UNL     4      -9.594   4.658  71.362  1.00  0.00    -0.148 OA 
HETATM   39  O   UNL     4     -10.655   3.418  72.868  1.00  0.00    -0.163 OA 
ENDBRANCH  35  36
ENDBRANCH  30  35
ENDBRANCH  26  29
ENDBRANCH  24  26
ENDBRANCH  23  24
ENDBRANCH   5  23
BRANCH   5  40
HETATM   40  O   UNL     4      -8.168   7.827  67.005  1.00  0.00    -0.114 OA 
BRANCH  40  41
HETATM   41  C   UNL     4      -8.315   8.432  65.714  1.00  0.00    -0.146 C  
BRANCH  41  42
HETATM   42  C   UNL     4      -9.644   9.202  65.557  1.00  0.00    -0.169 C  
BRANCH  42  43
HETATM   43  O   UNL     4      -9.692   9.904  64.329  1.00  0.00    -0.252 OA 
HETATM   44  C   UNL     4      -9.988  11.268  64.577  1.00  0.00    -0.284 C  
ENDBRANCH  42  43
ENDBRANCH  41  42
ENDBRANCH  40  41
ENDBRANCH   5  40
TORSDOF 17
ENDMDL
MODEL       31
REMARK 921   NORMALIZED FREE ENERGY PREDICTED BY IDOCK:   -5.51 KCAL/MOL
REMARK 922        TOTAL FREE ENERGY PREDICTED BY IDOCK:  -13.86 KCAL/MOL
REMARK 923 INTER-LIGAND FREE ENERGY PREDICTED BY IDOCK:  -11.54 KCAL/MOL
REMARK 924 INTRA-LIGAND FREE ENERGY PREDICTED BY IDOCK:   -2.31 KCAL/MOL
REMARK 927      BINDING AFFINITY PREDICTED BY RF-SCORE:    0.00 PKD
ROOT
HETATM    1 HG   UNL     2      -9.294   5.743  64.444  1.00  0.00    -0.352 Hg 
HETATM    2  C   UNL     3      -7.438  18.388  66.326  1.00  0.00    -0.294 C  
HETATM    3  C   UNL     3      -8.418  17.327  66.846  1.00  0.00    -0.226 C  
HETATM    4  C   UNL     4      -6.668   5.867  67.449  1.00  0.00    -0.058 C  
HETATM    5  C   UNL     4      -7.510   7.033  66.912  1.00  0.00    -0.086 C  
ENDROOT
BRANCH   3   6
HETATM    6  N   UNL     3      -9.145  17.721  68.083  1.00  0.00    -0.267 NA 
BRANCH   6   7
HETATM    7  C   UNL     3      -9.552  19.154  68.119  1.00  0.00    -0.348 C  
HETATM    8  C   UNL     3     -10.677  19.527  67.137  1.00  0.00    -0.599 C  
ENDBRANCH   6   7
BRANCH   6   9
HETATM    9  C   UNL     3     -10.326  16.857  68.338  1.00  0.00    -0.338 C  
BRANCH   9  10
HETATM   10  C   UNL     3     -10.783  16.830  69.793  1.00  0.00    -0.186 C  
BRANCH  10  11
HETATM   11  O   UNL     3     -10.990  15.544  70.235  1.00  0.00    -0.286 OA 
BRANCH  11  12
HETATM   12  C   UNL     3     -12.191  15.072  70.650  1.00  0.00    -0.326 C  
HETATM   13  O   UNL     3     -13.113  15.841  70.890  1.00  0.00    -0.516 OA 
BRANCH  12  14
HETATM   14  C   UNL     3     -12.386  13.612  70.703  1.00  0.00    -0.440 A  
HETATM   15  C   UNL     3     -12.723  10.829  70.909  1.00  0.00    -0.384 A  
HETATM   16  C   UNL     3     -12.023  11.375  69.824  1.00  0.00    -0.422 A  
HETATM   17  C   UNL     3     -11.853  12.760  69.719  1.00  0.00    -0.380 A  
HETATM   18  N   UNL     3     -12.901   9.423  71.021  1.00  0.00    -0.507 NA 
HETATM   19  C   UNL     3     -13.247  11.676  71.893  1.00  0.00    -0.475 A  
HETATM   20  C   UNL     3     -13.082  13.054  71.789  1.00  0.00    -0.469 A  
HETATM   21  H1  UNL     3     -13.410   9.025  71.811  1.00  0.00     0.000 HD 
HETATM   22  H2  UNL     3     -11.982   8.981  70.979  1.00  0.00     0.000 HD 
ENDBRANCH  12  14
ENDBRANCH  11  12
ENDBRANCH  10  11
ENDBRANCH   9  10
ENDBRANCH   6   9
ENDBRANCH   3   6
BRANCH   5  23
HETATM   23  C   UNL     4      -8.863   7.171  67.698  1.00  0.00    -0.119 C  
BRANCH  23  24
HETATM   24  N   UNL     4      -8.981   6.479  69.000  1.00  0.00    -0.130 NA 
HETATM   25  H   UNL     4      -8.141   6.361  69.565  1.00  0.00     0.000 HD 
BRANCH  24  26
HETATM   26  C   UNL     4     -10.119   6.007  69.463  1.00  0.00    -0.193 C  
HETATM   27  H   UNL     4     -12.092   5.866  69.101  1.00  0.00     0.000 HD 
HETATM   28  O   UNL     4     -11.271   6.206  68.766  1.00  0.00    -0.367 OA 
BRANCH  26  29
HETATM   29  C   UNL     4     -10.270   5.191  70.748  1.00  0.00    -0.308 A  
HETATM   30  C   UNL     4     -10.830   5.614  71.999  1.00  0.00    -0.242 A  
HETATM   31  C   UNL     4      -9.778   3.850  70.689  1.00  0.00    -0.248 A  
HETATM   32  C   UNL     4      -9.821   2.993  71.794  1.00  0.00    -0.230 A  
HETATM   33  C   UNL     4     -10.335   3.438  72.998  1.00  0.00    -0.247 A  
HETATM   34  C   UNL     4     -10.842   4.730  73.104  1.00  0.00    -0.340 A  
BRANCH  30  35
HETATM   35  O   UNL     4     -11.398   6.828  72.203  1.00  0.00    -0.251 OA 
BRANCH  35  36
HETATM   36  C   UNL     4     -10.851   7.834  72.975  1.00  0.00    -0.389 C  
HETATM   37  C   UNL     4      -9.668   8.451  72.298  1.00  0.00    -0.316 C  
HETATM   38  O   UNL     4      -9.810   9.013  71.084  1.00  0.00    -0.248 OA 
HETATM   39  O   UNL     4      -8.586   8.494  72.862  1.00  0.00    -0.345 OA 
ENDBRANCH  35  36
ENDBRANCH  30  35
ENDBRANCH  26  29
ENDBRANCH  24  26
ENDBRANCH  23  24
ENDBRANCH   5  23
BRANCH   5  40
HETATM   40  O   UNL     4      -6.764   8.257  67.029  1.00  0.00    -0.060 OA 
BRANCH  40  41
HETATM   41  C   UNL     4      -7.602   9.369  67.369  1.00  0.00    -0.095 C  
BRANCH  41  42
HETATM   42  C   UNL     4      -7.513  10.525  66.351  1.00  0.00    -0.133 C  
BRANCH  42  43
HETATM   43  O   UNL     4      -8.574  10.471  65.415  1.00  0.00    -0.171 OA 
HETATM   44  C   UNL     4      -8.092   9.957  64.185  1.00  0.00    -0.152 C  
ENDBRANCH  42  43
ENDBRANCH  41  42
ENDBRANCH  40  41
ENDBRANCH   5  40
TORSDOF 17
ENDMDL
MODEL       32
REMARK 921   NORMALIZED FREE ENERGY PREDICTED BY IDOCK:   -5.46 KCAL/MOL
REMARK 922        TOTAL FREE ENERGY PREDICTED BY IDOCK:  -13.75 KCAL/MOL
REMARK 923 INTER-LIGAND FREE ENERGY PREDICTED BY IDOCK:   -9.62 KCAL/MOL
REMARK 924 INTRA-LIGAND FREE ENERGY PREDICTED BY IDOCK:   -4.13 KCAL/MOL
REMARK 927      BINDING AFFINITY PREDICTED BY RF-SCORE:    0.00 PKD
ROOT
HETATM    1 HG   UNL     2     -12.020   6.827  67.274  1.00  0.00    -0.631 Hg 
HETATM    2  C   UNL     3      -6.250  18.256  65.553  1.00  0.00    -0.282 C  
HETATM    3  C   UNL     3      -7.306  17.686  66.510  1.00  0.00    -0.261 C  
HETATM    4  C   UNL     4      -8.745   6.573  69.543  1.00  0.00    -0.134 C  
HETATM    5  C   UNL     4      -9.339   7.845  68.922  1.00  0.00    -0.150 C  
ENDROOT
BRANCH   3   6
HETATM    6  N   UNL     3      -7.524  18.502  67.734  1.00  0.00    -0.228 NA 
BRANCH   6   7
HETATM    7  C   UNL     3      -8.549  19.572  67.578  1.00  0.00    -0.307 C  
HETATM    8  C   UNL     3      -9.636  19.273  66.531  1.00  0.00    -0.420 C  
ENDBRANCH   6   7
BRANCH   6   9
HETATM    9  C   UNL     3      -7.850  17.664  68.916  1.00  0.00    -0.186 C  
BRANCH   9  10
HETATM   10  C   UNL     3      -8.463  16.309  68.577  1.00  0.00    -0.206 C  
BRANCH  10  11
HETATM   11  O   UNL     3      -9.837  16.369  68.542  1.00  0.00    -0.217 OA 
BRANCH  11  12
HETATM   12  C   UNL     3     -10.638  15.283  68.426  1.00  0.00    -0.246 C  
HETATM   13  O   UNL     3     -11.016  14.679  69.422  1.00  0.00    -0.248 OA 
BRANCH  12  14
HETATM   14  C   UNL     3     -11.123  14.914  67.084  1.00  0.00    -0.332 A  
HETATM   15  C   UNL     3     -12.038  14.315  64.494  1.00  0.00    -0.480 A  
HETATM   16  C   UNL     3     -12.742  13.853  65.615  1.00  0.00    -0.534 A  
HETATM   17  C   UNL     3     -12.290  14.149  66.905  1.00  0.00    -0.293 A  
HETATM   18  N   UNL     3     -12.492  14.016  63.180  1.00  0.00    -1.070 NA 
HETATM   19  C   UNL     3     -10.881  15.082  64.672  1.00  0.00    -0.290 A  
HETATM   20  C   UNL     3     -10.426  15.377  65.954  1.00  0.00    -0.354 A  
HETATM   21  H1  UNL     3     -11.980  14.352  62.365  1.00  0.00     0.000 HD 
HETATM   22  H2  UNL     3     -13.461  14.326  63.099  1.00  0.00     0.000 HD 
ENDBRANCH  12  14
ENDBRANCH  11  12
ENDBRANCH  10  11
ENDBRANCH   9  10
ENDBRANCH   6   9
ENDBRANCH   3   6
BRANCH   5  23
HETATM   23  C   UNL     4     -10.329   8.557  69.913  1.00  0.00    -0.210 C  
BRANCH  23  24
HETATM   24  N   UNL     4     -11.459   9.316  69.336  1.00  0.00    -0.417 NA 
HETATM   25  H   UNL     4     -12.372   8.864  69.283  1.00  0.00     0.000 HD 
BRANCH  24  26
HETATM   26  C   UNL     4     -11.344  10.548  68.886  1.00  0.00    -0.251 C  
HETATM   27  H   UNL     4     -11.806  12.469  69.261  1.00  0.00     0.000 HD 
HETATM   28  O   UNL     4     -11.890  11.579  69.586  1.00  0.00    -0.299 OA 
BRANCH  26  29
HETATM   29  C   UNL     4     -10.591  10.950  67.617  1.00  0.00    -0.263 A  
HETATM   30  C   UNL     4      -9.342  11.650  67.519  1.00  0.00    -0.168 A  
HETATM   31  C   UNL     4     -11.222  10.592  66.385  1.00  0.00     0.192 A  
HETATM   32  C   UNL     4     -10.666  10.919  65.144  1.00  0.00    -0.209 A  
HETATM   33  C   UNL     4      -9.478  11.624  65.078  1.00  0.00    -0.128 A  
HETATM   34  C   UNL     4      -8.815  11.982  66.249  1.00  0.00    -0.075 A  
BRANCH  30  35
HETATM   35  O   UNL     4      -8.584  12.001  68.587  1.00  0.00    -0.116 OA 
BRANCH  35  36
HETATM   36  C   UNL     4      -7.602  12.971  68.570  1.00  0.00    -0.121 C  
HETATM   37  C   UNL     4      -6.488  12.628  69.509  1.00  0.00    -0.078 C  
HETATM   38  O   UNL     4      -5.811  11.475  69.351  1.00  0.00    -0.055 OA 
HETATM   39  O   UNL     4      -6.155  13.410  70.385  1.00  0.00    -0.148 OA 
ENDBRANCH  35  36
ENDBRANCH  30  35
ENDBRANCH  26  29
ENDBRANCH  24  26
ENDBRANCH  23  24
ENDBRANCH   5  23
BRANCH   5  40
HETATM   40  O   UNL     4      -8.278   8.751  68.576  1.00  0.00    -0.115 OA 
BRANCH  40  41
HETATM   41  C   UNL     4      -7.306   8.141  67.717  1.00  0.00    -0.093 C  
BRANCH  41  42
HETATM   42  C   UNL     4      -6.466   9.169  66.929  1.00  0.00    -0.067 C  
BRANCH  42  43
HETATM   43  O   UNL     4      -6.835   9.198  65.563  1.00  0.00    -0.072 OA 
HETATM   44  C   UNL     4      -5.782   8.662  64.779  1.00  0.00    -0.058 C  
ENDBRANCH  42  43
ENDBRANCH  41  42
ENDBRANCH  40  41
ENDBRANCH   5  40
TORSDOF 17
ENDMDL
MODEL       33
REMARK 921   NORMALIZED FREE ENERGY PREDICTED BY IDOCK:   -5.44 KCAL/MOL
REMARK 922        TOTAL FREE ENERGY PREDICTED BY IDOCK:  -13.71 KCAL/MOL
REMARK 923 INTER-LIGAND FREE ENERGY PREDICTED BY IDOCK:  -11.20 KCAL/MOL
REMARK 924 INTRA-LIGAND FREE ENERGY PREDICTED BY IDOCK:   -2.51 KCAL/MOL
REMARK 927      BINDING AFFINITY PREDICTED BY RF-SCORE:    0.00 PKD
ROOT
HETATM    1 HG   UNL     2     -12.299   5.336  65.043  1.00  0.00    -0.655 Hg 
HETATM    2  C   UNL     3      -7.023  17.055  66.344  1.00  0.00    -0.267 C  
HETATM    3  C   UNL     3      -8.106  16.246  67.070  1.00  0.00    -0.209 C  
HETATM    4  C   UNL     4      -9.165   4.692  67.431  1.00  0.00    -0.146 C  
HETATM    5  C   UNL     4      -9.783   6.049  67.068  1.00  0.00    -0.138 C  
ENDROOT
BRANCH   3   6
HETATM    6  N   UNL     3      -8.443  16.756  68.426  1.00  0.00    -0.221 NA 
BRANCH   6   7
HETATM    7  C   UNL     3      -9.637  17.645  68.464  1.00  0.00    -0.315 C  
HETATM    8  C   UNL     3      -9.316  19.148  68.561  1.00  0.00    -0.426 C  
ENDBRANCH   6   7
BRANCH   6   9
HETATM    9  C   UNL     3      -8.603  15.658  69.414  1.00  0.00    -0.248 C  
BRANCH   9  10
HETATM   10  C   UNL     3      -8.734  14.270  68.795  1.00  0.00    -0.096 C  
BRANCH  10  11
HETATM   11  O   UNL     3     -10.030  13.811  68.851  1.00  0.00    -0.160 OA 
BRANCH  11  12
HETATM   12  C   UNL     3     -10.481  12.735  68.163  1.00  0.00    -0.236 C  
HETATM   13  O   UNL     3     -10.497  11.626  68.681  1.00  0.00    -0.203 OA 
BRANCH  12  14
HETATM   14  C   UNL     3     -11.044  12.953  66.818  1.00  0.00    -0.315 A  
HETATM   15  C   UNL     3     -12.021  13.406  64.221  1.00  0.00    -0.430 A  
HETATM   16  C   UNL     3     -12.731  13.878  65.333  1.00  0.00    -0.525 A  
HETATM   17  C   UNL     3     -12.248  13.655  66.627  1.00  0.00    -0.437 A  
HETATM   18  N   UNL     3     -12.507  13.629  62.904  1.00  0.00    -0.856 NA 
HETATM   19  C   UNL     3     -10.819  12.714  64.411  1.00  0.00    -0.386 A  
HETATM   20  C   UNL     3     -10.337  12.487  65.696  1.00  0.00    -0.294 A  
HETATM   21  H1  UNL     3     -11.990  13.285  62.095  1.00  0.00     0.000 HD 
HETATM   22  H2  UNL     3     -12.658  14.631  62.785  1.00  0.00     0.000 HD 
ENDBRANCH  12  14
ENDBRANCH  11  12
ENDBRANCH  10  11
ENDBRANCH   9  10
ENDBRANCH   6   9
ENDBRANCH   3   6
BRANCH   5  23
HETATM   23  C   UNL     4     -10.868   6.482  68.118  1.00  0.00    -0.295 C  
BRANCH  23  24
HETATM   24  N   UNL     4     -10.419   7.240  69.306  1.00  0.00    -0.212 NA 
HETATM   25  H   UNL     4     -10.693   8.219  69.390  1.00  0.00     0.000 HD 
BRANCH  24  26
HETATM   26  C   UNL     4      -9.681   6.711  70.260  1.00  0.00    -0.171 C  
HETATM   27  H   UNL     4      -7.840   6.682  71.068  1.00  0.00     0.000 HD 
HETATM   28  O   UNL     4      -8.372   7.063  70.379  1.00  0.00    -0.126 OA 
BRANCH  26  29
HETATM   29  C   UNL     4     -10.188   5.725  71.313  1.00  0.00    -0.270 A  
HETATM   30  C   UNL     4     -11.067   5.989  72.415  1.00  0.00    -0.277 A  
HETATM   31  C   UNL     4      -9.712   4.383  71.183  1.00  0.00    -0.256 A  
HETATM   32  C   UNL     4     -10.067   3.378  72.088  1.00  0.00    -0.200 A  
HETATM   33  C   UNL     4     -10.889   3.668  73.162  1.00  0.00    -0.252 A  
HETATM   34  C   UNL     4     -11.393   4.956  73.325  1.00  0.00    -0.408 A  
BRANCH  30  35
HETATM   35  O   UNL     4     -11.658   7.189  72.642  1.00  0.00    -0.263 OA 
BRANCH  35  36
HETATM   36  C   UNL     4     -12.788   7.645  71.993  1.00  0.00    -0.215 C  
HETATM   37  C   UNL     4     -12.676   9.103  71.674  1.00  0.00    -0.358 C  
HETATM   38  O   UNL     4     -11.660   9.544  70.909  1.00  0.00    -0.282 OA 
HETATM   39  O   UNL     4     -13.528   9.888  72.059  1.00  0.00    -0.413 OA 
ENDBRANCH  35  36
ENDBRANCH  30  35
ENDBRANCH  26  29
ENDBRANCH  24  26
ENDBRANCH  23  24
ENDBRANCH   5  23
BRANCH   5  40
HETATM   40  O   UNL     4      -8.750   7.047  67.011  1.00  0.00    -0.119 OA 
BRANCH  40  41
HETATM   41  C   UNL     4      -8.995   8.020  65.987  1.00  0.00    -0.163 C  
BRANCH  41  42
HETATM   42  C   UNL     4      -8.613   9.453  66.413  1.00  0.00    -0.134 C  
BRANCH  42  43
HETATM   43  O   UNL     4      -7.762  10.065  65.461  1.00  0.00    -0.122 OA 
HETATM   44  C   UNL     4      -7.240   9.075  64.591  1.00  0.00    -0.097 C  
ENDBRANCH  42  43
ENDBRANCH  41  42
ENDBRANCH  40  41
ENDBRANCH   5  40
TORSDOF 17
ENDMDL
MODEL       34
REMARK 921   NORMALIZED FREE ENERGY PREDICTED BY IDOCK:   -5.39 KCAL/MOL
REMARK 922        TOTAL FREE ENERGY PREDICTED BY IDOCK:  -13.61 KCAL/MOL
REMARK 923 INTER-LIGAND FREE ENERGY PREDICTED BY IDOCK:  -11.19 KCAL/MOL
REMARK 924 INTRA-LIGAND FREE ENERGY PREDICTED BY IDOCK:   -2.42 KCAL/MOL
REMARK 927      BINDING AFFINITY PREDICTED BY RF-SCORE:    0.00 PKD
ROOT
HETATM    1 HG   UNL     2     -11.154  19.664  69.014  1.00  0.00    -0.432 Hg 
HETATM    2  C   UNL     3      -5.942   7.863  69.680  1.00  0.00    -0.026 C  
HETATM    3  C   UNL     3      -7.130   8.505  68.950  1.00  0.00    -0.062 C  
HETATM    4  C   UNL     4      -8.400  19.692  66.124  1.00  0.00    -0.352 C  
HETATM    5  C   UNL     4      -8.940  18.464  66.870  1.00  0.00    -0.280 C  
ENDROOT
BRANCH   3   6
HETATM    6  N   UNL     3      -7.648   7.706  67.806  1.00  0.00    -0.114 NA 
BRANCH   6   7
HETATM    7  C   UNL     3      -6.674   6.719  67.262  1.00  0.00    -0.067 C  
HETATM    8  C   UNL     3      -6.965   6.256  65.823  1.00  0.00    -0.057 C  
ENDBRANCH   6   7
BRANCH   6   9
HETATM    9  C   UNL     3      -8.926   7.024  68.133  1.00  0.00    -0.127 C  
BRANCH   9  10
HETATM   10  C   UNL     3      -9.353   7.155  69.592  1.00  0.00    -0.149 C  
BRANCH  10  11
HETATM   11  O   UNL     3     -10.662   7.565  69.700  1.00  0.00    -0.238 OA 
BRANCH  11  12
HETATM   12  C   UNL     3     -11.227   7.988  70.857  1.00  0.00    -0.266 C  
HETATM   13  O   UNL     3     -11.233   7.268  71.847  1.00  0.00    -0.238 OA 
BRANCH  12  14
HETATM   14  C   UNL     3     -11.739   9.369  70.918  1.00  0.00    -0.378 A  
HETATM   15  C   UNL     3     -12.612  12.039  71.031  1.00  0.00    -0.273 A  
HETATM   16  C   UNL     3     -13.095  11.101  71.954  1.00  0.00    -0.513 A  
HETATM   17  C   UNL     3     -12.662   9.772  71.901  1.00  0.00    -0.501 A  
HETATM   18  N   UNL     3     -13.049  13.391  71.079  1.00  0.00    -0.175 NA 
HETATM   19  C   UNL     3     -11.688  11.641  70.058  1.00  0.00    -0.402 A  
HETATM   20  C   UNL     3     -11.258  10.319  70.000  1.00  0.00    -0.376 A  
HETATM   21  H1  UNL     3     -12.698  14.074  70.408  1.00  0.00     0.000 HD 
HETATM   22  H2  UNL     3     -12.876  13.749  72.018  1.00  0.00     0.000 HD 
ENDBRANCH  12  14
ENDBRANCH  11  12
ENDBRANCH  10  11
ENDBRANCH   9  10
ENDBRANCH   6   9
ENDBRANCH   3   6
BRANCH   5  23
HETATM   23  C   UNL     4     -10.157  17.823  66.110  1.00  0.00    -0.304 C  
BRANCH  23  24
HETATM   24  N   UNL     4     -10.034  16.418  65.667  1.00  0.00    -0.529 NA 
HETATM   25  H   UNL     4      -9.246  15.868  66.010  1.00  0.00     0.000 HD 
BRANCH  24  26
HETATM   26  C   UNL     4     -10.892  15.842  64.851  1.00  0.00    -0.400 C  
HETATM   27  H   UNL     4     -12.206  16.180  63.368  1.00  0.00     0.000 HD 
HETATM   28  O   UNL     4     -11.587  16.596  63.957  1.00  0.00    -1.197 OA 
BRANCH  26  29
HETATM   29  C   UNL     4     -11.164  14.339  64.785  1.00  0.00    -0.387 A  
HETATM   30  C   UNL     4     -10.515  13.294  65.524  1.00  0.00    -0.288 A  
HETATM   31  C   UNL     4     -12.179  13.934  63.864  1.00  0.00    -0.375 A  
HETATM   32  C   UNL     4     -12.517  12.590  63.674  1.00  0.00    -0.570 A  
HETATM   33  C   UNL     4     -11.852  11.600  64.375  1.00  0.00    -0.178 A  
HETATM   34  C   UNL     4     -10.866  11.943  65.296  1.00  0.00    -0.347 A  
BRANCH  30  35
HETATM   35  O   UNL     4      -9.580  13.512  66.482  1.00  0.00    -0.269 OA 
BRANCH  35  36
HETATM   36  C   UNL     4      -9.111  12.551  67.357  1.00  0.00    -0.185 C  
HETATM   37  C   UNL     4      -7.641  12.333  67.181  1.00  0.00    -0.118 C  
HETATM   38  O   UNL     4      -6.788  13.362  67.339  1.00  0.00    -0.165 OA 
HETATM   39  O   UNL     4      -7.205  11.217  66.947  1.00  0.00    -0.122 OA 
ENDBRANCH  35  36
ENDBRANCH  30  35
ENDBRANCH  26  29
ENDBRANCH  24  26
ENDBRANCH  23  24
ENDBRANCH   5  23
BRANCH   5  40
HETATM   40  O   UNL     4      -7.895  17.487  67.005  1.00  0.00    -0.198 OA 
BRANCH  40  41
HETATM   41  C   UNL     4      -7.271  17.539  68.295  1.00  0.00    -0.217 C  
BRANCH  41  42
HETATM   42  C   UNL     4      -8.058  16.770  69.377  1.00  0.00     0.159 C  
BRANCH  42  43
HETATM   43  O   UNL     4      -9.067  15.959  68.804  1.00  0.00    -0.194 OA 
HETATM   44  C   UNL     4     -10.311  16.252  69.417  1.00  0.00    -0.278 C  
ENDBRANCH  42  43
ENDBRANCH  41  42
ENDBRANCH  40  41
ENDBRANCH   5  40
TORSDOF 17
ENDMDL
MODEL       35
REMARK 921   NORMALIZED FREE ENERGY PREDICTED BY IDOCK:   -5.38 KCAL/MOL
REMARK 922        TOTAL FREE ENERGY PREDICTED BY IDOCK:  -13.59 KCAL/MOL
REMARK 923 INTER-LIGAND FREE ENERGY PREDICTED BY IDOCK:  -10.47 KCAL/MOL
REMARK 924 INTRA-LIGAND FREE ENERGY PREDICTED BY IDOCK:   -3.11 KCAL/MOL
REMARK 927      BINDING AFFINITY PREDICTED BY RF-SCORE:    0.00 PKD
ROOT
HETATM    1 HG   UNL     2      -7.775  18.816  69.260  1.00  0.00    -0.287 Hg 
HETATM    2  C   UNL     3      -7.032   6.831  64.499  1.00  0.00    -0.058 C  
HETATM    3  C   UNL     3      -7.725   7.504  65.692  1.00  0.00    -0.100 C  
HETATM    4  C   UNL     4     -10.784  18.661  66.641  1.00  0.00    -0.316 C  
HETATM    5  C   UNL     4      -9.983  17.475  67.195  1.00  0.00    -0.314 C  
ENDROOT
BRANCH   3   6
HETATM    6  N   UNL     3      -8.823   6.699  66.292  1.00  0.00    -0.144 NA 
BRANCH   6   7
HETATM    7  C   UNL     3      -9.104   5.422  65.578  1.00  0.00    -0.118 C  
HETATM    8  C   UNL     3     -10.095   4.489  66.297  1.00  0.00    -0.280 C  
ENDBRANCH   6   7
BRANCH   6   9
HETATM    9  C   UNL     3      -8.595   6.428  67.735  1.00  0.00    -0.116 C  
BRANCH   9  10
HETATM   10  C   UNL     3      -9.584   7.118  68.669  1.00  0.00    -0.140 C  
BRANCH  10  11
HETATM   11  O   UNL     3      -8.938   7.857  69.633  1.00  0.00    -0.144 OA 
BRANCH  11  12
HETATM   12  C   UNL     3      -9.186   7.746  70.961  1.00  0.00    -0.151 C  
HETATM   13  O   UNL     3      -8.284   7.471  71.742  1.00  0.00    -0.103 OA 
BRANCH  12  14
HETATM   14  C   UNL     3     -10.540   8.066  71.447  1.00  0.00    -0.258 A  
HETATM   15  C   UNL     3     -13.080   8.753  72.438  1.00  0.00    -0.391 A  
HETATM   16  C   UNL     3     -12.682   7.410  72.390  1.00  0.00     0.084 A  
HETATM   17  C   UNL     3     -11.419   7.064  71.898  1.00  0.00    -0.304 A  
HETATM   18  N   UNL     3     -14.362   9.110  72.937  1.00  0.00    -1.054 NA 
HETATM   19  C   UNL     3     -12.203   9.751  71.996  1.00  0.00    -0.271 A  
HETATM   20  C   UNL     3     -10.947   9.411  71.503  1.00  0.00    -0.429 A  
HETATM   21  H1  UNL     3     -14.651  10.087  72.972  1.00  0.00     0.000 HD 
HETATM   22  H2  UNL     3     -14.463   8.714  73.871  1.00  0.00     0.000 HD 
ENDBRANCH  12  14
ENDBRANCH  11  12
ENDBRANCH  10  11
ENDBRANCH   9  10
ENDBRANCH   6   9
ENDBRANCH   3   6
BRANCH   5  23
HETATM   23  C   UNL     4     -10.671  16.866  68.469  1.00  0.00    -0.359 C  
BRANCH  23  24
HETATM   24  N   UNL     4     -10.084  15.641  69.054  1.00  0.00    -0.214 NA 
HETATM   25  H   UNL     4      -9.075  15.605  69.194  1.00  0.00     0.000 HD 
BRANCH  24  26
HETATM   26  C   UNL     4     -10.803  14.594  69.402  1.00  0.00    -0.243 C  
HETATM   27  H   UNL     4     -12.194  13.929  70.693  1.00  0.00     0.000 HD 
HETATM   28  O   UNL     4     -11.675  14.685  70.442  1.00  0.00    -0.272 OA 
BRANCH  26  29
HETATM   29  C   UNL     4     -10.774  13.239  68.694  1.00  0.00    -0.281 A  
HETATM   30  C   UNL     4      -9.880  12.805  67.659  1.00  0.00    -0.214 A  
HETATM   31  C   UNL     4     -11.772  12.303  69.110  1.00  0.00    -0.377 A  
HETATM   32  C   UNL     4     -11.887  11.034  68.532  1.00  0.00    -0.286 A  
HETATM   33  C   UNL     4     -11.034  10.654  67.513  1.00  0.00    -0.371 A  
HETATM   34  C   UNL     4     -10.035  11.523  67.081  1.00  0.00    -0.222 A  
BRANCH  30  35
HETATM   35  O   UNL     4      -8.841  13.544  67.197  1.00  0.00    -0.212 OA 
BRANCH  35  36
HETATM   36  C   UNL     4      -7.511  13.283  67.463  1.00  0.00    -0.157 C  
HETATM   37  C   UNL     4      -6.832  14.483  68.046  1.00  0.00    -0.145 C  
HETATM   38  O   UNL     4      -7.294  15.023  69.190  1.00  0.00    -0.138 OA 
HETATM   39  O   UNL     4      -5.831  14.944  67.521  1.00  0.00    -0.325 OA 
ENDBRANCH  35  36
ENDBRANCH  30  35
ENDBRANCH  26  29
ENDBRANCH  24  26
ENDBRANCH  23  24
ENDBRANCH   5  23
BRANCH   5  40
HETATM   40  O   UNL     4      -9.869  16.459  66.184  1.00  0.00    -0.298 OA 
BRANCH  40  41
HETATM   41  C   UNL     4     -11.087  16.292  65.447  1.00  0.00    -0.087 C  
BRANCH  41  42
HETATM   42  C   UNL     4     -11.103  15.008  64.590  1.00  0.00    -0.321 C  
BRANCH  42  43
HETATM   43  O   UNL     4     -12.422  14.535  64.393  1.00  0.00    -0.633 OA 
HETATM   44  C   UNL     4     -12.882  13.914  65.582  1.00  0.00    -0.424 C  
ENDBRANCH  42  43
ENDBRANCH  41  42
ENDBRANCH  40  41
ENDBRANCH   5  40
TORSDOF 17
ENDMDL
MODEL       36
REMARK 921   NORMALIZED FREE ENERGY PREDICTED BY IDOCK:   -5.37 KCAL/MOL
REMARK 922        TOTAL FREE ENERGY PREDICTED BY IDOCK:  -13.57 KCAL/MOL
REMARK 923 INTER-LIGAND FREE ENERGY PREDICTED BY IDOCK:  -11.31 KCAL/MOL
REMARK 924 INTRA-LIGAND FREE ENERGY PREDICTED BY IDOCK:   -2.26 KCAL/MOL
REMARK 927      BINDING AFFINITY PREDICTED BY RF-SCORE:    0.00 PKD
ROOT
HETATM    1 HG   UNL     2      -9.835  15.747  64.728  1.00  0.00    -0.277 Hg 
HETATM    2  C   UNL     3      -5.546   5.142  70.729  1.00  0.00    -0.012 C  
HETATM    3  C   UNL     3      -6.487   6.304  71.078  1.00  0.00    -0.049 C  
HETATM    4  C   UNL     4     -12.474  12.943  63.674  1.00  0.00    -0.438 C  
HETATM    5  C   UNL     4     -11.433  12.852  64.799  1.00  0.00    -0.321 C  
ENDROOT
BRANCH   3   6
HETATM    6  N   UNL     3      -7.375   6.041  72.243  1.00  0.00    -0.092 NA 
BRANCH   6   7
HETATM    7  C   UNL     3      -7.663   4.598  72.475  1.00  0.00    -0.087 C  
HETATM    8  C   UNL     3      -9.027   4.122  71.944  1.00  0.00    -0.154 C  
ENDBRANCH   6   7
BRANCH   6   9
HETATM    9  C   UNL     3      -6.859   6.657  73.492  1.00  0.00    -0.076 C  
BRANCH   9  10
HETATM   10  C   UNL     3      -7.924   6.913  74.553  1.00  0.00    -0.134 C  
BRANCH  10  11
HETATM   11  O   UNL     3      -8.922   7.735  74.082  1.00  0.00    -0.251 OA 
BRANCH  11  12
HETATM   12  C   UNL     3     -10.101   7.285  73.588  1.00  0.00    -0.340 C  
HETATM   13  O   UNL     3     -10.658   6.318  74.091  1.00  0.00    -0.267 OA 
BRANCH  12  14
HETATM   14  C   UNL     3     -10.740   8.052  72.504  1.00  0.00    -0.407 A  
HETATM   15  C   UNL     3     -11.898   9.600  70.462  1.00  0.00    -0.215 A  
HETATM   16  C   UNL     3     -12.712   8.885  71.352  1.00  0.00    -0.350 A  
HETATM   17  C   UNL     3     -12.139   8.114  72.369  1.00  0.00    -0.406 A  
HETATM   18  N   UNL     3     -12.474  10.384  69.425  1.00  0.00    -0.656 NA 
HETATM   19  C   UNL     3     -10.506   9.544  70.600  1.00  0.00    -0.374 A  
HETATM   20  C   UNL     3      -9.933   8.775  71.609  1.00  0.00    -0.381 A  
HETATM   21  H1  UNL     3     -11.881  10.903  68.778  1.00  0.00     0.000 HD 
HETATM   22  H2  UNL     3     -13.134  11.036  69.848  1.00  0.00     0.000 HD 
ENDBRANCH  12  14
ENDBRANCH  11  12
ENDBRANCH  10  11
ENDBRANCH   9  10
ENDBRANCH   6   9
ENDBRANCH   3   6
BRANCH   5  23
HETATM   23  C   UNL     4     -12.033  13.319  66.173  1.00  0.00    -0.418 C  
BRANCH  23  24
HETATM   24  N   UNL     4     -11.561  12.643  67.400  1.00  0.00    -0.340 NA 
HETATM   25  H   UNL     4     -11.838  11.674  67.558  1.00  0.00     0.000 HD 
BRANCH  24  26
HETATM   26  C   UNL     4     -10.801  13.232  68.300  1.00  0.00    -0.256 C  
HETATM   27  H   UNL     4      -8.904  13.479  68.918  1.00  0.00     0.000 HD 
HETATM   28  O   UNL     4      -9.452  13.054  68.269  1.00  0.00    -0.217 OA 
BRANCH  26  29
HETATM   29  C   UNL     4     -11.309  14.165  69.400  1.00  0.00    -0.318 A  
HETATM   30  C   UNL     4     -10.902  15.514  69.667  1.00  0.00    -0.283 A  
HETATM   31  C   UNL     4     -12.300  13.612  70.270  1.00  0.00    -0.392 A  
HETATM   32  C   UNL     4     -12.837  14.337  71.339  1.00  0.00    -0.415 A  
HETATM   33  C   UNL     4     -12.401  15.624  71.595  1.00  0.00    -0.494 A  
HETATM   34  C   UNL     4     -11.450  16.214  70.767  1.00  0.00    -0.408 A  
BRANCH  30  35
HETATM   35  O   UNL     4     -10.024  16.207  68.899  1.00  0.00    -0.212 OA 
BRANCH  35  36
HETATM   36  C   UNL     4     -10.327  16.780  67.680  1.00  0.00    -0.309 C  
HETATM   37  C   UNL     4     -10.214  18.271  67.743  1.00  0.00    -0.385 C  
HETATM   38  O   UNL     4      -9.044  18.840  68.089  1.00  0.00    -0.290 OA 
HETATM   39  O   UNL     4     -11.161  18.976  67.431  1.00  0.00    -0.395 OA 
ENDBRANCH  35  36
ENDBRANCH  30  35
ENDBRANCH  26  29
ENDBRANCH  24  26
ENDBRANCH  23  24
ENDBRANCH   5  23
BRANCH   5  40
HETATM   40  O   UNL     4     -10.971  11.495  64.917  1.00  0.00    -0.298 OA 
BRANCH  40  41
HETATM   41  C   UNL     4      -9.590  11.363  64.559  1.00  0.00    -0.192 C  
BRANCH  41  42
HETATM   42  C   UNL     4      -9.200   9.918  64.183  1.00  0.00    -0.262 C  
BRANCH  42  43
HETATM   43  O   UNL     4      -8.824   9.170  65.325  1.00  0.00    -0.179 OA 
HETATM   44  C   UNL     4      -8.645   7.812  64.961  1.00  0.00     0.039 C  
ENDBRANCH  42  43
ENDBRANCH  41  42
ENDBRANCH  40  41
ENDBRANCH   5  40
TORSDOF 17
ENDMDL
MODEL       37
REMARK 921   NORMALIZED FREE ENERGY PREDICTED BY IDOCK:   -5.34 KCAL/MOL
REMARK 922        TOTAL FREE ENERGY PREDICTED BY IDOCK:  -13.52 KCAL/MOL
REMARK 923 INTER-LIGAND FREE ENERGY PREDICTED BY IDOCK:  -10.35 KCAL/MOL
REMARK 924 INTRA-LIGAND FREE ENERGY PREDICTED BY IDOCK:   -3.17 KCAL/MOL
REMARK 927      BINDING AFFINITY PREDICTED BY RF-SCORE:    0.00 PKD
ROOT
HETATM    1 HG   UNL     2     -12.173   6.751  66.801  1.00  0.00    -0.646 Hg 
HETATM    2  C   UNL     3      -5.761  17.915  65.730  1.00  0.00    -0.217 C  
HETATM    3  C   UNL     3      -6.688  17.269  66.769  1.00  0.00    -0.214 C  
HETATM    4  C   UNL     4      -8.598   5.933  68.380  1.00  0.00    -0.113 C  
HETATM    5  C   UNL     4      -9.171   7.323  68.067  1.00  0.00    -0.131 C  
ENDROOT
BRANCH   3   6
HETATM    6  N   UNL     3      -6.621  17.895  68.118  1.00  0.00    -0.193 NA 
BRANCH   6   7
HETATM    7  C   UNL     3      -7.015  19.331  68.143  1.00  0.00    -0.257 C  
HETATM    8  C   UNL     3      -8.317  19.654  67.389  1.00  0.00    -0.335 C  
ENDBRANCH   6   7
BRANCH   6   9
HETATM    9  C   UNL     3      -7.410  17.140  69.125  1.00  0.00    -0.172 C  
BRANCH   9  10
HETATM   10  C   UNL     3      -8.182  15.953  68.558  1.00  0.00    -0.169 C  
BRANCH  10  11
HETATM   11  O   UNL     3      -9.471  16.300  68.226  1.00  0.00    -0.207 OA 
BRANCH  11  12
HETATM   12  C   UNL     3     -10.375  16.785  69.110  1.00  0.00    -0.326 C  
HETATM   13  O   UNL     3     -10.631  17.982  69.146  1.00  0.00    -0.116 OA 
BRANCH  12  14
HETATM   14  C   UNL     3     -11.112  15.825  69.952  1.00  0.00    -0.333 A  
HETATM   15  C   UNL     3     -12.598  13.994  71.483  1.00  0.00    -0.349 A  
HETATM   16  C   UNL     3     -12.054  15.137  72.084  1.00  0.00    -0.472 A  
HETATM   17  C   UNL     3     -11.314  16.051  71.326  1.00  0.00    -0.397 A  
HETATM   18  N   UNL     3     -13.350  13.062  72.249  1.00  0.00    -0.531 NA 
HETATM   19  C   UNL     3     -12.403  13.773  70.114  1.00  0.00    -0.390 A  
HETATM   20  C   UNL     3     -11.665  14.678  69.357  1.00  0.00    -0.355 A  
HETATM   21  H1  UNL     3     -13.746  12.230  71.811  1.00  0.00     0.000 HD 
HETATM   22  H2  UNL     3     -14.103  13.567  72.715  1.00  0.00     0.000 HD 
ENDBRANCH  12  14
ENDBRANCH  11  12
ENDBRANCH  10  11
ENDBRANCH   9  10
ENDBRANCH   6   9
ENDBRANCH   3   6
BRANCH   5  23
HETATM   23  C   UNL     4      -9.910   7.931  69.312  1.00  0.00    -0.177 C  
BRANCH  23  24
HETATM   24  N   UNL     4     -11.052   8.837  69.064  1.00  0.00    -0.429 NA 
HETATM   25  H   UNL     4     -11.926   8.435  68.725  1.00  0.00     0.000 HD 
BRANCH  24  26
HETATM   26  C   UNL     4     -10.995  10.138  69.260  1.00  0.00    -0.240 C  
HETATM   27  H   UNL     4     -11.225  11.589  70.633  1.00  0.00     0.000 HD 
HETATM   28  O   UNL     4     -11.266  10.650  70.491  1.00  0.00    -0.300 OA 
BRANCH  26  29
HETATM   29  C   UNL     4     -10.602  11.166  68.200  1.00  0.00    -0.227 A  
HETATM   30  C   UNL     4      -9.313  11.760  67.984  1.00  0.00    -0.184 A  
HETATM   31  C   UNL     4     -11.654  11.592  67.331  1.00  0.00    -0.330 A  
HETATM   32  C   UNL     4     -11.451  12.550  66.332  1.00  0.00    -0.418 A  
HETATM   33  C   UNL     4     -10.207  13.131  66.168  1.00  0.00    -0.291 A  
HETATM   34  C   UNL     4      -9.144  12.739  66.978  1.00  0.00    -0.220 A  
BRANCH  30  35
HETATM   35  O   UNL     4      -8.197  11.418  68.675  1.00  0.00    -0.150 OA 
BRANCH  35  36
HETATM   36  C   UNL     4      -7.107  12.244  68.868  1.00  0.00    -0.088 C  
HETATM   37  C   UNL     4      -6.138  11.642  69.835  1.00  0.00    -0.147 C  
HETATM   38  O   UNL     4      -5.593  10.439  69.575  1.00  0.00    -0.038 OA 
HETATM   39  O   UNL     4      -5.797  12.256  70.833  1.00  0.00    -0.332 OA 
ENDBRANCH  35  36
ENDBRANCH  30  35
ENDBRANCH  26  29
ENDBRANCH  24  26
ENDBRANCH  23  24
ENDBRANCH   5  23
BRANCH   5  40
HETATM   40  O   UNL     4      -8.105   8.202  67.669  1.00  0.00    -0.123 OA 
BRANCH  40  41
HETATM   41  C   UNL     4      -7.928   8.226  66.246  1.00  0.00    -0.100 C  
BRANCH  41  42
HETATM   42  C   UNL     4      -8.547   9.474  65.582  1.00  0.00    -0.138 C  
BRANCH  42  43
HETATM   43  O   UNL     4      -8.863   9.232  64.224  1.00  0.00    -0.204 OA 
HETATM   44  C   UNL     4      -9.363  10.422  63.637  1.00  0.00    -0.291 C  
ENDBRANCH  42  43
ENDBRANCH  41  42
ENDBRANCH  40  41
ENDBRANCH   5  40
TORSDOF 17
ENDMDL
MODEL       38
REMARK 921   NORMALIZED FREE ENERGY PREDICTED BY IDOCK:   -5.28 KCAL/MOL
REMARK 922        TOTAL FREE ENERGY PREDICTED BY IDOCK:  -13.38 KCAL/MOL
REMARK 923 INTER-LIGAND FREE ENERGY PREDICTED BY IDOCK:   -9.48 KCAL/MOL
REMARK 924 INTRA-LIGAND FREE ENERGY PREDICTED BY IDOCK:   -3.90 KCAL/MOL
REMARK 927      BINDING AFFINITY PREDICTED BY RF-SCORE:    0.00 PKD
ROOT
HETATM    1 HG   UNL     2     -11.364  18.694  67.390  1.00  0.00    -0.422 Hg 
HETATM    2  C   UNL     3      -8.640   7.946  74.017  1.00  0.00    -0.322 C  
HETATM    3  C   UNL     3      -9.288   8.274  72.665  1.00  0.00    -0.280 C  
HETATM    4  C   UNL     4      -7.647  17.801  66.238  1.00  0.00    -0.322 C  
HETATM    5  C   UNL     4      -8.622  16.888  66.995  1.00  0.00    -0.205 C  
ENDROOT
BRANCH   3   6
HETATM    6  N   UNL     3      -9.356   7.123  71.725  1.00  0.00    -0.147 NA 
BRANCH   6   7
HETATM    7  C   UNL     3      -8.498   5.968  72.113  1.00  0.00    -0.124 C  
HETATM    8  C   UNL     3      -7.321   5.695  71.159  1.00  0.00    -0.085 C  
ENDBRANCH   6   7
BRANCH   6   9
HETATM    9  C   UNL     3     -10.751   6.660  71.507  1.00  0.00    -0.230 C  
BRANCH   9  10
HETATM   10  C   UNL     3     -11.401   7.203  70.238  1.00  0.00    -0.269 C  
BRANCH  10  11
HETATM   11  O   UNL     3     -11.302   6.310  69.196  1.00  0.00    -0.395 OA 
BRANCH  11  12
HETATM   12  C   UNL     3     -10.167   6.102  68.486  1.00  0.00    -0.185 C  
HETATM   13  O   UNL     3      -9.666   4.986  68.425  1.00  0.00    -0.137 OA 
BRANCH  12  14
HETATM   14  C   UNL     3      -9.615   7.226  67.708  1.00  0.00    -0.158 A  
HETATM   15  C   UNL     3      -8.616   9.333  66.138  1.00  0.00    -0.134 A  
HETATM   16  C   UNL     3      -7.745   8.569  66.928  1.00  0.00    -0.091 A  
HETATM   17  C   UNL     3      -8.239   7.519  67.710  1.00  0.00    -0.119 A  
HETATM   18  N   UNL     3      -8.120  10.402  65.342  1.00  0.00    -0.151 NA 
HETATM   19  C   UNL     3      -9.984   9.037  66.131  1.00  0.00    -0.311 A  
HETATM   20  C   UNL     3     -10.479   7.996  66.910  1.00  0.00    -0.387 A  
HETATM   21  H1  UNL     3      -8.754  10.958  64.768  1.00  0.00     0.000 HD 
HETATM   22  H2  UNL     3      -7.382  10.036  64.741  1.00  0.00     0.000 HD 
ENDBRANCH  12  14
ENDBRANCH  11  12
ENDBRANCH  10  11
ENDBRANCH   9  10
ENDBRANCH   6   9
ENDBRANCH   3   6
BRANCH   5  23
HETATM   23  C   UNL     4      -9.458  15.999  66.005  1.00  0.00    -0.349 C  
BRANCH  23  24
HETATM   24  N   UNL     4      -9.175  14.548  65.970  1.00  0.00    -0.514 NA 
HETATM   25  H   UNL     4      -8.207  14.244  65.864  1.00  0.00     0.000 HD 
BRANCH  24  26
HETATM   26  C   UNL     4     -10.112  13.629  66.070  1.00  0.00    -0.312 C  
HETATM   27  H   UNL     4     -11.690  12.804  65.135  1.00  0.00     0.000 HD 
HETATM   28  O   UNL     4     -11.013  13.467  65.063  1.00  0.00    -0.293 OA 
BRANCH  26  29
HETATM   29  C   UNL     4     -10.268  12.662  67.244  1.00  0.00    -0.227 A  
HETATM   30  C   UNL     4      -9.232  12.077  68.047  1.00  0.00    -0.192 A  
HETATM   31  C   UNL     4     -11.611  12.289  67.564  1.00  0.00    -0.422 A  
HETATM   32  C   UNL     4     -11.907  11.390  68.594  1.00  0.00    -0.377 A  
HETATM   33  C   UNL     4     -10.887  10.815  69.330  1.00  0.00    -0.287 A  
HETATM   34  C   UNL     4      -9.563  11.157  69.069  1.00  0.00    -0.099 A  
BRANCH  30  35
HETATM   35  O   UNL     4      -7.915  12.375  67.918  1.00  0.00    -0.131 OA 
BRANCH  35  36
HETATM   36  C   UNL     4      -7.118  12.871  68.931  1.00  0.00    -0.063 C  
HETATM   37  C   UNL     4      -6.173  11.826  69.434  1.00  0.00    -0.103 C  
HETATM   38  O   UNL     4      -5.301  11.248  68.586  1.00  0.00    -0.044 OA 
HETATM   39  O   UNL     4      -6.150  11.531  70.618  1.00  0.00    -0.319 OA 
ENDBRANCH  35  36
ENDBRANCH  30  35
ENDBRANCH  26  29
ENDBRANCH  24  26
ENDBRANCH  23  24
ENDBRANCH   5  23
BRANCH   5  40
HETATM   40  O   UNL     4      -7.886  16.039  67.892  1.00  0.00    -0.133 OA 
BRANCH  40  41
HETATM   41  C   UNL     4      -8.296  16.211  69.254  1.00  0.00    -0.178 C  
BRANCH  41  42
HETATM   42  C   UNL     4      -9.648  15.536  69.568  1.00  0.00    -0.278 C  
BRANCH  42  43
HETATM   43  O   UNL     4     -10.622  16.487  69.956  1.00  0.00    -0.276 OA 
HETATM   44  C   UNL     4     -11.534  15.886  70.859  1.00  0.00    -0.409 C  
ENDBRANCH  42  43
ENDBRANCH  41  42
ENDBRANCH  40  41
ENDBRANCH   5  40
TORSDOF 17
ENDMDL
MODEL       39
REMARK 921   NORMALIZED FREE ENERGY PREDICTED BY IDOCK:   -5.26 KCAL/MOL
REMARK 922        TOTAL FREE ENERGY PREDICTED BY IDOCK:  -13.35 KCAL/MOL
REMARK 923 INTER-LIGAND FREE ENERGY PREDICTED BY IDOCK:  -10.28 KCAL/MOL
REMARK 924 INTRA-LIGAND FREE ENERGY PREDICTED BY IDOCK:   -3.06 KCAL/MOL
REMARK 927      BINDING AFFINITY PREDICTED BY RF-SCORE:    0.00 PKD
ROOT
HETATM    1 HG   UNL     2     -11.433   1.921  72.297  1.00  0.00    -0.108 Hg 
HETATM    2  C   UNL     3      -9.943  11.100  63.331  1.00  0.00    -0.430 C  
HETATM    3  C   UNL     3     -10.487  11.036  64.764  1.00  0.00    -0.316 C  
HETATM    4  C   UNL     4      -7.742   3.290  72.963  1.00  0.00    -0.060 C  
HETATM    5  C   UNL     4      -8.827   3.947  72.098  1.00  0.00    -0.105 C  
ENDROOT
BRANCH   3   6
HETATM    6  N   UNL     3     -10.596  12.359  65.436  1.00  0.00    -0.276 NA 
BRANCH   6   7
HETATM    7  C   UNL     3      -9.463  12.675  66.348  1.00  0.00    -0.231 C  
HETATM    8  C   UNL     3      -9.237  11.647  67.472  1.00  0.00    -0.172 C  
ENDBRANCH   6   7
BRANCH   6   9
HETATM    9  C   UNL     3     -10.781  13.467  64.463  1.00  0.00    -0.419 C  
BRANCH   9  10
HETATM   10  C   UNL     3     -10.307  14.828  64.963  1.00  0.00    -0.389 C  
BRANCH  10  11
HETATM   11  O   UNL     3     -11.144  15.332  65.931  1.00  0.00    -0.334 OA 
BRANCH  11  12
HETATM   12  C   UNL     3     -10.713  15.980  67.040  1.00  0.00    -0.277 C  
HETATM   13  O   UNL     3      -9.976  16.953  66.945  1.00  0.00    -0.261 OA 
BRANCH  12  14
HETATM   14  C   UNL     3     -11.236  15.547  68.348  1.00  0.00    -0.341 A  
HETATM   15  C   UNL     3     -12.133  14.738  70.887  1.00  0.00    -0.324 A  
HETATM   16  C   UNL     3     -12.392  13.942  69.762  1.00  0.00    -0.330 A  
HETATM   17  C   UNL     3     -11.946  14.342  68.497  1.00  0.00    -0.352 A  
HETATM   18  N   UNL     3     -12.584  14.338  72.175  1.00  0.00    -0.300 NA 
HETATM   19  C   UNL     3     -11.420  15.933  70.740  1.00  0.00    -0.437 A  
HETATM   20  C   UNL     3     -10.978  16.335  69.483  1.00  0.00    -0.339 A  
HETATM   21  H1  UNL     3     -12.396  14.917  72.993  1.00  0.00     0.000 HD 
HETATM   22  H2  UNL     3     -12.230  13.399  72.359  1.00  0.00     0.000 HD 
ENDBRANCH  12  14
ENDBRANCH  11  12
ENDBRANCH  10  11
ENDBRANCH   9  10
ENDBRANCH   6   9
ENDBRANCH   3   6
BRANCH   5  23
HETATM   23  C   UNL     4      -9.675   4.975  72.929  1.00  0.00    -0.148 C  
BRANCH  23  24
HETATM   24  N   UNL     4     -10.451   5.992  72.187  1.00  0.00    -0.201 NA 
HETATM   25  H   UNL     4     -10.683   5.810  71.211  1.00  0.00     0.000 HD 
BRANCH  24  26
HETATM   26  C   UNL     4     -10.857   7.123  72.726  1.00  0.00    -0.300 C  
HETATM   27  H   UNL     4     -11.086   8.109  74.463  1.00  0.00     0.000 HD 
HETATM   28  O   UNL     4     -10.793   7.293  74.074  1.00  0.00    -0.212 OA 
BRANCH  26  29
HETATM   29  C   UNL     4     -11.381   8.327  71.943  1.00  0.00    -0.372 A  
HETATM   30  C   UNL     4     -10.868   8.872  70.718  1.00  0.00    -0.241 A  
HETATM   31  C   UNL     4     -12.509   8.994  72.515  1.00  0.00    -0.309 A  
HETATM   32  C   UNL     4     -13.079  10.128  71.927  1.00  0.00    -0.571 A  
HETATM   33  C   UNL     4     -12.544  10.651  70.764  1.00  0.00    -0.479 A  
HETATM   34  C   UNL     4     -11.455  10.030  70.158  1.00  0.00    -0.344 A  
BRANCH  30  35
HETATM   35  O   UNL     4      -9.848   8.322  70.013  1.00  0.00    -0.179 OA 
BRANCH  35  36
HETATM   36  C   UNL     4      -9.940   7.886  68.706  1.00  0.00    -0.187 C  
HETATM   37  C   UNL     4     -10.072   6.398  68.640  1.00  0.00    -0.158 C  
HETATM   38  O   UNL     4     -11.101   5.789  69.259  1.00  0.00    -0.333 OA 
HETATM   39  O   UNL     4      -9.283   5.735  67.986  1.00  0.00    -0.110 OA 
ENDBRANCH  35  36
ENDBRANCH  30  35
ENDBRANCH  26  29
ENDBRANCH  24  26
ENDBRANCH  23  24
ENDBRANCH   5  23
BRANCH   5  40
HETATM   40  O   UNL     4      -8.211   4.624  70.989  1.00  0.00    -0.087 OA 
BRANCH  40  41
HETATM   41  C   UNL     4      -6.940   5.186  71.339  1.00  0.00    -0.053 C  
BRANCH  41  42
HETATM   42  C   UNL     4      -6.936   6.730  71.318  1.00  0.00    -0.074 C  
BRANCH  42  43
HETATM   43  O   UNL     4      -7.160   7.264  72.610  1.00  0.00    -0.067 OA 
HETATM   44  C   UNL     4      -6.025   7.019  73.424  1.00  0.00    -0.057 C  
ENDBRANCH  42  43
ENDBRANCH  41  42
ENDBRANCH  40  41
ENDBRANCH   5  40
TORSDOF 17
ENDMDL
MODEL       40
REMARK 921   NORMALIZED FREE ENERGY PREDICTED BY IDOCK:   -5.24 KCAL/MOL
REMARK 922        TOTAL FREE ENERGY PREDICTED BY IDOCK:  -13.31 KCAL/MOL
REMARK 923 INTER-LIGAND FREE ENERGY PREDICTED BY IDOCK:  -11.06 KCAL/MOL
REMARK 924 INTRA-LIGAND FREE ENERGY PREDICTED BY IDOCK:   -2.25 KCAL/MOL
REMARK 927      BINDING AFFINITY PREDICTED BY RF-SCORE:    0.00 PKD
ROOT
HETATM    1 HG   UNL     2      -8.322   5.179  68.738  1.00  0.00    -0.084 Hg 
HETATM    2  C   UNL     3      -5.323  17.615  70.528  1.00  0.00    -0.271 C  
HETATM    3  C   UNL     3      -5.974  16.787  69.412  1.00  0.00    -0.202 C  
HETATM    4  C   UNL     4     -11.557   6.672  70.539  1.00  0.00    -0.448 C  
HETATM    5  C   UNL     4     -10.410   7.466  69.900  1.00  0.00    -0.218 C  
ENDROOT
BRANCH   3   6
HETATM    6  N   UNL     3      -6.731  17.592  68.415  1.00  0.00    -0.196 NA 
BRANCH   6   7
HETATM    7  C   UNL     3      -6.575  17.125  67.010  1.00  0.00    -0.192 C  
HETATM    8  C   UNL     3      -6.675  18.237  65.949  1.00  0.00    -0.315 C  
ENDBRANCH   6   7
BRANCH   6   9
HETATM    9  C   UNL     3      -8.173  17.692  68.755  1.00  0.00    -0.224 C  
BRANCH   9  10
HETATM   10  C   UNL     3      -8.921  16.362  68.720  1.00  0.00    -0.245 C  
BRANCH  10  11
HETATM   11  O   UNL     3     -10.260  16.541  68.461  1.00  0.00    -0.239 OA 
BRANCH  11  12
HETATM   12  C   UNL     3     -11.150  15.526  68.348  1.00  0.00    -0.315 C  
HETATM   13  O   UNL     3     -11.751  15.112  69.331  1.00  0.00    -0.295 OA 
BRANCH  12  14
HETATM   14  C   UNL     3     -11.448  15.007  67.000  1.00  0.00    -0.288 A  
HETATM   15  C   UNL     3     -12.042  14.118  64.400  1.00  0.00    -0.463 A  
HETATM   16  C   UNL     3     -12.573  13.449  65.512  1.00  0.00    -0.520 A  
HETATM   17  C   UNL     3     -12.279  13.889  66.807  1.00  0.00    -0.438 A  
HETATM   18  N   UNL     3     -12.336  13.676  63.082  1.00  0.00    -1.076 NA 
HETATM   19  C   UNL     3     -11.221  15.235  64.592  1.00  0.00    -0.366 A  
HETATM   20  C   UNL     3     -10.924  15.674  65.879  1.00  0.00    -0.231 A  
HETATM   21  H1  UNL     3     -11.950  14.163  62.273  1.00  0.00     0.000 HD 
HETATM   22  H2  UNL     3     -13.350  13.636  62.977  1.00  0.00     0.000 HD 
ENDBRANCH  12  14
ENDBRANCH  11  12
ENDBRANCH  10  11
ENDBRANCH   9  10
ENDBRANCH   6   9
ENDBRANCH   3   6
BRANCH   5  23
HETATM   23  C   UNL     4     -10.721   7.814  68.400  1.00  0.00    -0.036 C  
BRANCH  23  24
HETATM   24  N   UNL     4      -9.757   8.669  67.674  1.00  0.00    -0.152 NA 
HETATM   25  H   UNL     4      -8.760   8.506  67.816  1.00  0.00     0.000 HD 
BRANCH  24  26
HETATM   26  C   UNL     4     -10.124   9.631  66.853  1.00  0.00    -0.227 C  
HETATM   27  H   UNL     4     -11.192  11.328  66.706  1.00  0.00     0.000 HD 
HETATM   28  O   UNL     4     -10.927  10.635  67.299  1.00  0.00    -0.296 OA 
BRANCH  26  29
HETATM   29  C   UNL     4      -9.684   9.750  65.393  1.00  0.00    -0.383 A  
HETATM   30  C   UNL     4      -8.649   9.017  64.722  1.00  0.00    -0.175 A  
HETATM   31  C   UNL     4     -10.385  10.722  64.613  1.00  0.00    -0.394 A  
HETATM   32  C   UNL     4     -10.074  10.964  63.271  1.00  0.00    -0.368 A  
HETATM   33  C   UNL     4      -9.049  10.266  62.659  1.00  0.00    -0.299 A  
HETATM   34  C   UNL     4      -8.345   9.297  63.370  1.00  0.00    -0.193 A  
BRANCH  30  35
HETATM   35  O   UNL     4      -7.936   8.016  65.297  1.00  0.00    -0.109 OA 
BRANCH  35  36
HETATM   36  C   UNL     4      -7.686   6.791  64.711  1.00  0.00    -0.111 C  
HETATM   37  C   UNL     4      -7.794   5.683  65.711  1.00  0.00    -0.101 C  
HETATM   38  O   UNL     4      -8.947   5.495  66.379  1.00  0.00    -0.124 OA 
HETATM   39  O   UNL     4      -6.861   4.915  65.886  1.00  0.00    -0.058 OA 
ENDBRANCH  35  36
ENDBRANCH  30  35
ENDBRANCH  26  29
ENDBRANCH  24  26
ENDBRANCH  23  24
ENDBRANCH   5  23
BRANCH   5  40
HETATM   40  O   UNL     4     -10.198   8.682  70.638  1.00  0.00    -0.187 OA 
BRANCH  40  41
HETATM   41  C   UNL     4     -10.759   8.618  71.955  1.00  0.00    -0.344 C  
BRANCH  41  42
HETATM   42  C   UNL     4      -9.810   7.970  72.985  1.00  0.00    -0.282 C  
BRANCH  42  43
HETATM   43  O   UNL     4      -8.536   8.588  72.972  1.00  0.00    -0.360 OA 
HETATM   44  C   UNL     4      -7.791   8.156  74.099  1.00  0.00    -0.231 C  
ENDBRANCH  42  43
ENDBRANCH  41  42
ENDBRANCH  40  41
ENDBRANCH   5  40
TORSDOF 17
ENDMDL
MODEL       41
REMARK 921   NORMALIZED FREE ENERGY PREDICTED BY IDOCK:   -5.22 KCAL/MOL
REMARK 922        TOTAL FREE ENERGY PREDICTED BY IDOCK:  -13.28 KCAL/MOL
REMARK 923 INTER-LIGAND FREE ENERGY PREDICTED BY IDOCK:  -11.41 KCAL/MOL
REMARK 924 INTRA-LIGAND FREE ENERGY PREDICTED BY IDOCK:   -1.86 KCAL/MOL
REMARK 927      BINDING AFFINITY PREDICTED BY RF-SCORE:    0.00 PKD
ROOT
HETATM    1 HG   UNL     2      -8.864   6.476  63.764  1.00  0.00    -0.329 Hg 
HETATM    2  C   UNL     3      -6.601  18.928  66.355  1.00  0.00    -0.220 C  
HETATM    3  C   UNL     3      -7.722  17.923  66.658  1.00  0.00    -0.243 C  
HETATM    4  C   UNL     4      -6.818   6.362  67.190  1.00  0.00    -0.066 C  
HETATM    5  C   UNL     4      -7.476   7.593  66.550  1.00  0.00    -0.092 C  
ENDROOT
BRANCH   3   6
HETATM    6  N   UNL     3      -8.633  18.339  67.758  1.00  0.00    -0.253 NA 
BRANCH   6   7
HETATM    7  C   UNL     3      -9.274  19.668  67.549  1.00  0.00    -0.324 C  
HETATM    8  C   UNL     3     -10.562  19.635  66.706  1.00  0.00    -0.602 C  
ENDBRANCH   6   7
BRANCH   6   9
HETATM    9  C   UNL     3      -9.675  17.318  68.038  1.00  0.00    -0.277 C  
BRANCH   9  10
HETATM   10  C   UNL     3      -9.298  16.318  69.127  1.00  0.00    -0.236 C  
BRANCH  10  11
HETATM   11  O   UNL     3      -9.227  15.036  68.634  1.00  0.00    -0.184 OA 
BRANCH  11  12
HETATM   12  C   UNL     3     -10.311  14.260  68.390  1.00  0.00    -0.247 C  
HETATM   13  O   UNL     3     -10.939  13.758  69.313  1.00  0.00    -0.236 OA 
BRANCH  12  14
HETATM   14  C   UNL     3     -10.769  14.122  66.995  1.00  0.00    -0.285 A  
HETATM   15  C   UNL     3     -11.708  13.778  64.368  1.00  0.00    -0.408 A  
HETATM   16  C   UNL     3     -10.331  13.863  64.619  1.00  0.00    -0.366 A  
HETATM   17  C   UNL     3      -9.861  14.034  65.925  1.00  0.00    -0.302 A  
HETATM   18  N   UNL     3     -12.193  13.605  63.043  1.00  0.00    -0.963 NA 
HETATM   19  C   UNL     3     -12.612  13.857  65.434  1.00  0.00    -0.538 A  
HETATM   20  C   UNL     3     -12.147  14.031  66.734  1.00  0.00    -0.480 A  
HETATM   21  H1  UNL     3     -13.194  13.542  62.861  1.00  0.00     0.000 HD 
HETATM   22  H2  UNL     3     -11.744  12.780  62.644  1.00  0.00     0.000 HD 
ENDBRANCH  12  14
ENDBRANCH  11  12
ENDBRANCH  10  11
ENDBRANCH   9  10
ENDBRANCH   6   9
ENDBRANCH   3   6
BRANCH   5  23
HETATM   23  C   UNL     4      -8.937   7.804  67.087  1.00  0.00    -0.126 C  
BRANCH  23  24
HETATM   24  N   UNL     4      -9.223   7.416  68.485  1.00  0.00    -0.143 NA 
HETATM   25  H   UNL     4      -8.536   7.644  69.203  1.00  0.00     0.000 HD 
BRANCH  24  26
HETATM   26  C   UNL     4     -10.323   6.789  68.847  1.00  0.00    -0.192 C  
HETATM   27  H   UNL     4     -12.071   6.050  68.183  1.00  0.00     0.000 HD 
HETATM   28  O   UNL     4     -11.277   6.503  67.921  1.00  0.00    -0.292 OA 
BRANCH  26  29
HETATM   29  C   UNL     4     -10.624   6.298  70.264  1.00  0.00    -0.305 A  
HETATM   30  C   UNL     4     -11.407   6.950  71.274  1.00  0.00    -0.279 A  
HETATM   31  C   UNL     4     -10.039   5.043  70.621  1.00  0.00    -0.313 A  
HETATM   32  C   UNL     4     -10.203   4.482  71.892  1.00  0.00    -0.241 A  
HETATM   33  C   UNL     4     -10.934   5.149  72.857  1.00  0.00    -0.345 A  
HETATM   34  C   UNL     4     -11.539   6.366  72.555  1.00  0.00    -0.259 A  
BRANCH  30  35
HETATM   35  O   UNL     4     -12.083   8.110  71.077  1.00  0.00    -0.286 OA 
BRANCH  35  36
HETATM   36  C   UNL     4     -11.846   9.285  71.763  1.00  0.00    -0.384 C  
HETATM   37  C   UNL     4     -13.129   9.944  72.162  1.00  0.00    -0.403 C  
HETATM   38  O   UNL     4     -14.007   9.284  72.940  1.00  0.00    -0.398 OA 
HETATM   39  O   UNL     4     -13.361  11.096  71.831  1.00  0.00    -0.417 OA 
ENDBRANCH  35  36
ENDBRANCH  30  35
ENDBRANCH  26  29
ENDBRANCH  24  26
ENDBRANCH  23  24
ENDBRANCH   5  23
BRANCH   5  40
HETATM   40  O   UNL     4      -6.689   8.762  66.837  1.00  0.00    -0.067 OA 
BRANCH  40  41
HETATM   41  C   UNL     4      -7.319   9.963  66.374  1.00  0.00    -0.101 C  
BRANCH  41  42
HETATM   42  C   UNL     4      -6.929  11.206  67.201  1.00  0.00    -0.112 C  
BRANCH  42  43
HETATM   43  O   UNL     4      -5.714  11.002  67.898  1.00  0.00    -0.043 OA 
HETATM   44  C   UNL     4      -5.747  11.719  69.121  1.00  0.00    -0.058 C  
ENDBRANCH  42  43
ENDBRANCH  41  42
ENDBRANCH  40  41
ENDBRANCH   5  40
TORSDOF 17
ENDMDL
MODEL       42
REMARK 921   NORMALIZED FREE ENERGY PREDICTED BY IDOCK:   -5.19 KCAL/MOL
REMARK 922        TOTAL FREE ENERGY PREDICTED BY IDOCK:  -13.22 KCAL/MOL
REMARK 923 INTER-LIGAND FREE ENERGY PREDICTED BY IDOCK:  -11.31 KCAL/MOL
REMARK 924 INTRA-LIGAND FREE ENERGY PREDICTED BY IDOCK:   -1.91 KCAL/MOL
REMARK 927      BINDING AFFINITY PREDICTED BY RF-SCORE:    0.00 PKD
ROOT
HETATM    1 HG   UNL     2     -11.656  19.559  68.735  1.00  0.00    -0.024 Hg 
HETATM    2  C   UNL     3      -7.073   7.515  69.626  1.00  0.00    -0.064 C  
HETATM    3  C   UNL     3      -8.125   8.235  68.772  1.00  0.00    -0.115 C  
HETATM    4  C   UNL     4      -8.542  19.555  66.237  1.00  0.00    -0.382 C  
HETATM    5  C   UNL     4      -9.227  18.329  66.857  1.00  0.00    -0.282 C  
ENDROOT
BRANCH   3   6
HETATM    6  N   UNL     3      -8.518   7.499  67.540  1.00  0.00    -0.119 NA 
BRANCH   6   7
HETATM    7  C   UNL     3      -7.655   6.325  67.230  1.00  0.00    -0.093 C  
HETATM    8  C   UNL     3      -7.148   6.266  65.777  1.00  0.00    -0.069 C  
ENDBRANCH   6   7
BRANCH   6   9
HETATM    9  C   UNL     3      -9.943   7.081  67.568  1.00  0.00    -0.156 C  
BRANCH   9  10
HETATM   10  C   UNL     3     -10.176   5.676  68.115  1.00  0.00    -0.186 C  
BRANCH  10  11
HETATM   11  O   UNL     3     -11.165   5.662  69.071  1.00  0.00    -0.133 OA 
BRANCH  11  12
HETATM   12  C   UNL     3     -10.974   6.026  70.362  1.00  0.00    -0.328 C  
HETATM   13  O   UNL     3     -10.146   5.449  71.055  1.00  0.00    -0.194 OA 
BRANCH  12  14
HETATM   14  C   UNL     3     -11.711   7.196  70.873  1.00  0.00    -0.367 A  
HETATM   15  C   UNL     3     -13.038   9.440  71.923  1.00  0.00    -0.424 A  
HETATM   16  C   UNL     3     -13.741   8.248  71.698  1.00  0.00    -0.404 A  
HETATM   17  C   UNL     3     -13.083   7.129  71.176  1.00  0.00    -0.294 A  
HETATM   18  N   UNL     3     -13.701  10.581  72.452  1.00  0.00    -0.422 NA 
HETATM   19  C   UNL     3     -11.672   9.505  71.629  1.00  0.00    -0.460 A  
HETATM   20  C   UNL     3     -11.015   8.395  71.106  1.00  0.00    -0.292 A  
HETATM   21  H1  UNL     3     -13.191  11.448  72.616  1.00  0.00     0.000 HD 
HETATM   22  H2  UNL     3     -14.157  10.309  73.324  1.00  0.00     0.000 HD 
ENDBRANCH  12  14
ENDBRANCH  11  12
ENDBRANCH  10  11
ENDBRANCH   9  10
ENDBRANCH   6   9
ENDBRANCH   3   6
BRANCH   5  23
HETATM   23  C   UNL     4     -10.357  17.771  65.919  1.00  0.00    -0.254 C  
BRANCH  23  24
HETATM   24  N   UNL     4     -10.164  16.430  65.325  1.00  0.00    -0.589 NA 
HETATM   25  H   UNL     4      -9.267  15.963  65.462  1.00  0.00     0.000 HD 
BRANCH  24  26
HETATM   26  C   UNL     4     -11.093  15.811  64.628  1.00  0.00    -0.361 C  
HETATM   27  H   UNL     4     -12.544  16.067  63.260  1.00  0.00     0.000 HD 
HETATM   28  O   UNL     4     -11.873  16.514  63.763  1.00  0.00    -1.011 OA 
BRANCH  26  29
HETATM   29  C   UNL     4     -11.364  14.307  64.673  1.00  0.00    -0.375 A  
HETATM   30  C   UNL     4     -11.317  13.438  65.814  1.00  0.00    -0.305 A  
HETATM   31  C   UNL     4     -11.690  13.699  63.421  1.00  0.00     0.035 A  
HETATM   32  C   UNL     4     -11.934  12.327  63.302  1.00  0.00    -0.499 A  
HETATM   33  C   UNL     4     -11.849  11.507  64.412  1.00  0.00    -0.063 A  
HETATM   34  C   UNL     4     -11.551  12.052  65.658  1.00  0.00    -0.356 A  
BRANCH  30  35
HETATM   35  O   UNL     4     -11.089  13.864  67.082  1.00  0.00    -0.290 OA 
BRANCH  35  36
HETATM   36  C   UNL     4     -11.904  13.589  68.162  1.00  0.00    -0.365 C  
HETATM   37  C   UNL     4     -11.691  12.194  68.658  1.00  0.00    -0.330 C  
HETATM   38  O   UNL     4     -10.468  11.807  69.066  1.00  0.00    -0.188 OA 
HETATM   39  O   UNL     4     -12.630  11.418  68.744  1.00  0.00    -0.257 OA 
ENDBRANCH  35  36
ENDBRANCH  30  35
ENDBRANCH  26  29
ENDBRANCH  24  26
ENDBRANCH  23  24
ENDBRANCH   5  23
BRANCH   5  40
HETATM   40  O   UNL     4      -8.250  17.301  67.091  1.00  0.00    -0.193 OA 
BRANCH  40  41
HETATM   41  C   UNL     4      -8.110  16.998  68.485  1.00  0.00    -0.251 C  
BRANCH  41  42
HETATM   42  C   UNL     4      -9.267  16.139  69.036  1.00  0.00    -0.252 C  
BRANCH  42  43
HETATM   43  O   UNL     4     -10.299  16.946  69.572  1.00  0.00    -0.273 OA 
HETATM   44  C   UNL     4     -11.078  16.178  70.474  1.00  0.00    -0.322 C  
ENDBRANCH  42  43
ENDBRANCH  41  42
ENDBRANCH  40  41
ENDBRANCH   5  40
TORSDOF 17
ENDMDL
MODEL       43
REMARK 921   NORMALIZED FREE ENERGY PREDICTED BY IDOCK:   -5.14 KCAL/MOL
REMARK 922        TOTAL FREE ENERGY PREDICTED BY IDOCK:  -13.12 KCAL/MOL
REMARK 923 INTER-LIGAND FREE ENERGY PREDICTED BY IDOCK:  -10.04 KCAL/MOL
REMARK 924 INTRA-LIGAND FREE ENERGY PREDICTED BY IDOCK:   -3.08 KCAL/MOL
REMARK 927      BINDING AFFINITY PREDICTED BY RF-SCORE:    0.00 PKD
ROOT
HETATM    1 HG   UNL     2      -7.513   3.848  69.166  1.00  0.00    -0.049 Hg 
HETATM    2  C   UNL     3      -5.854  16.647  69.734  1.00  0.00    -0.206 C  
HETATM    3  C   UNL     3      -6.688  15.678  68.883  1.00  0.00    -0.123 C  
HETATM    4  C   UNL     4     -10.236   5.028  71.837  1.00  0.00    -0.267 C  
HETATM    5  C   UNL     4      -9.452   5.921  70.865  1.00  0.00    -0.165 C  
ENDROOT
BRANCH   3   6
HETATM    6  N   UNL     3      -7.810  16.323  68.149  1.00  0.00    -0.152 NA 
BRANCH   6   7
HETATM    7  C   UNL     3      -8.200  15.621  66.894  1.00  0.00    -0.253 C  
HETATM    8  C   UNL     3      -9.394  16.249  66.152  1.00  0.00    -0.374 C  
ENDBRANCH   6   7
BRANCH   6   9
HETATM    9  C   UNL     3      -9.006  16.514  69.010  1.00  0.00    -0.225 C  
BRANCH   9  10
HETATM   10  C   UNL     3      -9.685  15.218  69.440  1.00  0.00    -0.247 C  
BRANCH  10  11
HETATM   11  O   UNL     3     -11.030  15.230  69.148  1.00  0.00    -0.228 OA 
BRANCH  11  12
HETATM   12  C   UNL     3     -11.712  14.154  68.686  1.00  0.00    -0.350 C  
HETATM   13  O   UNL     3     -11.949  14.033  67.491  1.00  0.00    -0.386 OA 
BRANCH  12  14
HETATM   14  C   UNL     3     -12.068  13.091  69.643  1.00  0.00    -0.304 A  
HETATM   15  C   UNL     3     -12.803  11.012  71.388  1.00  0.00    -0.443 A  
HETATM   16  C   UNL     3     -12.981  12.349  71.770  1.00  0.00    -0.422 A  
HETATM   17  C   UNL     3     -12.617  13.386  70.904  1.00  0.00    -0.406 A  
HETATM   18  N   UNL     3     -13.169   9.954  72.264  1.00  0.00    -0.546 NA 
HETATM   19  C   UNL     3     -12.263  10.718  70.130  1.00  0.00    -0.425 A  
HETATM   20  C   UNL     3     -11.897  11.747  69.267  1.00  0.00    -0.389 A  
HETATM   21  H1  UNL     3     -13.040   8.982  71.986  1.00  0.00     0.000 HD 
HETATM   22  H2  UNL     3     -14.146  10.083  72.528  1.00  0.00     0.000 HD 
ENDBRANCH  12  14
ENDBRANCH  11  12
ENDBRANCH  10  11
ENDBRANCH   9  10
ENDBRANCH   6   9
ENDBRANCH   3   6
BRANCH   5  23
HETATM   23  C   UNL     4     -10.241   6.138  69.525  1.00  0.00    -0.198 C  
BRANCH  23  24
HETATM   24  N   UNL     4     -10.249   7.496  68.939  1.00  0.00    -0.203 NA 
HETATM   25  H   UNL     4     -10.928   8.172  69.289  1.00  0.00     0.000 HD 
BRANCH  24  26
HETATM   26  C   UNL     4      -9.422   7.875  67.987  1.00  0.00    -0.149 C  
HETATM   27  H   UNL     4      -7.899   7.275  66.820  1.00  0.00     0.000 HD 
HETATM   28  O   UNL     4      -8.496   7.002  67.506  1.00  0.00    -0.121 OA 
BRANCH  26  29
HETATM   29  C   UNL     4      -9.428   9.250  67.319  1.00  0.00    -0.181 A  
HETATM   30  C   UNL     4      -9.056  10.511  67.895  1.00  0.00    -0.136 A  
HETATM   31  C   UNL     4      -9.872   9.275  65.960  1.00  0.00    -0.363 A  
HETATM   32  C   UNL     4      -9.959  10.464  65.229  1.00  0.00    -0.376 A  
HETATM   33  C   UNL     4      -9.627  11.669  65.819  1.00  0.00    -0.255 A  
HETATM   34  C   UNL     4      -9.172  11.698  67.135  1.00  0.00    -0.176 A  
BRANCH  30  35
HETATM   35  O   UNL     4      -8.552  10.652  69.146  1.00  0.00    -0.160 OA 
BRANCH  35  36
HETATM   36  C   UNL     4      -7.237  10.960  69.435  1.00  0.00    -0.126 C  
HETATM   37  C   UNL     4      -6.611   9.906  70.292  1.00  0.00    -0.116 C  
HETATM   38  O   UNL     4      -6.560   8.633  69.857  1.00  0.00    -0.040 OA 
HETATM   39  O   UNL     4      -6.100  10.200  71.361  1.00  0.00    -0.301 OA 
ENDBRANCH  35  36
ENDBRANCH  30  35
ENDBRANCH  26  29
ENDBRANCH  24  26
ENDBRANCH  23  24
ENDBRANCH   5  23
BRANCH   5  40
HETATM   40  O   UNL     4      -9.199   7.195  71.482  1.00  0.00    -0.146 OA 
BRANCH  40  41
HETATM   41  C   UNL     4      -9.988   7.388  72.663  1.00  0.00    -0.194 C  
BRANCH  41  42
HETATM   42  C   UNL     4      -9.135   7.670  73.918  1.00  0.00    -0.261 C  
BRANCH  42  43
HETATM   43  O   UNL     4      -8.148   8.651  73.663  1.00  0.00    -0.406 OA 
HETATM   44  C   UNL     4      -6.983   8.354  74.414  1.00  0.00    -0.168 C  
ENDBRANCH  42  43
ENDBRANCH  41  42
ENDBRANCH  40  41
ENDBRANCH   5  40
TORSDOF 17
ENDMDL
MODEL       44
REMARK 921   NORMALIZED FREE ENERGY PREDICTED BY IDOCK:   -5.06 KCAL/MOL
REMARK 922        TOTAL FREE ENERGY PREDICTED BY IDOCK:  -12.94 KCAL/MOL
REMARK 923 INTER-LIGAND FREE ENERGY PREDICTED BY IDOCK:  -10.26 KCAL/MOL
REMARK 924 INTRA-LIGAND FREE ENERGY PREDICTED BY IDOCK:   -2.68 KCAL/MOL
REMARK 927      BINDING AFFINITY PREDICTED BY RF-SCORE:    0.00 PKD
ROOT
HETATM    1 HG   UNL     2      -7.870  17.385  66.052  1.00  0.00    -0.198 Hg 
HETATM    2  C   UNL     3      -7.811   4.467  66.091  1.00  0.00    -0.095 C  
HETATM    3  C   UNL     3      -8.184   5.572  67.089  1.00  0.00    -0.101 C  
HETATM    4  C   UNL     4     -11.472  16.428  64.622  1.00  0.00    -0.092 C  
HETATM    5  C   UNL     4     -10.485  15.492  65.333  1.00  0.00    -0.405 C  
ENDROOT
BRANCH   3   6
HETATM    6  N   UNL     3      -9.027   5.110  68.224  1.00  0.00    -0.108 NA 
BRANCH   6   7
HETATM    7  C   UNL     3     -10.492   5.246  67.991  1.00  0.00    -0.074 C  
HETATM    8  C   UNL     3     -10.919   6.579  67.350  1.00  0.00    -0.458 C  
ENDBRANCH   6   7
BRANCH   6   9
HETATM    9  C   UNL     3      -8.710   3.715  68.626  1.00  0.00    -0.102 C  
BRANCH   9  10
HETATM   10  C   UNL     3      -7.862   3.602  69.890  1.00  0.00    -0.050 C  
BRANCH  10  11
HETATM   11  O   UNL     3      -7.928   4.748  70.647  1.00  0.00    -0.071 OA 
BRANCH  11  12
HETATM   12  C   UNL     3      -8.409   4.791  71.913  1.00  0.00    -0.114 C  
HETATM   13  O   UNL     3      -7.886   4.128  72.801  1.00  0.00    -0.078 OA 
BRANCH  12  14
HETATM   14  C   UNL     3      -9.506   5.729  72.211  1.00  0.00    -0.158 A  
HETATM   15  C   UNL     3     -11.616   7.529  72.673  1.00  0.00    -0.282 A  
HETATM   16  C   UNL     3     -10.382   7.710  73.314  1.00  0.00    -0.405 A  
HETATM   17  C   UNL     3      -9.330   6.816  73.087  1.00  0.00    -0.153 A  
HETATM   18  N   UNL     3     -12.689   8.433  72.901  1.00  0.00    -0.667 NA 
HETATM   19  C   UNL     3     -11.788   6.452  71.796  1.00  0.00    -0.374 A  
HETATM   20  C   UNL     3     -10.745   5.559  71.570  1.00  0.00    -0.290 A  
HETATM   21  H1  UNL     3     -13.586   8.302  72.434  1.00  0.00     0.000 HD 
HETATM   22  H2  UNL     3     -12.359   9.377  72.698  1.00  0.00     0.000 HD 
ENDBRANCH  12  14
ENDBRANCH  11  12
ENDBRANCH  10  11
ENDBRANCH   9  10
ENDBRANCH   6   9
ENDBRANCH   3   6
BRANCH   5  23
HETATM   23  C   UNL     4     -10.759  15.440  66.879  1.00  0.00    -0.314 C  
BRANCH  23  24
HETATM   24  N   UNL     4     -11.731  14.442  67.376  1.00  0.00    -0.381 NA 
HETATM   25  H   UNL     4     -12.436  14.087  66.730  1.00  0.00     0.000 HD 
BRANCH  24  26
HETATM   26  C   UNL     4     -11.731  13.991  68.613  1.00  0.00    -0.354 C  
HETATM   27  H   UNL     4     -12.115  14.480  70.525  1.00  0.00     0.000 HD 
HETATM   28  O   UNL     4     -12.115  14.806  69.632  1.00  0.00    -0.304 OA 
BRANCH  26  29
HETATM   29  C   UNL     4     -11.358  12.566  69.025  1.00  0.00    -0.342 A  
HETATM   30  C   UNL     4     -10.449  11.670  68.370  1.00  0.00    -0.213 A  
HETATM   31  C   UNL     4     -12.010  12.071  70.197  1.00  0.00    -0.401 A  
HETATM   32  C   UNL     4     -11.791  10.776  70.677  1.00  0.00    -0.460 A  
HETATM   33  C   UNL     4     -10.935   9.921  70.007  1.00  0.00    -0.338 A  
HETATM   34  C   UNL     4     -10.263  10.360  68.869  1.00  0.00    -0.220 A  
BRANCH  30  35
HETATM   35  O   UNL     4      -9.702  12.005  67.288  1.00  0.00    -0.183 OA 
BRANCH  35  36
HETATM   36  C   UNL     4      -8.480  12.644  67.343  1.00  0.00    -0.186 C  
HETATM   37  C   UNL     4      -7.382  11.682  67.672  1.00  0.00    -0.108 C  
HETATM   38  O   UNL     4      -7.160  10.622  66.872  1.00  0.00    -0.097 OA 
HETATM   39  O   UNL     4      -6.652  11.880  68.630  1.00  0.00    -0.057 OA 
ENDBRANCH  35  36
ENDBRANCH  30  35
ENDBRANCH  26  29
ENDBRANCH  24  26
ENDBRANCH  23  24
ENDBRANCH   5  23
BRANCH   5  40
HETATM   40  O   UNL     4     -10.598  14.168  64.784  1.00  0.00    -0.407 OA 
BRANCH  40  41
HETATM   41  C   UNL     4     -11.872  13.948  64.166  1.00  0.00    -0.385 C  
BRANCH  41  42
HETATM   42  C   UNL     4     -11.971  12.580  63.458  1.00  0.00    -0.543 C  
BRANCH  42  43
HETATM   43  O   UNL     4     -10.693  12.091  63.098  1.00  0.00    -0.368 OA 
HETATM   44  C   UNL     4     -10.375  10.967  63.901  1.00  0.00    -0.329 C  
ENDBRANCH  42  43
ENDBRANCH  41  42
ENDBRANCH  40  41
ENDBRANCH   5  40
TORSDOF 17
ENDMDL
MODEL       45
REMARK 921   NORMALIZED FREE ENERGY PREDICTED BY IDOCK:   -5.04 KCAL/MOL
REMARK 922        TOTAL FREE ENERGY PREDICTED BY IDOCK:  -12.91 KCAL/MOL
REMARK 923 INTER-LIGAND FREE ENERGY PREDICTED BY IDOCK:   -9.81 KCAL/MOL
REMARK 924 INTRA-LIGAND FREE ENERGY PREDICTED BY IDOCK:   -3.10 KCAL/MOL
REMARK 927      BINDING AFFINITY PREDICTED BY RF-SCORE:    0.00 PKD
ROOT
HETATM    1 HG   UNL     2     -10.825  18.531  69.557  1.00  0.00    -0.459 Hg 
HETATM    2  C   UNL     3     -10.012   6.592  74.423  1.00  0.00    -0.374 C  
HETATM    3  C   UNL     3     -10.600   7.230  73.157  1.00  0.00    -0.355 C  
HETATM    4  C   UNL     4      -7.335  17.187  68.161  1.00  0.00    -0.202 C  
HETATM    5  C   UNL     4      -8.451  16.354  68.807  1.00  0.00    -0.249 C  
ENDROOT
BRANCH   3   6
HETATM    6  N   UNL     3     -10.879   6.264  72.060  1.00  0.00    -0.235 NA 
BRANCH   6   7
HETATM    7  C   UNL     3     -12.035   6.638  71.198  1.00  0.00    -0.357 C  
HETATM    8  C   UNL     3     -12.863   7.829  71.714  1.00  0.00    -0.352 C  
ENDBRANCH   6   7
BRANCH   6   9
HETATM    9  C   UNL     3      -9.683   6.014  71.216  1.00  0.00    -0.172 C  
BRANCH   9  10
HETATM   10  C   UNL     3      -9.392   4.539  70.958  1.00  0.00    -0.150 C  
BRANCH  10  11
HETATM   11  O   UNL     3      -8.664   4.361  69.804  1.00  0.00    -0.071 OA 
BRANCH  11  12
HETATM   12  C   UNL     3      -8.855   5.079  68.672  1.00  0.00    -0.097 C  
HETATM   13  O   UNL     3      -9.821   4.861  67.951  1.00  0.00    -0.151 OA 
BRANCH  12  14
HETATM   14  C   UNL     3      -7.931   6.193  68.388  1.00  0.00    -0.108 A  
HETATM   15  C   UNL     3      -6.140   8.315  67.952  1.00  0.00    -0.047 A  
HETATM   16  C   UNL     3      -7.461   8.401  67.488  1.00  0.00    -0.094 A  
HETATM   17  C   UNL     3      -8.355   7.347  67.704  1.00  0.00    -0.118 A  
HETATM   18  N   UNL     3      -5.227   9.383  67.735  1.00  0.00    -0.037 NA 
HETATM   19  C   UNL     3      -5.721   7.170  68.639  1.00  0.00    -0.022 A  
HETATM   20  C   UNL     3      -6.607   6.118  68.852  1.00  0.00    -0.051 A  
HETATM   21  H1  UNL     3      -4.266   9.320  68.072  1.00  0.00     0.000 HD 
HETATM   22  H2  UNL     3      -5.641  10.237  68.107  1.00  0.00     0.000 HD 
ENDBRANCH  12  14
ENDBRANCH  11  12
ENDBRANCH  10  11
ENDBRANCH   9  10
ENDBRANCH   6   9
ENDBRANCH   3   6
BRANCH   5  23
HETATM   23  C   UNL     4      -9.439  15.786  67.725  1.00  0.00    -0.212 C  
BRANCH  23  24
HETATM   24  N   UNL     4     -10.879  15.745  68.057  1.00  0.00    -0.299 NA 
HETATM   25  H   UNL     4     -11.542  16.141  67.391  1.00  0.00     0.000 HD 
BRANCH  24  26
HETATM   26  C   UNL     4     -11.347  15.222  69.171  1.00  0.00    -0.297 C  
HETATM   27  H   UNL     4     -12.015  15.652  71.017  1.00  0.00     0.000 HD 
HETATM   28  O   UNL     4     -11.678  16.030  70.214  1.00  0.00    -0.338 OA 
BRANCH  26  29
HETATM   29  C   UNL     4     -11.598  13.730  69.399  1.00  0.00    -0.365 A  
HETATM   30  C   UNL     4     -11.290  12.641  68.518  1.00  0.00    -0.296 A  
HETATM   31  C   UNL     4     -12.229  13.392  70.637  1.00  0.00    -0.427 A  
HETATM   32  C   UNL     4     -12.547  12.072  70.972  1.00  0.00    -0.370 A  
HETATM   33  C   UNL     4     -12.270  11.044  70.089  1.00  0.00    -0.424 A  
HETATM   34  C   UNL     4     -11.642  11.319  68.877  1.00  0.00    -0.386 A  
BRANCH  30  35
HETATM   35  O   UNL     4     -10.634  12.782  67.339  1.00  0.00    -0.226 OA 
BRANCH  35  36
HETATM   36  C   UNL     4     -11.079  12.291  66.127  1.00  0.00    -0.311 C  
HETATM   37  C   UNL     4     -12.041  13.238  65.482  1.00  0.00    -0.435 C  
HETATM   38  O   UNL     4     -11.656  14.496  65.201  1.00  0.00    -0.347 OA 
HETATM   39  O   UNL     4     -13.157  12.861  65.159  1.00  0.00    -0.753 OA 
ENDBRANCH  35  36
ENDBRANCH  30  35
ENDBRANCH  26  29
ENDBRANCH  24  26
ENDBRANCH  23  24
ENDBRANCH   5  23
BRANCH   5  40
HETATM   40  O   UNL     4      -7.872  15.263  69.543  1.00  0.00    -0.216 OA 
BRANCH  40  41
HETATM   41  C   UNL     4      -7.183  14.341  68.688  1.00  0.00    -0.125 C  
BRANCH  41  42
HETATM   42  C   UNL     4      -6.566  13.153  69.455  1.00  0.00    -0.065 C  
BRANCH  42  43
HETATM   43  O   UNL     4      -6.843  11.923  68.811  1.00  0.00    -0.080 OA 
HETATM   44  C   UNL     4      -7.267  12.173  67.481  1.00  0.00    -0.133 C  
ENDBRANCH  42  43
ENDBRANCH  41  42
ENDBRANCH  40  41
ENDBRANCH   5  40
TORSDOF 17
ENDMDL
MODEL       46
REMARK 921   NORMALIZED FREE ENERGY PREDICTED BY IDOCK:   -5.03 KCAL/MOL
REMARK 922        TOTAL FREE ENERGY PREDICTED BY IDOCK:  -12.90 KCAL/MOL
REMARK 923 INTER-LIGAND FREE ENERGY PREDICTED BY IDOCK:   -9.77 KCAL/MOL
REMARK 924 INTRA-LIGAND FREE ENERGY PREDICTED BY IDOCK:   -3.13 KCAL/MOL
REMARK 927      BINDING AFFINITY PREDICTED BY RF-SCORE:    0.00 PKD
ROOT
HETATM    1 HG   UNL     2     -11.659  18.816  67.792  1.00  0.00    -0.308 Hg 
HETATM    2  C   UNL     3      -7.013   7.369  71.568  1.00  0.00    -0.055 C  
HETATM    3  C   UNL     3      -7.812   7.894  70.367  1.00  0.00    -0.089 C  
HETATM    4  C   UNL     4      -7.972  18.751  66.261  1.00  0.00    -0.285 C  
HETATM    5  C   UNL     4      -8.752  17.560  66.836  1.00  0.00    -0.251 C  
ENDROOT
BRANCH   3   6
HETATM    6  N   UNL     3      -7.814   6.984  69.190  1.00  0.00    -0.112 NA 
BRANCH   6   7
HETATM    7  C   UNL     3      -7.307   5.614  69.479  1.00  0.00    -0.067 C  
HETATM    8  C   UNL     3      -6.227   5.110  68.504  1.00  0.00    -0.031 C  
ENDBRANCH   6   7
BRANCH   6   9
HETATM    9  C   UNL     3      -9.151   6.900  68.549  1.00  0.00    -0.127 C  
BRANCH   9  10
HETATM   10  C   UNL     3      -9.980   5.693  68.978  1.00  0.00    -0.174 C  
BRANCH  10  11
HETATM   11  O   UNL     3     -11.168   6.075  69.556  1.00  0.00    -0.398 OA 
BRANCH  11  12
HETATM   12  C   UNL     3     -11.294   6.440  70.855  1.00  0.00    -0.338 C  
HETATM   13  O   UNL     3     -10.831   5.740  71.746  1.00  0.00    -0.241 OA 
BRANCH  12  14
HETATM   14  C   UNL     3     -11.908   7.746  71.156  1.00  0.00    -0.311 A  
HETATM   15  C   UNL     3     -12.990  10.263  71.786  1.00  0.00    -0.469 A  
HETATM   16  C   UNL     3     -13.751   9.101  71.979  1.00  0.00    -0.508 A  
HETATM   17  C   UNL     3     -13.216   7.847  71.666  1.00  0.00    -0.367 A  
HETATM   18  N   UNL     3     -13.529  11.541  72.101  1.00  0.00    -0.523 NA 
HETATM   19  C   UNL     3     -11.687  10.162  71.285  1.00  0.00    -0.426 A  
HETATM   20  C   UNL     3     -11.153   8.917  70.970  1.00  0.00    -0.340 A  
HETATM   21  H1  UNL     3     -12.976  12.386  71.961  1.00  0.00     0.000 HD 
HETATM   22  H2  UNL     3     -13.846  11.523  73.071  1.00  0.00     0.000 HD 
ENDBRANCH  12  14
ENDBRANCH  11  12
ENDBRANCH  10  11
ENDBRANCH   9  10
ENDBRANCH   6   9
ENDBRANCH   3   6
BRANCH   5  23
HETATM   23  C   UNL     4      -9.550  16.804  65.714  1.00  0.00    -0.079 C  
BRANCH  23  24
HETATM   24  N   UNL     4      -9.289  15.359  65.533  1.00  0.00    -0.334 NA 
HETATM   25  H   UNL     4      -8.322  15.049  65.441  1.00  0.00     0.000 HD 
BRANCH  24  26
HETATM   26  C   UNL     4     -10.245  14.455  65.485  1.00  0.00    -0.363 C  
HETATM   27  H   UNL     4     -11.978  13.964  64.593  1.00  0.00     0.000 HD 
HETATM   28  O   UNL     4     -11.289  14.617  64.627  1.00  0.00    -0.387 OA 
BRANCH  26  29
HETATM   29  C   UNL     4     -10.275  13.169  66.311  1.00  0.00    -0.294 A  
HETATM   30  C   UNL     4      -9.160  12.395  66.777  1.00  0.00    -0.212 A  
HETATM   31  C   UNL     4     -11.576  12.677  66.643  1.00  0.00    -0.443 A  
HETATM   32  C   UNL     4     -11.761  11.496  67.369  1.00  0.00    -0.231 A  
HETATM   33  C   UNL     4     -10.669  10.752  67.776  1.00  0.00    -0.296 A  
HETATM   34  C   UNL     4      -9.380  11.196  67.492  1.00  0.00    -0.174 A  
BRANCH  30  35
HETATM   35  O   UNL     4      -7.863  12.756  66.606  1.00  0.00     0.117 OA 
BRANCH  35  36
HETATM   36  C   UNL     4      -6.854  12.521  67.518  1.00  0.00    -0.150 C  
HETATM   37  C   UNL     4      -5.893  11.494  67.008  1.00  0.00    -0.120 C  
HETATM   38  O   UNL     4      -5.242  11.705  65.849  1.00  0.00    -0.298 OA 
HETATM   39  O   UNL     4      -5.656  10.491  67.661  1.00  0.00    -0.044 OA 
ENDBRANCH  35  36
ENDBRANCH  30  35
ENDBRANCH  26  29
ENDBRANCH  24  26
ENDBRANCH  23  24
ENDBRANCH   5  23
BRANCH   5  40
HETATM   40  O   UNL     4      -7.839  16.648  67.468  1.00  0.00    -0.163 OA 
BRANCH  40  41
HETATM   41  C   UNL     4      -8.133  16.468  68.859  1.00  0.00    -0.240 C  
BRANCH  41  42
HETATM   42  C   UNL     4      -8.942  15.184  69.144  1.00  0.00    -0.219 C  
BRANCH  42  43
HETATM   43  O   UNL     4     -10.329  15.397  68.962  1.00  0.00    -0.222 OA 
HETATM   44  C   UNL     4     -11.053  14.609  69.892  1.00  0.00    -0.201 C  
ENDBRANCH  42  43
ENDBRANCH  41  42
ENDBRANCH  40  41
ENDBRANCH   5  40
TORSDOF 17
ENDMDL
MODEL       47
REMARK 921   NORMALIZED FREE ENERGY PREDICTED BY IDOCK:   -5.03 KCAL/MOL
REMARK 922        TOTAL FREE ENERGY PREDICTED BY IDOCK:  -12.90 KCAL/MOL
REMARK 923 INTER-LIGAND FREE ENERGY PREDICTED BY IDOCK:   -9.94 KCAL/MOL
REMARK 924 INTRA-LIGAND FREE ENERGY PREDICTED BY IDOCK:   -2.96 KCAL/MOL
REMARK 927      BINDING AFFINITY PREDICTED BY RF-SCORE:    0.00 PKD
ROOT
HETATM    1 HG   UNL     2      -7.107   2.864  67.899  1.00  0.00    -0.043 Hg 
HETATM    2  C   UNL     3      -7.675  15.656  69.604  1.00  0.00    -0.107 C  
HETATM    3  C   UNL     3      -8.554  14.592  68.934  1.00  0.00    -0.131 C  
HETATM    4  C   UNL     4      -8.962   3.259  71.412  1.00  0.00    -0.154 C  
HETATM    5  C   UNL     4      -8.715   4.360  70.372  1.00  0.00    -0.085 C  
ENDROOT
BRANCH   3   6
HETATM    6  N   UNL     3      -9.952  15.031  68.675  1.00  0.00    -0.214 NA 
BRANCH   6   7
HETATM    7  C   UNL     3     -10.989  14.178  69.319  1.00  0.00    -0.220 C  
HETATM    8  C   UNL     3     -11.924  13.450  68.337  1.00  0.00    -0.359 C  
ENDBRANCH   6   7
BRANCH   6   9
HETATM    9  C   UNL     3     -10.171  16.453  69.046  1.00  0.00    -0.269 C  
BRANCH   9  10
HETATM   10  C   UNL     3     -10.385  17.387  67.858  1.00  0.00    -0.369 C  
BRANCH  10  11
HETATM   11  O   UNL     3     -10.880  16.712  66.766  1.00  0.00    -0.193 OA 
BRANCH  11  12
HETATM   12  C   UNL     3     -10.102  16.142  65.815  1.00  0.00    -0.363 C  
HETATM   13  O   UNL     3      -8.979  16.573  65.587  1.00  0.00    -0.449 OA 
BRANCH  12  14
HETATM   14  C   UNL     3     -10.603  14.931  65.139  1.00  0.00    -0.450 A  
HETATM   15  C   UNL     3     -11.461  12.614  63.799  1.00  0.00    -0.470 A  
HETATM   16  C   UNL     3     -12.265  13.762  63.805  1.00  0.00    -0.364 A  
HETATM   17  C   UNL     3     -11.841  14.917  64.471  1.00  0.00    -0.404 A  
HETATM   18  N   UNL     3     -11.887  11.436  63.125  1.00  0.00    -0.867 NA 
HETATM   19  C   UNL     3     -10.226  12.630  64.457  1.00  0.00    -0.331 A  
HETATM   20  C   UNL     3      -9.802  13.776  65.123  1.00  0.00    -0.125 A  
HETATM   21  H1  UNL     3     -11.302  10.601  63.121  1.00  0.00     0.000 HD 
HETATM   22  H2  UNL     3     -12.101  11.682  62.159  1.00  0.00     0.000 HD 
ENDBRANCH  12  14
ENDBRANCH  11  12
ENDBRANCH  10  11
ENDBRANCH   9  10
ENDBRANCH   6   9
ENDBRANCH   3   6
BRANCH   5  23
HETATM   23  C   UNL     4      -9.928   4.494  69.382  1.00  0.00    -0.142 C  
BRANCH  23  24
HETATM   24  N   UNL     4      -9.963   5.671  68.486  1.00  0.00    -0.147 NA 
HETATM   25  H   UNL     4     -10.505   6.485  68.775  1.00  0.00     0.000 HD 
BRANCH  24  26
HETATM   26  C   UNL     4      -9.330   5.716  67.333  1.00  0.00    -0.113 C  
HETATM   27  H   UNL     4      -8.376   4.607  65.954  1.00  0.00     0.000 HD 
HETATM   28  O   UNL     4      -8.833   4.574  66.786  1.00  0.00    -0.111 OA 
BRANCH  26  29
HETATM   29  C   UNL     4      -9.122   6.981  66.498  1.00  0.00    -0.183 A  
HETATM   30  C   UNL     4      -9.691   8.280  66.713  1.00  0.00    -0.239 A  
HETATM   31  C   UNL     4      -8.268   6.837  65.361  1.00  0.00    -0.134 A  
HETATM   32  C   UNL     4      -8.008   7.899  64.488  1.00  0.00    -0.140 A  
HETATM   33  C   UNL     4      -8.596   9.133  64.699  1.00  0.00    -0.206 A  
HETATM   34  C   UNL     4      -9.424   9.329  65.802  1.00  0.00    -0.329 A  
BRANCH  30  35
HETATM   35  O   UNL     4     -10.467   8.601  67.778  1.00  0.00    -0.235 OA 
BRANCH  35  36
HETATM   36  C   UNL     4     -10.878   9.881  68.096  1.00  0.00    -0.234 C  
HETATM   37  C   UNL     4     -10.554  10.214  69.518  1.00  0.00    -0.245 C  
HETATM   38  O   UNL     4      -9.277  10.167  69.942  1.00  0.00    -0.192 OA 
HETATM   39  O   UNL     4     -11.432  10.580  70.283  1.00  0.00    -0.287 OA 
ENDBRANCH  35  36
ENDBRANCH  30  35
ENDBRANCH  26  29
ENDBRANCH  24  26
ENDBRANCH  23  24
ENDBRANCH   5  23
BRANCH   5  40
HETATM   40  O   UNL     4      -8.506   5.615  71.042  1.00  0.00    -0.119 OA 
BRANCH  40  41
HETATM   41  C   UNL     4      -9.458   5.832  72.090  1.00  0.00    -0.149 C  
BRANCH  41  42
HETATM   42  C   UNL     4      -9.694   7.327  72.392  1.00  0.00    -0.154 C  
BRANCH  42  43
HETATM   43  O   UNL     4     -11.029   7.568  72.796  1.00  0.00    -0.298 OA 
HETATM   44  C   UNL     4     -11.909   6.793  72.000  1.00  0.00    -0.314 C  
ENDBRANCH  42  43
ENDBRANCH  41  42
ENDBRANCH  40  41
ENDBRANCH   5  40
TORSDOF 17
ENDMDL
MODEL       48
REMARK 921   NORMALIZED FREE ENERGY PREDICTED BY IDOCK:   -5.03 KCAL/MOL
REMARK 922        TOTAL FREE ENERGY PREDICTED BY IDOCK:  -12.88 KCAL/MOL
REMARK 923 INTER-LIGAND FREE ENERGY PREDICTED BY IDOCK:   -8.93 KCAL/MOL
REMARK 924 INTRA-LIGAND FREE ENERGY PREDICTED BY IDOCK:   -3.96 KCAL/MOL
REMARK 927      BINDING AFFINITY PREDICTED BY RF-SCORE:    0.00 PKD
ROOT
HETATM    1 HG   UNL     2      -9.016  15.524  65.466  1.00  0.00    -0.284 Hg 
HETATM    2  C   UNL     3      -6.350   2.935  66.597  1.00  0.00    -0.028 C  
HETATM    3  C   UNL     3      -6.999   4.010  67.480  1.00  0.00    -0.055 C  
HETATM    4  C   UNL     4     -12.255  13.742  63.957  1.00  0.00    -0.429 C  
HETATM    5  C   UNL     4     -11.145  13.085  64.790  1.00  0.00    -0.322 C  
ENDROOT
BRANCH   3   6
HETATM    6  N   UNL     3      -7.801   3.467  68.610  1.00  0.00    -0.055 NA 
BRANCH   6   7
HETATM    7  C   UNL     3      -8.164   2.030  68.465  1.00  0.00    -0.056 C  
HETATM    8  C   UNL     3      -9.626   1.699  68.814  1.00  0.00    -0.162 C  
ENDBRANCH   6   7
BRANCH   6   9
HETATM    9  C   UNL     3      -7.140   3.689  69.922  1.00  0.00    -0.042 C  
BRANCH   9  10
HETATM   10  C   UNL     3      -6.684   5.125  70.162  1.00  0.00    -0.043 C  
BRANCH  10  11
HETATM   11  O   UNL     3      -7.753   5.984  70.267  1.00  0.00    -0.092 OA 
BRANCH  11  12
HETATM   12  C   UNL     3      -8.509   6.116  71.384  1.00  0.00    -0.128 C  
HETATM   13  O   UNL     3      -8.155   5.607  72.440  1.00  0.00    -0.106 OA 
BRANCH  12  14
HETATM   14  C   UNL     3      -9.709   6.970  71.317  1.00  0.00    -0.171 A  
HETATM   15  C   UNL     3     -12.015   8.562  71.089  1.00  0.00    -0.272 A  
HETATM   16  C   UNL     3     -10.808   9.128  71.524  1.00  0.00    -0.436 A  
HETATM   17  C   UNL     3      -9.659   8.339  71.638  1.00  0.00    -0.261 A  
HETATM   18  N   UNL     3     -13.187   9.358  70.972  1.00  0.00    -0.558 NA 
HETATM   19  C   UNL     3     -12.063   7.202  70.762  1.00  0.00    -0.331 A  
HETATM   20  C   UNL     3     -10.922   6.413  70.878  1.00  0.00    -0.335 A  
HETATM   21  H1  UNL     3     -14.064   8.946  70.655  1.00  0.00     0.000 HD 
HETATM   22  H2  UNL     3     -12.973  10.154  70.371  1.00  0.00     0.000 HD 
ENDBRANCH  12  14
ENDBRANCH  11  12
ENDBRANCH  10  11
ENDBRANCH   9  10
ENDBRANCH   6   9
ENDBRANCH   3   6
BRANCH   5  23
HETATM   23  C   UNL     4     -11.499  13.091  66.320  1.00  0.00    -0.337 C  
BRANCH  23  24
HETATM   24  N   UNL     4     -11.993  11.833  66.921  1.00  0.00    -0.561 NA 
HETATM   25  H   UNL     4     -12.771  11.352  66.469  1.00  0.00     0.000 HD 
BRANCH  24  26
HETATM   26  C   UNL     4     -11.478  11.304  68.011  1.00  0.00    -0.298 C  
HETATM   27  H   UNL     4     -11.591  11.275  70.018  1.00  0.00     0.000 HD 
HETATM   28  O   UNL     4     -11.963  11.657  69.231  1.00  0.00    -0.320 OA 
BRANCH  26  29
HETATM   29  C   UNL     4     -10.361  10.259  68.032  1.00  0.00    -0.215 A  
HETATM   30  C   UNL     4      -8.969  10.464  68.310  1.00  0.00    -0.135 A  
HETATM   31  C   UNL     4     -10.761   8.921  67.723  1.00  0.00    -0.204 A  
HETATM   32  C   UNL     4      -9.845   7.865  67.676  1.00  0.00    -0.212 A  
HETATM   33  C   UNL     4      -8.503   8.097  67.915  1.00  0.00    -0.132 A  
HETATM   34  C   UNL     4      -8.065   9.379  68.236  1.00  0.00    -0.109 A  
BRANCH  30  35
HETATM   35  O   UNL     4      -8.438  11.655  68.684  1.00  0.00    -0.153 OA 
BRANCH  35  36
HETATM   36  C   UNL     4      -7.086  11.914  68.796  1.00  0.00    -0.111 C  
HETATM   37  C   UNL     4      -6.608  12.780  67.673  1.00  0.00    -0.150 C  
HETATM   38  O   UNL     4      -7.158  13.994  67.483  1.00  0.00    -0.176 OA 
HETATM   39  O   UNL     4      -5.686  12.415  66.960  1.00  0.00    -0.286 OA 
ENDBRANCH  35  36
ENDBRANCH  30  35
ENDBRANCH  26  29
ENDBRANCH  24  26
ENDBRANCH  23  24
ENDBRANCH   5  23
BRANCH   5  40
HETATM   40  O   UNL     4     -10.954  11.729  64.350  1.00  0.00    -0.307 OA 
BRANCH  40  41
HETATM   41  C   UNL     4     -10.208  11.659  63.128  1.00  0.00    -0.354 C  
BRANCH  41  42
HETATM   42  C   UNL     4      -9.269  10.437  63.063  1.00  0.00    -0.295 C  
BRANCH  42  43
HETATM   43  O   UNL     4      -9.163   9.800  64.323  1.00  0.00    -0.249 OA 
HETATM   44  C   UNL     4      -8.124   8.836  64.278  1.00  0.00    -0.157 C  
ENDBRANCH  42  43
ENDBRANCH  41  42
ENDBRANCH  40  41
ENDBRANCH   5  40
TORSDOF 17
ENDMDL
MODEL       49
REMARK 921   NORMALIZED FREE ENERGY PREDICTED BY IDOCK:   -5.00 KCAL/MOL
REMARK 922        TOTAL FREE ENERGY PREDICTED BY IDOCK:  -12.84 KCAL/MOL
REMARK 923 INTER-LIGAND FREE ENERGY PREDICTED BY IDOCK:  -11.07 KCAL/MOL
REMARK 924 INTRA-LIGAND FREE ENERGY PREDICTED BY IDOCK:   -1.77 KCAL/MOL
REMARK 927      BINDING AFFINITY PREDICTED BY RF-SCORE:    0.00 PKD
ROOT
HETATM    1 HG   UNL     2     -12.864   4.593  73.438  1.00  0.00    -0.364 Hg 
HETATM    2  C   UNL     3     -12.463  14.312  64.938  1.00  0.00    -0.403 C  
HETATM    3  C   UNL     3     -11.893  14.045  66.338  1.00  0.00    -0.418 C  
HETATM    4  C   UNL     4      -9.698   3.720  71.168  1.00  0.00    -0.245 C  
HETATM    5  C   UNL     4     -10.445   5.060  71.232  1.00  0.00    -0.143 C  
ENDROOT
BRANCH   3   6
HETATM    6  N   UNL     3     -10.779  14.953  66.726  1.00  0.00    -0.306 NA 
BRANCH   6   7
HETATM    7  C   UNL     3      -9.695  14.289  67.502  1.00  0.00    -0.223 C  
HETATM    8  C   UNL     3      -8.269  14.707  67.099  1.00  0.00    -0.227 C  
ENDBRANCH   6   7
BRANCH   6   9
HETATM    9  C   UNL     3     -10.199  15.659  65.555  1.00  0.00    -0.385 C  
BRANCH   9  10
HETATM   10  C   UNL     3     -10.324  17.179  65.613  1.00  0.00    -0.183 C  
BRANCH  10  11
HETATM   11  O   UNL     3     -10.388  17.633  66.910  1.00  0.00    -0.326 OA 
BRANCH  11  12
HETATM   12  C   UNL     3     -10.268  18.936  67.262  1.00  0.00    -0.390 C  
HETATM   13  O   UNL     3     -11.260  19.647  67.362  1.00  0.00    -0.293 OA 
BRANCH  12  14
HETATM   14  C   UNL     3      -8.930  19.442  67.618  1.00  0.00    -0.357 A  
HETATM   15  C   UNL     3      -6.413  20.418  68.401  1.00  0.00    -0.304 A  
HETATM   16  C   UNL     3      -7.061  20.958  67.281  1.00  0.00    -0.430 A  
HETATM   17  C   UNL     3      -8.313  20.475  66.889  1.00  0.00    -0.264 A  
HETATM   18  N   UNL     3      -5.139  20.904  68.804  1.00  0.00    -0.286 NA 
HETATM   19  C   UNL     3      -7.030  19.395  69.131  1.00  0.00    -0.390 A  
HETATM   20  C   UNL     3      -8.274  18.910  68.742  1.00  0.00    -0.347 A  
HETATM   21  H1  UNL     3      -4.668  20.511  69.618  1.00  0.00     0.000 HD 
HETATM   22  H2  UNL     3      -5.208  21.914  68.931  1.00  0.00     0.000 HD 
ENDBRANCH  12  14
ENDBRANCH  11  12
ENDBRANCH  10  11
ENDBRANCH   9  10
ENDBRANCH   6   9
ENDBRANCH   3   6
BRANCH   5  23
HETATM   23  C   UNL     4      -9.794   6.028  72.285  1.00  0.00    -0.160 C  
BRANCH  23  24
HETATM   24  N   UNL     4      -8.614   6.814  71.865  1.00  0.00    -0.120 NA 
HETATM   25  H   UNL     4      -7.812   6.318  71.478  1.00  0.00     0.000 HD 
BRANCH  24  26
HETATM   26  C   UNL     4      -8.549   8.125  71.968  1.00  0.00    -0.162 C  
HETATM   27  H   UNL     4      -8.123   9.642  73.217  1.00  0.00     0.000 HD 
HETATM   28  O   UNL     4      -8.170   8.696  73.143  1.00  0.00    -0.409 OA 
BRANCH  26  29
HETATM   29  C   UNL     4      -8.838   9.107  70.832  1.00  0.00    -0.292 A  
HETATM   30  C   UNL     4     -10.102   9.400  70.221  1.00  0.00    -0.240 A  
HETATM   31  C   UNL     4      -7.701   9.802  70.312  1.00  0.00    -0.187 A  
HETATM   32  C   UNL     4      -7.806  10.710  69.253  1.00  0.00    -0.140 A  
HETATM   33  C   UNL     4      -9.032  10.948  68.660  1.00  0.00    -0.162 A  
HETATM   34  C   UNL     4     -10.173  10.309  69.139  1.00  0.00    -0.234 A  
BRANCH  30  35
HETATM   35  O   UNL     4     -11.284   8.879  70.637  1.00  0.00    -0.256 OA 
BRANCH  35  36
HETATM   36  C   UNL     4     -11.829   9.068  71.892  1.00  0.00    -0.376 C  
HETATM   37  C   UNL     4     -13.199   8.475  71.979  1.00  0.00    -0.369 C  
HETATM   38  O   UNL     4     -13.377   7.162  71.742  1.00  0.00    -0.353 OA 
HETATM   39  O   UNL     4     -14.151   9.163  72.316  1.00  0.00    -0.437 OA 
ENDBRANCH  35  36
ENDBRANCH  30  35
ENDBRANCH  26  29
ENDBRANCH  24  26
ENDBRANCH  23  24
ENDBRANCH   5  23
BRANCH   5  40
HETATM   40  O   UNL     4     -10.425   5.683  69.936  1.00  0.00    -0.254 OA 
BRANCH  40  41
HETATM   41  C   UNL     4      -9.689   4.912  68.979  1.00  0.00    -0.175 C  
BRANCH  41  42
HETATM   42  C   UNL     4     -10.150   5.154  67.526  1.00  0.00    -0.167 C  
BRANCH  42  43
HETATM   43  O   UNL     4     -10.141   3.955  66.774  1.00  0.00    -0.078 OA 
HETATM   44  C   UNL     4      -9.829   4.248  65.422  1.00  0.00    -0.211 C  
ENDBRANCH  42  43
ENDBRANCH  41  42
ENDBRANCH  40  41
ENDBRANCH   5  40
TORSDOF 17
ENDMDL
MODEL       50
REMARK 921   NORMALIZED FREE ENERGY PREDICTED BY IDOCK:   -4.97 KCAL/MOL
REMARK 922        TOTAL FREE ENERGY PREDICTED BY IDOCK:  -12.77 KCAL/MOL
REMARK 923 INTER-LIGAND FREE ENERGY PREDICTED BY IDOCK:  -10.06 KCAL/MOL
REMARK 924 INTRA-LIGAND FREE ENERGY PREDICTED BY IDOCK:   -2.71 KCAL/MOL
REMARK 927      BINDING AFFINITY PREDICTED BY RF-SCORE:    0.00 PKD
ROOT
HETATM    1 HG   UNL     2      -8.411   6.470  70.288  1.00  0.00    -0.107 Hg 
HETATM    2  C   UNL     3      -6.763  19.271  69.753  1.00  0.00    -0.178 C  
HETATM    3  C   UNL     3      -7.192  18.172  68.772  1.00  0.00    -0.279 C  
HETATM    4  C   UNL     4     -11.966   7.918  71.384  1.00  0.00    -0.331 C  
HETATM    5  C   UNL     4     -10.821   8.694  70.719  1.00  0.00    -0.230 C  
ENDROOT
BRANCH   3   6
HETATM    6  N   UNL     3      -7.884  18.676  67.555  1.00  0.00    -0.229 NA 
BRANCH   6   7
HETATM    7  C   UNL     3      -7.214  18.309  66.277  1.00  0.00    -0.262 C  
HETATM    8  C   UNL     3      -6.092  17.264  66.417  1.00  0.00    -0.241 C  
ENDBRANCH   6   7
BRANCH   6   9
HETATM    9  C   UNL     3      -9.311  18.265  67.511  1.00  0.00    -0.261 C  
BRANCH   9  10
HETATM   10  C   UNL     3      -9.545  16.780  67.771  1.00  0.00    -0.241 C  
BRANCH  10  11
HETATM   11  O   UNL     3     -10.481  16.257  66.909  1.00  0.00    -0.306 OA 
BRANCH  11  12
HETATM   12  C   UNL     3     -11.195  15.133  67.161  1.00  0.00    -0.320 C  
HETATM   13  O   UNL     3     -11.783  14.994  68.225  1.00  0.00    -0.328 OA 
BRANCH  12  14
HETATM   14  C   UNL     3     -11.328  14.136  66.083  1.00  0.00    -0.337 A  
HETATM   15  C   UNL     3     -11.477  12.206  64.044  1.00  0.00    -0.411 A  
HETATM   16  C   UNL     3     -11.948  13.507  63.819  1.00  0.00    -0.475 A  
HETATM   17  C   UNL     3     -11.875  14.470  64.831  1.00  0.00    -0.417 A  
HETATM   18  N   UNL     3     -11.549  11.223  63.020  1.00  0.00    -0.808 NA 
HETATM   19  C   UNL     3     -10.925  11.875  65.287  1.00  0.00    -0.354 A  
HETATM   20  C   UNL     3     -10.854  12.830  66.298  1.00  0.00    -0.299 A  
HETATM   21  H1  UNL     3     -11.206  10.277  63.184  1.00  0.00     0.000 HD 
HETATM   22  H2  UNL     3     -11.084  11.592  62.190  1.00  0.00     0.000 HD 
ENDBRANCH  12  14
ENDBRANCH  11  12
ENDBRANCH  10  11
ENDBRANCH   9  10
ENDBRANCH   6   9
ENDBRANCH   3   6
BRANCH   5  23
HETATM   23  C   UNL     4     -10.969   8.704  69.155  1.00  0.00     0.063 C  
BRANCH  23  24
HETATM   24  N   UNL     4     -10.161   7.740  68.378  1.00  0.00    -0.186 NA 
HETATM   25  H   UNL     4     -10.548   6.813  68.200  1.00  0.00     0.000 HD 
BRANCH  24  26
HETATM   26  C   UNL     4      -8.964   8.020  67.904  1.00  0.00    -0.129 C  
HETATM   27  H   UNL     4      -7.067   8.440  68.418  1.00  0.00     0.000 HD 
HETATM   28  O   UNL     4      -7.930   8.238  68.760  1.00  0.00    -0.110 OA 
BRANCH  26  29
HETATM   29  C   UNL     4      -8.606   8.091  66.419  1.00  0.00    -0.155 A  
HETATM   30  C   UNL     4      -8.299   7.003  65.535  1.00  0.00    -0.133 A  
HETATM   31  C   UNL     4      -8.559   9.404  65.856  1.00  0.00    -0.155 A  
HETATM   32  C   UNL     4      -8.217   9.627  64.518  1.00  0.00    -0.151 A  
HETATM   33  C   UNL     4      -7.893   8.563  63.697  1.00  0.00    -0.151 A  
HETATM   34  C   UNL     4      -7.939   7.263  64.192  1.00  0.00    -0.084 A  
BRANCH  30  35
HETATM   35  O   UNL     4      -8.362   5.696  65.891  1.00  0.00    -0.118 OA 
BRANCH  35  36
HETATM   36  C   UNL     4      -9.532   4.978  66.046  1.00  0.00    -0.161 C  
HETATM   37  C   UNL     4      -9.463   4.085  67.244  1.00  0.00    -0.195 C  
HETATM   38  O   UNL     4      -9.243   4.614  68.462  1.00  0.00    -0.114 OA 
HETATM   39  O   UNL     4      -9.657   2.884  67.133  1.00  0.00    -0.112 OA 
ENDBRANCH  35  36
ENDBRANCH  30  35
ENDBRANCH  26  29
ENDBRANCH  24  26
ENDBRANCH  23  24
ENDBRANCH   5  23
BRANCH   5  40
HETATM   40  O   UNL     4     -10.812  10.047  71.205  1.00  0.00    -0.205 OA 
BRANCH  40  41
HETATM   41  C   UNL     4     -11.713  10.888  70.475  1.00  0.00    -0.342 C  
BRANCH  41  42
HETATM   42  C   UNL     4     -12.786  11.544  71.370  1.00  0.00    -0.364 C  
BRANCH  42  43
HETATM   43  O   UNL     4     -12.912  12.927  71.095  1.00  0.00    -0.279 OA 
HETATM   44  C   UNL     4     -13.678  13.543  72.118  1.00  0.00    -0.559 C  
ENDBRANCH  42  43
ENDBRANCH  41  42
ENDBRANCH  40  41
ENDBRANCH   5  40
TORSDOF 17
ENDMDL
MODEL       51
REMARK 921   NORMALIZED FREE ENERGY PREDICTED BY IDOCK:   -4.95 KCAL/MOL
REMARK 922        TOTAL FREE ENERGY PREDICTED BY IDOCK:  -12.74 KCAL/MOL
REMARK 923 INTER-LIGAND FREE ENERGY PREDICTED BY IDOCK:   -9.71 KCAL/MOL
REMARK 924 INTRA-LIGAND FREE ENERGY PREDICTED BY IDOCK:   -3.03 KCAL/MOL
REMARK 927      BINDING AFFINITY PREDICTED BY RF-SCORE:    0.00 PKD
ROOT
HETATM    1 HG   UNL     2     -11.506   4.830  63.935  1.00  0.00    -0.475 Hg 
HETATM    2  C   UNL     3      -7.950  17.045  66.173  1.00  0.00    -0.299 C  
HETATM    3  C   UNL     3      -8.598  15.917  66.988  1.00  0.00    -0.216 C  
HETATM    4  C   UNL     4      -7.701   4.499  65.098  1.00  0.00    -0.085 C  
HETATM    5  C   UNL     4      -8.604   5.733  65.240  1.00  0.00    -0.129 C  
ENDROOT
BRANCH   3   6
HETATM    6  N   UNL     3      -8.543  16.120  68.461  1.00  0.00    -0.192 NA 
BRANCH   6   7
HETATM    7  C   UNL     3      -9.784  16.701  69.043  1.00  0.00    -0.260 C  
HETATM    8  C   UNL     3     -11.089  16.042  68.561  1.00  0.00    -0.347 C  
ENDBRANCH   6   7
BRANCH   6   9
HETATM    9  C   UNL     3      -8.184  14.873  69.185  1.00  0.00    -0.151 C  
BRANCH   9  10
HETATM   10  C   UNL     3      -7.697  13.741  68.286  1.00  0.00    -0.138 C  
BRANCH  10  11
HETATM   11  O   UNL     3      -8.624  12.728  68.200  1.00  0.00    -0.174 OA 
BRANCH  11  12
HETATM   12  C   UNL     3      -8.782  11.939  67.111  1.00  0.00    -0.176 C  
HETATM   13  O   UNL     3      -8.170  10.882  67.013  1.00  0.00    -0.126 OA 
BRANCH  12  14
HETATM   14  C   UNL     3      -9.781  12.334  66.102  1.00  0.00    -0.256 A  
HETATM   15  C   UNL     3     -11.606  13.121  64.113  1.00  0.00    -0.410 A  
HETATM   16  C   UNL     3     -11.798  13.519  65.443  1.00  0.00    -0.379 A  
HETATM   17  C   UNL     3     -10.892  13.130  66.435  1.00  0.00    -0.299 A  
HETATM   18  N   UNL     3     -12.524  13.513  63.100  1.00  0.00    -0.985 NA 
HETATM   19  C   UNL     3     -10.496  12.336  63.779  1.00  0.00    -0.476 A  
HETATM   20  C   UNL     3      -9.594  11.944  64.764  1.00  0.00    -0.063 A  
HETATM   21  H1  UNL     3     -12.383  13.223  62.133  1.00  0.00     0.000 HD 
HETATM   22  H2  UNL     3     -12.606  14.530  63.121  1.00  0.00     0.000 HD 
ENDBRANCH  12  14
ENDBRANCH  11  12
ENDBRANCH  10  11
ENDBRANCH   9  10
ENDBRANCH   6   9
ENDBRANCH   3   6
BRANCH   5  23
HETATM   23  C   UNL     4      -9.336   5.750  66.629  1.00  0.00    -0.146 C  
BRANCH  23  24
HETATM   24  N   UNL     4     -10.531   6.609  66.772  1.00  0.00    -0.411 NA 
HETATM   25  H   UNL     4     -11.449   6.195  66.612  1.00  0.00     0.000 HD 
BRANCH  24  26
HETATM   26  C   UNL     4     -10.466   7.884  67.095  1.00  0.00    -0.344 C  
HETATM   27  H   UNL     4     -10.220   9.740  66.362  1.00  0.00     0.000 HD 
HETATM   28  O   UNL     4     -10.267   8.820  66.128  1.00  0.00    -0.233 OA 
BRANCH  26  29
HETATM   29  C   UNL     4     -10.639   8.437  68.510  1.00  0.00    -0.149 A  
HETATM   30  C   UNL     4     -10.383   7.769  69.754  1.00  0.00    -0.221 A  
HETATM   31  C   UNL     4     -11.128   9.778  68.594  1.00  0.00    -0.140 A  
HETATM   32  C   UNL     4     -11.363  10.408  69.821  1.00  0.00    -0.353 A  
HETATM   33  C   UNL     4     -11.140   9.729  71.005  1.00  0.00    -0.431 A  
HETATM   34  C   UNL     4     -10.648   8.426  70.978  1.00  0.00    -0.258 A  
BRANCH  30  35
HETATM   35  O   UNL     4      -9.856   6.523  69.850  1.00  0.00    -0.165 OA 
BRANCH  35  36
HETATM   36  C   UNL     4     -10.579   5.383  70.142  1.00  0.00    -0.274 C  
HETATM   37  C   UNL     4     -10.097   4.748  71.408  1.00  0.00    -0.189 C  
HETATM   38  O   UNL     4     -10.115   5.448  72.557  1.00  0.00    -0.168 OA 
HETATM   39  O   UNL     4      -9.737   3.581  71.416  1.00  0.00    -0.160 OA 
ENDBRANCH  35  36
ENDBRANCH  30  35
ENDBRANCH  26  29
ENDBRANCH  24  26
ENDBRANCH  23  24
ENDBRANCH   5  23
BRANCH   5  40
HETATM   40  O   UNL     4      -7.812   6.925  65.103  1.00  0.00    -0.105 OA 
BRANCH  40  41
HETATM   41  C   UNL     4      -6.990   6.895  63.930  1.00  0.00    -0.056 C  
BRANCH  41  42
HETATM   42  C   UNL     4      -5.812   7.890  63.992  1.00  0.00    -0.053 C  
BRANCH  42  43
HETATM   43  O   UNL     4      -6.174   9.153  63.465  1.00  0.00    -0.088 OA 
HETATM   44  C   UNL     4      -5.833  10.168  64.395  1.00  0.00    -0.131 C  
ENDBRANCH  42  43
ENDBRANCH  41  42
ENDBRANCH  40  41
ENDBRANCH   5  40
TORSDOF 17
ENDMDL
MODEL       52
REMARK 921   NORMALIZED FREE ENERGY PREDICTED BY IDOCK:   -4.95 KCAL/MOL
REMARK 922        TOTAL FREE ENERGY PREDICTED BY IDOCK:  -12.74 KCAL/MOL
REMARK 923 INTER-LIGAND FREE ENERGY PREDICTED BY IDOCK:  -10.25 KCAL/MOL
REMARK 924 INTRA-LIGAND FREE ENERGY PREDICTED BY IDOCK:   -2.49 KCAL/MOL
REMARK 927      BINDING AFFINITY PREDICTED BY RF-SCORE:    0.00 PKD
ROOT
HETATM    1 HG   UNL     2      -9.826  15.767  65.291  1.00  0.00    -0.267 Hg 
HETATM    2  C   UNL     3      -5.887   4.933  71.119  1.00  0.00    -0.017 C  
HETATM    3  C   UNL     3      -6.590   6.227  71.553  1.00  0.00    -0.054 C  
HETATM    4  C   UNL     4     -12.952  13.312  64.913  1.00  0.00    -0.199 C  
HETATM    5  C   UNL     4     -11.740  13.126  65.837  1.00  0.00    -0.384 C  
ENDROOT
BRANCH   3   6
HETATM    6  N   UNL     3      -7.273   6.137  72.872  1.00  0.00    -0.091 NA 
BRANCH   6   7
HETATM    7  C   UNL     3      -6.347   6.142  74.039  1.00  0.00    -0.070 C  
HETATM    8  C   UNL     3      -5.853   7.537  74.461  1.00  0.00    -0.077 C  
ENDBRANCH   6   7
BRANCH   6   9
HETATM    9  C   UNL     3      -8.302   7.195  73.043  1.00  0.00    -0.106 C  
BRANCH   9  10
HETATM   10  C   UNL     3      -9.492   6.781  73.904  1.00  0.00    -0.206 C  
BRANCH  10  11
HETATM   11  O   UNL     3     -10.044   5.598  73.470  1.00  0.00    -0.171 OA 
BRANCH  11  12
HETATM   12  C   UNL     3     -10.864   5.496  72.397  1.00  0.00    -0.248 C  
HETATM   13  O   UNL     3     -11.981   5.999  72.416  1.00  0.00    -0.302 OA 
BRANCH  12  14
HETATM   14  C   UNL     3     -10.339   4.858  71.176  1.00  0.00    -0.222 A  
HETATM   15  C   UNL     3      -9.240   3.631  68.897  1.00  0.00    -0.160 A  
HETATM   16  C   UNL     3      -9.984   4.813  68.772  1.00  0.00    -0.182 A  
HETATM   17  C   UNL     3     -10.531   5.426  69.904  1.00  0.00    -0.378 A  
HETATM   18  N   UNL     3      -8.682   3.003  67.751  1.00  0.00    -0.104 NA 
HETATM   19  C   UNL     3      -9.042   3.069  70.164  1.00  0.00    -0.189 A  
HETATM   20  C   UNL     3      -9.589   3.674  71.291  1.00  0.00    -0.244 A  
HETATM   21  H1  UNL     3      -8.141   2.143  67.842  1.00  0.00     0.000 HD 
HETATM   22  H2  UNL     3      -8.110   3.689  67.258  1.00  0.00     0.000 HD 
ENDBRANCH  12  14
ENDBRANCH  11  12
ENDBRANCH  10  11
ENDBRANCH   9  10
ENDBRANCH   6   9
ENDBRANCH   3   6
BRANCH   5  23
HETATM   23  C   UNL     4     -12.010  13.728  67.262  1.00  0.00    -0.401 C  
BRANCH  23  24
HETATM   24  N   UNL     4     -10.853  13.918  68.164  1.00  0.00    -0.243 NA 
HETATM   25  H   UNL     4      -9.940  13.581  67.860  1.00  0.00     0.000 HD 
BRANCH  24  26
HETATM   26  C   UNL     4     -10.946  14.502  69.341  1.00  0.00    -0.249 C  
HETATM   27  H   UNL     4     -10.076  15.832  70.572  1.00  0.00     0.000 HD 
HETATM   28  O   UNL     4     -10.009  15.411  69.723  1.00  0.00    -0.266 OA 
BRANCH  26  29
HETATM   29  C   UNL     4     -12.075  14.270  70.346  1.00  0.00    -0.409 A  
HETATM   30  C   UNL     4     -12.533  13.021  70.883  1.00  0.00    -0.310 A  
HETATM   31  C   UNL     4     -12.760  15.444  70.787  1.00  0.00    -0.516 A  
HETATM   32  C   UNL     4     -13.833  15.386  71.683  1.00  0.00    -0.606 A  
HETATM   33  C   UNL     4     -14.276  14.166  72.159  1.00  0.00    -0.638 A  
HETATM   34  C   UNL     4     -13.632  12.993  71.772  1.00  0.00    -0.299 A  
BRANCH  30  35
HETATM   35  O   UNL     4     -11.950  11.824  70.620  1.00  0.00    -0.350 OA 
BRANCH  35  36
HETATM   36  C   UNL     4     -12.327  10.624  71.189  1.00  0.00    -0.400 C  
HETATM   37  C   UNL     4     -11.353   9.538  70.854  1.00  0.00    -0.341 C  
HETATM   38  O   UNL     4     -10.059   9.671  71.199  1.00  0.00    -0.246 OA 
HETATM   39  O   UNL     4     -11.733   8.510  70.316  1.00  0.00    -0.094 OA 
ENDBRANCH  35  36
ENDBRANCH  30  35
ENDBRANCH  26  29
ENDBRANCH  24  26
ENDBRANCH  23  24
ENDBRANCH   5  23
BRANCH   5  40
HETATM   40  O   UNL     4     -11.442  11.725  65.961  1.00  0.00    -0.322 OA 
BRANCH  40  41
HETATM   41  C   UNL     4     -10.065  11.493  66.285  1.00  0.00    -0.226 C  
BRANCH  41  42
HETATM   42  C   UNL     4      -9.880  10.569  67.507  1.00  0.00    -0.168 C  
BRANCH  42  43
HETATM   43  O   UNL     4     -10.598   9.359  67.353  1.00  0.00    -0.265 OA 
HETATM   44  C   UNL     4      -9.714   8.338  66.921  1.00  0.00    -0.225 C  
ENDBRANCH  42  43
ENDBRANCH  41  42
ENDBRANCH  40  41
ENDBRANCH   5  40
TORSDOF 17
ENDMDL
MODEL       53
REMARK 921   NORMALIZED FREE ENERGY PREDICTED BY IDOCK:   -4.95 KCAL/MOL
REMARK 922        TOTAL FREE ENERGY PREDICTED BY IDOCK:  -12.73 KCAL/MOL
REMARK 923 INTER-LIGAND FREE ENERGY PREDICTED BY IDOCK:  -10.37 KCAL/MOL
REMARK 924 INTRA-LIGAND FREE ENERGY PREDICTED BY IDOCK:   -2.36 KCAL/MOL
REMARK 927      BINDING AFFINITY PREDICTED BY RF-SCORE:    0.00 PKD
ROOT
HETATM    1 HG   UNL     2     -10.178  19.396  68.865  1.00  0.00    -0.329 Hg 
HETATM    2  C   UNL     3      -9.426   7.472  73.776  1.00  0.00    -0.330 C  
HETATM    3  C   UNL     3     -10.238   8.161  72.671  1.00  0.00    -0.318 C  
HETATM    4  C   UNL     4      -7.294  17.675  66.707  1.00  0.00    -0.245 C  
HETATM    5  C   UNL     4      -8.297  16.971  67.631  1.00  0.00    -0.190 C  
ENDROOT
BRANCH   3   6
HETATM    6  N   UNL     3     -10.875   7.223  71.707  1.00  0.00    -0.223 NA 
BRANCH   6   7
HETATM    7  C   UNL     3     -10.856   7.695  70.295  1.00  0.00    -0.246 C  
HETATM    8  C   UNL     3      -9.915   8.884  70.027  1.00  0.00    -0.204 C  
ENDBRANCH   6   7
BRANCH   6   9
HETATM    9  C   UNL     3     -10.297   5.858  71.789  1.00  0.00    -0.216 C  
BRANCH   9  10
HETATM   10  C   UNL     3     -10.576   4.983  70.570  1.00  0.00    -0.080 C  
BRANCH  10  11
HETATM   11  O   UNL     3      -9.413   4.621  69.930  1.00  0.00    -0.132 OA 
BRANCH  11  12
HETATM   12  C   UNL     3      -9.351   3.692  68.946  1.00  0.00    -0.167 C  
HETATM   13  O   UNL     3      -9.496   2.503  69.201  1.00  0.00    -0.143 OA 
BRANCH  12  14
HETATM   14  C   UNL     3      -9.208   4.159  67.555  1.00  0.00    -0.184 A  
HETATM   15  C   UNL     3      -8.861   4.969  64.885  1.00  0.00    -0.140 A  
HETATM   16  C   UNL     3      -8.800   5.912  65.921  1.00  0.00    -0.154 A  
HETATM   17  C   UNL     3      -8.971   5.512  67.251  1.00  0.00    -0.111 A  
HETATM   18  N   UNL     3      -8.689   5.370  63.532  1.00  0.00    -0.334 NA 
HETATM   19  C   UNL     3      -9.089   3.622  65.188  1.00  0.00    -0.143 A  
HETATM   20  C   UNL     3      -9.263   3.221  66.509  1.00  0.00    -0.169 A  
HETATM   21  H1  UNL     3      -8.734   4.684  62.779  1.00  0.00     0.000 HD 
HETATM   22  H2  UNL     3      -7.802   5.869  63.458  1.00  0.00     0.000 HD 
ENDBRANCH  12  14
ENDBRANCH  11  12
ENDBRANCH  10  11
ENDBRANCH   9  10
ENDBRANCH   6   9
ENDBRANCH   3   6
BRANCH   5  23
HETATM   23  C   UNL     4      -9.573  16.506  66.842  1.00  0.00    -0.243 C  
BRANCH  23  24
HETATM   24  N   UNL     4     -10.886  16.635  67.510  1.00  0.00    -0.271 NA 
HETATM   25  H   UNL     4     -11.509  17.386  67.215  1.00  0.00     0.000 HD 
BRANCH  24  26
HETATM   26  C   UNL     4     -11.288  15.827  68.469  1.00  0.00    -0.374 C  
HETATM   27  H   UNL     4     -11.899  15.749  70.383  1.00  0.00     0.000 HD 
HETATM   28  O   UNL     4     -11.608  16.332  69.691  1.00  0.00    -0.276 OA 
BRANCH  26  29
HETATM   29  C   UNL     4     -11.473  14.317  68.320  1.00  0.00    -0.334 A  
HETATM   30  C   UNL     4     -11.667  13.568  67.112  1.00  0.00    -0.379 A  
HETATM   31  C   UNL     4     -11.463  13.570  69.539  1.00  0.00    -0.318 A  
HETATM   32  C   UNL     4     -11.649  12.183  69.563  1.00  0.00    -0.382 A  
HETATM   33  C   UNL     4     -11.868  11.491  68.386  1.00  0.00    -0.353 A  
HETATM   34  C   UNL     4     -11.871  12.170  67.170  1.00  0.00    -0.292 A  
BRANCH  30  35
HETATM   35  O   UNL     4     -11.637  14.113  65.870  1.00  0.00    -0.331 OA 
BRANCH  35  36
HETATM   36  C   UNL     4     -10.860  13.651  64.826  1.00  0.00    -0.394 C  
HETATM   37  C   UNL     4     -11.702  13.010  63.769  1.00  0.00    -0.485 C  
HETATM   38  O   UNL     4     -12.671  13.721  63.163  1.00  0.00    -0.743 OA 
HETATM   39  O   UNL     4     -11.483  11.862  63.414  1.00  0.00    -0.412 OA 
ENDBRANCH  35  36
ENDBRANCH  30  35
ENDBRANCH  26  29
ENDBRANCH  24  26
ENDBRANCH  23  24
ENDBRANCH   5  23
BRANCH   5  40
HETATM   40  O   UNL     4      -7.670  15.829  68.240  1.00  0.00    -0.127 OA 
BRANCH  40  41
HETATM   41  C   UNL     4      -7.899  14.627  67.493  1.00  0.00    -0.193 C  
BRANCH  41  42
HETATM   42  C   UNL     4      -7.840  13.355  68.366  1.00  0.00    -0.138 C  
BRANCH  42  43
HETATM   43  O   UNL     4      -7.277  12.268  67.655  1.00  0.00    -0.105 OA 
HETATM   44  C   UNL     4      -8.265  11.691  66.817  1.00  0.00    -0.161 C  
ENDBRANCH  42  43
ENDBRANCH  41  42
ENDBRANCH  40  41
ENDBRANCH   5  40
TORSDOF 17
ENDMDL
MODEL       54
REMARK 921   NORMALIZED FREE ENERGY PREDICTED BY IDOCK:   -4.94 KCAL/MOL
REMARK 922        TOTAL FREE ENERGY PREDICTED BY IDOCK:  -12.72 KCAL/MOL
REMARK 923 INTER-LIGAND FREE ENERGY PREDICTED BY IDOCK:   -9.23 KCAL/MOL
REMARK 924 INTRA-LIGAND FREE ENERGY PREDICTED BY IDOCK:   -3.49 KCAL/MOL
REMARK 927      BINDING AFFINITY PREDICTED BY RF-SCORE:    0.00 PKD
ROOT
HETATM    1 HG   UNL     2      -9.343  14.934  70.327  1.00  0.00    -0.398 Hg 
HETATM    2  C   UNL     3      -7.191   2.838  74.317  1.00  0.00    -0.042 C  
HETATM    3  C   UNL     3      -8.181   3.527  73.368  1.00  0.00    -0.079 C  
HETATM    4  C   UNL     4      -6.651  13.554  67.722  1.00  0.00    -0.175 C  
HETATM    5  C   UNL     4      -7.480  12.727  68.715  1.00  0.00    -0.048 C  
ENDROOT
BRANCH   3   6
HETATM    6  N   UNL     3      -8.873   2.601  72.431  1.00  0.00    -0.073 NA 
BRANCH   6   7
HETATM    7  C   UNL     3     -10.128   2.011  72.973  1.00  0.00    -0.109 C  
HETATM    8  C   UNL     3     -11.145   3.038  73.503  1.00  0.00    -0.317 C  
ENDBRANCH   6   7
BRANCH   6   9
HETATM    9  C   UNL     3      -9.144   3.236  71.115  1.00  0.00    -0.111 C  
BRANCH   9  10
HETATM   10  C   UNL     3      -8.717   4.698  71.022  1.00  0.00    -0.115 C  
BRANCH  10  11
HETATM   11  O   UNL     3      -9.658   5.458  70.366  1.00  0.00    -0.159 OA 
BRANCH  11  12
HETATM   12  C   UNL     3      -9.431   6.091  69.190  1.00  0.00    -0.128 C  
HETATM   13  O   UNL     3      -8.782   5.547  68.305  1.00  0.00    -0.100 OA 
BRANCH  12  14
HETATM   14  C   UNL     3     -10.069   7.401  68.968  1.00  0.00    -0.193 A  
HETATM   15  C   UNL     3     -11.376   9.862  68.596  1.00  0.00     0.012 A  
HETATM   16  C   UNL     3     -10.741   9.231  67.517  1.00  0.00    -0.272 A  
HETATM   17  C   UNL     3     -10.091   8.006  67.698  1.00  0.00    -0.269 A  
HETATM   18  N   UNL     3     -12.038  11.107  68.419  1.00  0.00    -0.727 NA 
HETATM   19  C   UNL     3     -11.361   9.256  69.858  1.00  0.00    -0.083 A  
HETATM   20  C   UNL     3     -10.712   8.039  70.043  1.00  0.00    -0.244 A  
HETATM   21  H1  UNL     3     -12.500  11.566  69.204  1.00  0.00     0.000 HD 
HETATM   22  H2  UNL     3     -12.718  11.002  67.665  1.00  0.00     0.000 HD 
ENDBRANCH  12  14
ENDBRANCH  11  12
ENDBRANCH  10  11
ENDBRANCH   9  10
ENDBRANCH   6   9
ENDBRANCH   3   6
BRANCH   5  23
HETATM   23  C   UNL     4      -8.813  12.215  68.060  1.00  0.00    -0.181 C  
BRANCH  23  24
HETATM   24  N   UNL     4      -9.565  13.152  67.197  1.00  0.00    -0.228 NA 
HETATM   25  H   UNL     4      -9.550  13.002  66.189  1.00  0.00     0.000 HD 
BRANCH  24  26
HETATM   26  C   UNL     4     -10.252  14.171  67.669  1.00  0.00    -0.241 C  
HETATM   27  H   UNL     4     -11.342  14.817  69.230  1.00  0.00     0.000 HD 
HETATM   28  O   UNL     4     -10.846  14.082  68.890  1.00  0.00    -0.250 OA 
BRANCH  26  29
HETATM   29  C   UNL     4     -10.422  15.515  66.960  1.00  0.00    -0.304 A  
HETATM   30  C   UNL     4     -10.783  15.749  65.591  1.00  0.00    -0.348 A  
HETATM   31  C   UNL     4     -10.176  16.673  67.762  1.00  0.00    -0.292 A  
HETATM   32  C   UNL     4     -10.264  17.969  67.243  1.00  0.00    -0.371 A  
HETATM   33  C   UNL     4     -10.581  18.164  65.912  1.00  0.00    -0.247 A  
HETATM   34  C   UNL     4     -10.846  17.071  65.092  1.00  0.00    -0.059 A  
BRANCH  30  35
HETATM   35  O   UNL     4     -11.114  14.766  64.717  1.00  0.00    -0.387 OA 
BRANCH  35  36
HETATM   36  C   UNL     4     -12.403  14.348  64.453  1.00  0.00    -0.403 C  
HETATM   37  C   UNL     4     -12.533  12.867  64.613  1.00  0.00    -0.434 C  
HETATM   38  O   UNL     4     -12.240  12.293  65.794  1.00  0.00    -0.622 OA 
HETATM   39  O   UNL     4     -12.954  12.180  63.695  1.00  0.00    -0.780 OA 
ENDBRANCH  35  36
ENDBRANCH  30  35
ENDBRANCH  26  29
ENDBRANCH  24  26
ENDBRANCH  23  24
ENDBRANCH   5  23
BRANCH   5  40
HETATM   40  O   UNL     4      -6.707  11.602  69.165  1.00  0.00    -0.092 OA 
BRANCH  40  41
HETATM   41  C   UNL     4      -7.440  10.373  69.075  1.00  0.00    -0.106 C  
BRANCH  41  42
HETATM   42  C   UNL     4      -7.645   9.690  70.444  1.00  0.00    -0.163 C  
BRANCH  42  43
HETATM   43  O   UNL     4      -6.881   8.503  70.547  1.00  0.00    -0.036 OA 
HETATM   44  C   UNL     4      -5.934   8.641  71.593  1.00  0.00    -0.054 C  
ENDBRANCH  42  43
ENDBRANCH  41  42
ENDBRANCH  40  41
ENDBRANCH   5  40
TORSDOF 17
ENDMDL
MODEL       55
REMARK 921   NORMALIZED FREE ENERGY PREDICTED BY IDOCK:   -4.93 KCAL/MOL
REMARK 922        TOTAL FREE ENERGY PREDICTED BY IDOCK:  -12.70 KCAL/MOL
REMARK 923 INTER-LIGAND FREE ENERGY PREDICTED BY IDOCK:  -10.89 KCAL/MOL
REMARK 924 INTRA-LIGAND FREE ENERGY PREDICTED BY IDOCK:   -1.81 KCAL/MOL
REMARK 927      BINDING AFFINITY PREDICTED BY RF-SCORE:    0.00 PKD
ROOT
HETATM    1 HG   UNL     2     -10.468   1.646  68.111  1.00  0.00    -0.320 Hg 
HETATM    2  C   UNL     3     -12.186  13.732  63.888  1.00  0.00    -0.402 C  
HETATM    3  C   UNL     3     -12.176  13.031  65.254  1.00  0.00    -0.466 C  
HETATM    4  C   UNL     4      -6.766   3.139  68.015  1.00  0.00    -0.045 C  
HETATM    5  C   UNL     4      -8.080   3.927  67.922  1.00  0.00    -0.088 C  
ENDROOT
BRANCH   3   6
HETATM    6  N   UNL     3     -12.016  13.952  66.411  1.00  0.00    -0.414 NA 
BRANCH   6   7
HETATM    7  C   UNL     3     -12.154  13.292  67.739  1.00  0.00    -0.237 C  
HETATM    8  C   UNL     3     -11.953  14.226  68.946  1.00  0.00    -0.356 C  
ENDBRANCH   6   7
BRANCH   6   9
HETATM    9  C   UNL     3     -10.737  14.705  66.356  1.00  0.00    -0.309 C  
BRANCH   9  10
HETATM   10  C   UNL     3     -10.883  16.163  65.929  1.00  0.00    -0.177 C  
BRANCH  10  11
HETATM   11  O   UNL     3      -9.985  16.974  66.583  1.00  0.00    -0.277 OA 
BRANCH  11  12
HETATM   12  C   UNL     3      -9.830  18.294  66.320  1.00  0.00    -0.321 C  
HETATM   13  O   UNL     3     -10.641  18.890  65.623  1.00  0.00    -0.575 OA 
BRANCH  12  14
HETATM   14  C   UNL     3      -8.723  19.010  66.979  1.00  0.00    -0.309 A  
HETATM   15  C   UNL     3      -6.674  20.388  68.324  1.00  0.00    -0.278 A  
HETATM   16  C   UNL     3      -7.035  20.759  67.020  1.00  0.00    -0.386 A  
HETATM   17  C   UNL     3      -8.054  20.076  66.349  1.00  0.00    -0.338 A  
HETATM   18  N   UNL     3      -5.638  21.078  69.011  1.00  0.00    -0.355 NA 
HETATM   19  C   UNL     3      -7.344  19.333  68.954  1.00  0.00    -0.392 A  
HETATM   20  C   UNL     3      -8.356  18.649  68.287  1.00  0.00    -0.350 A  
HETATM   21  H1  UNL     3      -5.376  20.808  69.959  1.00  0.00     0.000 HD 
HETATM   22  H2  UNL     3      -5.864  22.072  69.013  1.00  0.00     0.000 HD 
ENDBRANCH  12  14
ENDBRANCH  11  12
ENDBRANCH  10  11
ENDBRANCH   9  10
ENDBRANCH   6   9
ENDBRANCH   3   6
BRANCH   5  23
HETATM   23  C   UNL     4      -8.557   4.413  69.338  1.00  0.00    -0.080 C  
BRANCH  23  24
HETATM   24  N   UNL     4     -10.006   4.626  69.545  1.00  0.00    -0.216 NA 
HETATM   25  H   UNL     4     -10.554   3.870  69.953  1.00  0.00     0.000 HD 
BRANCH  24  26
HETATM   26  C   UNL     4     -10.621   5.746  69.228  1.00  0.00    -0.306 C  
HETATM   27  H   UNL     4     -11.515   6.745  67.729  1.00  0.00     0.000 HD 
HETATM   28  O   UNL     4     -11.071   5.937  67.958  1.00  0.00    -0.252 OA 
BRANCH  26  29
HETATM   29  C   UNL     4     -10.923   6.885  70.202  1.00  0.00    -0.322 A  
HETATM   30  C   UNL     4     -11.378   6.785  71.559  1.00  0.00    -0.275 A  
HETATM   31  C   UNL     4     -10.739   8.206  69.686  1.00  0.00    -0.196 A  
HETATM   32  C   UNL     4     -11.003   9.346  70.452  1.00  0.00    -0.317 A  
HETATM   33  C   UNL     4     -11.474   9.221  71.746  1.00  0.00    -0.448 A  
HETATM   34  C   UNL     4     -11.655   7.957  72.301  1.00  0.00    -0.406 A  
BRANCH  30  35
HETATM   35  O   UNL     4     -11.539   5.611  72.220  1.00  0.00    -0.264 OA 
BRANCH  35  36
HETATM   36  C   UNL     4     -10.716   5.159  73.232  1.00  0.00    -0.266 C  
HETATM   37  C   UNL     4     -10.586   3.669  73.196  1.00  0.00    -0.180 C  
HETATM   38  O   UNL     4     -10.108   3.065  72.093  1.00  0.00    -0.167 OA 
HETATM   39  O   UNL     4     -10.862   3.000  74.180  1.00  0.00    -0.185 OA 
ENDBRANCH  35  36
ENDBRANCH  30  35
ENDBRANCH  26  29
ENDBRANCH  24  26
ENDBRANCH  23  24
ENDBRANCH   5  23
BRANCH   5  40
HETATM   40  O   UNL     4      -7.897   5.066  67.064  1.00  0.00    -0.095 OA 
BRANCH  40  41
HETATM   41  C   UNL     4      -8.421   4.840  65.749  1.00  0.00    -0.119 C  
BRANCH  41  42
HETATM   42  C   UNL     4      -9.577   3.818  65.727  1.00  0.00    -0.162 C  
BRANCH  42  43
HETATM   43  O   UNL     4      -9.375   2.831  64.734  1.00  0.00    -0.144 OA 
HETATM   44  C   UNL     4      -9.170   3.459  63.480  1.00  0.00    -0.098 C  
ENDBRANCH  42  43
ENDBRANCH  41  42
ENDBRANCH  40  41
ENDBRANCH   5  40
TORSDOF 17
ENDMDL
MODEL       56
REMARK 921   NORMALIZED FREE ENERGY PREDICTED BY IDOCK:   -4.90 KCAL/MOL
REMARK 922        TOTAL FREE ENERGY PREDICTED BY IDOCK:  -12.62 KCAL/MOL
REMARK 923 INTER-LIGAND FREE ENERGY PREDICTED BY IDOCK:  -10.17 KCAL/MOL
REMARK 924 INTRA-LIGAND FREE ENERGY PREDICTED BY IDOCK:   -2.45 KCAL/MOL
REMARK 927      BINDING AFFINITY PREDICTED BY RF-SCORE:    0.00 PKD
ROOT
HETATM    1 HG   UNL     2     -10.357   2.399  67.459  1.00  0.00    -0.354 Hg 
HETATM    2  C   UNL     3     -10.649  15.085  65.044  1.00  0.00    -0.437 C  
HETATM    3  C   UNL     3     -11.178  14.160  66.148  1.00  0.00    -0.326 C  
HETATM    4  C   UNL     4      -7.011   3.754  69.166  1.00  0.00    -0.046 C  
HETATM    5  C   UNL     4      -8.199   4.592  68.672  1.00  0.00    -0.082 C  
ENDROOT
BRANCH   3   6
HETATM    6  N   UNL     3     -11.550  14.861  67.407  1.00  0.00    -0.354 NA 
BRANCH   6   7
HETATM    7  C   UNL     3     -11.169  14.129  68.647  1.00  0.00    -0.266 C  
HETATM    8  C   UNL     3     -10.295  12.884  68.416  1.00  0.00    -0.249 C  
ENDBRANCH   6   7
BRANCH   6   9
HETATM    9  C   UNL     3     -11.013  16.245  67.456  1.00  0.00    -0.207 C  
BRANCH   9  10
HETATM   10  C   UNL     3      -9.851  16.435  68.426  1.00  0.00    -0.233 C  
BRANCH  10  11
HETATM   11  O   UNL     3      -8.638  16.235  67.807  1.00  0.00    -0.169 OA 
BRANCH  11  12
HETATM   12  C   UNL     3      -7.951  17.207  67.160  1.00  0.00    -0.191 C  
HETATM   13  O   UNL     3      -7.997  17.295  65.940  1.00  0.00    -0.518 OA 
BRANCH  12  14
HETATM   14  C   UNL     3      -7.234  18.210  67.968  1.00  0.00    -0.228 A  
HETATM   15  C   UNL     3      -5.911  20.080  69.599  1.00  0.00    -0.335 A  
HETATM   16  C   UNL     3      -6.641  20.511  68.482  1.00  0.00    -0.269 A  
HETATM   17  C   UNL     3      -7.301  19.583  67.669  1.00  0.00    -0.277 A  
HETATM   18  N   UNL     3      -5.238  21.017  70.428  1.00  0.00    -0.553 NA 
HETATM   19  C   UNL     3      -5.851  18.714  69.901  1.00  0.00    -0.252 A  
HETATM   20  C   UNL     3      -6.503  17.789  69.092  1.00  0.00    -0.240 A  
HETATM   21  H1  UNL     3      -4.707  20.704  71.240  1.00  0.00     0.000 HD 
HETATM   22  H2  UNL     3      -5.916  21.713  70.739  1.00  0.00     0.000 HD 
ENDBRANCH  12  14
ENDBRANCH  11  12
ENDBRANCH  10  11
ENDBRANCH   9  10
ENDBRANCH   6   9
ENDBRANCH   3   6
BRANCH   5  23
HETATM   23  C   UNL     4      -9.238   4.844  69.823  1.00  0.00    -0.121 C  
BRANCH  23  24
HETATM   24  N   UNL     4      -9.889   6.170  69.890  1.00  0.00    -0.165 NA 
HETATM   25  H   UNL     4      -9.661   6.860  69.174  1.00  0.00     0.000 HD 
BRANCH  24  26
HETATM   26  C   UNL     4     -10.749   6.504  70.830  1.00  0.00    -0.241 C  
HETATM   27  H   UNL     4     -11.689   5.851  72.483  1.00  0.00     0.000 HD 
HETATM   28  O   UNL     4     -11.069   5.610  71.804  1.00  0.00    -0.256 OA 
BRANCH  26  29
HETATM   29  C   UNL     4     -11.421   7.871  70.955  1.00  0.00    -0.298 A  
HETATM   30  C   UNL     4     -11.144   9.061  70.202  1.00  0.00    -0.207 A  
HETATM   31  C   UNL     4     -12.438   7.971  71.955  1.00  0.00    -0.357 A  
HETATM   32  C   UNL     4     -13.121   9.166  72.205  1.00  0.00    -0.516 A  
HETATM   33  C   UNL     4     -12.810  10.307  71.487  1.00  0.00    -0.557 A  
HETATM   34  C   UNL     4     -11.838  10.259  70.491  1.00  0.00    -0.419 A  
BRANCH  30  35
HETATM   35  O   UNL     4     -10.259   9.119  69.176  1.00  0.00    -0.195 OA 
BRANCH  35  36
HETATM   36  C   UNL     4     -10.600   9.315  67.852  1.00  0.00    -0.231 C  
HETATM   37  C   UNL     4     -10.288   8.105  67.030  1.00  0.00    -0.333 C  
HETATM   38  O   UNL     4     -10.850   6.921  67.339  1.00  0.00    -0.287 OA 
HETATM   39  O   UNL     4      -9.568   8.193  66.048  1.00  0.00    -0.158 OA 
ENDBRANCH  35  36
ENDBRANCH  30  35
ENDBRANCH  26  29
ENDBRANCH  24  26
ENDBRANCH  23  24
ENDBRANCH   5  23
BRANCH   5  40
HETATM   40  O   UNL     4      -7.722   5.855  68.177  1.00  0.00    -0.097 OA 
BRANCH  40  41
HETATM   41  C   UNL     4      -6.297   5.972  68.282  1.00  0.00    -0.044 C  
BRANCH  41  42
HETATM   42  C   UNL     4      -5.849   7.267  68.992  1.00  0.00    -0.019 C  
BRANCH  42  43
HETATM   43  O   UNL     4      -6.249   8.417  68.269  1.00  0.00    -0.048 OA 
HETATM   44  C   UNL     4      -5.640   8.403  66.988  1.00  0.00    -0.038 C  
ENDBRANCH  42  43
ENDBRANCH  41  42
ENDBRANCH  40  41
ENDBRANCH   5  40
TORSDOF 17
ENDMDL
MODEL       57
REMARK 921   NORMALIZED FREE ENERGY PREDICTED BY IDOCK:   -4.89 KCAL/MOL
REMARK 922        TOTAL FREE ENERGY PREDICTED BY IDOCK:  -12.62 KCAL/MOL
REMARK 923 INTER-LIGAND FREE ENERGY PREDICTED BY IDOCK:   -9.56 KCAL/MOL
REMARK 924 INTRA-LIGAND FREE ENERGY PREDICTED BY IDOCK:   -3.06 KCAL/MOL
REMARK 927      BINDING AFFINITY PREDICTED BY RF-SCORE:    0.00 PKD
ROOT
HETATM    1 HG   UNL     2     -11.455  18.136  67.680  1.00  0.00    -0.360 Hg 
HETATM    2  C   UNL     3      -8.733   7.399  74.327  1.00  0.00    -0.264 C  
HETATM    3  C   UNL     3      -9.520   7.739  73.054  1.00  0.00    -0.251 C  
HETATM    4  C   UNL     4      -7.992  16.916  66.111  1.00  0.00    -0.290 C  
HETATM    5  C   UNL     4      -8.930  16.106  67.017  1.00  0.00    -0.211 C  
ENDROOT
BRANCH   3   6
HETATM    6  N   UNL     3      -9.794   6.570  72.175  1.00  0.00    -0.159 NA 
BRANCH   6   7
HETATM    7  C   UNL     3     -11.239   6.234  72.042  1.00  0.00    -0.281 C  
HETATM    8  C   UNL     3     -11.864   6.611  70.686  1.00  0.00    -0.443 C  
ENDBRANCH   6   7
BRANCH   6   9
HETATM    9  C   UNL     3      -9.189   6.727  70.828  1.00  0.00    -0.158 C  
BRANCH   9  10
HETATM   10  C   UNL     3      -8.212   5.620  70.444  1.00  0.00    -0.105 C  
BRANCH  10  11
HETATM   11  O   UNL     3      -7.309   6.047  69.498  1.00  0.00    -0.072 OA 
BRANCH  11  12
HETATM   12  C   UNL     3      -7.659   6.673  68.349  1.00  0.00    -0.104 C  
HETATM   13  O   UNL     3      -7.100   7.708  68.008  1.00  0.00    -0.080 OA 
BRANCH  12  14
HETATM   14  C   UNL     3      -8.652   6.023  67.475  1.00  0.00    -0.106 A  
HETATM   15  C   UNL     3     -10.477   4.794  65.724  1.00  0.00    -0.238 A  
HETATM   16  C   UNL     3     -10.897   5.838  66.561  1.00  0.00    -0.227 A  
HETATM   17  C   UNL     3      -9.992   6.452  67.433  1.00  0.00    -0.172 A  
HETATM   18  N   UNL     3     -11.393   4.166  64.837  1.00  0.00    -0.967 NA 
HETATM   19  C   UNL     3      -9.143   4.373  65.760  1.00  0.00    -0.135 A  
HETATM   20  C   UNL     3      -8.240   4.979  66.629  1.00  0.00    -0.108 A  
HETATM   21  H1  UNL     3     -11.088   3.407  64.229  1.00  0.00     0.000 HD 
HETATM   22  H2  UNL     3     -11.822   4.887  64.257  1.00  0.00     0.000 HD 
ENDBRANCH  12  14
ENDBRANCH  11  12
ENDBRANCH  10  11
ENDBRANCH   9  10
ENDBRANCH   6   9
ENDBRANCH   3   6
BRANCH   5  23
HETATM   23  C   UNL     4      -9.949  15.259  66.174  1.00  0.00    -0.302 C  
BRANCH  23  24
HETATM   24  N   UNL     4     -10.110  13.829  66.516  1.00  0.00    -0.279 NA 
HETATM   25  H   UNL     4      -9.501  13.149  66.059  1.00  0.00     0.000 HD 
BRANCH  24  26
HETATM   26  C   UNL     4     -11.001  13.391  67.380  1.00  0.00    -0.272 C  
HETATM   27  H   UNL     4     -12.857  13.683  68.095  1.00  0.00     0.000 HD 
HETATM   28  O   UNL     4     -12.214  13.999  67.471  1.00  0.00    -0.366 OA 
BRANCH  26  29
HETATM   29  C   UNL     4     -10.805  12.189  68.305  1.00  0.00    -0.256 A  
HETATM   30  C   UNL     4      -9.662  11.327  68.399  1.00  0.00    -0.194 A  
HETATM   31  C   UNL     4     -11.905  11.886  69.167  1.00  0.00    -0.371 A  
HETATM   32  C   UNL     4     -11.883  10.799  70.047  1.00  0.00    -0.424 A  
HETATM   33  C   UNL     4     -10.781   9.965  70.093  1.00  0.00    -0.361 A  
HETATM   34  C   UNL     4      -9.677  10.225  69.285  1.00  0.00    -0.240 A  
BRANCH  30  35
HETATM   35  O   UNL     4      -8.513  11.514  67.703  1.00  0.00    -0.128 OA 
BRANCH  35  36
HETATM   36  C   UNL     4      -7.995  10.622  66.785  1.00  0.00    -0.132 C  
HETATM   37  C   UNL     4      -8.969  10.358  65.680  1.00  0.00    -0.176 C  
HETATM   38  O   UNL     4      -9.418  11.378  64.925  1.00  0.00    -0.223 OA 
HETATM   39  O   UNL     4      -9.320   9.217  65.424  1.00  0.00    -0.234 OA 
ENDBRANCH  35  36
ENDBRANCH  30  35
ENDBRANCH  26  29
ENDBRANCH  24  26
ENDBRANCH  23  24
ENDBRANCH   5  23
BRANCH   5  40
HETATM   40  O   UNL     4      -8.152  15.227  67.848  1.00  0.00    -0.129 OA 
BRANCH  40  41
HETATM   41  C   UNL     4      -6.874  15.786  68.176  1.00  0.00    -0.120 C  
BRANCH  41  42
HETATM   42  C   UNL     4      -6.601  15.818  69.695  1.00  0.00    -0.182 C  
BRANCH  42  43
HETATM   43  O   UNL     4      -5.967  17.024  70.080  1.00  0.00    -0.232 OA 
HETATM   44  C   UNL     4      -5.965  17.926  68.986  1.00  0.00    -0.212 C  
ENDBRANCH  42  43
ENDBRANCH  41  42
ENDBRANCH  40  41
ENDBRANCH   5  40
TORSDOF 17
ENDMDL
MODEL       58
REMARK 921   NORMALIZED FREE ENERGY PREDICTED BY IDOCK:   -4.87 KCAL/MOL
REMARK 922        TOTAL FREE ENERGY PREDICTED BY IDOCK:  -12.58 KCAL/MOL
REMARK 923 INTER-LIGAND FREE ENERGY PREDICTED BY IDOCK:   -9.82 KCAL/MOL
REMARK 924 INTRA-LIGAND FREE ENERGY PREDICTED BY IDOCK:   -2.76 KCAL/MOL
REMARK 927      BINDING AFFINITY PREDICTED BY RF-SCORE:    0.00 PKD
ROOT
HETATM    1 HG   UNL     2      -7.630   5.063  69.268  1.00  0.00    -0.056 Hg 
HETATM    2  C   UNL     3      -7.354  17.965  68.690  1.00  0.00    -0.271 C  
HETATM    3  C   UNL     3      -8.045  16.839  67.907  1.00  0.00    -0.185 C  
HETATM    4  C   UNL     4     -10.572   6.173  71.728  1.00  0.00    -0.268 C  
HETATM    5  C   UNL     4      -9.845   7.055  70.702  1.00  0.00    -0.182 C  
ENDROOT
BRANCH   3   6
HETATM    6  N   UNL     3      -9.197  17.290  67.081  1.00  0.00    -0.231 NA 
BRANCH   6   7
HETATM    7  C   UNL     3      -9.456  16.442  65.884  1.00  0.00    -0.254 C  
HETATM    8  C   UNL     3      -8.955  14.991  66.003  1.00  0.00    -0.033 C  
ENDBRANCH   6   7
BRANCH   6   9
HETATM    9  C   UNL     3     -10.441  17.424  67.880  1.00  0.00    -0.383 C  
BRANCH   9  10
HETATM   10  C   UNL     3     -10.718  16.250  68.815  1.00  0.00    -0.309 C  
BRANCH  10  11
HETATM   11  O   UNL     3     -11.833  15.545  68.425  1.00  0.00    -0.351 OA 
BRANCH  11  12
HETATM   12  C   UNL     3     -11.875  14.195  68.324  1.00  0.00    -0.356 C  
HETATM   13  O   UNL     3     -11.951  13.497  69.328  1.00  0.00    -0.315 OA 
BRANCH  12  14
HETATM   14  C   UNL     3     -11.931  13.598  66.978  1.00  0.00    -0.448 A  
HETATM   15  C   UNL     3     -12.145  12.482  64.406  1.00  0.00    -0.424 A  
HETATM   16  C   UNL     3     -11.500  11.774  65.430  1.00  0.00    -0.239 A  
HETATM   17  C   UNL     3     -11.392  12.326  66.710  1.00  0.00    -0.395 A  
HETATM   18  N   UNL     3     -12.257  11.927  63.102  1.00  0.00    -0.886 NA 
HETATM   19  C   UNL     3     -12.688  13.744  64.673  1.00  0.00    -0.190 A  
HETATM   20  C   UNL     3     -12.580  14.298  65.945  1.00  0.00    -0.376 A  
HETATM   21  H1  UNL     3     -12.726  12.442  62.357  1.00  0.00     0.000 HD 
HETATM   22  H2  UNL     3     -12.697  11.010  63.182  1.00  0.00     0.000 HD 
ENDBRANCH  12  14
ENDBRANCH  11  12
ENDBRANCH  10  11
ENDBRANCH   9  10
ENDBRANCH   6   9
ENDBRANCH   3   6
BRANCH   5  23
HETATM   23  C   UNL     4     -10.596   7.065  69.323  1.00  0.00    -0.224 C  
BRANCH  23  24
HETATM   24  N   UNL     4      -9.839   6.658  68.120  1.00  0.00    -0.130 NA 
HETATM   25  H   UNL     4     -10.198   5.887  67.557  1.00  0.00     0.000 HD 
BRANCH  24  26
HETATM   26  C   UNL     4      -8.722   7.243  67.740  1.00  0.00    -0.126 C  
HETATM   27  H   UNL     4      -6.855   7.718  68.314  1.00  0.00     0.000 HD 
HETATM   28  O   UNL     4      -7.661   7.295  68.588  1.00  0.00    -0.108 OA 
BRANCH  26  29
HETATM   29  C   UNL     4      -8.485   7.864  66.362  1.00  0.00    -0.139 A  
HETATM   30  C   UNL     4      -8.079   7.202  65.156  1.00  0.00    -0.127 A  
HETATM   31  C   UNL     4      -8.679   9.278  66.280  1.00  0.00    -0.160 A  
HETATM   32  C   UNL     4      -8.471   9.989  65.093  1.00  0.00    -0.160 A  
HETATM   33  C   UNL     4      -8.048   9.331  63.954  1.00  0.00    -0.151 A  
HETATM   34  C   UNL     4      -7.859   7.951  63.977  1.00  0.00    -0.138 A  
BRANCH  30  35
HETATM   35  O   UNL     4      -7.917   5.860  65.047  1.00  0.00    -0.109 OA 
BRANCH  35  36
HETATM   36  C   UNL     4      -8.764   5.018  64.354  1.00  0.00    -0.119 C  
HETATM   37  C   UNL     4      -9.460   4.071  65.280  1.00  0.00    -0.172 C  
HETATM   38  O   UNL     4     -10.224   4.551  66.279  1.00  0.00    -0.247 OA 
HETATM   39  O   UNL     4      -9.383   2.865  65.103  1.00  0.00    -0.151 OA 
ENDBRANCH  35  36
ENDBRANCH  30  35
ENDBRANCH  26  29
ENDBRANCH  24  26
ENDBRANCH  23  24
ENDBRANCH   5  23
BRANCH   5  40
HETATM   40  O   UNL     4      -9.755   8.399  71.205  1.00  0.00    -0.167 OA 
BRANCH  40  41
HETATM   41  C   UNL     4     -10.800   9.237  70.696  1.00  0.00    -0.278 C  
BRANCH  41  42
HETATM   42  C   UNL     4     -11.820   9.653  71.776  1.00  0.00    -0.320 C  
BRANCH  42  43
HETATM   43  O   UNL     4     -12.741   8.612  72.045  1.00  0.00    -0.332 OA 
HETATM   44  C   UNL     4     -14.058   9.136  72.043  1.00  0.00    -0.312 C  
ENDBRANCH  42  43
ENDBRANCH  41  42
ENDBRANCH  40  41
ENDBRANCH   5  40
TORSDOF 17
ENDMDL
MODEL       59
REMARK 921   NORMALIZED FREE ENERGY PREDICTED BY IDOCK:   -4.87 KCAL/MOL
REMARK 922        TOTAL FREE ENERGY PREDICTED BY IDOCK:  -12.58 KCAL/MOL
REMARK 923 INTER-LIGAND FREE ENERGY PREDICTED BY IDOCK:  -11.00 KCAL/MOL
REMARK 924 INTRA-LIGAND FREE ENERGY PREDICTED BY IDOCK:   -1.58 KCAL/MOL
REMARK 927      BINDING AFFINITY PREDICTED BY RF-SCORE:    0.00 PKD
ROOT
HETATM    1 HG   UNL     2     -10.252   2.587  71.275  1.00  0.00    -0.154 Hg 
HETATM    2  C   UNL     3     -12.499  12.469  63.265  1.00  0.00    -0.411 C  
HETATM    3  C   UNL     3     -12.533  12.250  64.784  1.00  0.00    -0.302 C  
HETATM    4  C   UNL     4      -6.662   4.281  70.848  1.00  0.00    -0.035 C  
HETATM    5  C   UNL     4      -8.017   4.881  70.449  1.00  0.00    -0.070 C  
ENDROOT
BRANCH   3   6
HETATM    6  N   UNL     3     -12.514  13.505  65.582  1.00  0.00    -0.475 NA 
BRANCH   6   7
HETATM    7  C   UNL     3     -11.355  13.620  66.510  1.00  0.00    -0.319 C  
HETATM    8  C   UNL     3     -11.672  13.289  67.979  1.00  0.00    -0.394 C  
ENDBRANCH   6   7
BRANCH   6   9
HETATM    9  C   UNL     3     -12.593  14.715  64.725  1.00  0.00    -0.155 C  
BRANCH   9  10
HETATM   10  C   UNL     3     -11.251  15.397  64.474  1.00  0.00    -0.299 C  
BRANCH  10  11
HETATM   11  O   UNL     3     -11.378  16.766  64.433  1.00  0.00    -1.089 OA 
BRANCH  11  12
HETATM   12  C   UNL     3     -10.768  17.608  65.301  1.00  0.00     0.156 C  
HETATM   13  O   UNL     3     -10.868  18.821  65.167  1.00  0.00    -0.523 OA 
BRANCH  12  14
HETATM   14  C   UNL     3     -10.071  17.026  66.463  1.00  0.00    -0.318 A  
HETATM   15  C   UNL     3      -8.730  15.824  68.622  1.00  0.00    -0.195 A  
HETATM   16  C   UNL     3      -9.946  16.491  68.830  1.00  0.00    -0.262 A  
HETATM   17  C   UNL     3     -10.616  17.089  67.758  1.00  0.00    -0.350 A  
HETATM   18  N   UNL     3      -8.044  15.215  69.707  1.00  0.00    -0.373 NA 
HETATM   19  C   UNL     3      -8.191  15.755  67.332  1.00  0.00    -0.196 A  
HETATM   20  C   UNL     3      -8.853  16.352  66.263  1.00  0.00    -0.367 A  
HETATM   21  H1  UNL     3      -7.160  14.731  69.556  1.00  0.00     0.000 HD 
HETATM   22  H2  UNL     3      -8.686  14.571  70.169  1.00  0.00     0.000 HD 
ENDBRANCH  12  14
ENDBRANCH  11  12
ENDBRANCH  10  11
ENDBRANCH   9  10
ENDBRANCH   6   9
ENDBRANCH   3   6
BRANCH   5  23
HETATM   23  C   UNL     4      -8.619   5.755  71.607  1.00  0.00    -0.132 C  
BRANCH  23  24
HETATM   24  N   UNL     4      -9.729   6.674  71.275  1.00  0.00    -0.173 NA 
HETATM   25  H   UNL     4     -10.238   6.527  70.403  1.00  0.00     0.000 HD 
BRANCH  24  26
HETATM   26  C   UNL     4     -10.091   7.675  72.050  1.00  0.00    -0.188 C  
HETATM   27  H   UNL     4      -9.708   8.610  73.788  1.00  0.00     0.000 HD 
HETATM   28  O   UNL     4      -9.446   7.888  73.229  1.00  0.00    -0.255 OA 
BRANCH  26  29
HETATM   29  C   UNL     4     -11.191   8.685  71.718  1.00  0.00    -0.396 A  
HETATM   30  C   UNL     4     -11.093   9.853  70.891  1.00  0.00    -0.348 A  
HETATM   31  C   UNL     4     -12.463   8.434  72.322  1.00  0.00    -0.417 A  
HETATM   32  C   UNL     4     -13.555   9.287  72.134  1.00  0.00    -0.536 A  
HETATM   33  C   UNL     4     -13.424  10.425  71.359  1.00  0.00    -0.261 A  
HETATM   34  C   UNL     4     -12.211  10.706  70.735  1.00  0.00    -0.474 A  
BRANCH  30  35
HETATM   35  O   UNL     4      -9.981  10.197  70.195  1.00  0.00    -0.229 OA 
BRANCH  35  36
HETATM   36  C   UNL     4      -9.173   9.309  69.513  1.00  0.00    -0.165 C  
HETATM   37  C   UNL     4      -7.726   9.622  69.728  1.00  0.00    -0.133 C  
HETATM   38  O   UNL     4      -7.221   9.631  70.975  1.00  0.00    -0.309 OA 
HETATM   39  O   UNL     4      -6.988   9.818  68.775  1.00  0.00    -0.064 OA 
ENDBRANCH  35  36
ENDBRANCH  30  35
ENDBRANCH  26  29
ENDBRANCH  24  26
ENDBRANCH  23  24
ENDBRANCH   5  23
BRANCH   5  40
HETATM   40  O   UNL     4      -7.855   5.693  69.274  1.00  0.00    -0.086 OA 
BRANCH  40  41
HETATM   41  C   UNL     4      -8.624   5.203  68.168  1.00  0.00    -0.102 C  
BRANCH  41  42
HETATM   42  C   UNL     4      -8.798   6.246  67.044  1.00  0.00    -0.108 C  
BRANCH  42  43
HETATM   43  O   UNL     4     -10.165   6.446  66.732  1.00  0.00    -0.188 OA 
HETATM   44  C   UNL     4     -10.954   6.181  67.880  1.00  0.00    -0.304 C  
ENDBRANCH  42  43
ENDBRANCH  41  42
ENDBRANCH  40  41
ENDBRANCH   5  40
TORSDOF 17
ENDMDL
MODEL       60
REMARK 921   NORMALIZED FREE ENERGY PREDICTED BY IDOCK:   -4.87 KCAL/MOL
REMARK 922        TOTAL FREE ENERGY PREDICTED BY IDOCK:  -12.58 KCAL/MOL
REMARK 923 INTER-LIGAND FREE ENERGY PREDICTED BY IDOCK:  -10.54 KCAL/MOL
REMARK 924 INTRA-LIGAND FREE ENERGY PREDICTED BY IDOCK:   -2.04 KCAL/MOL
REMARK 927      BINDING AFFINITY PREDICTED BY RF-SCORE:    0.00 PKD
ROOT
HETATM    1 HG   UNL     2      -5.962  15.398  71.449  1.00  0.00    -0.096 Hg 
HETATM    2  C   UNL     3      -6.809   4.574  64.450  1.00  0.00    -0.045 C  
HETATM    3  C   UNL     3      -7.739   5.359  65.385  1.00  0.00    -0.092 C  
HETATM    4  C   UNL     4      -7.229  16.683  67.888  1.00  0.00    -0.152 C  
HETATM    5  C   UNL     4      -7.206  15.232  68.389  1.00  0.00    -0.114 C  
ENDROOT
BRANCH   3   6
HETATM    6  N   UNL     3      -9.178   5.008  65.250  1.00  0.00    -0.148 NA 
BRANCH   6   7
HETATM    7  C   UNL     3      -9.484   4.127  64.088  1.00  0.00    -0.156 C  
HETATM    8  C   UNL     3     -10.862   3.443  64.145  1.00  0.00    -0.046 C  
ENDBRANCH   6   7
BRANCH   6   9
HETATM    9  C   UNL     3      -9.728   4.409  66.493  1.00  0.00    -0.215 C  
BRANCH   9  10
HETATM   10  C   UNL     3      -9.168   5.007  67.780  1.00  0.00    -0.118 C  
BRANCH  10  11
HETATM   11  O   UNL     3     -10.118   5.743  68.450  1.00  0.00    -0.146 OA 
BRANCH  11  12
HETATM   12  C   UNL     3      -9.896   6.981  68.955  1.00  0.00    -0.154 C  
HETATM   13  O   UNL     3      -9.039   7.708  68.470  1.00  0.00    -0.133 OA 
BRANCH  12  14
HETATM   14  C   UNL     3     -10.781   7.463  70.032  1.00  0.00    -0.258 A  
HETATM   15  C   UNL     3     -12.553   8.343  72.030  1.00  0.00    -0.356 A  
HETATM   16  C   UNL     3     -11.594   9.219  71.502  1.00  0.00    -0.452 A  
HETATM   17  C   UNL     3     -10.711   8.785  70.508  1.00  0.00    -0.259 A  
HETATM   18  N   UNL     3     -13.452   8.778  73.041  1.00  0.00    -0.938 NA 
HETATM   19  C   UNL     3     -12.627   7.029  71.551  1.00  0.00    -0.426 A  
HETATM   20  C   UNL     3     -11.748   6.593  70.564  1.00  0.00    -0.453 A  
HETATM   21  H1  UNL     3     -14.149   8.140  73.424  1.00  0.00     0.000 HD 
HETATM   22  H2  UNL     3     -13.933   9.611  72.703  1.00  0.00     0.000 HD 
ENDBRANCH  12  14
ENDBRANCH  11  12
ENDBRANCH  10  11
ENDBRANCH   9  10
ENDBRANCH   6   9
ENDBRANCH   3   6
BRANCH   5  23
HETATM   23  C   UNL     4      -8.570  14.838  69.062  1.00  0.00    -0.137 C  
BRANCH  23  24
HETATM   24  N   UNL     4      -9.664  15.832  69.042  1.00  0.00    -0.225 NA 
HETATM   25  H   UNL     4      -9.502  16.741  69.475  1.00  0.00     0.000 HD 
BRANCH  24  26
HETATM   26  C   UNL     4     -10.838  15.600  68.492  1.00  0.00    -0.282 C  
HETATM   27  H   UNL     4     -12.823  15.775  68.757  1.00  0.00     0.000 HD 
HETATM   28  O   UNL     4     -11.977  15.943  69.154  1.00  0.00    -0.380 OA 
BRANCH  26  29
HETATM   29  C   UNL     4     -11.050  14.990  67.106  1.00  0.00    -0.332 A  
HETATM   30  C   UNL     4     -10.722  15.564  65.832  1.00  0.00    -0.339 A  
HETATM   31  C   UNL     4     -11.662  13.698  67.086  1.00  0.00    -0.418 A  
HETATM   32  C   UNL     4     -11.945  13.029  65.891  1.00  0.00    -0.491 A  
HETATM   33  C   UNL     4     -11.649  13.619  64.676  1.00  0.00    -0.393 A  
HETATM   34  C   UNL     4     -11.038  14.870  64.641  1.00  0.00    -0.335 A  
BRANCH  30  35
HETATM   35  O   UNL     4     -10.080  16.749  65.678  1.00  0.00    -0.534 OA 
BRANCH  35  36
HETATM   36  C   UNL     4     -10.707  17.973  65.551  1.00  0.00     0.042 C  
HETATM   37  C   UNL     4     -10.301  18.903  66.650  1.00  0.00    -0.417 C  
HETATM   38  O   UNL     4      -9.003  19.218  66.815  1.00  0.00    -0.300 OA 
HETATM   39  O   UNL     4     -11.144  19.421  67.365  1.00  0.00    -0.445 OA 
ENDBRANCH  35  36
ENDBRANCH  30  35
ENDBRANCH  26  29
ENDBRANCH  24  26
ENDBRANCH  23  24
ENDBRANCH   5  23
BRANCH   5  40
HETATM   40  O   UNL     4      -6.945  14.347  67.286  1.00  0.00    -0.209 OA 
BRANCH  40  41
HETATM   41  C   UNL     4      -7.686  13.125  67.389  1.00  0.00    -0.145 C  
BRANCH  41  42
HETATM   42  C   UNL     4      -6.787  11.870  67.359  1.00  0.00    -0.130 C  
BRANCH  42  43
HETATM   43  O   UNL     4      -7.214  10.953  66.369  1.00  0.00    -0.134 OA 
HETATM   44  C   UNL     4      -8.601  11.129  66.130  1.00  0.00    -0.172 C  
ENDBRANCH  42  43
ENDBRANCH  41  42
ENDBRANCH  40  41
ENDBRANCH   5  40
TORSDOF 17
ENDMDL
MODEL       61
REMARK 921   NORMALIZED FREE ENERGY PREDICTED BY IDOCK:   -4.85 KCAL/MOL
REMARK 922        TOTAL FREE ENERGY PREDICTED BY IDOCK:  -12.53 KCAL/MOL
REMARK 923 INTER-LIGAND FREE ENERGY PREDICTED BY IDOCK:   -9.70 KCAL/MOL
REMARK 924 INTRA-LIGAND FREE ENERGY PREDICTED BY IDOCK:   -2.83 KCAL/MOL
REMARK 927      BINDING AFFINITY PREDICTED BY RF-SCORE:    0.00 PKD
ROOT
HETATM    1 HG   UNL     2     -10.679  18.002  70.226  1.00  0.00    -0.444 Hg 
HETATM    2  C   UNL     3      -6.830   6.008  73.088  1.00  0.00    -0.079 C  
HETATM    3  C   UNL     3      -7.875   6.640  72.158  1.00  0.00    -0.097 C  
HETATM    4  C   UNL     4      -7.699  17.337  67.653  1.00  0.00    -0.194 C  
HETATM    5  C   UNL     4      -8.429  16.291  68.508  1.00  0.00    -0.206 C  
ENDROOT
BRANCH   3   6
HETATM    6  N   UNL     3      -8.375   5.728  71.094  1.00  0.00    -0.122 NA 
BRANCH   6   7
HETATM    7  C   UNL     3      -9.800   5.328  71.254  1.00  0.00    -0.173 C  
HETATM    8  C   UNL     3     -10.035   4.165  72.235  1.00  0.00    -0.240 C  
ENDBRANCH   6   7
BRANCH   6   9
HETATM    9  C   UNL     3      -8.158   6.283  69.733  1.00  0.00    -0.120 C  
BRANCH   9  10
HETATM   10  C   UNL     3      -8.922   5.558  68.629  1.00  0.00    -0.114 C  
BRANCH  10  11
HETATM   11  O   UNL     3      -8.986   6.310  67.479  1.00  0.00    -0.111 OA 
BRANCH  11  12
HETATM   12  C   UNL     3     -10.091   6.984  67.078  1.00  0.00    -0.229 C  
HETATM   13  O   UNL     3     -11.199   6.472  67.168  1.00  0.00    -0.388 OA 
BRANCH  12  14
HETATM   14  C   UNL     3      -9.932   8.379  66.630  1.00  0.00    -0.354 A  
HETATM   15  C   UNL     3      -9.738  11.044  65.756  1.00  0.00    -0.224 A  
HETATM   16  C   UNL     3      -8.856  10.074  65.260  1.00  0.00    -0.205 A  
HETATM   17  C   UNL     3      -8.950   8.747  65.692  1.00  0.00    -0.248 A  
HETATM   18  N   UNL     3      -9.646  12.395  65.322  1.00  0.00    -0.450 NA 
HETATM   19  C   UNL     3     -10.720  10.677  66.684  1.00  0.00    -0.246 A  
HETATM   20  C   UNL     3     -10.815   9.359  67.119  1.00  0.00    -0.132 A  
HETATM   21  H1  UNL     3     -10.288  13.100  65.682  1.00  0.00     0.000 HD 
HETATM   22  H2  UNL     3      -9.699  12.406  64.303  1.00  0.00     0.000 HD 
ENDBRANCH  12  14
ENDBRANCH  11  12
ENDBRANCH  10  11
ENDBRANCH   9  10
ENDBRANCH   6   9
ENDBRANCH   3   6
BRANCH   5  23
HETATM   23  C   UNL     4      -9.637  15.658  67.729  1.00  0.00    -0.209 C  
BRANCH  23  24
HETATM   24  N   UNL     4     -10.651  14.915  68.509  1.00  0.00    -0.239 NA 
HETATM   25  H   UNL     4     -10.631  13.895  68.483  1.00  0.00     0.000 HD 
BRANCH  24  26
HETATM   26  C   UNL     4     -11.576  15.506  69.235  1.00  0.00    -0.357 C  
HETATM   27  H   UNL     4     -12.932  16.991  69.251  1.00  0.00     0.000 HD 
HETATM   28  O   UNL     4     -12.264  16.565  68.727  1.00  0.00     0.284 OA 
BRANCH  26  29
HETATM   29  C   UNL     4     -11.995  15.073  70.641  1.00  0.00    -0.370 A  
HETATM   30  C   UNL     4     -12.542  13.810  71.047  1.00  0.00    -0.371 A  
HETATM   31  C   UNL     4     -11.831  16.056  71.665  1.00  0.00    -0.582 A  
HETATM   32  C   UNL     4     -12.198  15.814  72.993  1.00  0.00    -0.593 A  
HETATM   33  C   UNL     4     -12.754  14.600  73.350  1.00  0.00    -0.528 A  
HETATM   34  C   UNL     4     -12.920  13.602  72.393  1.00  0.00    -0.416 A  
BRANCH  30  35
HETATM   35  O   UNL     4     -12.699  12.750  70.215  1.00  0.00    -0.036 OA 
BRANCH  35  36
HETATM   36  C   UNL     4     -11.811  11.698  70.103  1.00  0.00    -0.344 C  
HETATM   37  C   UNL     4     -12.308  10.492  70.836  1.00  0.00    -0.390 C  
HETATM   38  O   UNL     4     -13.496   9.951  70.507  1.00  0.00    -0.142 OA 
HETATM   39  O   UNL     4     -11.620   9.963  71.694  1.00  0.00    -0.360 OA 
ENDBRANCH  35  36
ENDBRANCH  30  35
ENDBRANCH  26  29
ENDBRANCH  24  26
ENDBRANCH  23  24
ENDBRANCH   5  23
BRANCH   5  40
HETATM   40  O   UNL     4      -7.509  15.253  68.886  1.00  0.00    -0.125 OA 
BRANCH  40  41
HETATM   41  C   UNL     4      -6.887  14.644  67.748  1.00  0.00    -0.176 C  
BRANCH  41  42
HETATM   42  C   UNL     4      -6.911  13.102  67.800  1.00  0.00    -0.149 C  
BRANCH  42  43
HETATM   43  O   UNL     4      -8.189  12.618  68.169  1.00  0.00    -0.155 OA 
HETATM   44  C   UNL     4      -8.041  11.433  68.934  1.00  0.00    -0.067 C  
ENDBRANCH  42  43
ENDBRANCH  41  42
ENDBRANCH  40  41
ENDBRANCH   5  40
TORSDOF 17
ENDMDL
MODEL       62
REMARK 921   NORMALIZED FREE ENERGY PREDICTED BY IDOCK:   -4.83 KCAL/MOL
REMARK 922        TOTAL FREE ENERGY PREDICTED BY IDOCK:  -12.49 KCAL/MOL
REMARK 923 INTER-LIGAND FREE ENERGY PREDICTED BY IDOCK:   -9.88 KCAL/MOL
REMARK 924 INTRA-LIGAND FREE ENERGY PREDICTED BY IDOCK:   -2.61 KCAL/MOL
REMARK 927      BINDING AFFINITY PREDICTED BY RF-SCORE:    0.00 PKD
ROOT
HETATM    1 HG   UNL     2     -11.371   4.806  63.592  1.00  0.00    -0.466 Hg 
HETATM    2  C   UNL     3      -9.937  17.353  66.310  1.00  0.00    -0.306 C  
HETATM    3  C   UNL     3     -10.266  16.082  67.105  1.00  0.00    -0.278 C  
HETATM    4  C   UNL     4      -7.466   5.161  64.339  1.00  0.00    -0.065 C  
HETATM    5  C   UNL     4      -8.562   6.188  64.657  1.00  0.00     0.115 C  
ENDROOT
BRANCH   3   6
HETATM    6  N   UNL     3     -10.085  16.218  68.575  1.00  0.00    -0.230 NA 
BRANCH   6   7
HETATM    7  C   UNL     3     -11.337  16.044  69.362  1.00  0.00    -0.355 C  
HETATM    8  C   UNL     3     -11.890  14.608  69.381  1.00  0.00    -0.368 C  
ENDBRANCH   6   7
BRANCH   6   9
HETATM    9  C   UNL     3      -9.033  15.308  69.097  1.00  0.00    -0.233 C  
BRANCH   9  10
HETATM   10  C   UNL     3      -8.370  14.439  68.033  1.00  0.00    -0.157 C  
BRANCH  10  11
HETATM   11  O   UNL     3      -8.985  13.213  67.925  1.00  0.00    -0.181 OA 
BRANCH  11  12
HETATM   12  C   UNL     3      -8.796  12.362  66.888  1.00  0.00    -0.205 C  
HETATM   13  O   UNL     3      -7.776  11.689  66.811  1.00  0.00    -0.156 OA 
BRANCH  12  14
HETATM   14  C   UNL     3      -9.892  12.194  65.916  1.00  0.00    -0.265 A  
HETATM   15  C   UNL     3     -11.910  11.893  63.982  1.00  0.00    -0.364 A  
HETATM   16  C   UNL     3     -12.120  12.716  65.098  1.00  0.00    -0.508 A  
HETATM   17  C   UNL     3     -11.118  12.868  66.062  1.00  0.00    -0.308 A  
HETATM   18  N   UNL     3     -12.925  11.733  63.000  1.00  0.00    -0.850 NA 
HETATM   19  C   UNL     3     -10.688  11.228  63.833  1.00  0.00    -0.451 A  
HETATM   20  C   UNL     3      -9.690  11.374  64.792  1.00  0.00    -0.280 A  
HETATM   21  H1  UNL     3     -12.772  11.135  62.188  1.00  0.00     0.000 HD 
HETATM   22  H2  UNL     3     -13.196  12.659  62.667  1.00  0.00     0.000 HD 
ENDBRANCH  12  14
ENDBRANCH  11  12
ENDBRANCH  10  11
ENDBRANCH   9  10
ENDBRANCH   6   9
ENDBRANCH   3   6
BRANCH   5  23
HETATM   23  C   UNL     4      -9.123   5.994  66.111  1.00  0.00    -0.147 C  
BRANCH  23  24
HETATM   24  N   UNL     4     -10.387   6.677  66.462  1.00  0.00    -0.450 NA 
HETATM   25  H   UNL     4     -11.223   6.459  65.921  1.00  0.00     0.000 HD 
BRANCH  24  26
HETATM   26  C   UNL     4     -10.484   7.555  67.439  1.00  0.00    -0.297 C  
HETATM   27  H   UNL     4     -10.841   9.488  67.862  1.00  0.00     0.000 HD 
HETATM   28  O   UNL     4     -10.771   8.855  67.157  1.00  0.00    -0.265 OA 
BRANCH  26  29
HETATM   29  C   UNL     4     -10.335   7.229  68.925  1.00  0.00    -0.207 A  
HETATM   30  C   UNL     4      -9.274   7.619  69.810  1.00  0.00    -0.147 A  
HETATM   31  C   UNL     4     -11.375   6.428  69.490  1.00  0.00    -0.460 A  
HETATM   32  C   UNL     4     -11.359   6.026  70.830  1.00  0.00    -0.295 A  
HETATM   33  C   UNL     4     -10.307   6.387  71.652  1.00  0.00    -0.235 A  
HETATM   34  C   UNL     4      -9.277   7.182  71.154  1.00  0.00    -0.157 A  
BRANCH  30  35
HETATM   35  O   UNL     4      -8.249   8.432  69.451  1.00  0.00    -0.112 OA 
BRANCH  35  36
HETATM   36  C   UNL     4      -8.118   9.751  69.838  1.00  0.00    -0.182 C  
HETATM   37  C   UNL     4      -6.677  10.147  69.926  1.00  0.00    -0.110 C  
HETATM   38  O   UNL     4      -5.889  10.046  68.840  1.00  0.00    -0.035 OA 
HETATM   39  O   UNL     4      -6.225  10.610  70.961  1.00  0.00    -0.341 OA 
ENDBRANCH  35  36
ENDBRANCH  30  35
ENDBRANCH  26  29
ENDBRANCH  24  26
ENDBRANCH  23  24
ENDBRANCH   5  23
BRANCH   5  40
HETATM   40  O   UNL     4      -8.027   7.516  64.525  1.00  0.00    -0.132 OA 
BRANCH  40  41
HETATM   41  C   UNL     4      -7.363   7.709  63.270  1.00  0.00    -0.090 C  
BRANCH  41  42
HETATM   42  C   UNL     4      -6.134   8.637  63.373  1.00  0.00    -0.081 C  
BRANCH  42  43
HETATM   43  O   UNL     4      -6.513  10.001  63.340  1.00  0.00    -0.125 OA 
HETATM   44  C   UNL     4      -5.368  10.813  63.538  1.00  0.00    -0.106 C  
ENDBRANCH  42  43
ENDBRANCH  41  42
ENDBRANCH  40  41
ENDBRANCH   5  40
TORSDOF 17
ENDMDL
MODEL       63
REMARK 921   NORMALIZED FREE ENERGY PREDICTED BY IDOCK:   -4.82 KCAL/MOL
REMARK 922        TOTAL FREE ENERGY PREDICTED BY IDOCK:  -12.48 KCAL/MOL
REMARK 923 INTER-LIGAND FREE ENERGY PREDICTED BY IDOCK:   -9.90 KCAL/MOL
REMARK 924 INTRA-LIGAND FREE ENERGY PREDICTED BY IDOCK:   -2.58 KCAL/MOL
REMARK 927      BINDING AFFINITY PREDICTED BY RF-SCORE:    0.00 PKD
ROOT
HETATM    1 HG   UNL     2      -6.220  14.627  71.349  1.00  0.00    -0.155 Hg 
HETATM    2  C   UNL     3      -7.018   3.753  64.423  1.00  0.00    -0.046 C  
HETATM    3  C   UNL     3      -7.985   4.602  65.259  1.00  0.00    -0.095 C  
HETATM    4  C   UNL     4      -7.084  15.921  67.672  1.00  0.00    -0.185 C  
HETATM    5  C   UNL     4      -7.187  14.479  68.189  1.00  0.00    -0.130 C  
ENDROOT
BRANCH   3   6
HETATM    6  N   UNL     3      -9.423   4.326  64.996  1.00  0.00    -0.163 NA 
BRANCH   6   7
HETATM    7  C   UNL     3      -9.694   2.964  64.459  1.00  0.00    -0.114 C  
HETATM    8  C   UNL     3     -10.948   2.861  63.571  1.00  0.00    -0.114 C  
ENDBRANCH   6   7
BRANCH   6   9
HETATM    9  C   UNL     3     -10.269   4.572  66.192  1.00  0.00    -0.254 C  
BRANCH   9  10
HETATM   10  C   UNL     3      -9.804   5.736  67.062  1.00  0.00    -0.151 C  
BRANCH  10  11
HETATM   11  O   UNL     3     -10.565   6.862  66.849  1.00  0.00    -0.288 OA 
BRANCH  11  12
HETATM   12  C   UNL     3     -10.051   8.112  66.747  1.00  0.00    -0.295 C  
HETATM   13  O   UNL     3      -9.284   8.398  65.836  1.00  0.00    -0.195 OA 
BRANCH  12  14
HETATM   14  C   UNL     3     -10.520   9.138  67.695  1.00  0.00    -0.323 A  
HETATM   15  C   UNL     3     -11.344  11.166  69.460  1.00  0.00    -0.290 A  
HETATM   16  C   UNL     3     -11.016   9.895  69.952  1.00  0.00    -0.321 A  
HETATM   17  C   UNL     3     -10.605   8.884  69.077  1.00  0.00    -0.203 A  
HETATM   18  N   UNL     3     -11.763  12.198  70.344  1.00  0.00    -0.532 NA 
HETATM   19  C   UNL     3     -11.253  11.422  68.087  1.00  0.00    -0.343 A  
HETATM   20  C   UNL     3     -10.848  10.417  67.213  1.00  0.00    -0.324 A  
HETATM   21  H1  UNL     3     -12.002  13.122  69.987  1.00  0.00     0.000 HD 
HETATM   22  H2  UNL     3     -11.050  12.308  71.065  1.00  0.00     0.000 HD 
ENDBRANCH  12  14
ENDBRANCH  11  12
ENDBRANCH  10  11
ENDBRANCH   9  10
ENDBRANCH   6   9
ENDBRANCH   3   6
BRANCH   5  23
HETATM   23  C   UNL     4      -8.626  14.169  68.738  1.00  0.00    -0.067 C  
BRANCH  23  24
HETATM   24  N   UNL     4      -9.616  15.268  68.742  1.00  0.00    -0.205 NA 
HETATM   25  H   UNL     4      -9.336  16.173  69.121  1.00  0.00     0.000 HD 
BRANCH  24  26
HETATM   26  C   UNL     4     -10.842  15.135  68.281  1.00  0.00    -0.262 C  
HETATM   27  H   UNL     4     -12.767  14.907  68.815  1.00  0.00     0.000 HD 
HETATM   28  O   UNL     4     -11.882  15.003  69.148  1.00  0.00    -0.302 OA 
BRANCH  26  29
HETATM   29  C   UNL     4     -11.226  15.151  66.801  1.00  0.00    -0.285 A  
HETATM   30  C   UNL     4     -10.765  16.049  65.781  1.00  0.00    -0.301 A  
HETATM   31  C   UNL     4     -12.170  14.156  66.397  1.00  0.00    -0.473 A  
HETATM   32  C   UNL     4     -12.638  14.066  65.082  1.00  0.00    -0.453 A  
HETATM   33  C   UNL     4     -12.203  14.966  64.126  1.00  0.00    -0.280 A  
HETATM   34  C   UNL     4     -11.271  15.944  64.465  1.00  0.00    -0.324 A  
BRANCH  30  35
HETATM   35  O   UNL     4      -9.823  17.004  65.982  1.00  0.00    -0.403 OA 
BRANCH  35  36
HETATM   36  C   UNL     4      -9.941  18.050  66.876  1.00  0.00    -0.340 C  
HETATM   37  C   UNL     4      -9.952  19.367  66.166  1.00  0.00    -0.425 C  
HETATM   38  O   UNL     4     -10.897  19.621  65.241  1.00  0.00    -0.407 OA 
HETATM   39  O   UNL     4      -9.143  20.233  66.458  1.00  0.00    -0.311 OA 
ENDBRANCH  35  36
ENDBRANCH  30  35
ENDBRANCH  26  29
ENDBRANCH  24  26
ENDBRANCH  23  24
ENDBRANCH   5  23
BRANCH   5  40
HETATM   40  O   UNL     4      -6.875  13.564  67.125  1.00  0.00    -0.134 OA 
BRANCH  40  41
HETATM   41  C   UNL     4      -7.143  12.203  67.488  1.00  0.00    -0.135 C  
BRANCH  41  42
HETATM   42  C   UNL     4      -6.132  11.642  68.510  1.00  0.00    -0.050 C  
BRANCH  42  43
HETATM   43  O   UNL     4      -6.766  11.292  69.726  1.00  0.00    -0.133 OA 
HETATM   44  C   UNL     4      -6.949   9.887  69.775  1.00  0.00    -0.095 C  
ENDBRANCH  42  43
ENDBRANCH  41  42
ENDBRANCH  40  41
ENDBRANCH   5  40
TORSDOF 17
ENDMDL
MODEL       64
REMARK 921   NORMALIZED FREE ENERGY PREDICTED BY IDOCK:   -4.81 KCAL/MOL
REMARK 922        TOTAL FREE ENERGY PREDICTED BY IDOCK:  -12.46 KCAL/MOL
REMARK 923 INTER-LIGAND FREE ENERGY PREDICTED BY IDOCK:  -10.11 KCAL/MOL
REMARK 924 INTRA-LIGAND FREE ENERGY PREDICTED BY IDOCK:   -2.35 KCAL/MOL
REMARK 927      BINDING AFFINITY PREDICTED BY RF-SCORE:    0.00 PKD
ROOT
HETATM    1 HG   UNL     2      -8.095  18.004  66.162  1.00  0.00    -0.216 Hg 
HETATM    2  C   UNL     3      -7.011   5.279  68.104  1.00  0.00    -0.061 C  
HETATM    3  C   UNL     3      -7.524   6.479  68.912  1.00  0.00    -0.095 C  
HETATM    4  C   UNL     4     -11.527  16.544  64.737  1.00  0.00     0.042 C  
HETATM    5  C   UNL     4     -10.509  15.808  65.620  1.00  0.00    -0.383 C  
ENDROOT
BRANCH   3   6
HETATM    6  N   UNL     3      -8.388   6.113  70.067  1.00  0.00    -0.123 NA 
BRANCH   6   7
HETATM    7  C   UNL     3      -9.589   5.313  69.699  1.00  0.00    -0.163 C  
HETATM    8  C   UNL     3     -10.745   6.130  69.093  1.00  0.00    -0.381 C  
ENDBRANCH   6   7
BRANCH   6   9
HETATM    9  C   UNL     3      -7.628   5.416  71.136  1.00  0.00    -0.097 C  
BRANCH   9  10
HETATM   10  C   UNL     3      -7.246   6.304  72.317  1.00  0.00    -0.087 C  
BRANCH  10  11
HETATM   11  O   UNL     3      -8.309   7.065  72.743  1.00  0.00    -0.107 OA 
BRANCH  11  12
HETATM   12  C   UNL     3      -9.479   6.546  73.189  1.00  0.00    -0.145 C  
HETATM   13  O   UNL     3      -9.485   5.624  73.993  1.00  0.00    -0.133 OA 
BRANCH  12  14
HETATM   14  C   UNL     3     -10.735   7.188  72.760  1.00  0.00    -0.325 A  
HETATM   15  C   UNL     3     -13.132   8.346  71.855  1.00  0.00    -0.358 A  
HETATM   16  C   UNL     3     -12.051   9.160  72.224  1.00  0.00    -0.311 A  
HETATM   17  C   UNL     3     -10.857   8.587  72.674  1.00  0.00    -0.201 A  
HETATM   18  N   UNL     3     -14.348   8.922  71.397  1.00  0.00    -0.411 NA 
HETATM   19  C   UNL     3     -13.007   6.954  71.932  1.00  0.00    -0.264 A  
HETATM   20  C   UNL     3     -11.822   6.381  72.383  1.00  0.00    -0.255 A  
HETATM   21  H1  UNL     3     -15.134   8.330  71.129  1.00  0.00     0.000 HD 
HETATM   22  H2  UNL     3     -14.134   9.542  70.616  1.00  0.00     0.000 HD 
ENDBRANCH  12  14
ENDBRANCH  11  12
ENDBRANCH  10  11
ENDBRANCH   9  10
ENDBRANCH   6   9
ENDBRANCH   3   6
BRANCH   5  23
HETATM   23  C   UNL     4     -10.861  15.955  67.143  1.00  0.00    -0.267 C  
BRANCH  23  24
HETATM   24  N   UNL     4     -11.906  15.068  67.700  1.00  0.00    -0.425 NA 
HETATM   25  H   UNL     4     -12.827  15.068  67.261  1.00  0.00     0.000 HD 
BRANCH  24  26
HETATM   26  C   UNL     4     -11.705  14.280  68.735  1.00  0.00    -0.343 C  
HETATM   27  H   UNL     4     -11.904  14.129  70.730  1.00  0.00     0.000 HD 
HETATM   28  O   UNL     4     -12.049  14.698  69.983  1.00  0.00    -0.293 OA 
BRANCH  26  29
HETATM   29  C   UNL     4     -11.131  12.865  68.659  1.00  0.00    -0.307 A  
HETATM   30  C   UNL     4      -9.855  12.459  68.143  1.00  0.00    -0.213 A  
HETATM   31  C   UNL     4     -11.981  11.826  69.150  1.00  0.00    -0.356 A  
HETATM   32  C   UNL     4     -11.602  10.479  69.118  1.00  0.00    -0.295 A  
HETATM   33  C   UNL     4     -10.381  10.113  68.584  1.00  0.00    -0.208 A  
HETATM   34  C   UNL     4      -9.509  11.089  68.107  1.00  0.00    -0.172 A  
BRANCH  30  35
HETATM   35  O   UNL     4      -8.907  13.323  67.701  1.00  0.00    -0.177 OA 
BRANCH  35  36
HETATM   36  C   UNL     4      -7.622  13.405  68.200  1.00  0.00    -0.138 C  
HETATM   37  C   UNL     4      -7.069  14.786  68.043  1.00  0.00    -0.138 C  
HETATM   38  O   UNL     4      -7.705  15.830  68.607  1.00  0.00    -0.137 OA 
HETATM   39  O   UNL     4      -6.017  14.967  67.451  1.00  0.00    -0.335 OA 
ENDBRANCH  35  36
ENDBRANCH  30  35
ENDBRANCH  26  29
ENDBRANCH  24  26
ENDBRANCH  23  24
ENDBRANCH   5  23
BRANCH   5  40
HETATM   40  O   UNL     4     -10.486  14.415  65.267  1.00  0.00    -0.339 OA 
BRANCH  40  41
HETATM   41  C   UNL     4     -11.577  14.058  64.409  1.00  0.00    -0.369 C  
BRANCH  41  42
HETATM   42  C   UNL     4     -12.684  13.265  65.137  1.00  0.00    -0.402 C  
BRANCH  42  43
HETATM   43  O   UNL     4     -13.067  12.119  64.401  1.00  0.00    -0.740 OA 
HETATM   44  C   UNL     4     -12.026  11.764  63.505  1.00  0.00    -0.380 C  
ENDBRANCH  42  43
ENDBRANCH  41  42
ENDBRANCH  40  41
ENDBRANCH   5  40
TORSDOF 17
ENDMDL
MODEL       65
REMARK 921   NORMALIZED FREE ENERGY PREDICTED BY IDOCK:   -4.81 KCAL/MOL
REMARK 922        TOTAL FREE ENERGY PREDICTED BY IDOCK:  -12.45 KCAL/MOL
REMARK 923 INTER-LIGAND FREE ENERGY PREDICTED BY IDOCK:   -9.53 KCAL/MOL
REMARK 924 INTRA-LIGAND FREE ENERGY PREDICTED BY IDOCK:   -2.92 KCAL/MOL
REMARK 927      BINDING AFFINITY PREDICTED BY RF-SCORE:    0.00 PKD
ROOT
HETATM    1 HG   UNL     2      -8.386   5.247  69.169  1.00  0.00    -0.084 Hg 
HETATM    2  C   UNL     3      -5.575  17.782  70.531  1.00  0.00    -0.179 C  
HETATM    3  C   UNL     3      -6.103  16.885  69.403  1.00  0.00    -0.218 C  
HETATM    4  C   UNL     4     -11.794   6.830  70.519  1.00  0.00    -0.418 C  
HETATM    5  C   UNL     4     -10.582   7.590  69.961  1.00  0.00    -0.237 C  
ENDROOT
BRANCH   3   6
HETATM    6  N   UNL     3      -6.746  17.627  68.284  1.00  0.00    -0.194 NA 
BRANCH   6   7
HETATM    7  C   UNL     3      -6.430  17.086  66.933  1.00  0.00    -0.213 C  
HETATM    8  C   UNL     3      -6.461  18.128  65.801  1.00  0.00    -0.311 C  
ENDBRANCH   6   7
BRANCH   6   9
HETATM    9  C   UNL     3      -8.218  17.729  68.453  1.00  0.00    -0.298 C  
BRANCH   9  10
HETATM   10  C   UNL     3      -8.899  16.420  68.841  1.00  0.00    -0.256 C  
BRANCH  10  11
HETATM   11  O   UNL     3     -10.259  16.481  68.647  1.00  0.00    -0.235 OA 
BRANCH  11  12
HETATM   12  C   UNL     3     -11.049  15.392  68.485  1.00  0.00    -0.295 C  
HETATM   13  O   UNL     3     -11.542  14.830  69.455  1.00  0.00    -0.276 OA 
BRANCH  12  14
HETATM   14  C   UNL     3     -11.378  14.967  67.112  1.00  0.00    -0.323 A  
HETATM   15  C   UNL     3     -12.011  14.263  64.465  1.00  0.00    -0.462 A  
HETATM   16  C   UNL     3     -12.702  13.676  65.535  1.00  0.00    -0.514 A  
HETATM   17  C   UNL     3     -12.389  14.024  66.853  1.00  0.00    -0.321 A  
HETATM   18  N   UNL     3     -12.324  13.912  63.124  1.00  0.00    -1.106 NA 
HETATM   19  C   UNL     3     -11.010  15.207  64.722  1.00  0.00    -0.394 A  
HETATM   20  C   UNL     3     -10.695  15.553  66.032  1.00  0.00    -0.331 A  
HETATM   21  H1  UNL     3     -11.822  14.339  62.346  1.00  0.00     0.000 HD 
HETATM   22  H2  UNL     3     -13.323  14.061  62.979  1.00  0.00     0.000 HD 
ENDBRANCH  12  14
ENDBRANCH  11  12
ENDBRANCH  10  11
ENDBRANCH   9  10
ENDBRANCH   6   9
ENDBRANCH   3   6
BRANCH   5  23
HETATM   23  C   UNL     4     -10.729   7.848  68.419  1.00  0.00    -0.021 C  
BRANCH  23  24
HETATM   24  N   UNL     4      -9.541   8.329  67.681  1.00  0.00    -0.148 NA 
HETATM   25  H   UNL     4      -9.625   8.491  66.678  1.00  0.00     0.000 HD 
BRANCH  24  26
HETATM   26  C   UNL     4      -8.380   8.559  68.258  1.00  0.00    -0.124 C  
HETATM   27  H   UNL     4      -6.849   7.698  69.238  1.00  0.00     0.000 HD 
HETATM   28  O   UNL     4      -7.687   7.532  68.821  1.00  0.00    -0.113 OA 
BRANCH  26  29
HETATM   29  C   UNL     4      -7.691   9.922  68.325  1.00  0.00    -0.085 A  
HETATM   30  C   UNL     4      -7.535  10.883  67.271  1.00  0.00    -0.104 A  
HETATM   31  C   UNL     4      -7.124  10.267  69.592  1.00  0.00    -0.125 A  
HETATM   32  C   UNL     4      -6.437  11.469  69.796  1.00  0.00    -0.125 A  
HETATM   33  C   UNL     4      -6.272  12.361  68.753  1.00  0.00    -0.073 A  
HETATM   34  C   UNL     4      -6.820  12.080  67.504  1.00  0.00    -0.128 A  
BRANCH  30  35
HETATM   35  O   UNL     4      -8.069  10.741  66.032  1.00  0.00    -0.156 OA 
BRANCH  35  36
HETATM   36  C   UNL     4      -8.921  11.648  65.433  1.00  0.00     0.090 C  
HETATM   37  C   UNL     4     -10.312  11.103  65.344  1.00  0.00    -0.271 C  
HETATM   38  O   UNL     4     -10.961  10.737  66.465  1.00  0.00    -0.192 OA 
HETATM   39  O   UNL     4     -10.882  11.037  64.266  1.00  0.00    -0.353 OA 
ENDBRANCH  35  36
ENDBRANCH  30  35
ENDBRANCH  26  29
ENDBRANCH  24  26
ENDBRANCH  23  24
ENDBRANCH   5  23
BRANCH   5  40
HETATM   40  O   UNL     4     -10.449   8.848  70.644  1.00  0.00    -0.199 OA 
BRANCH  40  41
HETATM   41  C   UNL     4     -10.196   8.678  72.045  1.00  0.00    -0.337 C  
BRANCH  41  42
HETATM   42  C   UNL     4      -8.768   8.174  72.343  1.00  0.00    -0.189 C  
BRANCH  42  43
HETATM   43  O   UNL     4      -8.777   7.136  73.305  1.00  0.00    -0.125 OA 
HETATM   44  C   UNL     4      -7.501   6.518  73.344  1.00  0.00    -0.085 C  
ENDBRANCH  42  43
ENDBRANCH  41  42
ENDBRANCH  40  41
ENDBRANCH   5  40
TORSDOF 17
ENDMDL
MODEL       66
REMARK 921   NORMALIZED FREE ENERGY PREDICTED BY IDOCK:   -4.80 KCAL/MOL
REMARK 922        TOTAL FREE ENERGY PREDICTED BY IDOCK:  -12.44 KCAL/MOL
REMARK 923 INTER-LIGAND FREE ENERGY PREDICTED BY IDOCK:  -10.11 KCAL/MOL
REMARK 924 INTRA-LIGAND FREE ENERGY PREDICTED BY IDOCK:   -2.34 KCAL/MOL
REMARK 927      BINDING AFFINITY PREDICTED BY RF-SCORE:    0.00 PKD
ROOT
HETATM    1 HG   UNL     2      -9.597   4.742  74.102  1.00  0.00    -0.115 Hg 
HETATM    2  C   UNL     3     -12.938  13.715  65.431  1.00  0.00    -0.331 C  
HETATM    3  C   UNL     3     -11.627  13.215  66.053  1.00  0.00    -0.353 C  
HETATM    4  C   UNL     4      -9.589   2.750  70.643  1.00  0.00    -0.174 C  
HETATM    5  C   UNL     4      -9.624   4.273  70.828  1.00  0.00    -0.186 C  
ENDROOT
BRANCH   3   6
HETATM    6  N   UNL     3     -10.406  13.603  65.296  1.00  0.00    -0.337 NA 
BRANCH   6   7
HETATM    7  C   UNL     3     -10.290  12.962  63.956  1.00  0.00    -0.322 C  
HETATM    8  C   UNL     3     -10.309  11.423  63.977  1.00  0.00    -0.418 C  
ENDBRANCH   6   7
BRANCH   6   9
HETATM    9  C   UNL     3     -10.276  15.077  65.160  1.00  0.00    -0.365 C  
BRANCH   9  10
HETATM   10  C   UNL     3      -9.741  15.778  66.405  1.00  0.00    -0.282 C  
BRANCH  10  11
HETATM   11  O   UNL     3     -10.745  16.041  67.308  1.00  0.00    -0.314 OA 
BRANCH  11  12
HETATM   12  C   UNL     3     -10.527  16.421  68.590  1.00  0.00    -0.293 C  
HETATM   13  O   UNL     3      -9.740  17.324  68.847  1.00  0.00    -0.275 OA 
BRANCH  12  14
HETATM   14  C   UNL     3     -11.334  15.792  69.651  1.00  0.00    -0.334 A  
HETATM   15  C   UNL     3     -12.790  14.602  71.741  1.00  0.00    -0.332 A  
HETATM   16  C   UNL     3     -12.754  14.000  70.476  1.00  0.00    -0.347 A  
HETATM   17  C   UNL     3     -12.030  14.589  69.434  1.00  0.00    -0.362 A  
HETATM   18  N   UNL     3     -13.524  14.009  72.804  1.00  0.00    -0.663 NA 
HETATM   19  C   UNL     3     -12.091  15.796  71.960  1.00  0.00    -0.562 A  
HETATM   20  C   UNL     3     -11.373  16.386  70.924  1.00  0.00    -0.215 A  
HETATM   21  H1  UNL     3     -13.550  14.447  73.725  1.00  0.00     0.000 HD 
HETATM   22  H2  UNL     3     -13.201  13.048  72.917  1.00  0.00     0.000 HD 
ENDBRANCH  12  14
ENDBRANCH  11  12
ENDBRANCH  10  11
ENDBRANCH   9  10
ENDBRANCH   6   9
ENDBRANCH   3   6
BRANCH   5  23
HETATM   23  C   UNL     4      -8.176   4.883  70.820  1.00  0.00    -0.094 C  
BRANCH  23  24
HETATM   24  N   UNL     4      -7.637   5.367  69.530  1.00  0.00    -0.069 NA 
HETATM   25  H   UNL     4      -7.400   4.681  68.815  1.00  0.00     0.000 HD 
BRANCH  24  26
HETATM   26  C   UNL     4      -7.448   6.643  69.262  1.00  0.00    -0.095 C  
HETATM   27  H   UNL     4      -6.626   8.346  69.945  1.00  0.00     0.000 HD 
HETATM   28  O   UNL     4      -6.762   7.426  70.138  1.00  0.00    -0.048 OA 
BRANCH  26  29
HETATM   29  C   UNL     4      -7.915   7.347  67.988  1.00  0.00    -0.119 A  
HETATM   30  C   UNL     4      -9.046   8.216  67.827  1.00  0.00    -0.135 A  
HETATM   31  C   UNL     4      -7.134   7.093  66.819  1.00  0.00    -0.078 A  
HETATM   32  C   UNL     4      -7.456   7.644  65.574  1.00  0.00    -0.077 A  
HETATM   33  C   UNL     4      -8.571   8.451  65.440  1.00  0.00    -0.193 A  
HETATM   34  C   UNL     4      -9.357   8.744  66.552  1.00  0.00    -0.260 A  
BRANCH  30  35
HETATM   35  O   UNL     4      -9.849   8.612  68.846  1.00  0.00    -0.170 OA 
BRANCH  35  36
HETATM   36  C   UNL     4      -9.629   9.724  69.635  1.00  0.00    -0.221 C  
HETATM   37  C   UNL     4     -10.592  10.820  69.302  1.00  0.00    -0.229 C  
HETATM   38  O   UNL     4     -11.916  10.603  69.407  1.00  0.00    -0.284 OA 
HETATM   39  O   UNL     4     -10.183  11.927  68.987  1.00  0.00    -0.128 OA 
ENDBRANCH  35  36
ENDBRANCH  30  35
ENDBRANCH  26  29
ENDBRANCH  24  26
ENDBRANCH  23  24
ENDBRANCH   5  23
BRANCH   5  40
HETATM   40  O   UNL     4     -10.398   4.868  69.773  1.00  0.00    -0.260 OA 
BRANCH  40  41
HETATM   41  C   UNL     4     -11.222   5.940  70.247  1.00  0.00    -0.247 C  
BRANCH  41  42
HETATM   42  C   UNL     4     -11.296   6.009  71.787  1.00  0.00    -0.265 C  
BRANCH  42  43
HETATM   43  O   UNL     4     -11.408   7.345  72.240  1.00  0.00    -0.256 OA 
HETATM   44  C   UNL     4     -10.180   7.750  72.822  1.00  0.00    -0.299 C  
ENDBRANCH  42  43
ENDBRANCH  41  42
ENDBRANCH  40  41
ENDBRANCH   5  40
TORSDOF 17
ENDMDL
MODEL       67
REMARK 921   NORMALIZED FREE ENERGY PREDICTED BY IDOCK:   -4.78 KCAL/MOL
REMARK 922        TOTAL FREE ENERGY PREDICTED BY IDOCK:  -12.39 KCAL/MOL
REMARK 923 INTER-LIGAND FREE ENERGY PREDICTED BY IDOCK:   -9.66 KCAL/MOL
REMARK 924 INTRA-LIGAND FREE ENERGY PREDICTED BY IDOCK:   -2.73 KCAL/MOL
REMARK 927      BINDING AFFINITY PREDICTED BY RF-SCORE:    0.00 PKD
ROOT
HETATM    1 HG   UNL     2      -8.537   4.423  70.057  1.00  0.00    -0.065 Hg 
HETATM    2  C   UNL     3      -6.231  17.126  69.625  1.00  0.00    -0.235 C  
HETATM    3  C   UNL     3      -7.056  16.126  68.804  1.00  0.00    -0.155 C  
HETATM    4  C   UNL     4     -11.367   5.969  72.411  1.00  0.00    -0.349 C  
HETATM    5  C   UNL     4     -10.472   6.731  71.424  1.00  0.00    -0.215 C  
ENDROOT
BRANCH   3   6
HETATM    6  N   UNL     3      -8.090  16.753  67.937  1.00  0.00    -0.182 NA 
BRANCH   6   7
HETATM    7  C   UNL     3      -8.368  16.005  66.680  1.00  0.00    -0.296 C  
HETATM    8  C   UNL     3      -9.679  16.396  65.976  1.00  0.00    -0.356 C  
ENDBRANCH   6   7
BRANCH   6   9
HETATM    9  C   UNL     3      -9.360  16.998  68.667  1.00  0.00    -0.270 C  
BRANCH   9  10
HETATM   10  C   UNL     3      -9.904  15.781  69.409  1.00  0.00    -0.286 C  
BRANCH  10  11
HETATM   11  O   UNL     3     -11.248  15.605  69.176  1.00  0.00    -0.271 OA 
BRANCH  11  12
HETATM   12  C   UNL     3     -11.791  14.449  68.723  1.00  0.00    -0.325 C  
HETATM   13  O   UNL     3     -11.896  14.240  67.521  1.00  0.00    -0.370 OA 
BRANCH  12  14
HETATM   14  C   UNL     3     -12.155  13.415  69.709  1.00  0.00    -0.374 A  
HETATM   15  C   UNL     3     -12.897  11.387  71.508  1.00  0.00    -0.403 A  
HETATM   16  C   UNL     3     -13.154  12.731  71.816  1.00  0.00    -0.455 A  
HETATM   17  C   UNL     3     -12.786  13.742  70.923  1.00  0.00    -0.341 A  
HETATM   18  N   UNL     3     -13.267  10.355  72.413  1.00  0.00    -0.531 NA 
HETATM   19  C   UNL     3     -12.275  11.061  70.297  1.00  0.00    -0.447 A  
HETATM   20  C   UNL     3     -11.905  12.065  69.408  1.00  0.00    -0.384 A  
HETATM   21  H1  UNL     3     -13.080   9.378  72.189  1.00  0.00     0.000 HD 
HETATM   22  H2  UNL     3     -14.262  10.451  72.617  1.00  0.00     0.000 HD 
ENDBRANCH  12  14
ENDBRANCH  11  12
ENDBRANCH  10  11
ENDBRANCH   9  10
ENDBRANCH   6   9
ENDBRANCH   3   6
BRANCH   5  23
HETATM   23  C   UNL     4     -11.155   6.864  70.016  1.00  0.00    -0.299 C  
BRANCH  23  24
HETATM   24  N   UNL     4     -11.137   8.189  69.360  1.00  0.00    -0.438 NA 
HETATM   25  H   UNL     4     -11.843   8.874  69.629  1.00  0.00     0.000 HD 
BRANCH  24  26
HETATM   26  C   UNL     4     -10.253   8.527  68.445  1.00  0.00    -0.203 C  
HETATM   27  H   UNL     4     -10.030   9.132  66.540  1.00  0.00     0.000 HD 
HETATM   28  O   UNL     4     -10.668   8.888  67.200  1.00  0.00    -0.265 OA 
BRANCH  26  29
HETATM   29  C   UNL     4      -8.741   8.589  68.669  1.00  0.00    -0.139 A  
HETATM   30  C   UNL     4      -7.820   7.494  68.768  1.00  0.00    -0.121 A  
HETATM   31  C   UNL     4      -8.191   9.901  68.810  1.00  0.00    -0.114 A  
HETATM   32  C   UNL     4      -6.829  10.114  69.049  1.00  0.00    -0.056 A  
HETATM   33  C   UNL     4      -5.969   9.038  69.174  1.00  0.00    -0.042 A  
HETATM   34  C   UNL     4      -6.452   7.740  69.028  1.00  0.00    -0.037 A  
BRANCH  30  35
HETATM   35  O   UNL     4      -8.166   6.194  68.592  1.00  0.00    -0.107 OA 
BRANCH  35  36
HETATM   36  C   UNL     4      -8.217   5.552  67.370  1.00  0.00    -0.101 C  
HETATM   37  C   UNL     4      -9.551   4.910  67.153  1.00  0.00    -0.159 C  
HETATM   38  O   UNL     4     -10.667   5.663  67.172  1.00  0.00    -0.264 OA 
HETATM   39  O   UNL     4      -9.631   3.717  66.907  1.00  0.00    -0.205 OA 
ENDBRANCH  35  36
ENDBRANCH  30  35
ENDBRANCH  26  29
ENDBRANCH  24  26
ENDBRANCH  23  24
ENDBRANCH   5  23
BRANCH   5  40
HETATM   40  O   UNL     4     -10.193   8.042  71.944  1.00  0.00    -0.191 OA 
BRANCH  40  41
HETATM   41  C   UNL     4      -8.806   8.212  72.263  1.00  0.00    -0.186 C  
BRANCH  41  42
HETATM   42  C   UNL     4      -8.480   7.877  73.734  1.00  0.00    -0.252 C  
BRANCH  42  43
HETATM   43  O   UNL     4      -7.882   6.600  73.853  1.00  0.00    -0.095 OA 
HETATM   44  C   UNL     4      -7.024   6.377  72.746  1.00  0.00    -0.074 C  
ENDBRANCH  42  43
ENDBRANCH  41  42
ENDBRANCH  40  41
ENDBRANCH   5  40
TORSDOF 17
ENDMDL
MODEL       68
REMARK 921   NORMALIZED FREE ENERGY PREDICTED BY IDOCK:   -4.75 KCAL/MOL
REMARK 922        TOTAL FREE ENERGY PREDICTED BY IDOCK:  -12.34 KCAL/MOL
REMARK 923 INTER-LIGAND FREE ENERGY PREDICTED BY IDOCK:   -9.61 KCAL/MOL
REMARK 924 INTRA-LIGAND FREE ENERGY PREDICTED BY IDOCK:   -2.73 KCAL/MOL
REMARK 927      BINDING AFFINITY PREDICTED BY RF-SCORE:    0.00 PKD
ROOT
HETATM    1 HG   UNL     2      -9.527  15.090  70.828  1.00  0.00    -0.445 Hg 
HETATM    2  C   UNL     3      -7.079   2.576  68.757  1.00  0.00    -0.044 C  
HETATM    3  C   UNL     3      -7.434   3.790  67.887  1.00  0.00    -0.066 C  
HETATM    4  C   UNL     4      -5.564  14.976  70.362  1.00  0.00    -0.138 C  
HETATM    5  C   UNL     4      -6.564  13.865  70.016  1.00  0.00     0.010 C  
ENDROOT
BRANCH   3   6
HETATM    6  N   UNL     3      -7.141   3.610  66.440  1.00  0.00    -0.062 NA 
BRANCH   6   7
HETATM    7  C   UNL     3      -7.691   2.353  65.859  1.00  0.00    -0.076 C  
HETATM    8  C   UNL     3      -9.188   2.409  65.507  1.00  0.00    -0.062 C  
ENDBRANCH   6   7
BRANCH   6   9
HETATM    9  C   UNL     3      -7.585   4.774  65.630  1.00  0.00    -0.086 C  
BRANCH   9  10
HETATM   10  C   UNL     3      -7.835   6.044  66.438  1.00  0.00    -0.104 C  
BRANCH  10  11
HETATM   11  O   UNL     3      -8.871   6.781  65.913  1.00  0.00    -0.156 OA 
BRANCH  11  12
HETATM   12  C   UNL     3      -8.727   8.023  65.393  1.00  0.00    -0.068 C  
HETATM   13  O   UNL     3      -7.971   8.220  64.450  1.00  0.00    -0.132 OA 
BRANCH  12  14
HETATM   14  C   UNL     3      -9.577   9.104  65.923  1.00  0.00    -0.343 A  
HETATM   15  C   UNL     3     -11.127  11.239  66.895  1.00  0.00    -0.275 A  
HETATM   16  C   UNL     3     -10.815  10.157  67.730  1.00  0.00    -0.346 A  
HETATM   17  C   UNL     3     -10.044   9.094  67.250  1.00  0.00    -0.295 A  
HETATM   18  N   UNL     3     -11.912  12.322  67.377  1.00  0.00    -0.544 NA 
HETATM   19  C   UNL     3     -10.657  11.254  65.577  1.00  0.00    -0.306 A  
HETATM   20  C   UNL     3      -9.892  10.196  65.094  1.00  0.00    -0.394 A  
HETATM   21  H1  UNL     3     -12.138  13.109  66.769  1.00  0.00     0.000 HD 
HETATM   22  H2  UNL     3     -11.467  12.687  68.220  1.00  0.00     0.000 HD 
ENDBRANCH  12  14
ENDBRANCH  11  12
ENDBRANCH  10  11
ENDBRANCH   9  10
ENDBRANCH   6   9
ENDBRANCH   3   6
BRANCH   5  23
HETATM   23  C   UNL     4      -7.034  13.963  68.520  1.00  0.00    -0.101 C  
BRANCH  23  24
HETATM   24  N   UNL     4      -7.604  15.247  68.057  1.00  0.00    -0.118 NA 
HETATM   25  H   UNL     4      -6.965  16.001  67.809  1.00  0.00     0.000 HD 
BRANCH  24  26
HETATM   26  C   UNL     4      -8.899  15.462  67.950  1.00  0.00    -0.168 C  
HETATM   27  H   UNL     4     -10.715  14.694  68.341  1.00  0.00     0.000 HD 
HETATM   28  O   UNL     4      -9.781  14.539  68.418  1.00  0.00    -0.211 OA 
BRANCH  26  29
HETATM   29  C   UNL     4      -9.530  16.722  67.356  1.00  0.00    -0.236 A  
HETATM   30  C   UNL     4     -10.291  16.839  66.145  1.00  0.00    -0.330 A  
HETATM   31  C   UNL     4      -9.320  17.927  68.096  1.00  0.00    -0.286 A  
HETATM   32  C   UNL     4      -9.812  19.162  67.662  1.00  0.00    -0.412 A  
HETATM   33  C   UNL     4     -10.513  19.251  66.473  1.00  0.00    -0.552 A  
HETATM   34  C   UNL     4     -10.759  18.104  65.722  1.00  0.00    -0.102 A  
BRANCH  30  35
HETATM   35  O   UNL     4     -10.636  15.785  65.363  1.00  0.00    -0.372 OA 
BRANCH  35  36
HETATM   36  C   UNL     4     -11.570  15.832  64.347  1.00  0.00    -0.240 C  
HETATM   37  C   UNL     4     -12.367  14.568  64.287  1.00  0.00    -0.369 C  
HETATM   38  O   UNL     4     -13.075  14.172  65.362  1.00  0.00    -0.743 OA 
HETATM   39  O   UNL     4     -12.423  13.919  63.254  1.00  0.00    -0.817 OA 
ENDBRANCH  35  36
ENDBRANCH  30  35
ENDBRANCH  26  29
ENDBRANCH  24  26
ENDBRANCH  23  24
ENDBRANCH   5  23
BRANCH   5  40
HETATM   40  O   UNL     4      -5.954  12.582  70.240  1.00  0.00    -0.160 OA 
BRANCH  40  41
HETATM   41  C   UNL     4      -6.578  11.546  69.471  1.00  0.00    -0.120 C  
BRANCH  41  42
HETATM   42  C   UNL     4      -6.413  10.146  70.099  1.00  0.00    -0.118 C  
BRANCH  42  43
HETATM   43  O   UNL     4      -7.572   9.355  69.908  1.00  0.00    -0.082 OA 
HETATM   44  C   UNL     4      -8.141   9.040  71.168  1.00  0.00    -0.139 C  
ENDBRANCH  42  43
ENDBRANCH  41  42
ENDBRANCH  40  41
ENDBRANCH   5  40
TORSDOF 17
ENDMDL
MODEL       69
REMARK 921   NORMALIZED FREE ENERGY PREDICTED BY IDOCK:   -4.61 KCAL/MOL
REMARK 922        TOTAL FREE ENERGY PREDICTED BY IDOCK:  -12.05 KCAL/MOL
REMARK 923 INTER-LIGAND FREE ENERGY PREDICTED BY IDOCK:  -10.01 KCAL/MOL
REMARK 924 INTRA-LIGAND FREE ENERGY PREDICTED BY IDOCK:   -2.04 KCAL/MOL
REMARK 927      BINDING AFFINITY PREDICTED BY RF-SCORE:    0.00 PKD
ROOT
HETATM    1 HG   UNL     2     -10.492   1.878  68.020  1.00  0.00    -0.302 Hg 
HETATM    2  C   UNL     3     -10.178  14.558  65.572  1.00  0.00    -0.394 C  
HETATM    3  C   UNL     3     -10.968  13.634  66.509  1.00  0.00    -0.295 C  
HETATM    4  C   UNL     4      -7.687   3.243  70.512  1.00  0.00    -0.043 C  
HETATM    5  C   UNL     4      -8.713   4.078  69.732  1.00  0.00    -0.075 C  
ENDROOT
BRANCH   3   6
HETATM    6  N   UNL     3     -11.646  14.338  67.631  1.00  0.00    -0.348 NA 
BRANCH   6   7
HETATM    7  C   UNL     3     -11.022  14.104  68.963  1.00  0.00    -0.261 C  
HETATM    8  C   UNL     3     -11.991  13.600  70.048  1.00  0.00    -0.413 C  
ENDBRANCH   6   7
BRANCH   6   9
HETATM    9  C   UNL     3     -11.769  15.797  67.384  1.00  0.00     0.213 C  
BRANCH   9  10
HETATM   10  C   UNL     3     -10.926  16.666  68.313  1.00  0.00    -0.341 C  
BRANCH  10  11
HETATM   11  O   UNL     3     -10.771  17.938  67.813  1.00  0.00    -0.400 OA 
BRANCH  11  12
HETATM   12  C   UNL     3      -9.725  18.745  68.112  1.00  0.00    -0.341 C  
HETATM   13  O   UNL     3      -9.692  19.355  69.174  1.00  0.00    -0.406 OA 
BRANCH  12  14
HETATM   14  C   UNL     3      -8.587  18.788  67.176  1.00  0.00    -0.287 A  
HETATM   15  C   UNL     3      -6.361  18.804  65.459  1.00  0.00    -0.278 A  
HETATM   16  C   UNL     3      -6.983  20.008  65.817  1.00  0.00    -0.315 A  
HETATM   17  C   UNL     3      -8.090  20.004  66.672  1.00  0.00    -0.351 A  
HETATM   18  N   UNL     3      -5.236  18.801  64.589  1.00  0.00    -0.186 NA 
HETATM   19  C   UNL     3      -6.850  17.594  65.966  1.00  0.00    -0.308 A  
HETATM   20  C   UNL     3      -7.954  17.586  66.814  1.00  0.00    -0.273 A  
HETATM   21  H1  UNL     3      -4.784  17.926  64.329  1.00  0.00     0.000 HD 
HETATM   22  H2  UNL     3      -4.528  19.422  64.983  1.00  0.00     0.000 HD 
ENDBRANCH  12  14
ENDBRANCH  11  12
ENDBRANCH  10  11
ENDBRANCH   9  10
ENDBRANCH   6   9
ENDBRANCH   3   6
BRANCH   5  23
HETATM   23  C   UNL     4     -10.009   4.331  70.582  1.00  0.00    -0.148 C  
BRANCH  23  24
HETATM   24  N   UNL     4     -10.688   5.637  70.438  1.00  0.00    -0.292 NA 
HETATM   25  H   UNL     4     -10.666   6.098  69.528  1.00  0.00     0.000 HD 
BRANCH  24  26
HETATM   26  C   UNL     4     -11.320   6.233  71.427  1.00  0.00    -0.296 C  
HETATM   27  H   UNL     4     -11.972   6.006  73.315  1.00  0.00     0.000 HD 
HETATM   28  O   UNL     4     -11.516   5.575  72.601  1.00  0.00    -0.296 OA 
BRANCH  26  29
HETATM   29  C   UNL     4     -11.845   7.669  71.390  1.00  0.00    -0.320 A  
HETATM   30  C   UNL     4     -11.298   8.788  70.678  1.00  0.00    -0.254 A  
HETATM   31  C   UNL     4     -13.014   7.920  72.175  1.00  0.00    -0.200 A  
HETATM   32  C   UNL     4     -13.591   9.191  72.262  1.00  0.00    -0.548 A  
HETATM   33  C   UNL     4     -13.024  10.260  71.592  1.00  0.00    -0.570 A  
HETATM   34  C   UNL     4     -11.894  10.065  70.802  1.00  0.00    -0.435 A  
BRANCH  30  35
HETATM   35  O   UNL     4     -10.235   8.707  69.839  1.00  0.00    -0.193 OA 
BRANCH  35  36
HETATM   36  C   UNL     4      -9.971   9.594  68.815  1.00  0.00    -0.173 C  
HETATM   37  C   UNL     4      -8.576  10.125  68.907  1.00  0.00    -0.141 C  
HETATM   38  O   UNL     4      -7.533   9.275  68.878  1.00  0.00    -0.073 OA 
HETATM   39  O   UNL     4      -8.374  11.328  68.955  1.00  0.00    -0.114 OA 
ENDBRANCH  35  36
ENDBRANCH  30  35
ENDBRANCH  26  29
ENDBRANCH  24  26
ENDBRANCH  23  24
ENDBRANCH   5  23
BRANCH   5  40
HETATM   40  O   UNL     4      -8.127   5.340  69.369  1.00  0.00    -0.089 OA 
BRANCH  40  41
HETATM   41  C   UNL     4      -7.817   5.409  67.972  1.00  0.00    -0.092 C  
BRANCH  41  42
HETATM   42  C   UNL     4      -8.716   6.400  67.202  1.00  0.00    -0.110 C  
BRANCH  42  43
HETATM   43  O   UNL     4      -8.126   6.784  65.974  1.00  0.00    -0.107 OA 
HETATM   44  C   UNL     4      -8.529   8.105  65.651  1.00  0.00    -0.156 C  
ENDBRANCH  42  43
ENDBRANCH  41  42
ENDBRANCH  40  41
ENDBRANCH   5  40
TORSDOF 17
ENDMDL
MODEL       70
REMARK 921   NORMALIZED FREE ENERGY PREDICTED BY IDOCK:   -4.59 KCAL/MOL
REMARK 922        TOTAL FREE ENERGY PREDICTED BY IDOCK:  -12.01 KCAL/MOL
REMARK 923 INTER-LIGAND FREE ENERGY PREDICTED BY IDOCK:  -10.21 KCAL/MOL
REMARK 924 INTRA-LIGAND FREE ENERGY PREDICTED BY IDOCK:   -1.80 KCAL/MOL
REMARK 927      BINDING AFFINITY PREDICTED BY RF-SCORE:    0.00 PKD
ROOT
HETATM    1 HG   UNL     2      -6.884   3.176  66.048  1.00  0.00    -0.041 Hg 
HETATM    2  C   UNL     3      -8.137  15.636  69.216  1.00  0.00    -0.244 C  
HETATM    3  C   UNL     3      -9.054  14.545  68.647  1.00  0.00    -0.187 C  
HETATM    4  C   UNL     4      -7.898   3.063  69.908  1.00  0.00    -0.048 C  
HETATM    5  C   UNL     4      -7.996   4.270  68.965  1.00  0.00    -0.068 C  
ENDROOT
BRANCH   3   6
HETATM    6  N   UNL     3     -10.506  14.850  68.755  1.00  0.00    -0.235 NA 
BRANCH   6   7
HETATM    7  C   UNL     3     -11.230  14.020  69.757  1.00  0.00    -0.119 C  
HETATM    8  C   UNL     3     -12.247  14.793  70.617  1.00  0.00    -0.385 C  
ENDBRANCH   6   7
BRANCH   6   9
HETATM    9  C   UNL     3     -10.757  16.290  69.019  1.00  0.00    -0.300 C  
BRANCH   9  10
HETATM   10  C   UNL     3     -10.549  17.197  67.810  1.00  0.00    -0.360 C  
BRANCH  10  11
HETATM   11  O   UNL     3     -11.033  16.623  66.657  1.00  0.00    -0.092 OA 
BRANCH  11  12
HETATM   12  C   UNL     3     -10.250  16.052  65.711  1.00  0.00    -0.377 C  
HETATM   13  O   UNL     3      -9.125  16.483  65.490  1.00  0.00    -0.404 OA 
BRANCH  12  14
HETATM   14  C   UNL     3     -10.746  14.842  65.032  1.00  0.00    -0.452 A  
HETATM   15  C   UNL     3     -11.597  12.524  63.686  1.00  0.00    -0.504 A  
HETATM   16  C   UNL     3     -12.409  13.668  63.703  1.00  0.00    -0.328 A  
HETATM   17  C   UNL     3     -11.988  14.822  64.371  1.00  0.00    -0.433 A  
HETATM   18  N   UNL     3     -12.019  11.348  63.009  1.00  0.00    -0.867 NA 
HETATM   19  C   UNL     3     -10.358  12.546  64.337  1.00  0.00    -0.378 A  
HETATM   20  C   UNL     3      -9.938  13.692  65.006  1.00  0.00    -0.205 A  
HETATM   21  H1  UNL     3     -11.429  10.516  62.997  1.00  0.00     0.000 HD 
HETATM   22  H2  UNL     3     -12.241  11.596  62.045  1.00  0.00     0.000 HD 
ENDBRANCH  12  14
ENDBRANCH  11  12
ENDBRANCH  10  11
ENDBRANCH   9  10
ENDBRANCH   6   9
ENDBRANCH   3   6
BRANCH   5  23
HETATM   23  C   UNL     4      -9.412   4.357  68.291  1.00  0.00    -0.153 C  
BRANCH  23  24
HETATM   24  N   UNL     4     -10.507   4.986  69.060  1.00  0.00    -0.088 NA 
HETATM   25  H   UNL     4     -10.895   4.480  69.856  1.00  0.00     0.000 HD 
BRANCH  24  26
HETATM   26  C   UNL     4     -11.006   6.169  68.766  1.00  0.00    -0.348 C  
HETATM   27  H   UNL     4     -11.797   7.282  67.291  1.00  0.00     0.000 HD 
HETATM   28  O   UNL     4     -11.438   6.428  67.503  1.00  0.00    -0.146 OA 
BRANCH  26  29
HETATM   29  C   UNL     4     -11.186   7.314  69.763  1.00  0.00    -0.151 A  
HETATM   30  C   UNL     4     -10.428   8.529  69.855  1.00  0.00    -0.219 A  
HETATM   31  C   UNL     4     -12.230   7.138  70.725  1.00  0.00    -0.308 A  
HETATM   32  C   UNL     4     -12.494   8.088  71.717  1.00  0.00    -0.355 A  
HETATM   33  C   UNL     4     -11.725   9.235  71.804  1.00  0.00    -0.456 A  
HETATM   34  C   UNL     4     -10.707   9.461  70.881  1.00  0.00    -0.393 A  
BRANCH  30  35
HETATM   35  O   UNL     4      -9.450   8.880  68.983  1.00  0.00    -0.154 OA 
BRANCH  35  36
HETATM   36  C   UNL     4      -9.342  10.116  68.377  1.00  0.00    -0.136 C  
HETATM   37  C   UNL     4      -9.085   9.978  66.910  1.00  0.00    -0.139 C  
HETATM   38  O   UNL     4      -9.963   9.313  66.136  1.00  0.00    -0.279 OA 
HETATM   39  O   UNL     4      -8.112  10.510  66.400  1.00  0.00    -0.124 OA 
ENDBRANCH  35  36
ENDBRANCH  30  35
ENDBRANCH  26  29
ENDBRANCH  24  26
ENDBRANCH  23  24
ENDBRANCH   5  23
BRANCH   5  40
HETATM   40  O   UNL     4      -7.745   5.478  69.703  1.00  0.00    -0.076 OA 
BRANCH  40  41
HETATM   41  C   UNL     4      -7.616   5.233  71.110  1.00  0.00    -0.096 C  
BRANCH  41  42
HETATM   42  C   UNL     4      -8.833   5.722  71.922  1.00  0.00    -0.139 C  
BRANCH  42  43
HETATM   43  O   UNL     4      -9.820   4.712  72.031  1.00  0.00    -0.164 OA 
HETATM   44  C   UNL     4     -10.877   5.174  72.856  1.00  0.00    -0.268 C  
ENDBRANCH  42  43
ENDBRANCH  41  42
ENDBRANCH  40  41
ENDBRANCH   5  40
TORSDOF 17
ENDMDL
MODEL       71
REMARK 921   NORMALIZED FREE ENERGY PREDICTED BY IDOCK:   -4.58 KCAL/MOL
REMARK 922        TOTAL FREE ENERGY PREDICTED BY IDOCK:  -11.99 KCAL/MOL
REMARK 923 INTER-LIGAND FREE ENERGY PREDICTED BY IDOCK:   -8.77 KCAL/MOL
REMARK 924 INTRA-LIGAND FREE ENERGY PREDICTED BY IDOCK:   -3.22 KCAL/MOL
REMARK 927      BINDING AFFINITY PREDICTED BY RF-SCORE:    0.00 PKD
ROOT
HETATM    1 HG   UNL     2     -11.814  19.235  67.633  1.00  0.00    -0.301 Hg 
HETATM    2  C   UNL     3      -8.247   8.230  73.380  1.00  0.00    -0.242 C  
HETATM    3  C   UNL     3      -8.932   8.615  72.062  1.00  0.00    -0.216 C  
HETATM    4  C   UNL     4      -8.057  18.706  66.392  1.00  0.00    -0.300 C  
HETATM    5  C   UNL     4      -8.954  17.668  67.080  1.00  0.00    -0.244 C  
ENDROOT
BRANCH   3   6
HETATM    6  N   UNL     3      -8.929   7.538  71.036  1.00  0.00    -0.147 NA 
BRANCH   6   7
HETATM    7  C   UNL     3      -8.576   6.191  71.566  1.00  0.00    -0.131 C  
HETATM    8  C   UNL     3      -7.455   5.471  70.795  1.00  0.00    -0.088 C  
ENDBRANCH   6   7
BRANCH   6   9
HETATM    9  C   UNL     3     -10.216   7.464  70.297  1.00  0.00    -0.200 C  
BRANCH   9  10
HETATM   10  C   UNL     3     -10.226   8.226  68.975  1.00  0.00    -0.217 C  
BRANCH  10  11
HETATM   11  O   UNL     3      -9.404   7.635  68.044  1.00  0.00    -0.140 OA 
BRANCH  11  12
HETATM   12  C   UNL     3      -8.475   8.306  67.322  1.00  0.00    -0.124 C  
HETATM   13  O   UNL     3      -7.284   8.202  67.590  1.00  0.00    -0.087 OA 
BRANCH  12  14
HETATM   14  C   UNL     3      -8.926   9.077  66.149  1.00  0.00    -0.216 A  
HETATM   15  C   UNL     3      -9.884  10.501  63.923  1.00  0.00    -0.310 A  
HETATM   16  C   UNL     3      -8.669   9.806  63.845  1.00  0.00    -0.236 A  
HETATM   17  C   UNL     3      -8.189   9.096  64.951  1.00  0.00    -0.154 A  
HETATM   18  N   UNL     3     -10.376  11.225  62.803  1.00  0.00    -0.698 NA 
HETATM   19  C   UNL     3     -10.620  10.476  65.113  1.00  0.00    -0.121 A  
HETATM   20  C   UNL     3     -10.145   9.773  66.216  1.00  0.00    -0.313 A  
HETATM   21  H1  UNL     3     -11.260  11.731  62.860  1.00  0.00     0.000 HD 
HETATM   22  H2  UNL     3     -10.422  10.589  62.007  1.00  0.00     0.000 HD 
ENDBRANCH  12  14
ENDBRANCH  11  12
ENDBRANCH  10  11
ENDBRANCH   9  10
ENDBRANCH   6   9
ENDBRANCH   3   6
BRANCH   5  23
HETATM   23  C   UNL     4      -9.736  16.801  66.029  1.00  0.00    -0.259 C  
BRANCH  23  24
HETATM   24  N   UNL     4      -9.183  15.475  65.678  1.00  0.00    -0.338 NA 
HETATM   25  H   UNL     4      -8.196  15.411  65.432  1.00  0.00     0.000 HD 
BRANCH  24  26
HETATM   26  C   UNL     4      -9.905  14.374  65.667  1.00  0.00    -0.291 C  
HETATM   27  H   UNL     4     -10.887  13.082  64.479  1.00  0.00     0.000 HD 
HETATM   28  O   UNL     4     -10.366  13.877  64.487  1.00  0.00    -0.436 OA 
BRANCH  26  29
HETATM   29  C   UNL     4     -10.258  13.547  66.903  1.00  0.00    -0.256 A  
HETATM   30  C   UNL     4      -9.359  12.940  67.842  1.00  0.00    -0.208 A  
HETATM   31  C   UNL     4     -11.655  13.348  67.136  1.00  0.00    -0.399 A  
HETATM   32  C   UNL     4     -12.128  12.589  68.212  1.00  0.00    -0.123 A  
HETATM   33  C   UNL     4     -11.239  11.986  69.082  1.00  0.00    -0.305 A  
HETATM   34  C   UNL     4      -9.868  12.162  68.909  1.00  0.00     0.068 A  
BRANCH  30  35
HETATM   35  O   UNL     4      -8.011  13.086  67.804  1.00  0.00    -0.136 OA 
BRANCH  35  36
HETATM   36  C   UNL     4      -7.103  12.098  68.130  1.00  0.00    -0.088 C  
HETATM   37  C   UNL     4      -5.957  12.080  67.169  1.00  0.00    -0.153 C  
HETATM   38  O   UNL     4      -5.198  13.180  67.010  1.00  0.00    -0.300 OA 
HETATM   39  O   UNL     4      -5.672  11.057  66.565  1.00  0.00    -0.088 OA 
ENDBRANCH  35  36
ENDBRANCH  30  35
ENDBRANCH  26  29
ENDBRANCH  24  26
ENDBRANCH  23  24
ENDBRANCH   5  23
BRANCH   5  40
HETATM   40  O   UNL     4      -8.149  16.808  67.903  1.00  0.00    -0.179 OA 
BRANCH  40  41
HETATM   41  C   UNL     4      -6.842  17.350  68.133  1.00  0.00    -0.184 C  
BRANCH  41  42
HETATM   42  C   UNL     4      -6.343  17.131  69.577  1.00  0.00    -0.230 C  
BRANCH  42  43
HETATM   43  O   UNL     4      -6.151  18.361  70.250  1.00  0.00    -0.149 OA 
HETATM   44  C   UNL     4      -5.725  19.344  69.321  1.00  0.00    -0.234 C  
ENDBRANCH  42  43
ENDBRANCH  41  42
ENDBRANCH  40  41
ENDBRANCH   5  40
TORSDOF 17
ENDMDL
MODEL       72
REMARK 921   NORMALIZED FREE ENERGY PREDICTED BY IDOCK:   -4.56 KCAL/MOL
REMARK 922        TOTAL FREE ENERGY PREDICTED BY IDOCK:  -11.96 KCAL/MOL
REMARK 923 INTER-LIGAND FREE ENERGY PREDICTED BY IDOCK:   -9.58 KCAL/MOL
REMARK 924 INTRA-LIGAND FREE ENERGY PREDICTED BY IDOCK:   -2.38 KCAL/MOL
REMARK 927      BINDING AFFINITY PREDICTED BY RF-SCORE:    0.00 PKD
ROOT
HETATM    1 HG   UNL     2      -8.706  17.247  67.150  1.00  0.00    -0.194 Hg 
HETATM    2  C   UNL     3      -5.951   5.237  71.031  1.00  0.00    -0.021 C  
HETATM    3  C   UNL     3      -6.916   6.346  71.474  1.00  0.00    -0.076 C  
HETATM    4  C   UNL     4     -11.144  14.971  64.956  1.00  0.00    -0.421 C  
HETATM    5  C   UNL     4     -10.352  14.541  66.198  1.00  0.00    -0.297 C  
ENDROOT
BRANCH   3   6
HETATM    6  N   UNL     3      -8.025   5.877  72.347  1.00  0.00    -0.102 NA 
BRANCH   6   7
HETATM    7  C   UNL     3      -8.100   6.571  73.663  1.00  0.00    -0.103 C  
HETATM    8  C   UNL     3      -9.148   7.696  73.737  1.00  0.00    -0.332 C  
ENDBRANCH   6   7
BRANCH   6   9
HETATM    9  C   UNL     3      -9.343   5.949  71.666  1.00  0.00    -0.149 C  
BRANCH   9  10
HETATM   10  C   UNL     3      -9.973   4.591  71.370  1.00  0.00    -0.189 C  
BRANCH  10  11
HETATM   11  O   UNL     3     -10.351   4.485  70.052  1.00  0.00    -0.144 OA 
BRANCH  11  12
HETATM   12  C   UNL     3     -10.321   5.515  69.172  1.00  0.00    -0.248 C  
HETATM   13  O   UNL     3     -11.292   6.248  69.038  1.00  0.00    -0.390 OA 
BRANCH  12  14
HETATM   14  C   UNL     3      -9.058   5.788  68.462  1.00  0.00    -0.116 A  
HETATM   15  C   UNL     3      -6.702   6.386  67.049  1.00  0.00    -0.060 A  
HETATM   16  C   UNL     3      -7.118   5.055  67.195  1.00  0.00    -0.069 A  
HETATM   17  C   UNL     3      -8.289   4.754  67.898  1.00  0.00    -0.103 A  
HETATM   18  N   UNL     3      -5.512   6.698  66.338  1.00  0.00    -0.017 NA 
HETATM   19  C   UNL     3      -7.471   7.416  67.604  1.00  0.00    -0.097 A  
HETATM   20  C   UNL     3      -8.635   7.120  68.306  1.00  0.00    -0.122 A  
HETATM   21  H1  UNL     3      -5.210   7.666  66.231  1.00  0.00     0.000 HD 
HETATM   22  H2  UNL     3      -5.576   6.280  65.409  1.00  0.00     0.000 HD 
ENDBRANCH  12  14
ENDBRANCH  11  12
ENDBRANCH  10  11
ENDBRANCH   9  10
ENDBRANCH   6   9
ENDBRANCH   3   6
BRANCH   5  23
HETATM   23  C   UNL     4     -11.205  14.708  67.507  1.00  0.00    -0.333 C  
BRANCH  23  24
HETATM   24  N   UNL     4     -10.482  14.883  68.786  1.00  0.00    -0.235 NA 
HETATM   25  H   UNL     4      -9.493  14.637  68.822  1.00  0.00     0.000 HD 
BRANCH  24  26
HETATM   26  C   UNL     4     -11.055  15.341  69.879  1.00  0.00    -0.289 C  
HETATM   27  H   UNL     4     -11.220  16.942  71.083  1.00  0.00     0.000 HD 
HETATM   28  O   UNL     4     -10.806  16.612  70.294  1.00  0.00    -0.269 OA 
BRANCH  26  29
HETATM   29  C   UNL     4     -12.044  14.556  70.743  1.00  0.00    -0.398 A  
HETATM   30  C   UNL     4     -12.274  13.140  70.753  1.00  0.00    -0.290 A  
HETATM   31  C   UNL     4     -12.841  15.339  71.636  1.00  0.00    -0.469 A  
HETATM   32  C   UNL     4     -13.808  14.763  72.467  1.00  0.00    -0.561 A  
HETATM   33  C   UNL     4     -14.033  13.400  72.431  1.00  0.00    -0.605 A  
HETATM   34  C   UNL     4     -13.272  12.591  71.590  1.00  0.00    -0.381 A  
BRANCH  30  35
HETATM   35  O   UNL     4     -11.560  12.252  70.017  1.00  0.00    -0.260 OA 
BRANCH  35  36
HETATM   36  C   UNL     4     -12.107  11.218  69.283  1.00  0.00    -0.303 C  
HETATM   37  C   UNL     4     -11.123  10.106  69.100  1.00  0.00    -0.212 C  
HETATM   38  O   UNL     4     -10.594   9.496  70.178  1.00  0.00    -0.217 OA 
HETATM   39  O   UNL     4     -10.835   9.712  67.981  1.00  0.00    -0.242 OA 
ENDBRANCH  35  36
ENDBRANCH  30  35
ENDBRANCH  26  29
ENDBRANCH  24  26
ENDBRANCH  23  24
ENDBRANCH   5  23
BRANCH   5  40
HETATM   40  O   UNL     4      -9.955  13.166  66.061  1.00  0.00    -0.278 OA 
BRANCH  40  41
HETATM   41  C   UNL     4     -10.412  12.593  64.830  1.00  0.00    -0.320 C  
BRANCH  41  42
HETATM   42  C   UNL     4     -10.366  11.050  64.828  1.00  0.00    -0.324 C  
BRANCH  42  43
HETATM   43  O   UNL     4      -9.100  10.571  65.243  1.00  0.00    -0.172 OA 
HETATM   44  C   UNL     4      -9.032   9.171  65.028  1.00  0.00    -0.171 C  
ENDBRANCH  42  43
ENDBRANCH  41  42
ENDBRANCH  40  41
ENDBRANCH   5  40
TORSDOF 17
ENDMDL
MODEL       73
REMARK 921   NORMALIZED FREE ENERGY PREDICTED BY IDOCK:   -4.52 KCAL/MOL
REMARK 922        TOTAL FREE ENERGY PREDICTED BY IDOCK:  -11.88 KCAL/MOL
REMARK 923 INTER-LIGAND FREE ENERGY PREDICTED BY IDOCK:   -9.60 KCAL/MOL
REMARK 924 INTRA-LIGAND FREE ENERGY PREDICTED BY IDOCK:   -2.28 KCAL/MOL
REMARK 927      BINDING AFFINITY PREDICTED BY RF-SCORE:    0.00 PKD
ROOT
HETATM    1 HG   UNL     2      -7.481  18.947  68.581  1.00  0.00    -0.240 Hg 
HETATM    2  C   UNL     3      -7.303   6.564  64.906  1.00  0.00    -0.076 C  
HETATM    3  C   UNL     3      -7.993   7.378  66.009  1.00  0.00    -0.115 C  
HETATM    4  C   UNL     4     -10.409  18.731  65.876  1.00  0.00    -0.385 C  
HETATM    5  C   UNL     4      -9.698  17.555  66.560  1.00  0.00    -0.295 C  
ENDROOT
BRANCH   3   6
HETATM    6  N   UNL     3      -9.155   6.693  66.636  1.00  0.00    -0.140 NA 
BRANCH   6   7
HETATM    7  C   UNL     3      -9.092   5.207  66.576  1.00  0.00    -0.127 C  
HETATM    8  C   UNL     3     -10.293   4.541  65.879  1.00  0.00    -0.289 C  
ENDBRANCH   6   7
BRANCH   6   9
HETATM    9  C   UNL     3      -9.373   7.130  68.039  1.00  0.00    -0.129 C  
BRANCH   9  10
HETATM   10  C   UNL     3     -10.808   6.974  68.532  1.00  0.00    -0.138 C  
BRANCH  10  11
HETATM   11  O   UNL     3     -11.025   7.681  69.691  1.00  0.00    -0.226 OA 
BRANCH  11  12
HETATM   12  C   UNL     3     -10.301   7.515  70.824  1.00  0.00    -0.203 C  
HETATM   13  O   UNL     3      -9.603   8.424  71.256  1.00  0.00    -0.160 OA 
BRANCH  12  14
HETATM   14  C   UNL     3     -10.455   6.255  71.572  1.00  0.00    -0.266 A  
HETATM   15  C   UNL     3     -10.771   3.909  73.090  1.00  0.00    -0.181 A  
HETATM   16  C   UNL     3      -9.647   4.070  72.266  1.00  0.00    -0.203 A  
HETATM   17  C   UNL     3      -9.487   5.236  71.510  1.00  0.00    -0.191 A  
HETATM   18  N   UNL     3     -10.940   2.726  73.859  1.00  0.00    -0.197 NA 
HETATM   19  C   UNL     3     -11.730   4.925  73.157  1.00  0.00    -0.221 A  
HETATM   20  C   UNL     3     -11.576   6.085  72.404  1.00  0.00    -0.349 A  
HETATM   21  H1  UNL     3     -11.757   2.609  74.458  1.00  0.00     0.000 HD 
HETATM   22  H2  UNL     3     -10.104   2.594  74.430  1.00  0.00     0.000 HD 
ENDBRANCH  12  14
ENDBRANCH  11  12
ENDBRANCH  10  11
ENDBRANCH   9  10
ENDBRANCH   6   9
ENDBRANCH   3   6
BRANCH   5  23
HETATM   23  C   UNL     4     -10.461  17.102  67.856  1.00  0.00    -0.369 C  
BRANCH  23  24
HETATM   24  N   UNL     4     -10.063  15.822  68.482  1.00  0.00    -0.212 NA 
HETATM   25  H   UNL     4      -9.199  15.379  68.172  1.00  0.00     0.000 HD 
BRANCH  24  26
HETATM   26  C   UNL     4     -10.772  15.227  69.418  1.00  0.00    -0.265 C  
HETATM   27  H   UNL     4     -11.861  15.537  71.080  1.00  0.00     0.000 HD 
HETATM   28  O   UNL     4     -11.350  15.966  70.404  1.00  0.00    -0.327 OA 
BRANCH  26  29
HETATM   29  C   UNL     4     -11.049  13.725  69.485  1.00  0.00    -0.156 A  
HETATM   30  C   UNL     4     -10.336  12.668  68.827  1.00  0.00    -0.112 A  
HETATM   31  C   UNL     4     -12.165  13.337  70.290  1.00  0.00    -0.391 A  
HETATM   32  C   UNL     4     -12.557  12.001  70.423  1.00  0.00    -0.128 A  
HETATM   33  C   UNL     4     -11.872  11.005  69.751  1.00  0.00    -0.421 A  
HETATM   34  C   UNL     4     -10.768  11.329  68.966  1.00  0.00    -0.257 A  
BRANCH  30  35
HETATM   35  O   UNL     4      -9.218  12.858  68.082  1.00  0.00    -0.204 OA 
BRANCH  35  36
HETATM   36  C   UNL     4      -7.956  12.417  68.429  1.00  0.00    -0.149 C  
HETATM   37  C   UNL     4      -6.924  12.928  67.474  1.00  0.00    -0.149 C  
HETATM   38  O   UNL     4      -6.769  14.254  67.303  1.00  0.00    -0.259 OA 
HETATM   39  O   UNL     4      -6.185  12.153  66.888  1.00  0.00    -0.141 OA 
ENDBRANCH  35  36
ENDBRANCH  30  35
ENDBRANCH  26  29
ENDBRANCH  24  26
ENDBRANCH  23  24
ENDBRANCH   5  23
BRANCH   5  40
HETATM   40  O   UNL     4      -9.613  16.449  65.646  1.00  0.00    -0.495 OA 
BRANCH  40  41
HETATM   41  C   UNL     4     -10.886  16.120  65.076  1.00  0.00    -0.363 C  
BRANCH  41  42
HETATM   42  C   UNL     4     -11.285  14.646  65.299  1.00  0.00    -0.358 C  
BRANCH  42  43
HETATM   43  O   UNL     4     -10.619  13.788  64.392  1.00  0.00    -0.418 OA 
HETATM   44  C   UNL     4     -10.762  12.445  64.821  1.00  0.00    -0.298 C  
ENDBRANCH  42  43
ENDBRANCH  41  42
ENDBRANCH  40  41
ENDBRANCH   5  40
TORSDOF 17
ENDMDL
MODEL       74
REMARK 921   NORMALIZED FREE ENERGY PREDICTED BY IDOCK:   -4.51 KCAL/MOL
REMARK 922        TOTAL FREE ENERGY PREDICTED BY IDOCK:  -11.85 KCAL/MOL
REMARK 923 INTER-LIGAND FREE ENERGY PREDICTED BY IDOCK:   -8.44 KCAL/MOL
REMARK 924 INTRA-LIGAND FREE ENERGY PREDICTED BY IDOCK:   -3.41 KCAL/MOL
REMARK 927      BINDING AFFINITY PREDICTED BY RF-SCORE:    0.00 PKD
ROOT
HETATM    1 HG   UNL     2      -7.404   3.415  69.212  1.00  0.00    -0.044 Hg 
HETATM    2  C   UNL     3      -6.104  16.266  69.394  1.00  0.00    -0.169 C  
HETATM    3  C   UNL     3      -6.888  15.247  68.555  1.00  0.00    -0.112 C  
HETATM    4  C   UNL     4     -10.231   4.605  71.767  1.00  0.00    -0.242 C  
HETATM    5  C   UNL     4      -9.444   5.487  70.787  1.00  0.00    -0.166 C  
ENDROOT
BRANCH   3   6
HETATM    6  N   UNL     3      -8.006  15.836  67.769  1.00  0.00    -0.137 NA 
BRANCH   6   7
HETATM    7  C   UNL     3      -8.687  14.872  66.861  1.00  0.00    -0.248 C  
HETATM    8  C   UNL     3      -9.639  15.516  65.837  1.00  0.00    -0.383 C  
ENDBRANCH   6   7
BRANCH   6   9
HETATM    9  C   UNL     3      -9.010  16.503  68.637  1.00  0.00    -0.236 C  
BRANCH   9  10
HETATM   10  C   UNL     3      -9.673  15.579  69.655  1.00  0.00    -0.274 C  
BRANCH  10  11
HETATM   11  O   UNL     3     -11.045  15.663  69.597  1.00  0.00    -0.251 OA 
BRANCH  11  12
HETATM   12  C   UNL     3     -11.844  14.670  69.138  1.00  0.00    -0.312 C  
HETATM   13  O   UNL     3     -12.086  14.567  67.942  1.00  0.00    -0.325 OA 
BRANCH  12  14
HETATM   14  C   UNL     3     -12.326  13.662  70.100  1.00  0.00    -0.372 A  
HETATM   15  C   UNL     3     -13.293  11.687  71.852  1.00  0.00    -0.298 A  
HETATM   16  C   UNL     3     -13.475  13.045  72.151  1.00  0.00    -0.638 A  
HETATM   17  C   UNL     3     -12.996  14.030  71.281  1.00  0.00    -0.418 A  
HETATM   18  N   UNL     3     -13.777  10.682  72.732  1.00  0.00     0.174 NA 
HETATM   19  C   UNL     3     -12.633  11.321  70.673  1.00  0.00    -0.377 A  
HETATM   20  C   UNL     3     -12.152  12.298  69.807  1.00  0.00    -0.298 A  
HETATM   21  H1  UNL     3     -13.644   9.694  72.515  1.00  0.00     0.000 HD 
HETATM   22  H2  UNL     3     -14.772  10.844  72.885  1.00  0.00     0.000 HD 
ENDBRANCH  12  14
ENDBRANCH  11  12
ENDBRANCH  10  11
ENDBRANCH   9  10
ENDBRANCH   6   9
ENDBRANCH   3   6
BRANCH   5  23
HETATM   23  C   UNL     4     -10.201   5.639  69.419  1.00  0.00    -0.245 C  
BRANCH  23  24
HETATM   24  N   UNL     4     -10.589   7.000  68.990  1.00  0.00    -0.213 NA 
HETATM   25  H   UNL     4     -11.306   7.492  69.524  1.00  0.00     0.000 HD 
BRANCH  24  26
HETATM   26  C   UNL     4     -10.054   7.607  67.952  1.00  0.00    -0.185 C  
HETATM   27  H   UNL     4      -9.777   7.495  65.964  1.00  0.00     0.000 HD 
HETATM   28  O   UNL     4     -10.163   7.056  66.713  1.00  0.00    -0.227 OA 
BRANCH  26  29
HETATM   29  C   UNL     4      -9.323   8.950  68.005  1.00  0.00    -0.153 A  
HETATM   30  C   UNL     4      -8.059   9.240  68.618  1.00  0.00    -0.105 A  
HETATM   31  C   UNL     4      -9.994  10.044  67.376  1.00  0.00    -0.242 A  
HETATM   32  C   UNL     4      -9.461  11.338  67.369  1.00  0.00    -0.175 A  
HETATM   33  C   UNL     4      -8.257  11.596  67.998  1.00  0.00    -0.146 A  
HETATM   34  C   UNL     4      -7.555  10.561  68.611  1.00  0.00    -0.099 A  
BRANCH  30  35
HETATM   35  O   UNL     4      -7.265   8.304  69.197  1.00  0.00    -0.068 OA 
BRANCH  35  36
HETATM   36  C   UNL     4      -6.099   7.812  68.647  1.00  0.00    -0.035 C  
HETATM   37  C   UNL     4      -6.100   6.316  68.629  1.00  0.00    -0.028 C  
HETATM   38  O   UNL     4      -7.072   5.655  67.974  1.00  0.00    -0.067 OA 
HETATM   39  O   UNL     4      -5.195   5.691  69.159  1.00  0.00    -0.003 OA 
ENDBRANCH  35  36
ENDBRANCH  30  35
ENDBRANCH  26  29
ENDBRANCH  24  26
ENDBRANCH  23  24
ENDBRANCH   5  23
BRANCH   5  40
HETATM   40  O   UNL     4      -9.243   6.787  71.367  1.00  0.00    -0.153 OA 
BRANCH  40  41
HETATM   41  C   UNL     4     -10.166   7.052  72.431  1.00  0.00    -0.188 C  
BRANCH  41  42
HETATM   42  C   UNL     4     -10.979   8.346  72.216  1.00  0.00    -0.361 C  
BRANCH  42  43
HETATM   43  O   UNL     4     -11.823   8.244  71.084  1.00  0.00    -0.281 OA 
HETATM   44  C   UNL     4     -13.051   7.645  71.464  1.00  0.00    -0.338 C  
ENDBRANCH  42  43
ENDBRANCH  41  42
ENDBRANCH  40  41
ENDBRANCH   5  40
TORSDOF 17
ENDMDL
MODEL       75
REMARK 921   NORMALIZED FREE ENERGY PREDICTED BY IDOCK:   -4.50 KCAL/MOL
REMARK 922        TOTAL FREE ENERGY PREDICTED BY IDOCK:  -11.83 KCAL/MOL
REMARK 923 INTER-LIGAND FREE ENERGY PREDICTED BY IDOCK:   -8.69 KCAL/MOL
REMARK 924 INTRA-LIGAND FREE ENERGY PREDICTED BY IDOCK:   -3.14 KCAL/MOL
REMARK 927      BINDING AFFINITY PREDICTED BY RF-SCORE:    0.00 PKD
ROOT
HETATM    1 HG   UNL     2     -10.405   2.246  67.404  1.00  0.00    -0.363 Hg 
HETATM    2  C   UNL     3     -11.210  15.071  66.084  1.00  0.00    -0.307 C  
HETATM    3  C   UNL     3     -11.671  14.037  67.120  1.00  0.00    -0.393 C  
HETATM    4  C   UNL     4      -7.054   3.576  69.120  1.00  0.00    -0.049 C  
HETATM    5  C   UNL     4      -8.285   4.408  68.735  1.00  0.00    -0.080 C  
ENDROOT
BRANCH   3   6
HETATM    6  N   UNL     3     -12.025  14.616  68.444  1.00  0.00    -0.291 NA 
BRANCH   6   7
HETATM    7  C   UNL     3     -11.466  13.870  69.606  1.00  0.00    -0.248 C  
HETATM    8  C   UNL     3     -12.514  13.390  70.626  1.00  0.00    -0.385 C  
ENDBRANCH   6   7
BRANCH   6   9
HETATM    9  C   UNL     3     -11.656  16.051  68.545  1.00  0.00    -0.316 C  
BRANCH   9  10
HETATM   10  C   UNL     3     -10.419  16.325  69.395  1.00  0.00    -0.292 C  
BRANCH  10  11
HETATM   11  O   UNL     3      -9.336  16.669  68.619  1.00  0.00    -0.230 OA 
BRANCH  11  12
HETATM   12  C   UNL     3      -8.062  16.302  68.895  1.00  0.00    -0.231 C  
HETATM   13  O   UNL     3      -7.273  17.104  69.379  1.00  0.00    -0.190 OA 
BRANCH  12  14
HETATM   14  C   UNL     3      -7.683  14.891  68.694  1.00  0.00    -0.127 A  
HETATM   15  C   UNL     3      -6.858  12.228  68.331  1.00  0.00    -0.075 A  
HETATM   16  C   UNL     3      -7.691  12.843  67.386  1.00  0.00    -0.160 A  
HETATM   17  C   UNL     3      -8.103  14.168  67.563  1.00  0.00    -0.199 A  
HETATM   18  N   UNL     3      -6.436  10.882  68.157  1.00  0.00    -0.057 NA 
HETATM   19  C   UNL     3      -6.434  12.950  69.453  1.00  0.00    -0.091 A  
HETATM   20  C   UNL     3      -6.845  14.267  69.634  1.00  0.00    -0.087 A  
HETATM   21  H1  UNL     3      -5.830  10.435  68.844  1.00  0.00     0.000 HD 
HETATM   22  H2  UNL     3      -5.993  10.802  67.241  1.00  0.00     0.000 HD 
ENDBRANCH  12  14
ENDBRANCH  11  12
ENDBRANCH  10  11
ENDBRANCH   9  10
ENDBRANCH   6   9
ENDBRANCH   3   6
BRANCH   5  23
HETATM   23  C   UNL     4      -9.295   4.524  69.932  1.00  0.00    -0.148 C  
BRANCH  23  24
HETATM   24  N   UNL     4     -10.327   5.581  69.868  1.00  0.00    -0.272 NA 
HETATM   25  H   UNL     4     -10.464   6.072  68.985  1.00  0.00     0.000 HD 
BRANCH  24  26
HETATM   26  C   UNL     4     -11.076   5.919  70.896  1.00  0.00    -0.242 C  
HETATM   27  H   UNL     4     -11.841   5.268  72.638  1.00  0.00     0.000 HD 
HETATM   28  O   UNL     4     -11.301   5.024  71.896  1.00  0.00     0.082 OA 
BRANCH  26  29
HETATM   29  C   UNL     4     -11.716   7.294  71.099  1.00  0.00    -0.334 A  
HETATM   30  C   UNL     4     -11.162   8.578  70.779  1.00  0.00    -0.257 A  
HETATM   31  C   UNL     4     -13.016   7.289  71.692  1.00  0.00    -0.417 A  
HETATM   32  C   UNL     4     -13.712   8.472  71.965  1.00  0.00    -0.446 A  
HETATM   33  C   UNL     4     -13.141   9.697  71.678  1.00  0.00    -0.503 A  
HETATM   34  C   UNL     4     -11.882   9.756  71.084  1.00  0.00    -0.466 A  
BRANCH  30  35
HETATM   35  O   UNL     4      -9.971   8.755  70.153  1.00  0.00    -0.176 OA 
BRANCH  35  36
HETATM   36  C   UNL     4      -8.868   9.364  70.718  1.00  0.00    -0.171 C  
HETATM   37  C   UNL     4      -8.211   8.467  71.720  1.00  0.00    -0.155 C  
HETATM   38  O   UNL     4      -7.758   7.258  71.341  1.00  0.00    -0.086 OA 
HETATM   39  O   UNL     4      -8.037   8.846  72.868  1.00  0.00    -0.380 OA 
ENDBRANCH  35  36
ENDBRANCH  30  35
ENDBRANCH  26  29
ENDBRANCH  24  26
ENDBRANCH  23  24
ENDBRANCH   5  23
BRANCH   5  40
HETATM   40  O   UNL     4      -7.868   5.724  68.334  1.00  0.00    -0.098 OA 
BRANCH  40  41
HETATM   41  C   UNL     4      -8.443   6.114  67.081  1.00  0.00    -0.104 C  
BRANCH  41  42
HETATM   42  C   UNL     4      -7.771   7.363  66.471  1.00  0.00    -0.093 C  
BRANCH  42  43
HETATM   43  O   UNL     4      -8.275   8.553  67.047  1.00  0.00    -0.105 OA 
HETATM   44  C   UNL     4      -8.776   9.397  66.023  1.00  0.00    -0.150 C  
ENDBRANCH  42  43
ENDBRANCH  41  42
ENDBRANCH  40  41
ENDBRANCH   5  40
TORSDOF 17
ENDMDL
MODEL       76
REMARK 921   NORMALIZED FREE ENERGY PREDICTED BY IDOCK:   -4.44 KCAL/MOL
REMARK 922        TOTAL FREE ENERGY PREDICTED BY IDOCK:  -11.72 KCAL/MOL
REMARK 923 INTER-LIGAND FREE ENERGY PREDICTED BY IDOCK:  -10.15 KCAL/MOL
REMARK 924 INTRA-LIGAND FREE ENERGY PREDICTED BY IDOCK:   -1.57 KCAL/MOL
REMARK 927      BINDING AFFINITY PREDICTED BY RF-SCORE:    0.00 PKD
ROOT
HETATM    1 HG   UNL     2     -10.520   1.549  67.726  1.00  0.00    -0.406 Hg 
HETATM    2  C   UNL     3     -12.054  13.837  64.050  1.00  0.00    -0.448 C  
HETATM    3  C   UNL     3     -12.069  13.073  65.381  1.00  0.00    -0.444 C  
HETATM    4  C   UNL     4      -6.802   3.003  67.746  1.00  0.00    -0.049 C  
HETATM    5  C   UNL     4      -8.106   3.809  67.673  1.00  0.00    -0.089 C  
ENDROOT
BRANCH   3   6
HETATM    6  N   UNL     3     -11.915  13.938  66.582  1.00  0.00    -0.421 NA 
BRANCH   6   7
HETATM    7  C   UNL     3     -11.937  13.196  67.874  1.00  0.00    -0.303 C  
HETATM    8  C   UNL     3     -11.959  14.089  69.127  1.00  0.00    -0.400 C  
ENDBRANCH   6   7
BRANCH   6   9
HETATM    9  C   UNL     3     -10.696  14.784  66.510  1.00  0.00    -0.319 C  
BRANCH   9  10
HETATM   10  C   UNL     3     -10.973  16.266  66.273  1.00  0.00     0.008 C  
BRANCH  10  11
HETATM   11  O   UNL     3      -9.949  17.054  66.744  1.00  0.00    -0.272 OA 
BRANCH  11  12
HETATM   12  C   UNL     3      -9.765  18.347  66.386  1.00  0.00    -0.339 C  
HETATM   13  O   UNL     3     -10.554  18.904  65.634  1.00  0.00    -0.575 OA 
BRANCH  12  14
HETATM   14  C   UNL     3      -8.652  19.091  67.005  1.00  0.00    -0.308 A  
HETATM   15  C   UNL     3      -6.467  20.481  68.099  1.00  0.00    -0.304 A  
HETATM   16  C   UNL     3      -7.195  19.578  68.888  1.00  0.00    -0.397 A  
HETATM   17  C   UNL     3      -8.282  18.884  68.346  1.00  0.00    -0.377 A  
HETATM   18  N   UNL     3      -5.362  21.190  68.645  1.00  0.00    -0.411 NA 
HETATM   19  C   UNL     3      -6.831  20.681  66.763  1.00  0.00    -0.343 A  
HETATM   20  C   UNL     3      -7.914  19.995  66.221  1.00  0.00    -0.323 A  
HETATM   21  H1  UNL     3      -4.833  21.846  68.071  1.00  0.00     0.000 HD 
HETATM   22  H2  UNL     3      -4.710  20.510  69.036  1.00  0.00     0.000 HD 
ENDBRANCH  12  14
ENDBRANCH  11  12
ENDBRANCH  10  11
ENDBRANCH   9  10
ENDBRANCH   6   9
ENDBRANCH   3   6
BRANCH   5  23
HETATM   23  C   UNL     4      -8.596   4.234  69.104  1.00  0.00    -0.082 C  
BRANCH  23  24
HETATM   24  N   UNL     4      -7.797   5.239  69.839  1.00  0.00    -0.078 NA 
HETATM   25  H   UNL     4      -6.949   5.599  69.401  1.00  0.00     0.000 HD 
BRANCH  24  26
HETATM   26  C   UNL     4      -8.128   5.691  71.030  1.00  0.00    -0.119 C  
HETATM   27  H   UNL     4      -7.679   5.602  72.988  1.00  0.00     0.000 HD 
HETATM   28  O   UNL     4      -7.440   5.276  72.128  1.00  0.00    -0.089 OA 
BRANCH  26  29
HETATM   29  C   UNL     4      -9.236   6.709  71.303  1.00  0.00    -0.155 A  
HETATM   30  C   UNL     4      -9.541   7.899  70.562  1.00  0.00    -0.170 A  
HETATM   31  C   UNL     4     -10.053   6.441  72.446  1.00  0.00    -0.191 A  
HETATM   32  C   UNL     4     -11.088   7.298  72.837  1.00  0.00    -0.369 A  
HETATM   33  C   UNL     4     -11.337   8.456  72.124  1.00  0.00    -0.437 A  
HETATM   34  C   UNL     4     -10.581   8.755  70.993  1.00  0.00    -0.293 A  
BRANCH  30  35
HETATM   35  O   UNL     4      -8.907   8.262  69.419  1.00  0.00    -0.143 OA 
BRANCH  35  36
HETATM   36  C   UNL     4      -9.450   8.165  68.153  1.00  0.00    -0.141 C  
HETATM   37  C   UNL     4      -9.859   9.508  67.636  1.00  0.00    -0.165 C  
HETATM   38  O   UNL     4      -8.944  10.488  67.523  1.00  0.00    -0.135 OA 
HETATM   39  O   UNL     4     -11.005   9.705  67.266  1.00  0.00    -0.224 OA 
ENDBRANCH  35  36
ENDBRANCH  30  35
ENDBRANCH  26  29
ENDBRANCH  24  26
ENDBRANCH  23  24
ENDBRANCH   5  23
BRANCH   5  40
HETATM   40  O   UNL     4      -7.900   4.985  66.871  1.00  0.00    -0.095 OA 
BRANCH  40  41
HETATM   41  C   UNL     4      -8.482   4.857  65.568  1.00  0.00    -0.130 C  
BRANCH  41  42
HETATM   42  C   UNL     4      -9.857   4.157  65.586  1.00  0.00    -0.205 C  
BRANCH  42  43
HETATM   43  O   UNL     4      -9.895   3.070  64.681  1.00  0.00    -0.142 OA 
HETATM   44  C   UNL     4     -10.623   3.446  63.524  1.00  0.00    -0.260 C  
ENDBRANCH  42  43
ENDBRANCH  41  42
ENDBRANCH  40  41
ENDBRANCH   5  40
TORSDOF 17
ENDMDL
MODEL       77
REMARK 921   NORMALIZED FREE ENERGY PREDICTED BY IDOCK:   -4.44 KCAL/MOL
REMARK 922        TOTAL FREE ENERGY PREDICTED BY IDOCK:  -11.71 KCAL/MOL
REMARK 923 INTER-LIGAND FREE ENERGY PREDICTED BY IDOCK:  -10.25 KCAL/MOL
REMARK 924 INTRA-LIGAND FREE ENERGY PREDICTED BY IDOCK:   -1.46 KCAL/MOL
REMARK 927      BINDING AFFINITY PREDICTED BY RF-SCORE:    0.00 PKD
ROOT
HETATM    1 HG   UNL     2      -7.681   4.536  65.687  1.00  0.00    -0.080 Hg 
HETATM    2  C   UNL     3      -8.102  16.889  69.441  1.00  0.00     0.206 C  
HETATM    3  C   UNL     3      -9.052  15.920  68.724  1.00  0.00    -0.219 C  
HETATM    4  C   UNL     4      -9.088   4.333  69.418  1.00  0.00    -0.179 C  
HETATM    5  C   UNL     4      -8.978   5.589  68.542  1.00  0.00    -0.110 C  
ENDROOT
BRANCH   3   6
HETATM    6  N   UNL     3     -10.474  16.360  68.708  1.00  0.00    -0.279 NA 
BRANCH   6   7
HETATM    7  C   UNL     3     -11.113  16.402  70.053  1.00  0.00    -0.294 C  
HETATM    8  C   UNL     3     -12.223  15.359  70.270  1.00  0.00    -0.414 C  
ENDBRANCH   6   7
BRANCH   6   9
HETATM    9  C   UNL     3     -10.648  17.668  68.028  1.00  0.00    -0.376 C  
BRANCH   9  10
HETATM   10  C   UNL     3      -9.885  17.800  66.713  1.00  0.00    -0.320 C  
BRANCH  10  11
HETATM   11  O   UNL     3     -10.347  16.913  65.768  1.00  0.00    -0.459 OA 
BRANCH  11  12
HETATM   12  C   UNL     3      -9.716  15.759  65.444  1.00  0.00    -0.111 C  
HETATM   13  O   UNL     3      -8.549  15.575  65.766  1.00  0.00     0.112 OA 
BRANCH  12  14
HETATM   14  C   UNL     3     -10.500  14.696  64.789  1.00  0.00    -0.343 A  
HETATM   15  C   UNL     3     -12.075  12.685  63.614  1.00  0.00    -0.547 A  
HETATM   16  C   UNL     3     -10.726  12.442  63.909  1.00  0.00    -0.465 A  
HETATM   17  C   UNL     3      -9.940  13.440  64.494  1.00  0.00    -0.080 A  
HETATM   18  N   UNL     3     -12.878  11.675  63.018  1.00  0.00    -0.889 NA 
HETATM   19  C   UNL     3     -12.634  13.932  63.914  1.00  0.00    -0.054 A  
HETATM   20  C   UNL     3     -11.855  14.929  64.493  1.00  0.00    -0.404 A  
HETATM   21  H1  UNL     3     -13.859  11.852  62.803  1.00  0.00     0.000 HD 
HETATM   22  H2  UNL     3     -12.824  10.840  63.601  1.00  0.00     0.000 HD 
ENDBRANCH  12  14
ENDBRANCH  11  12
ENDBRANCH  10  11
ENDBRANCH   9  10
ENDBRANCH   6   9
ENDBRANCH   3   6
BRANCH   5  23
HETATM   23  C   UNL     4     -10.305   5.845  67.740  1.00  0.00    -0.210 C  
BRANCH  23  24
HETATM   24  N   UNL     4     -10.965   7.159  67.897  1.00  0.00    -0.487 NA 
HETATM   25  H   UNL     4     -11.806   7.215  68.471  1.00  0.00     0.000 HD 
BRANCH  24  26
HETATM   26  C   UNL     4     -10.519   8.261  67.330  1.00  0.00    -0.303 C  
HETATM   27  H   UNL     4      -9.502   8.984  65.754  1.00  0.00     0.000 HD 
HETATM   28  O   UNL     4      -9.823   8.189  66.163  1.00  0.00    -0.169 OA 
BRANCH  26  29
HETATM   29  C   UNL     4     -10.752   9.675  67.862  1.00  0.00    -0.302 A  
HETATM   30  C   UNL     4     -11.122  10.065  69.193  1.00  0.00    -0.190 A  
HETATM   31  C   UNL     4     -10.594  10.729  66.909  1.00  0.00    -0.312 A  
HETATM   32  C   UNL     4     -10.802  12.071  67.244  1.00  0.00    -0.290 A  
HETATM   33  C   UNL     4     -11.191  12.416  68.525  1.00  0.00    -0.321 A  
HETATM   34  C   UNL     4     -11.344  11.428  69.495  1.00  0.00    -0.357 A  
BRANCH  30  35
HETATM   35  O   UNL     4     -11.247   9.198  70.229  1.00  0.00    -0.245 OA 
BRANCH  35  36
HETATM   36  C   UNL     4     -11.560   9.560  71.524  1.00  0.00    -0.395 C  
HETATM   37  C   UNL     4     -12.497   8.575  72.148  1.00  0.00    -0.379 C  
HETATM   38  O   UNL     4     -12.138   7.281  72.249  1.00  0.00    -0.269 OA 
HETATM   39  O   UNL     4     -13.563   8.944  72.615  1.00  0.00    -0.439 OA 
ENDBRANCH  35  36
ENDBRANCH  30  35
ENDBRANCH  26  29
ENDBRANCH  24  26
ENDBRANCH  23  24
ENDBRANCH   5  23
BRANCH   5  40
HETATM   40  O   UNL     4      -8.694   6.729  69.370  1.00  0.00    -0.134 OA 
BRANCH  40  41
HETATM   41  C   UNL     4      -7.620   6.476  70.285  1.00  0.00    -0.096 C  
BRANCH  41  42
HETATM   42  C   UNL     4      -6.269   7.046  69.802  1.00  0.00    -0.034 C  
BRANCH  42  43
HETATM   43  O   UNL     4      -5.772   6.323  68.691  1.00  0.00    -0.014 OA 
HETATM   44  C   UNL     4      -5.127   5.145  69.146  1.00  0.00     0.000 C  
ENDBRANCH  42  43
ENDBRANCH  41  42
ENDBRANCH  40  41
ENDBRANCH   5  40
TORSDOF 17
ENDMDL
MODEL       78
REMARK 921   NORMALIZED FREE ENERGY PREDICTED BY IDOCK:   -4.41 KCAL/MOL
REMARK 922        TOTAL FREE ENERGY PREDICTED BY IDOCK:  -11.66 KCAL/MOL
REMARK 923 INTER-LIGAND FREE ENERGY PREDICTED BY IDOCK:   -9.18 KCAL/MOL
REMARK 924 INTRA-LIGAND FREE ENERGY PREDICTED BY IDOCK:   -2.48 KCAL/MOL
REMARK 927      BINDING AFFINITY PREDICTED BY RF-SCORE:    0.00 PKD
ROOT
HETATM    1 HG   UNL     2      -6.057  16.294  71.031  1.00  0.00    -0.092 Hg 
HETATM    2  C   UNL     3      -6.133   4.631  65.478  1.00  0.00    -0.026 C  
HETATM    3  C   UNL     3      -7.073   5.422  66.398  1.00  0.00    -0.069 C  
HETATM    4  C   UNL     4      -7.758  16.959  67.481  1.00  0.00    -0.187 C  
HETATM    5  C   UNL     4      -7.516  15.597  68.146  1.00  0.00    -0.124 C  
ENDROOT
BRANCH   3   6
HETATM    6  N   UNL     3      -8.465   4.897  66.444  1.00  0.00    -0.111 NA 
BRANCH   6   7
HETATM    7  C   UNL     3      -9.006   4.487  65.119  1.00  0.00    -0.147 C  
HETATM    8  C   UNL     3     -10.370   3.777  65.173  1.00  0.00     0.008 C  
ENDBRANCH   6   7
BRANCH   6   9
HETATM    9  C   UNL     3      -8.611   3.781  67.414  1.00  0.00    -0.103 C  
BRANCH   9  10
HETATM   10  C   UNL     3      -8.324   4.164  68.862  1.00  0.00    -0.078 C  
BRANCH  10  11
HETATM   11  O   UNL     3      -9.020   5.292  69.234  1.00  0.00    -0.102 OA 
BRANCH  11  12
HETATM   12  C   UNL     3      -8.731   6.029  70.334  1.00  0.00    -0.144 C  
HETATM   13  O   UNL     3      -7.571   6.176  70.698  1.00  0.00    -0.088 OA 
BRANCH  12  14
HETATM   14  C   UNL     3      -9.835   6.729  71.014  1.00  0.00    -0.192 A  
HETATM   15  C   UNL     3     -12.005   8.045  72.224  1.00  0.00    -0.358 A  
HETATM   16  C   UNL     3     -10.743   8.655  72.186  1.00  0.00    -0.417 A  
HETATM   17  C   UNL     3      -9.662   8.003  71.584  1.00  0.00    -0.222 A  
HETATM   18  N   UNL     3     -13.108   8.702  72.835  1.00  0.00    -0.705 NA 
HETATM   19  C   UNL     3     -12.180   6.781  71.650  1.00  0.00    -0.410 A  
HETATM   20  C   UNL     3     -11.105   6.128  71.053  1.00  0.00    -0.359 A  
HETATM   21  H1  UNL     3     -14.026   8.258  72.862  1.00  0.00     0.000 HD 
HETATM   22  H2  UNL     3     -13.210   9.621  72.404  1.00  0.00     0.000 HD 
ENDBRANCH  12  14
ENDBRANCH  11  12
ENDBRANCH  10  11
ENDBRANCH   9  10
ENDBRANCH   6   9
ENDBRANCH   3   6
BRANCH   5  23
HETATM   23  C   UNL     4      -8.762  15.142  68.989  1.00  0.00    -0.215 C  
BRANCH  23  24
HETATM   24  N   UNL     4     -10.082  15.702  68.628  1.00  0.00    -0.205 NA 
HETATM   25  H   UNL     4     -10.114  16.513  68.012  1.00  0.00     0.000 HD 
BRANCH  24  26
HETATM   26  C   UNL     4     -11.219  15.202  69.066  1.00  0.00    -0.273 C  
HETATM   27  H   UNL     4     -13.103  15.663  69.596  1.00  0.00     0.000 HD 
HETATM   28  O   UNL     4     -12.283  16.023  69.281  1.00  0.00    -0.226 OA 
BRANCH  26  29
HETATM   29  C   UNL     4     -11.479  13.719  69.330  1.00  0.00    -0.341 A  
HETATM   30  C   UNL     4     -11.196  12.608  68.468  1.00  0.00    -0.279 A  
HETATM   31  C   UNL     4     -12.090  13.413  70.586  1.00  0.00    -0.374 A  
HETATM   32  C   UNL     4     -12.414  12.103  70.955  1.00  0.00    -0.374 A  
HETATM   33  C   UNL     4     -12.162  11.054  70.090  1.00  0.00    -0.424 A  
HETATM   34  C   UNL     4     -11.553  11.297  68.861  1.00  0.00    -0.386 A  
BRANCH  30  35
HETATM   35  O   UNL     4     -10.560  12.718  67.274  1.00  0.00    -0.231 OA 
BRANCH  35  36
HETATM   36  C   UNL     4     -11.184  12.990  66.073  1.00  0.00    -0.292 C  
HETATM   37  C   UNL     4     -10.611  12.160  64.967  1.00  0.00    -0.291 C  
HETATM   38  O   UNL     4     -10.642  10.817  65.054  1.00  0.00    -0.268 OA 
HETATM   39  O   UNL     4     -10.163  12.691  63.964  1.00  0.00    -0.397 OA 
ENDBRANCH  35  36
ENDBRANCH  30  35
ENDBRANCH  26  29
ENDBRANCH  24  26
ENDBRANCH  23  24
ENDBRANCH   5  23
BRANCH   5  40
HETATM   40  O   UNL     4      -7.239  14.612  67.136  1.00  0.00    -0.146 OA 
BRANCH  40  41
HETATM   41  C   UNL     4      -7.257  13.279  67.663  1.00  0.00    -0.162 C  
BRANCH  41  42
HETATM   42  C   UNL     4      -5.936  12.518  67.425  1.00  0.00    -0.147 C  
BRANCH  42  43
HETATM   43  O   UNL     4      -6.172  11.230  66.887  1.00  0.00    -0.095 OA 
HETATM   44  C   UNL     4      -7.562  10.950  66.926  1.00  0.00    -0.128 C  
ENDBRANCH  42  43
ENDBRANCH  41  42
ENDBRANCH  40  41
ENDBRANCH   5  40
TORSDOF 17
ENDMDL
MODEL       79
REMARK 921   NORMALIZED FREE ENERGY PREDICTED BY IDOCK:   -4.39 KCAL/MOL
REMARK 922        TOTAL FREE ENERGY PREDICTED BY IDOCK:  -11.62 KCAL/MOL
REMARK 923 INTER-LIGAND FREE ENERGY PREDICTED BY IDOCK:  -10.22 KCAL/MOL
REMARK 924 INTRA-LIGAND FREE ENERGY PREDICTED BY IDOCK:   -1.40 KCAL/MOL
REMARK 927      BINDING AFFINITY PREDICTED BY RF-SCORE:    0.00 PKD
ROOT
HETATM    1 HG   UNL     2      -9.669  17.435  65.822  1.00  0.00    -0.263 Hg 
HETATM    2  C   UNL     3      -6.520   5.650  70.071  1.00  0.00    -0.035 C  
HETATM    3  C   UNL     3      -7.479   6.763  70.514  1.00  0.00    -0.086 C  
HETATM    4  C   UNL     4     -12.179  15.031  63.858  1.00  0.00     0.054 C  
HETATM    5  C   UNL     4     -11.316  14.667  65.075  1.00  0.00    -0.390 C  
ENDROOT
BRANCH   3   6
HETATM    6  N   UNL     3      -8.534   6.317  71.464  1.00  0.00    -0.129 NA 
BRANCH   6   7
HETATM    7  C   UNL     3      -8.308   6.747  72.872  1.00  0.00    -0.116 C  
HETATM    8  C   UNL     3      -9.427   7.623  73.464  1.00  0.00    -0.347 C  
ENDBRANCH   6   7
BRANCH   6   9
HETATM    9  C   UNL     3      -9.892   6.728  71.025  1.00  0.00    -0.182 C  
BRANCH   9  10
HETATM   10  C   UNL     3      -9.915   7.561  69.747  1.00  0.00    -0.186 C  
BRANCH  10  11
HETATM   11  O   UNL     3     -10.026   8.905  70.021  1.00  0.00    -0.179 OA 
BRANCH  11  12
HETATM   12  C   UNL     3     -10.895   9.734  69.396  1.00  0.00    -0.232 C  
HETATM   13  O   UNL     3     -11.102   9.628  68.193  1.00  0.00    -0.176 OA 
BRANCH  12  14
HETATM   14  C   UNL     3     -11.658  10.693  70.216  1.00  0.00    -0.424 A  
HETATM   15  C   UNL     3     -13.200  12.459  71.766  1.00  0.00    -0.334 A  
HETATM   16  C   UNL     3     -12.381  12.953  70.741  1.00  0.00    -0.385 A  
HETATM   17  C   UNL     3     -11.613  12.077  69.968  1.00  0.00    -0.275 A  
HETATM   18  N   UNL     3     -13.983  13.345  72.556  1.00  0.00    -0.751 NA 
HETATM   19  C   UNL     3     -13.251  11.082  72.009  1.00  0.00    -0.447 A  
HETATM   20  C   UNL     3     -12.485  10.207  71.244  1.00  0.00    -0.510 A  
HETATM   21  H1  UNL     3     -14.579  12.986  73.302  1.00  0.00     0.000 HD 
HETATM   22  H2  UNL     3     -14.559  13.907  71.929  1.00  0.00     0.000 HD 
ENDBRANCH  12  14
ENDBRANCH  11  12
ENDBRANCH  10  11
ENDBRANCH   9  10
ENDBRANCH   6   9
ENDBRANCH   3   6
BRANCH   5  23
HETATM   23  C   UNL     4     -12.103  14.880  66.418  1.00  0.00     0.015 C  
BRANCH  23  24
HETATM   24  N   UNL     4     -11.355  14.750  67.687  1.00  0.00    -0.327 NA 
HETATM   25  H   UNL     4     -11.873  14.517  68.534  1.00  0.00     0.000 HD 
BRANCH  24  26
HETATM   26  C   UNL     4     -10.052  14.920  67.775  1.00  0.00    -0.234 C  
HETATM   27  H   UNL     4      -8.277  13.980  67.686  1.00  0.00     0.000 HD 
HETATM   28  O   UNL     4      -9.217  13.857  67.623  1.00  0.00    -0.185 OA 
BRANCH  26  29
HETATM   29  C   UNL     4      -9.360  16.264  68.006  1.00  0.00    -0.214 A  
HETATM   30  C   UNL     4      -7.970  16.578  67.837  1.00  0.00    -0.158 A  
HETATM   31  C   UNL     4     -10.204  17.325  68.457  1.00  0.00    -0.358 A  
HETATM   32  C   UNL     4      -9.707  18.602  68.738  1.00  0.00    -0.407 A  
HETATM   33  C   UNL     4      -8.357  18.869  68.600  1.00  0.00    -0.384 A  
HETATM   34  C   UNL     4      -7.494  17.873  68.147  1.00  0.00    -0.250 A  
BRANCH  30  35
HETATM   35  O   UNL     4      -7.049  15.706  67.354  1.00  0.00    -0.174 OA 
BRANCH  35  36
HETATM   36  C   UNL     4      -5.858  15.394  67.979  1.00  0.00    -0.139 C  
HETATM   37  C   UNL     4      -6.058  15.174  69.445  1.00  0.00    -0.112 C  
HETATM   38  O   UNL     4      -6.908  14.220  69.869  1.00  0.00    -0.111 OA 
HETATM   39  O   UNL     4      -5.418  15.819  70.261  1.00  0.00    -0.145 OA 
ENDBRANCH  35  36
ENDBRANCH  30  35
ENDBRANCH  26  29
ENDBRANCH  24  26
ENDBRANCH  23  24
ENDBRANCH   5  23
BRANCH   5  40
HETATM   40  O   UNL     4     -10.904  13.293  64.977  1.00  0.00    -0.297 OA 
BRANCH  40  41
HETATM   41  C   UNL     4     -11.502  12.629  63.856  1.00  0.00    -0.442 C  
BRANCH  41  42
HETATM   42  C   UNL     4     -10.745  11.351  63.438  1.00  0.00    -0.332 C  
BRANCH  42  43
HETATM   43  O   UNL     4     -10.523  10.497  64.545  1.00  0.00    -0.310 OA 
HETATM   44  C   UNL     4      -9.257   9.872  64.412  1.00  0.00    -0.264 C  
ENDBRANCH  42  43
ENDBRANCH  41  42
ENDBRANCH  40  41
ENDBRANCH   5  40
TORSDOF 17
ENDMDL
MODEL       80
REMARK 921   NORMALIZED FREE ENERGY PREDICTED BY IDOCK:   -4.36 KCAL/MOL
REMARK 922        TOTAL FREE ENERGY PREDICTED BY IDOCK:  -11.56 KCAL/MOL
REMARK 923 INTER-LIGAND FREE ENERGY PREDICTED BY IDOCK:   -9.28 KCAL/MOL
REMARK 924 INTRA-LIGAND FREE ENERGY PREDICTED BY IDOCK:   -2.28 KCAL/MOL
REMARK 927      BINDING AFFINITY PREDICTED BY RF-SCORE:    0.00 PKD
ROOT
HETATM    1 HG   UNL     2      -7.674   5.915  69.149  1.00  0.00    -0.074 Hg 
HETATM    2  C   UNL     3      -7.236  18.816  69.638  1.00  0.00     0.133 C  
HETATM    3  C   UNL     3      -7.776  17.767  68.657  1.00  0.00    -0.283 C  
HETATM    4  C   UNL     4     -11.014   6.892  71.106  1.00  0.00    -0.284 C  
HETATM    5  C   UNL     4     -10.107   7.835  70.303  1.00  0.00    -0.195 C  
ENDROOT
BRANCH   3   6
HETATM    6  N   UNL     3      -8.754  18.300  67.670  1.00  0.00    -0.254 NA 
BRANCH   6   7
HETATM    7  C   UNL     3      -8.714  17.621  66.345  1.00  0.00    -0.234 C  
HETATM    8  C   UNL     3      -7.833  16.360  66.295  1.00  0.00    -0.212 C  
ENDBRANCH   6   7
BRANCH   6   9
HETATM    9  C   UNL     3     -10.142  18.292  68.197  1.00  0.00    -0.379 C  
BRANCH   9  10
HETATM   10  C   UNL     3     -10.545  16.992  68.887  1.00  0.00    -0.328 C  
BRANCH  10  11
HETATM   11  O   UNL     3     -11.515  16.322  68.179  1.00  0.00    -0.309 OA 
BRANCH  11  12
HETATM   12  C   UNL     3     -11.623  14.972  68.137  1.00  0.00    -0.340 C  
HETATM   13  O   UNL     3     -11.815  14.330  69.162  1.00  0.00    -0.293 OA 
BRANCH  12  14
HETATM   14  C   UNL     3     -11.607  14.312  66.819  1.00  0.00    -0.407 A  
HETATM   15  C   UNL     3     -11.505  13.128  64.271  1.00  0.00    -0.384 A  
HETATM   16  C   UNL     3     -12.742  13.398  64.873  1.00  0.00    -0.365 A  
HETATM   17  C   UNL     3     -12.796  13.988  66.141  1.00  0.00    -0.162 A  
HETATM   18  N   UNL     3     -11.443  12.528  62.983  1.00  0.00    -0.715 NA 
HETATM   19  C   UNL     3     -10.322  13.457  64.942  1.00  0.00    -0.382 A  
HETATM   20  C   UNL     3     -10.372  14.040  66.205  1.00  0.00    -0.301 A  
HETATM   21  H1  UNL     3     -10.543  12.332  62.545  1.00  0.00     0.000 HD 
HETATM   22  H2  UNL     3     -11.994  13.097  62.340  1.00  0.00     0.000 HD 
ENDBRANCH  12  14
ENDBRANCH  11  12
ENDBRANCH  10  11
ENDBRANCH   9  10
ENDBRANCH   6   9
ENDBRANCH   3   6
BRANCH   5  23
HETATM   23  C   UNL     4     -10.590   7.963  68.814  1.00  0.00    -0.127 C  
BRANCH  23  24
HETATM   24  N   UNL     4      -9.836   7.228  67.776  1.00  0.00    -0.143 NA 
HETATM   25  H   UNL     4     -10.205   6.336  67.447  1.00  0.00     0.000 HD 
BRANCH  24  26
HETATM   26  C   UNL     4      -8.710   7.670  67.255  1.00  0.00    -0.124 C  
HETATM   27  H   UNL     4      -6.769   8.026  67.637  1.00  0.00     0.000 HD 
HETATM   28  O   UNL     4      -7.581   7.707  68.013  1.00  0.00    -0.105 OA 
BRANCH  26  29
HETATM   29  C   UNL     4      -8.537   8.130  65.807  1.00  0.00    -0.175 A  
HETATM   30  C   UNL     4      -8.684   9.458  65.282  1.00  0.00    -0.175 A  
HETATM   31  C   UNL     4      -8.202   7.105  64.868  1.00  0.00    -0.073 A  
HETATM   32  C   UNL     4      -8.041   7.371  63.504  1.00  0.00    -0.006 A  
HETATM   33  C   UNL     4      -8.222   8.653  63.020  1.00  0.00    -0.179 A  
HETATM   34  C   UNL     4      -8.533   9.691  63.895  1.00  0.00    -0.190 A  
BRANCH  30  35
HETATM   35  O   UNL     4      -8.934  10.551  66.045  1.00  0.00    -0.157 OA 
BRANCH  35  36
HETATM   36  C   UNL     4      -8.046  11.589  66.247  1.00  0.00    -0.014 C  
HETATM   37  C   UNL     4      -7.614  11.659  67.677  1.00  0.00    -0.128 C  
HETATM   38  O   UNL     4      -7.011  10.599  68.247  1.00  0.00    -0.070 OA 
HETATM   39  O   UNL     4      -7.757  12.689  68.317  1.00  0.00    -0.121 OA 
ENDBRANCH  35  36
ENDBRANCH  30  35
ENDBRANCH  26  29
ENDBRANCH  24  26
ENDBRANCH  23  24
ENDBRANCH   5  23
BRANCH   5  40
HETATM   40  O   UNL     4     -10.104   9.135  70.917  1.00  0.00    -0.239 OA 
BRANCH  40  41
HETATM   41  C   UNL     4     -10.969  10.054  70.237  1.00  0.00    -0.316 C  
BRANCH  41  42
HETATM   42  C   UNL     4     -12.190  10.472  71.083  1.00  0.00    -0.391 C  
BRANCH  42  43
HETATM   43  O   UNL     4     -13.235   9.522  70.987  1.00  0.00    -0.294 OA 
HETATM   44  C   UNL     4     -13.612   9.101  72.288  1.00  0.00    -0.489 C  
ENDBRANCH  42  43
ENDBRANCH  41  42
ENDBRANCH  40  41
ENDBRANCH   5  40
TORSDOF 17
ENDMDL
MODEL       81
REMARK 921   NORMALIZED FREE ENERGY PREDICTED BY IDOCK:   -4.29 KCAL/MOL
REMARK 922        TOTAL FREE ENERGY PREDICTED BY IDOCK:  -11.41 KCAL/MOL
REMARK 923 INTER-LIGAND FREE ENERGY PREDICTED BY IDOCK:   -8.63 KCAL/MOL
REMARK 924 INTRA-LIGAND FREE ENERGY PREDICTED BY IDOCK:   -2.78 KCAL/MOL
REMARK 927      BINDING AFFINITY PREDICTED BY RF-SCORE:    0.00 PKD
ROOT
HETATM    1 HG   UNL     2      -7.472   5.212  69.528  1.00  0.00    -0.049 Hg 
HETATM    2  C   UNL     3      -7.690  18.123  69.184  1.00  0.00    -0.036 C  
HETATM    3  C   UNL     3      -8.040  16.987  68.213  1.00  0.00    -0.228 C  
HETATM    4  C   UNL     4     -11.092   6.125  70.942  1.00  0.00    -0.371 C  
HETATM    5  C   UNL     4     -10.126   7.065  70.207  1.00  0.00    -0.187 C  
ENDROOT
BRANCH   3   6
HETATM    6  N   UNL     3      -8.894  17.405  67.069  1.00  0.00    -0.228 NA 
BRANCH   6   7
HETATM    7  C   UNL     3      -8.931  16.425  65.947  1.00  0.00    -0.159 C  
HETATM    8  C   UNL     3      -8.645  14.969  66.356  1.00  0.00    -0.083 C  
ENDBRANCH   6   7
BRANCH   6   9
HETATM    9  C   UNL     3     -10.279  17.734  67.494  1.00  0.00    -0.356 C  
BRANCH   9  10
HETATM   10  C   UNL     3     -10.885  16.744  68.484  1.00  0.00    -0.345 C  
BRANCH  10  11
HETATM   11  O   UNL     3     -11.865  15.977  67.898  1.00  0.00    -0.063 OA 
BRANCH  11  12
HETATM   12  C   UNL     3     -11.930  14.628  67.999  1.00  0.00    -0.257 C  
HETATM   13  O   UNL     3     -12.083  14.091  69.089  1.00  0.00    -0.346 OA 
BRANCH  12  14
HETATM   14  C   UNL     3     -11.915  13.834  66.757  1.00  0.00    -0.465 A  
HETATM   15  C   UNL     3     -11.985  12.362  64.362  1.00  0.00    -0.407 A  
HETATM   16  C   UNL     3     -11.665  11.727  65.571  1.00  0.00    -0.105 A  
HETATM   17  C   UNL     3     -11.630  12.456  66.764  1.00  0.00    -0.444 A  
HETATM   18  N   UNL     3     -12.021  11.627  63.146  1.00  0.00    -0.926 NA 
HETATM   19  C   UNL     3     -12.275  13.731  64.356  1.00  0.00    -0.440 A  
HETATM   20  C   UNL     3     -12.238  14.461  65.540  1.00  0.00    -0.352 A  
HETATM   21  H1  UNL     3     -12.253  12.089  62.268  1.00  0.00     0.000 HD 
HETATM   22  H2  UNL     3     -12.655  10.838  63.270  1.00  0.00     0.000 HD 
ENDBRANCH  12  14
ENDBRANCH  11  12
ENDBRANCH  10  11
ENDBRANCH   9  10
ENDBRANCH   6   9
ENDBRANCH   3   6
BRANCH   5  23
HETATM   23  C   UNL     4     -10.403   7.074  68.661  1.00  0.00    -0.186 C  
BRANCH  23  24
HETATM   24  N   UNL     4      -9.491   6.302  67.790  1.00  0.00    -0.119 NA 
HETATM   25  H   UNL     4      -9.743   5.343  67.551  1.00  0.00     0.000 HD 
BRANCH  24  26
HETATM   26  C   UNL     4      -8.368   6.793  67.308  1.00  0.00    -0.121 C  
HETATM   27  H   UNL     4      -6.462   7.247  67.761  1.00  0.00     0.000 HD 
HETATM   28  O   UNL     4      -7.273   6.893  68.109  1.00  0.00    -0.086 OA 
BRANCH  26  29
HETATM   29  C   UNL     4      -8.160   7.246  65.862  1.00  0.00    -0.125 A  
HETATM   30  C   UNL     4      -8.497   8.514  65.280  1.00  0.00    -0.174 A  
HETATM   31  C   UNL     4      -7.571   6.279  64.990  1.00  0.00    -0.090 A  
HETATM   32  C   UNL     4      -7.347   6.541  63.634  1.00  0.00    -0.067 A  
HETATM   33  C   UNL     4      -7.713   7.759  63.091  1.00  0.00    -0.135 A  
HETATM   34  C   UNL     4      -8.276   8.741  63.902  1.00  0.00    -0.160 A  
BRANCH  30  35
HETATM   35  O   UNL     4      -9.000   9.560  65.982  1.00  0.00    -0.147 OA 
BRANCH  35  36
HETATM   36  C   UNL     4      -8.327  10.741  66.225  1.00  0.00    -0.160 C  
HETATM   37  C   UNL     4      -8.225  11.011  67.693  1.00  0.00    -0.117 C  
HETATM   38  O   UNL     4      -7.617  10.119  68.497  1.00  0.00    -0.084 OA 
HETATM   39  O   UNL     4      -8.641  12.060  68.160  1.00  0.00    -0.160 OA 
ENDBRANCH  35  36
ENDBRANCH  30  35
ENDBRANCH  26  29
ENDBRANCH  24  26
ENDBRANCH  23  24
ENDBRANCH   5  23
BRANCH   5  40
HETATM   40  O   UNL     4     -10.267   8.399  70.724  1.00  0.00    -0.189 OA 
BRANCH  40  41
HETATM   41  C   UNL     4      -9.822   8.500  72.083  1.00  0.00    -0.318 C  
BRANCH  41  42
HETATM   42  C   UNL     4      -8.313   8.222  72.246  1.00  0.00    -0.169 C  
BRANCH  42  43
HETATM   43  O   UNL     4      -8.080   7.117  73.099  1.00  0.00    -0.099 OA 
HETATM   44  C   UNL     4      -6.791   6.585  72.840  1.00  0.00    -0.073 C  
ENDBRANCH  42  43
ENDBRANCH  41  42
ENDBRANCH  40  41
ENDBRANCH   5  40
TORSDOF 17
ENDMDL
MODEL       82
REMARK 921   NORMALIZED FREE ENERGY PREDICTED BY IDOCK:   -4.24 KCAL/MOL
REMARK 922        TOTAL FREE ENERGY PREDICTED BY IDOCK:  -11.33 KCAL/MOL
REMARK 923 INTER-LIGAND FREE ENERGY PREDICTED BY IDOCK:   -9.47 KCAL/MOL
REMARK 924 INTRA-LIGAND FREE ENERGY PREDICTED BY IDOCK:   -1.86 KCAL/MOL
REMARK 927      BINDING AFFINITY PREDICTED BY RF-SCORE:    0.00 PKD
ROOT
HETATM    1 HG   UNL     2      -8.856   4.619  74.141  1.00  0.00    -0.104 Hg 
HETATM    2  C   UNL     3     -12.905  13.487  65.666  1.00  0.00    -0.380 C  
HETATM    3  C   UNL     3     -11.547  12.967  66.155  1.00  0.00    -0.372 C  
HETATM    4  C   UNL     4      -9.267   2.553  70.750  1.00  0.00    -0.201 C  
HETATM    5  C   UNL     4      -9.247   4.081  70.901  1.00  0.00    -0.133 C  
ENDROOT
BRANCH   3   6
HETATM    6  N   UNL     3     -10.406  13.307  65.262  1.00  0.00    -0.307 NA 
BRANCH   6   7
HETATM    7  C   UNL     3     -10.627  12.960  63.831  1.00  0.00    -0.336 C  
HETATM    8  C   UNL     3     -10.882  11.466  63.564  1.00  0.00    -0.430 C  
ENDBRANCH   6   7
BRANCH   6   9
HETATM    9  C   UNL     3     -10.011  14.735  65.377  1.00  0.00    -0.334 C  
BRANCH   9  10
HETATM   10  C   UNL     3      -9.611  15.165  66.785  1.00  0.00    -0.245 C  
BRANCH  10  11
HETATM   11  O   UNL     3     -10.674  15.703  67.472  1.00  0.00    -0.292 OA 
BRANCH  11  12
HETATM   12  C   UNL     3     -10.600  16.152  68.748  1.00  0.00    -0.279 C  
HETATM   13  O   UNL     3      -9.972  17.169  69.015  1.00  0.00    -0.288 OA 
BRANCH  12  14
HETATM   14  C   UNL     3     -11.377  15.446  69.783  1.00  0.00    -0.317 A  
HETATM   15  C   UNL     3     -12.916  14.050  71.677  1.00  0.00    -0.352 A  
HETATM   16  C   UNL     3     -12.733  15.434  71.800  1.00  0.00    -0.467 A  
HETATM   17  C   UNL     3     -11.968  16.132  70.859  1.00  0.00    -0.269 A  
HETATM   18  N   UNL     3     -13.691  13.335  72.630  1.00  0.00    -0.695 NA 
HETATM   19  C   UNL     3     -12.334  13.368  70.602  1.00  0.00    -0.423 A  
HETATM   20  C   UNL     3     -11.569  14.058  69.666  1.00  0.00    -0.348 A  
HETATM   21  H1  UNL     3     -13.823  12.328  72.540  1.00  0.00     0.000 HD 
HETATM   22  H2  UNL     3     -14.609  13.774  72.688  1.00  0.00     0.000 HD 
ENDBRANCH  12  14
ENDBRANCH  11  12
ENDBRANCH  10  11
ENDBRANCH   9  10
ENDBRANCH   6   9
ENDBRANCH   3   6
BRANCH   5  23
HETATM   23  C   UNL     4      -7.795   4.654  70.723  1.00  0.00    -0.072 C  
BRANCH  23  24
HETATM   24  N   UNL     4      -6.882   3.950  69.796  1.00  0.00    -0.040 NA 
HETATM   25  H   UNL     4      -6.441   3.086  70.111  1.00  0.00     0.000 HD 
BRANCH  24  26
HETATM   26  C   UNL     4      -6.613   4.385  68.583  1.00  0.00    -0.045 C  
HETATM   27  H   UNL     4      -5.152   5.082  67.390  1.00  0.00     0.000 HD 
HETATM   28  O   UNL     4      -5.347   4.769  68.265  1.00  0.00    -0.010 OA 
BRANCH  26  29
HETATM   29  C   UNL     4      -7.624   4.468  67.438  1.00  0.00    -0.082 A  
HETATM   30  C   UNL     4      -8.458   5.579  67.080  1.00  0.00    -0.110 A  
HETATM   31  C   UNL     4      -7.757   3.287  66.644  1.00  0.00    -0.077 A  
HETATM   32  C   UNL     4      -8.662   3.204  65.581  1.00  0.00    -0.126 A  
HETATM   33  C   UNL     4      -9.479   4.279  65.278  1.00  0.00    -0.173 A  
HETATM   34  C   UNL     4      -9.377   5.458  66.012  1.00  0.00    -0.167 A  
BRANCH  30  35
HETATM   35  O   UNL     4      -8.408   6.791  67.687  1.00  0.00    -0.121 OA 
BRANCH  35  36
HETATM   36  C   UNL     4      -7.474   7.770  67.414  1.00  0.00    -0.093 C  
HETATM   37  C   UNL     4      -8.054   8.842  66.547  1.00  0.00    -0.107 C  
HETATM   38  O   UNL     4      -9.134   9.530  66.963  1.00  0.00    -0.132 OA 
HETATM   39  O   UNL     4      -7.524   9.135  65.487  1.00  0.00    -0.088 OA 
ENDBRANCH  35  36
ENDBRANCH  30  35
ENDBRANCH  26  29
ENDBRANCH  24  26
ENDBRANCH  23  24
ENDBRANCH   5  23
BRANCH   5  40
HETATM   40  O   UNL     4     -10.116   4.672  69.921  1.00  0.00    -0.236 OA 
BRANCH  40  41
HETATM   41  C   UNL     4     -10.667   5.917  70.370  1.00  0.00    -0.303 C  
BRANCH  41  42
HETATM   42  C   UNL     4     -11.100   5.886  71.851  1.00  0.00    -0.268 C  
BRANCH  42  43
HETATM   43  O   UNL     4     -11.684   7.114  72.244  1.00  0.00    -0.274 OA 
HETATM   44  C   UNL     4     -10.684   7.959  72.788  1.00  0.00    -0.371 C  
ENDBRANCH  42  43
ENDBRANCH  41  42
ENDBRANCH  40  41
ENDBRANCH   5  40
TORSDOF 17
ENDMDL
MODEL       83
REMARK 921   NORMALIZED FREE ENERGY PREDICTED BY IDOCK:   -4.22 KCAL/MOL
REMARK 922        TOTAL FREE ENERGY PREDICTED BY IDOCK:  -11.28 KCAL/MOL
REMARK 923 INTER-LIGAND FREE ENERGY PREDICTED BY IDOCK:   -9.38 KCAL/MOL
REMARK 924 INTRA-LIGAND FREE ENERGY PREDICTED BY IDOCK:   -1.90 KCAL/MOL
REMARK 927      BINDING AFFINITY PREDICTED BY RF-SCORE:    0.00 PKD
ROOT
HETATM    1 HG   UNL     2      -5.694  17.249  71.175  1.00  0.00    -0.211 Hg 
HETATM    2  C   UNL     3      -5.438   5.271  66.346  1.00  0.00    -0.013 C  
HETATM    3  C   UNL     3      -6.483   6.162  67.031  1.00  0.00    -0.053 C  
HETATM    4  C   UNL     4      -6.679  17.765  67.340  1.00  0.00    -0.182 C  
HETATM    5  C   UNL     4      -6.642  16.438  68.112  1.00  0.00    -0.128 C  
ENDROOT
BRANCH   3   6
HETATM    6  N   UNL     3      -7.888   5.708  66.847  1.00  0.00    -0.101 NA 
BRANCH   6   7
HETATM    7  C   UNL     3      -8.327   5.649  65.426  1.00  0.00    -0.144 C  
HETATM    8  C   UNL     3      -9.241   4.458  65.085  1.00  0.00    -0.156 C  
ENDBRANCH   6   7
BRANCH   6   9
HETATM    9  C   UNL     3      -8.146   4.403  67.508  1.00  0.00    -0.099 C  
BRANCH   9  10
HETATM   10  C   UNL     3      -8.043   4.437  69.030  1.00  0.00    -0.072 C  
BRANCH  10  11
HETATM   11  O   UNL     3      -8.621   5.572  69.551  1.00  0.00    -0.103 OA 
BRANCH  11  12
HETATM   12  C   UNL     3      -8.802   5.787  70.876  1.00  0.00    -0.141 C  
HETATM   13  O   UNL     3      -7.956   5.430  71.686  1.00  0.00    -0.111 OA 
BRANCH  12  14
HETATM   14  C   UNL     3      -9.990   6.549  71.303  1.00  0.00    -0.200 A  
HETATM   15  C   UNL     3     -12.243   8.066  72.028  1.00  0.00    -0.331 A  
HETATM   16  C   UNL     3     -11.239   7.800  72.970  1.00  0.00    -0.380 A  
HETATM   17  C   UNL     3     -10.117   7.046  72.612  1.00  0.00    -0.204 A  
HETATM   18  N   UNL     3     -13.387   8.830  72.386  1.00  0.00    -0.544 NA 
HETATM   19  C   UNL     3     -12.114   7.577  70.723  1.00  0.00    -0.190 A  
HETATM   20  C   UNL     3     -11.000   6.824  70.364  1.00  0.00    -0.330 A  
HETATM   21  H1  UNL     3     -14.117   9.023  71.700  1.00  0.00     0.000 HD 
HETATM   22  H2  UNL     3     -13.068   9.719  72.772  1.00  0.00     0.000 HD 
ENDBRANCH  12  14
ENDBRANCH  11  12
ENDBRANCH  10  11
ENDBRANCH   9  10
ENDBRANCH   6   9
ENDBRANCH   3   6
BRANCH   5  23
HETATM   23  C   UNL     4      -8.044  16.098  68.732  1.00  0.00    -0.218 C  
BRANCH  23  24
HETATM   24  N   UNL     4      -9.244  16.674  68.088  1.00  0.00    -0.216 NA 
HETATM   25  H   UNL     4      -9.146  17.548  67.571  1.00  0.00     0.000 HD 
BRANCH  24  26
HETATM   26  C   UNL     4     -10.434  16.112  68.148  1.00  0.00    -0.279 C  
HETATM   27  H   UNL     4     -12.070  15.884  69.294  1.00  0.00     0.000 HD 
HETATM   28  O   UNL     4     -11.212  16.289  69.250  1.00  0.00    -0.322 OA 
BRANCH  26  29
HETATM   29  C   UNL     4     -11.064  15.275  67.034  1.00  0.00    -0.305 A  
HETATM   30  C   UNL     4     -11.816  14.061  67.164  1.00  0.00    -0.411 A  
HETATM   31  C   UNL     4     -10.862  15.762  65.705  1.00  0.00    -0.286 A  
HETATM   32  C   UNL     4     -11.354  15.087  64.584  1.00  0.00    -0.357 A  
HETATM   33  C   UNL     4     -12.047  13.900  64.736  1.00  0.00    -0.443 A  
HETATM   34  C   UNL     4     -12.285  13.391  66.010  1.00  0.00    -0.491 A  
BRANCH  30  35
HETATM   35  O   UNL     4     -12.153  13.502  68.353  1.00  0.00    -0.352 OA 
BRANCH  35  36
HETATM   36  C   UNL     4     -11.295  12.770  69.150  1.00  0.00    -0.281 C  
HETATM   37  C   UNL     4     -11.983  11.572  69.725  1.00  0.00    -0.346 C  
HETATM   38  O   UNL     4     -12.527  10.654  68.904  1.00  0.00    -0.297 OA 
HETATM   39  O   UNL     4     -12.008  11.393  70.933  1.00  0.00    -0.319 OA 
ENDBRANCH  35  36
ENDBRANCH  30  35
ENDBRANCH  26  29
ENDBRANCH  24  26
ENDBRANCH  23  24
ENDBRANCH   5  23
BRANCH   5  40
HETATM   40  O   UNL     4      -6.244  15.378  67.225  1.00  0.00    -0.317 OA 
BRANCH  40  41
HETATM   41  C   UNL     4      -6.678  14.094  67.691  1.00  0.00    -0.171 C  
BRANCH  41  42
HETATM   42  C   UNL     4      -5.508  13.146  68.028  1.00  0.00    -0.108 C  
BRANCH  42  43
HETATM   43  O   UNL     4      -5.733  11.846  67.517  1.00  0.00    -0.071 OA 
HETATM   44  C   UNL     4      -6.981  11.813  66.844  1.00  0.00    -0.101 C  
ENDBRANCH  42  43
ENDBRANCH  41  42
ENDBRANCH  40  41
ENDBRANCH   5  40
TORSDOF 17
ENDMDL
MODEL       84
REMARK 921   NORMALIZED FREE ENERGY PREDICTED BY IDOCK:   -4.21 KCAL/MOL
REMARK 922        TOTAL FREE ENERGY PREDICTED BY IDOCK:  -11.26 KCAL/MOL
REMARK 923 INTER-LIGAND FREE ENERGY PREDICTED BY IDOCK:   -9.32 KCAL/MOL
REMARK 924 INTRA-LIGAND FREE ENERGY PREDICTED BY IDOCK:   -1.94 KCAL/MOL
REMARK 927      BINDING AFFINITY PREDICTED BY RF-SCORE:    0.00 PKD
ROOT
HETATM    1 HG   UNL     2     -10.295   1.476  68.355  1.00  0.00    -0.193 Hg 
HETATM    2  C   UNL     3     -12.187  13.561  64.202  1.00  0.00    -0.449 C  
HETATM    3  C   UNL     3     -11.951  12.885  65.559  1.00  0.00    -0.436 C  
HETATM    4  C   UNL     4      -6.611   2.764  67.515  1.00  0.00    -0.037 C  
HETATM    5  C   UNL     4      -7.878   3.621  67.652  1.00  0.00    -0.077 C  
ENDROOT
BRANCH   3   6
HETATM    6  N   UNL     3     -11.526  13.816  66.640  1.00  0.00    -0.331 NA 
BRANCH   6   7
HETATM    7  C   UNL     3     -11.399  13.178  67.979  1.00  0.00    -0.292 C  
HETATM    8  C   UNL     3     -11.800  14.080  69.161  1.00  0.00    -0.391 C  
ENDBRANCH   6   7
BRANCH   6   9
HETATM    9  C   UNL     3     -10.269  14.530  66.301  1.00  0.00    -0.297 C  
BRANCH   9  10
HETATM   10  C   UNL     3      -9.036  14.015  67.038  1.00  0.00    -0.235 C  
BRANCH  10  11
HETATM   11  O   UNL     3      -8.431  15.010  67.771  1.00  0.00    -0.145 OA 
BRANCH  11  12
HETATM   12  C   UNL     3      -7.229  15.552  67.461  1.00  0.00    -0.194 C  
HETATM   13  O   UNL     3      -6.266  14.836  67.220  1.00  0.00    -0.309 OA 
BRANCH  12  14
HETATM   14  C   UNL     3      -7.141  17.017  67.322  1.00  0.00    -0.193 A  
HETATM   15  C   UNL     3      -7.047  19.821  67.136  1.00  0.00    -0.215 A  
HETATM   16  C   UNL     3      -7.176  19.041  65.977  1.00  0.00    -0.295 A  
HETATM   17  C   UNL     3      -7.223  17.646  66.067  1.00  0.00    -0.316 A  
HETATM   18  N   UNL     3      -6.998  21.239  67.051  1.00  0.00    -0.742 NA 
HETATM   19  C   UNL     3      -6.972  19.196  68.386  1.00  0.00    -0.303 A  
HETATM   20  C   UNL     3      -7.016  17.808  68.478  1.00  0.00    -0.238 A  
HETATM   21  H1  UNL     3      -6.904  21.806  67.894  1.00  0.00     0.000 HD 
HETATM   22  H2  UNL     3      -7.823  21.557  66.542  1.00  0.00     0.000 HD 
ENDBRANCH  12  14
ENDBRANCH  11  12
ENDBRANCH  10  11
ENDBRANCH   9  10
ENDBRANCH   6   9
ENDBRANCH   3   6
BRANCH   5  23
HETATM   23  C   UNL     4      -8.050   4.157  69.119  1.00  0.00    -0.066 C  
BRANCH  23  24
HETATM   24  N   UNL     4      -9.417   4.209  69.681  1.00  0.00    -0.173 NA 
HETATM   25  H   UNL     4     -10.208   4.163  69.039  1.00  0.00     0.000 HD 
BRANCH  24  26
HETATM   26  C   UNL     4      -9.661   4.313  70.970  1.00  0.00    -0.190 C  
HETATM   27  H   UNL     4     -10.143   3.277  72.625  1.00  0.00     0.000 HD 
HETATM   28  O   UNL     4      -9.966   3.202  71.694  1.00  0.00    -0.165 OA 
BRANCH  26  29
HETATM   29  C   UNL     4      -9.596   5.614  71.771  1.00  0.00    -0.184 A  
HETATM   30  C   UNL     4      -9.437   6.949  71.271  1.00  0.00    -0.165 A  
HETATM   31  C   UNL     4      -9.693   5.471  73.191  1.00  0.00    -0.162 A  
HETATM   32  C   UNL     4      -9.620   6.569  74.054  1.00  0.00    -0.239 A  
HETATM   33  C   UNL     4      -9.432   7.842  73.547  1.00  0.00    -0.346 A  
HETATM   34  C   UNL     4      -9.348   8.036  72.171  1.00  0.00    -0.251 A  
BRANCH  30  35
HETATM   35  O   UNL     4      -9.397   7.264  69.952  1.00  0.00    -0.154 OA 
BRANCH  35  36
HETATM   36  C   UNL     4     -10.411   7.898  69.263  1.00  0.00    -0.216 C  
HETATM   37  C   UNL     4     -10.466   7.439  67.840  1.00  0.00    -0.205 C  
HETATM   38  O   UNL     4     -10.651   6.135  67.564  1.00  0.00    -0.205 OA 
HETATM   39  O   UNL     4     -10.397   8.246  66.926  1.00  0.00    -0.298 OA 
ENDBRANCH  35  36
ENDBRANCH  30  35
ENDBRANCH  26  29
ENDBRANCH  24  26
ENDBRANCH  23  24
ENDBRANCH   5  23
BRANCH   5  40
HETATM   40  O   UNL     4      -7.806   4.733  66.743  1.00  0.00    -0.097 OA 
BRANCH  40  41
HETATM   41  C   UNL     4      -7.664   4.308  65.382  1.00  0.00    -0.086 C  
BRANCH  41  42
HETATM   42  C   UNL     4      -8.184   5.349  64.368  1.00  0.00    -0.133 C  
BRANCH  42  43
HETATM   43  O   UNL     4      -9.066   4.760  63.430  1.00  0.00    -0.121 OA 
HETATM   44  C   UNL     4      -9.822   3.744  64.068  1.00  0.00    -0.179 C  
ENDBRANCH  42  43
ENDBRANCH  41  42
ENDBRANCH  40  41
ENDBRANCH   5  40
TORSDOF 17
ENDMDL
MODEL       85
REMARK 921   NORMALIZED FREE ENERGY PREDICTED BY IDOCK:   -4.20 KCAL/MOL
REMARK 922        TOTAL FREE ENERGY PREDICTED BY IDOCK:  -11.24 KCAL/MOL
REMARK 923 INTER-LIGAND FREE ENERGY PREDICTED BY IDOCK:   -8.53 KCAL/MOL
REMARK 924 INTRA-LIGAND FREE ENERGY PREDICTED BY IDOCK:   -2.71 KCAL/MOL
REMARK 927      BINDING AFFINITY PREDICTED BY RF-SCORE:    0.00 PKD
ROOT
HETATM    1 HG   UNL     2      -6.660   3.649  65.522  1.00  0.00    -0.030 Hg 
HETATM    2  C   UNL     3      -8.365  15.805  69.544  1.00  0.00    -0.135 C  
HETATM    3  C   UNL     3      -9.252  14.708  68.940  1.00  0.00    -0.151 C  
HETATM    4  C   UNL     4      -7.508   3.241  69.402  1.00  0.00    -0.048 C  
HETATM    5  C   UNL     4      -7.701   4.499  68.544  1.00  0.00    -0.075 C  
ENDROOT
BRANCH   3   6
HETATM    6  N   UNL     3     -10.711  14.934  69.123  1.00  0.00    -0.245 NA 
BRANCH   6   7
HETATM    7  C   UNL     3     -11.294  14.227  70.298  1.00  0.00    -0.086 C  
HETATM    8  C   UNL     3     -12.234  13.061  69.944  1.00  0.00    -0.271 C  
ENDBRANCH   6   7
BRANCH   6   9
HETATM    9  C   UNL     3     -11.051  16.378  69.187  1.00  0.00    -0.303 C  
BRANCH   9  10
HETATM   10  C   UNL     3     -10.785  17.144  67.894  1.00  0.00    -0.355 C  
BRANCH  10  11
HETATM   11  O   UNL     3     -11.215  16.442  66.792  1.00  0.00     0.039 OA 
BRANCH  11  12
HETATM   12  C   UNL     3     -10.391  15.987  65.818  1.00  0.00    -0.378 C  
HETATM   13  O   UNL     3      -9.301  16.513  65.627  1.00  0.00    -0.490 OA 
BRANCH  12  14
HETATM   14  C   UNL     3     -10.795  14.785  65.067  1.00  0.00    -0.440 A  
HETATM   15  C   UNL     3     -11.664  12.495  63.686  1.00  0.00    -0.515 A  
HETATM   16  C   UNL     3     -10.417  12.501  64.326  1.00  0.00    -0.404 A  
HETATM   17  C   UNL     3      -9.982  13.638  65.014  1.00  0.00    -0.205 A  
HETATM   18  N   UNL     3     -12.112  11.342  62.984  1.00  0.00    -0.873 NA 
HETATM   19  C   UNL     3     -12.478  13.633  63.745  1.00  0.00    -0.262 A  
HETATM   20  C   UNL     3     -12.046  14.767  64.426  1.00  0.00    -0.457 A  
HETATM   21  H1  UNL     3     -13.019  11.338  62.519  1.00  0.00     0.000 HD 
HETATM   22  H2  UNL     3     -12.076  10.547  63.622  1.00  0.00     0.000 HD 
ENDBRANCH  12  14
ENDBRANCH  11  12
ENDBRANCH  10  11
ENDBRANCH   9  10
ENDBRANCH   6   9
ENDBRANCH   3   6
BRANCH   5  23
HETATM   23  C   UNL     4      -9.146   4.558  67.931  1.00  0.00    -0.123 C  
BRANCH  23  24
HETATM   24  N   UNL     4      -9.763   5.888  67.739  1.00  0.00    -0.115 NA 
HETATM   25  H   UNL     4     -10.614   6.108  68.255  1.00  0.00     0.000 HD 
BRANCH  24  26
HETATM   26  C   UNL     4      -9.265   6.803  66.933  1.00  0.00    -0.144 C  
HETATM   27  H   UNL     4      -8.528   7.121  65.089  1.00  0.00     0.000 HD 
HETATM   28  O   UNL     4      -8.887   6.461  65.671  1.00  0.00    -0.141 OA 
BRANCH  26  29
HETATM   29  C   UNL     4      -9.098   8.282  67.284  1.00  0.00    -0.157 A  
HETATM   30  C   UNL     4      -9.933   9.085  68.130  1.00  0.00    -0.175 A  
HETATM   31  C   UNL     4      -7.980   8.938  66.681  1.00  0.00    -0.103 A  
HETATM   32  C   UNL     4      -7.717  10.297  66.886  1.00  0.00    -0.105 A  
HETATM   33  C   UNL     4      -8.558  11.056  67.679  1.00  0.00    -0.125 A  
HETATM   34  C   UNL     4      -9.652  10.460  68.302  1.00  0.00    -0.152 A  
BRANCH  30  35
HETATM   35  O   UNL     4     -10.992   8.603  68.828  1.00  0.00    -0.032 OA 
BRANCH  35  36
HETATM   36  C   UNL     4     -10.902   7.944  70.038  1.00  0.00    -0.238 C  
HETATM   37  C   UNL     4     -11.138   8.881  71.181  1.00  0.00    -0.285 C  
HETATM   38  O   UNL     4     -12.299   9.557  71.263  1.00  0.00    -0.310 OA 
HETATM   39  O   UNL     4     -10.307   8.997  72.067  1.00  0.00    -0.339 OA 
ENDBRANCH  35  36
ENDBRANCH  30  35
ENDBRANCH  26  29
ENDBRANCH  24  26
ENDBRANCH  23  24
ENDBRANCH   5  23
BRANCH   5  40
HETATM   40  O   UNL     4      -7.477   5.668  69.350  1.00  0.00    -0.072 OA 
BRANCH  40  41
HETATM   41  C   UNL     4      -6.184   6.242  69.120  1.00  0.00    -0.033 C  
BRANCH  41  42
HETATM   42  C   UNL     4      -6.106   7.733  69.514  1.00  0.00    -0.033 C  
BRANCH  42  43
HETATM   43  O   UNL     4      -7.243   8.130  70.258  1.00  0.00    -0.050 OA 
HETATM   44  C   UNL     4      -7.036   9.434  70.774  1.00  0.00    -0.114 C  
ENDBRANCH  42  43
ENDBRANCH  41  42
ENDBRANCH  40  41
ENDBRANCH   5  40
TORSDOF 17
ENDMDL
MODEL       86
REMARK 921   NORMALIZED FREE ENERGY PREDICTED BY IDOCK:   -4.17 KCAL/MOL
REMARK 922        TOTAL FREE ENERGY PREDICTED BY IDOCK:  -11.18 KCAL/MOL
REMARK 923 INTER-LIGAND FREE ENERGY PREDICTED BY IDOCK:   -9.03 KCAL/MOL
REMARK 924 INTRA-LIGAND FREE ENERGY PREDICTED BY IDOCK:   -2.15 KCAL/MOL
REMARK 927      BINDING AFFINITY PREDICTED BY RF-SCORE:    0.00 PKD
ROOT
HETATM    1 HG   UNL     2      -6.204  17.390  70.960  1.00  0.00    -0.068 Hg 
HETATM    2  C   UNL     3      -5.432   7.809  62.330  1.00  0.00    -0.059 C  
HETATM    3  C   UNL     3      -6.123   8.022  63.684  1.00  0.00    -0.063 C  
HETATM    4  C   UNL     4      -9.222  18.140  68.457  1.00  0.00    -0.326 C  
HETATM    5  C   UNL     4      -8.414  16.839  68.563  1.00  0.00    -0.244 C  
ENDROOT
BRANCH   3   6
HETATM    6  N   UNL     3      -7.216   7.053  63.970  1.00  0.00    -0.064 NA 
BRANCH   6   7
HETATM    7  C   UNL     3      -7.037   5.724  63.322  1.00  0.00    -0.046 C  
HETATM    8  C   UNL     3      -8.340   4.931  63.113  1.00  0.00    -0.113 C  
ENDBRANCH   6   7
BRANCH   6   9
HETATM    9  C   UNL     3      -7.439   6.876  65.428  1.00  0.00    -0.088 C  
BRANCH   9  10
HETATM   10  C   UNL     3      -8.688   7.571  65.962  1.00  0.00    -0.158 C  
BRANCH  10  11
HETATM   11  O   UNL     3      -8.965   7.190  67.255  1.00  0.00    -0.121 OA 
BRANCH  11  12
HETATM   12  C   UNL     3     -10.192   6.808  67.683  1.00  0.00    -0.179 C  
HETATM   13  O   UNL     3     -10.944   6.187  66.944  1.00  0.00    -0.343 OA 
BRANCH  12  14
HETATM   14  C   UNL     3     -10.552   7.069  69.089  1.00  0.00    -0.235 A  
HETATM   15  C   UNL     3     -11.134   7.559  71.795  1.00  0.00    -0.241 A  
HETATM   16  C   UNL     3     -11.860   6.595  71.082  1.00  0.00    -0.414 A  
HETATM   17  C   UNL     3     -11.573   6.349  69.735  1.00  0.00    -0.397 A  
HETATM   18  N   UNL     3     -11.422   7.815  73.164  1.00  0.00    -0.605 NA 
HETATM   19  C   UNL     3     -10.113   8.271  71.154  1.00  0.00    -0.237 A  
HETATM   20  C   UNL     3      -9.827   8.030  69.814  1.00  0.00    -0.183 A  
HETATM   21  H1  UNL     3     -10.893   8.516  73.682  1.00  0.00     0.000 HD 
HETATM   22  H2  UNL     3     -11.366   6.932  73.672  1.00  0.00     0.000 HD 
ENDBRANCH  12  14
ENDBRANCH  11  12
ENDBRANCH  10  11
ENDBRANCH   9  10
ENDBRANCH   6   9
ENDBRANCH   3   6
BRANCH   5  23
HETATM   23  C   UNL     4      -9.095  15.822  69.548  1.00  0.00    -0.202 C  
BRANCH  23  24
HETATM   24  N   UNL     4      -9.176  14.405  69.133  1.00  0.00    -0.396 NA 
HETATM   25  H   UNL     4      -8.359  13.810  69.271  1.00  0.00     0.000 HD 
BRANCH  24  26
HETATM   26  C   UNL     4     -10.253  13.873  68.592  1.00  0.00    -0.218 C  
HETATM   27  H   UNL     4     -12.262  13.928  68.573  1.00  0.00     0.000 HD 
HETATM   28  O   UNL     4     -11.486  14.312  68.964  1.00  0.00    -0.249 OA 
BRANCH  26  29
HETATM   29  C   UNL     4     -10.246  12.790  67.513  1.00  0.00    -0.216 A  
HETATM   30  C   UNL     4      -9.405  11.629  67.436  1.00  0.00    -0.168 A  
HETATM   31  C   UNL     4     -11.184  12.971  66.449  1.00  0.00    -0.332 A  
HETATM   32  C   UNL     4     -11.273  12.077  65.377  1.00  0.00    -0.374 A  
HETATM   33  C   UNL     4     -10.428  10.985  65.310  1.00  0.00    -0.316 A  
HETATM   34  C   UNL     4      -9.507  10.754  66.329  1.00  0.00    -0.213 A  
BRANCH  30  35
HETATM   35  O   UNL     4      -8.512  11.276  68.393  1.00  0.00    -0.141 OA 
BRANCH  35  36
HETATM   36  C   UNL     4      -7.172  11.031  68.166  1.00  0.00    -0.083 C  
HETATM   37  C   UNL     4      -6.545  12.140  67.383  1.00  0.00    -0.147 C  
HETATM   38  O   UNL     4      -6.568  13.396  67.865  1.00  0.00    -0.114 OA 
HETATM   39  O   UNL     4      -5.965  11.906  66.334  1.00  0.00    -0.171 OA 
ENDBRANCH  35  36
ENDBRANCH  30  35
ENDBRANCH  26  29
ENDBRANCH  24  26
ENDBRANCH  23  24
ENDBRANCH   5  23
BRANCH   5  40
HETATM   40  O   UNL     4      -8.300  16.238  67.262  1.00  0.00    -0.165 OA 
BRANCH  40  41
HETATM   41  C   UNL     4      -9.162  16.862  66.301  1.00  0.00    -0.267 C  
BRANCH  41  42
HETATM   42  C   UNL     4     -10.236  15.905  65.742  1.00  0.00    -0.365 C  
BRANCH  42  43
HETATM   43  O   UNL     4     -11.055  16.551  64.786  1.00  0.00    -0.624 OA 
HETATM   44  C   UNL     4     -12.063  15.656  64.347  1.00  0.00    -0.084 C  
ENDBRANCH  42  43
ENDBRANCH  41  42
ENDBRANCH  40  41
ENDBRANCH   5  40
TORSDOF 17
ENDMDL
MODEL       87
REMARK 921   NORMALIZED FREE ENERGY PREDICTED BY IDOCK:   -4.04 KCAL/MOL
REMARK 922        TOTAL FREE ENERGY PREDICTED BY IDOCK:  -10.92 KCAL/MOL
REMARK 923 INTER-LIGAND FREE ENERGY PREDICTED BY IDOCK:   -8.88 KCAL/MOL
REMARK 924 INTRA-LIGAND FREE ENERGY PREDICTED BY IDOCK:   -2.04 KCAL/MOL
REMARK 927      BINDING AFFINITY PREDICTED BY RF-SCORE:    0.00 PKD
ROOT
HETATM    1 HG   UNL     2     -10.193   2.122  67.374  1.00  0.00    -0.413 Hg 
HETATM    2  C   UNL     3     -12.192  14.586  64.632  1.00  0.00    -0.474 C  
HETATM    3  C   UNL     3     -12.118  13.734  65.907  1.00  0.00    -0.433 C  
HETATM    4  C   UNL     4      -6.512   3.664  67.293  1.00  0.00    -0.037 C  
HETATM    5  C   UNL     4      -7.835   4.441  67.346  1.00  0.00    -0.096 C  
ENDROOT
BRANCH   3   6
HETATM    6  N   UNL     3     -11.915  14.520  67.155  1.00  0.00    -0.394 NA 
BRANCH   6   7
HETATM    7  C   UNL     3     -11.724  13.687  68.375  1.00  0.00    -0.358 C  
HETATM    8  C   UNL     3     -12.254  14.321  69.674  1.00  0.00    -0.371 C  
ENDBRANCH   6   7
BRANCH   6   9
HETATM    9  C   UNL     3     -10.799  15.491  67.030  1.00  0.00    -0.314 C  
BRANCH   9  10
HETATM   10  C   UNL     3      -9.491  15.032  67.667  1.00  0.00    -0.195 C  
BRANCH  10  11
HETATM   11  O   UNL     3      -8.782  14.205  66.826  1.00  0.00    -0.208 OA 
BRANCH  11  12
HETATM   12  C   UNL     3      -8.022  13.167  67.252  1.00  0.00    -0.133 C  
HETATM   13  O   UNL     3      -7.028  13.363  67.939  1.00  0.00    -0.106 OA 
BRANCH  12  14
HETATM   14  C   UNL     3      -8.482  11.798  66.954  1.00  0.00    -0.174 A  
HETATM   15  C   UNL     3      -9.462   9.221  66.407  1.00  0.00    -0.218 A  
HETATM   16  C   UNL     3      -8.376   9.391  67.276  1.00  0.00    -0.125 A  
HETATM   17  C   UNL     3      -7.886  10.673  67.551  1.00  0.00    -0.106 A  
HETATM   18  N   UNL     3      -9.964   7.921  66.123  1.00  0.00    -0.457 NA 
HETATM   19  C   UNL     3     -10.061  10.341  65.819  1.00  0.00    -0.325 A  
HETATM   20  C   UNL     3      -9.574  11.617  66.088  1.00  0.00    -0.252 A  
HETATM   21  H1  UNL     3     -10.754   7.797  65.491  1.00  0.00     0.000 HD 
HETATM   22  H2  UNL     3     -10.188   7.465  67.008  1.00  0.00     0.000 HD 
ENDBRANCH  12  14
ENDBRANCH  11  12
ENDBRANCH  10  11
ENDBRANCH   9  10
ENDBRANCH   6   9
ENDBRANCH   3   6
BRANCH   5  23
HETATM   23  C   UNL     4      -8.254   4.756  68.826  1.00  0.00    -0.083 C  
BRANCH  23  24
HETATM   24  N   UNL     4      -9.677   5.053  69.095  1.00  0.00    -0.158 NA 
HETATM   25  H   UNL     4     -10.369   4.328  68.904  1.00  0.00     0.000 HD 
BRANCH  24  26
HETATM   26  C   UNL     4     -10.095   6.209  69.567  1.00  0.00    -0.185 C  
HETATM   27  H   UNL     4     -10.951   7.958  69.069  1.00  0.00     0.000 HD 
HETATM   28  O   UNL     4     -10.650   7.125  68.728  1.00  0.00    -0.205 OA 
BRANCH  26  29
HETATM   29  C   UNL     4     -10.048   6.621  71.039  1.00  0.00    -0.207 A  
HETATM   30  C   UNL     4     -11.151   6.931  71.903  1.00  0.00    -0.246 A  
HETATM   31  C   UNL     4      -8.742   6.720  71.612  1.00  0.00    -0.126 A  
HETATM   32  C   UNL     4      -8.540   7.114  72.939  1.00  0.00    -0.139 A  
HETATM   33  C   UNL     4      -9.619   7.440  73.739  1.00  0.00    -0.333 A  
HETATM   34  C   UNL     4     -10.914   7.344  73.234  1.00  0.00    -0.367 A  
BRANCH  30  35
HETATM   35  O   UNL     4     -12.453   6.822  71.537  1.00  0.00    -0.355 OA 
BRANCH  35  36
HETATM   36  C   UNL     4     -13.395   7.823  71.673  1.00  0.00    -0.342 C  
HETATM   37  C   UNL     4     -12.789   9.170  71.435  1.00  0.00    -0.313 C  
HETATM   38  O   UNL     4     -12.196   9.439  70.257  1.00  0.00     0.004 OA 
HETATM   39  O   UNL     4     -12.874  10.045  72.283  1.00  0.00    -0.354 OA 
ENDBRANCH  35  36
ENDBRANCH  30  35
ENDBRANCH  26  29
ENDBRANCH  24  26
ENDBRANCH  23  24
ENDBRANCH   5  23
BRANCH   5  40
HETATM   40  O   UNL     4      -7.699   5.672  66.616  1.00  0.00    -0.097 OA 
BRANCH  40  41
HETATM   41  C   UNL     4      -6.897   5.515  65.438  1.00  0.00    -0.056 C  
BRANCH  41  42
HETATM   42  C   UNL     4      -7.430   6.319  64.234  1.00  0.00    -0.086 C  
BRANCH  42  43
HETATM   43  O   UNL     4      -6.509   6.311  63.159  1.00  0.00    -0.032 OA 
HETATM   44  C   UNL     4      -5.266   5.796  63.608  1.00  0.00    -0.013 C  
ENDBRANCH  42  43
ENDBRANCH  41  42
ENDBRANCH  40  41
ENDBRANCH   5  40
TORSDOF 17
ENDMDL
MODEL       88
REMARK 921   NORMALIZED FREE ENERGY PREDICTED BY IDOCK:   -4.04 KCAL/MOL
REMARK 922        TOTAL FREE ENERGY PREDICTED BY IDOCK:  -10.92 KCAL/MOL
REMARK 923 INTER-LIGAND FREE ENERGY PREDICTED BY IDOCK:   -9.05 KCAL/MOL
REMARK 924 INTRA-LIGAND FREE ENERGY PREDICTED BY IDOCK:   -1.86 KCAL/MOL
REMARK 927      BINDING AFFINITY PREDICTED BY RF-SCORE:    0.00 PKD
ROOT
HETATM    1 HG   UNL     2      -8.815  17.940  67.071  1.00  0.00    -0.219 Hg 
HETATM    2  C   UNL     3      -5.263   5.715  69.259  1.00  0.00    -0.004 C  
HETATM    3  C   UNL     3      -6.275   6.696  69.867  1.00  0.00    -0.038 C  
HETATM    4  C   UNL     4     -11.187  15.829  64.652  1.00  0.00    -0.373 C  
HETATM    5  C   UNL     4     -10.334  15.288  65.807  1.00  0.00    -0.344 C  
ENDROOT
BRANCH   3   6
HETATM    6  N   UNL     3      -7.328   6.050  70.696  1.00  0.00    -0.083 NA 
BRANCH   6   7
HETATM    7  C   UNL     3      -7.492   6.651  72.050  1.00  0.00    -0.094 C  
HETATM    8  C   UNL     3      -7.410   8.188  72.084  1.00  0.00    -0.117 C  
ENDBRANCH   6   7
BRANCH   6   9
HETATM    9  C   UNL     3      -8.641   6.009  70.003  1.00  0.00    -0.131 C  
BRANCH   9  10
HETATM   10  C   UNL     3      -8.735   6.919  68.781  1.00  0.00    -0.129 C  
BRANCH  10  11
HETATM   11  O   UNL     3      -9.109   8.196  69.128  1.00  0.00    -0.147 OA 
BRANCH  11  12
HETATM   12  C   UNL     3     -10.350   8.701  68.925  1.00  0.00    -0.211 C  
HETATM   13  O   UNL     3     -10.726   8.996  67.798  1.00  0.00    -0.229 OA 
BRANCH  12  14
HETATM   14  C   UNL     3     -11.265   8.788  70.078  1.00  0.00    -0.113 A  
HETATM   15  C   UNL     3     -13.085   8.901  72.218  1.00  0.00    -0.436 A  
HETATM   16  C   UNL     3     -12.411  10.059  71.804  1.00  0.00    -0.434 A  
HETATM   17  C   UNL     3     -11.505  10.006  70.740  1.00  0.00    -0.438 A  
HETATM   18  N   UNL     3     -14.006   8.947  73.300  1.00  0.00    -1.217 NA 
HETATM   19  C   UNL     3     -12.851   7.690  71.555  1.00  0.00    -0.376 A  
HETATM   20  C   UNL     3     -11.948   7.634  70.498  1.00  0.00    -0.044 A  
HETATM   21  H1  UNL     3     -14.495   8.105  73.600  1.00  0.00     0.000 HD 
HETATM   22  H2  UNL     3     -14.701   9.666  73.096  1.00  0.00     0.000 HD 
ENDBRANCH  12  14
ENDBRANCH  11  12
ENDBRANCH  10  11
ENDBRANCH   9  10
ENDBRANCH   6   9
ENDBRANCH   3   6
BRANCH   5  23
HETATM   23  C   UNL     4     -11.153  15.231  67.146  1.00  0.00    -0.323 C  
BRANCH  23  24
HETATM   24  N   UNL     4     -10.401  15.247  68.419  1.00  0.00    -0.224 NA 
HETATM   25  H   UNL     4     -10.904  15.047  69.283  1.00  0.00     0.000 HD 
BRANCH  24  26
HETATM   26  C   UNL     4      -9.112  15.509  68.491  1.00  0.00    -0.196 C  
HETATM   27  H   UNL     4      -7.761  16.921  68.964  1.00  0.00     0.000 HD 
HETATM   28  O   UNL     4      -8.691  16.732  68.912  1.00  0.00    -0.255 OA 
BRANCH  26  29
HETATM   29  C   UNL     4      -7.998  14.514  68.166  1.00  0.00    -0.133 A  
HETATM   30  C   UNL     4      -6.618  14.796  67.893  1.00  0.00    -0.161 A  
HETATM   31  C   UNL     4      -8.391  13.140  68.117  1.00  0.00    -0.161 A  
HETATM   32  C   UNL     4      -7.487  12.119  67.804  1.00  0.00    -0.122 A  
HETATM   33  C   UNL     4      -6.170  12.423  67.511  1.00  0.00    -0.148 A  
HETATM   34  C   UNL     4      -5.733  13.744  67.561  1.00  0.00     0.083 A  
BRANCH  30  35
HETATM   35  O   UNL     4      -6.069  16.034  67.963  1.00  0.00    -0.110 OA 
BRANCH  35  36
HETATM   36  C   UNL     4      -5.510  16.709  66.896  1.00  0.00    -0.056 C  
HETATM   37  C   UNL     4      -6.162  18.041  66.697  1.00  0.00    -0.173 C  
HETATM   38  O   UNL     4      -6.155  18.945  67.694  1.00  0.00    -0.195 OA 
HETATM   39  O   UNL     4      -6.655  18.333  65.619  1.00  0.00    -0.258 OA 
ENDBRANCH  35  36
ENDBRANCH  30  35
ENDBRANCH  26  29
ENDBRANCH  24  26
ENDBRANCH  23  24
ENDBRANCH   5  23
BRANCH   5  40
HETATM   40  O   UNL     4      -9.863  13.969  65.480  1.00  0.00    -0.279 OA 
BRANCH  40  41
HETATM   41  C   UNL     4     -10.641  13.363  64.439  1.00  0.00    -0.407 C  
BRANCH  41  42
HETATM   42  C   UNL     4     -10.022  12.052  63.910  1.00  0.00    -0.318 C  
BRANCH  42  43
HETATM   43  O   UNL     4     -10.049  11.034  64.893  1.00  0.00    -0.258 OA 
HETATM   44  C   UNL     4      -8.757  10.462  65.015  1.00  0.00    -0.182 C  
ENDBRANCH  42  43
ENDBRANCH  41  42
ENDBRANCH  40  41
ENDBRANCH   5  40
TORSDOF 17
ENDMDL
MODEL       89
REMARK 921   NORMALIZED FREE ENERGY PREDICTED BY IDOCK:   -3.82 KCAL/MOL
REMARK 922        TOTAL FREE ENERGY PREDICTED BY IDOCK:  -10.49 KCAL/MOL
REMARK 923 INTER-LIGAND FREE ENERGY PREDICTED BY IDOCK:   -8.87 KCAL/MOL
REMARK 924 INTRA-LIGAND FREE ENERGY PREDICTED BY IDOCK:   -1.61 KCAL/MOL
REMARK 927      BINDING AFFINITY PREDICTED BY RF-SCORE:    0.00 PKD
ROOT
HETATM    1 HG   UNL     2      -8.471   4.590  68.908  1.00  0.00    -0.079 Hg 
HETATM    2  C   UNL     3      -5.666  17.142  70.112  1.00  0.00    -0.221 C  
HETATM    3  C   UNL     3      -6.713  16.313  69.356  1.00  0.00    -0.209 C  
HETATM    4  C   UNL     4     -10.582   5.719  72.103  1.00  0.00    -0.268 C  
HETATM    5  C   UNL     4      -9.905   6.636  71.075  1.00  0.00    -0.182 C  
ENDROOT
BRANCH   3   6
HETATM    6  N   UNL     3      -7.887  17.096  68.884  1.00  0.00    -0.246 NA 
BRANCH   6   7
HETATM    7  C   UNL     3      -7.822  17.486  67.448  1.00  0.00    -0.202 C  
HETATM    8  C   UNL     3      -9.055  18.251  66.934  1.00  0.00    -0.282 C  
ENDBRANCH   6   7
BRANCH   6   9
HETATM    9  C   UNL     3      -9.170  16.400  69.158  1.00  0.00    -0.216 C  
BRANCH   9  10
HETATM   10  C   UNL     3      -9.072  14.878  69.165  1.00  0.00    -0.140 C  
BRANCH  10  11
HETATM   11  O   UNL     3     -10.298  14.290  68.955  1.00  0.00    -0.235 OA 
BRANCH  11  12
HETATM   12  C   UNL     3     -11.315  14.884  68.284  1.00  0.00    -0.310 C  
HETATM   13  O   UNL     3     -11.969  15.776  68.808  1.00  0.00    -0.374 OA 
BRANCH  12  14
HETATM   14  C   UNL     3     -11.542  14.499  66.880  1.00  0.00    -0.399 A  
HETATM   15  C   UNL     3     -11.934  13.667  64.223  1.00  0.00    -0.445 A  
HETATM   16  C   UNL     3     -11.320  14.899  64.492  1.00  0.00    -0.306 A  
HETATM   17  C   UNL     3     -11.123  15.315  65.813  1.00  0.00    -0.301 A  
HETATM   18  N   UNL     3     -12.137  13.239  62.883  1.00  0.00    -0.736 NA 
HETATM   19  C   UNL     3     -12.344  12.851  65.284  1.00  0.00    -0.544 A  
HETATM   20  C   UNL     3     -12.153  13.264  66.599  1.00  0.00    -0.421 A  
HETATM   21  H1  UNL     3     -12.583  12.343  62.687  1.00  0.00     0.000 HD 
HETATM   22  H2  UNL     3     -11.238  13.260  62.401  1.00  0.00     0.000 HD 
ENDBRANCH  12  14
ENDBRANCH  11  12
ENDBRANCH  10  11
ENDBRANCH   9  10
ENDBRANCH   6   9
ENDBRANCH   3   6
BRANCH   5  23
HETATM   23  C   UNL     4     -10.893   7.025  69.918  1.00  0.00    -0.251 C  
BRANCH  23  24
HETATM   24  N   UNL     4     -10.829   8.404  69.387  1.00  0.00    -0.397 NA 
HETATM   25  H   UNL     4     -11.215   9.160  69.953  1.00  0.00     0.000 HD 
BRANCH  24  26
HETATM   26  C   UNL     4     -10.298   8.703  68.220  1.00  0.00    -0.207 C  
HETATM   27  H   UNL     4     -10.581   9.736  66.519  1.00  0.00     0.000 HD 
HETATM   28  O   UNL     4     -10.964   9.521  67.361  1.00  0.00    -0.232 OA 
BRANCH  26  29
HETATM   29  C   UNL     4      -8.929   8.226  67.734  1.00  0.00    -0.139 A  
HETATM   30  C   UNL     4      -8.619   7.023  67.016  1.00  0.00    -0.122 A  
HETATM   31  C   UNL     4      -7.828   9.082  68.051  1.00  0.00    -0.101 A  
HETATM   32  C   UNL     4      -6.513   8.762  67.697  1.00  0.00    -0.061 A  
HETATM   33  C   UNL     4      -6.239   7.580  67.035  1.00  0.00    -0.052 A  
HETATM   34  C   UNL     4      -7.277   6.719  66.689  1.00  0.00    -0.073 A  
BRANCH  30  35
HETATM   35  O   UNL     4      -9.552   6.139  66.581  1.00  0.00    -0.146 OA 
BRANCH  35  36
HETATM   36  C   UNL     4      -9.317   4.798  66.349  1.00  0.00    -0.146 C  
HETATM   37  C   UNL     4      -9.532   4.455  64.909  1.00  0.00    -0.162 C  
HETATM   38  O   UNL     4      -8.815   5.080  63.957  1.00  0.00    -0.126 OA 
HETATM   39  O   UNL     4     -10.316   3.573  64.593  1.00  0.00    -0.140 OA 
ENDBRANCH  35  36
ENDBRANCH  30  35
ENDBRANCH  26  29
ENDBRANCH  24  26
ENDBRANCH  23  24
ENDBRANCH   5  23
BRANCH   5  40
HETATM   40  O   UNL     4      -9.443   7.830  71.729  1.00  0.00    -0.145 OA 
BRANCH  40  41
HETATM   41  C   UNL     4      -8.013   7.927  71.728  1.00  0.00    -0.104 C  
BRANCH  41  42
HETATM   42  C   UNL     4      -7.350   7.070  72.828  1.00  0.00    -0.077 C  
BRANCH  42  43
HETATM   43  O   UNL     4      -6.054   6.651  72.445  1.00  0.00    -0.041 OA 
HETATM   44  C   UNL     4      -5.739   7.195  71.174  1.00  0.00    -0.035 C  
ENDBRANCH  42  43
ENDBRANCH  41  42
ENDBRANCH  40  41
ENDBRANCH   5  40
TORSDOF 17
ENDMDL
MODEL       90
REMARK 921   NORMALIZED FREE ENERGY PREDICTED BY IDOCK:   -3.82 KCAL/MOL
REMARK 922        TOTAL FREE ENERGY PREDICTED BY IDOCK:  -10.47 KCAL/MOL
REMARK 923 INTER-LIGAND FREE ENERGY PREDICTED BY IDOCK:   -7.80 KCAL/MOL
REMARK 924 INTRA-LIGAND FREE ENERGY PREDICTED BY IDOCK:   -2.67 KCAL/MOL
REMARK 927      BINDING AFFINITY PREDICTED BY RF-SCORE:    0.00 PKD
ROOT
HETATM    1 HG   UNL     2     -10.531   1.480  67.788  1.00  0.00    -0.406 Hg 
HETATM    2  C   UNL     3     -12.254  13.990  65.067  1.00  0.00    -0.448 C  
HETATM    3  C   UNL     3     -12.178  13.138  66.342  1.00  0.00    -0.329 C  
HETATM    4  C   UNL     4      -6.812   2.926  67.636  1.00  0.00    -0.048 C  
HETATM    5  C   UNL     4      -8.114   3.737  67.713  1.00  0.00    -0.088 C  
ENDROOT
BRANCH   3   6
HETATM    6  N   UNL     3     -11.932  13.919  67.584  1.00  0.00    -0.381 NA 
BRANCH   6   7
HETATM    7  C   UNL     3     -11.600  13.085  68.773  1.00  0.00    -0.309 C  
HETATM    8  C   UNL     3     -12.277  13.532  70.081  1.00  0.00    -0.400 C  
ENDBRANCH   6   7
BRANCH   6   9
HETATM    9  C   UNL     3     -10.889  14.960  67.394  1.00  0.00    -0.304 C  
BRANCH   9  10
HETATM   10  C   UNL     3      -9.583  14.684  68.131  1.00  0.00    -0.213 C  
BRANCH  10  11
HETATM   11  O   UNL     3      -8.665  14.060  67.318  1.00  0.00    -0.196 OA 
BRANCH  11  12
HETATM   12  C   UNL     3      -7.914  13.000  67.701  1.00  0.00    -0.169 C  
HETATM   13  O   UNL     3      -6.927  13.158  68.409  1.00  0.00    -0.087 OA 
BRANCH  12  14
HETATM   14  C   UNL     3      -8.374  11.649  67.331  1.00  0.00    -0.152 A  
HETATM   15  C   UNL     3      -9.319   9.118  66.551  1.00  0.00    -0.190 A  
HETATM   16  C   UNL     3      -9.249   9.457  67.910  1.00  0.00    -0.139 A  
HETATM   17  C   UNL     3      -8.780  10.715  68.301  1.00  0.00    -0.135 A  
HETATM   18  N   UNL     3      -9.794   7.841  66.147  1.00  0.00    -0.460 NA 
HETATM   19  C   UNL     3      -8.922  10.050  65.585  1.00  0.00    -0.203 A  
HETATM   20  C   UNL     3      -8.452  11.302  65.971  1.00  0.00    -0.102 A  
HETATM   21  H1  UNL     3      -9.844   7.595  65.159  1.00  0.00     0.000 HD 
HETATM   22  H2  UNL     3     -10.716   7.698  66.560  1.00  0.00     0.000 HD 
ENDBRANCH  12  14
ENDBRANCH  11  12
ENDBRANCH  10  11
ENDBRANCH   9  10
ENDBRANCH   6   9
ENDBRANCH   3   6
BRANCH   5  23
HETATM   23  C   UNL     4      -8.496   4.065  69.200  1.00  0.00    -0.077 C  
BRANCH  23  24
HETATM   24  N   UNL     4      -9.845   4.612  69.464  1.00  0.00    -0.212 NA 
HETATM   25  H   UNL     4     -10.615   3.958  69.606  1.00  0.00     0.000 HD 
BRANCH  24  26
HETATM   26  C   UNL     4     -10.099   5.902  69.523  1.00  0.00    -0.203 C  
HETATM   27  H   UNL     4     -11.047   7.419  68.605  1.00  0.00     0.000 HD 
HETATM   28  O   UNL     4     -10.863   6.488  68.562  1.00  0.00    -0.247 OA 
BRANCH  26  29
HETATM   29  C   UNL     4      -9.628   6.837  70.638  1.00  0.00    -0.174 A  
HETATM   30  C   UNL     4     -10.298   7.149  71.868  1.00  0.00    -0.192 A  
HETATM   31  C   UNL     4      -8.373   7.483  70.413  1.00  0.00    -0.128 A  
HETATM   32  C   UNL     4      -7.828   8.388  71.331  1.00  0.00    -0.137 A  
HETATM   33  C   UNL     4      -8.512   8.696  72.492  1.00  0.00    -0.097 A  
HETATM   34  C   UNL     4      -9.731   8.081  72.767  1.00  0.00    -0.348 A  
BRANCH  30  35
HETATM   35  O   UNL     4     -11.461   6.573  72.264  1.00  0.00    -0.267 OA 
BRANCH  35  36
HETATM   36  C   UNL     4     -11.638   5.220  72.472  1.00  0.00    -0.094 C  
HETATM   37  C   UNL     4     -10.429   4.609  73.107  1.00  0.00    -0.193 C  
HETATM   38  O   UNL     4      -9.992   5.067  74.295  1.00  0.00    -0.166 OA 
HETATM   39  O   UNL     4      -9.865   3.662  72.580  1.00  0.00    -0.138 OA 
ENDBRANCH  35  36
ENDBRANCH  30  35
ENDBRANCH  26  29
ENDBRANCH  24  26
ENDBRANCH  23  24
ENDBRANCH   5  23
BRANCH   5  40
HETATM   40  O   UNL     4      -7.959   4.963  66.979  1.00  0.00    -0.102 OA 
BRANCH  40  41
HETATM   41  C   UNL     4      -7.936   4.745  65.563  1.00  0.00    -0.095 C  
BRANCH  41  42
HETATM   42  C   UNL     4      -6.985   5.707  64.819  1.00  0.00    -0.052 C  
BRANCH  42  43
HETATM   43  O   UNL     4      -6.771   5.291  63.483  1.00  0.00    -0.035 OA 
HETATM   44  C   UNL     4      -8.016   5.207  62.811  1.00  0.00    -0.084 C  
ENDBRANCH  42  43
ENDBRANCH  41  42
ENDBRANCH  40  41
ENDBRANCH   5  40
TORSDOF 17
ENDMDL
MODEL       91
REMARK 921   NORMALIZED FREE ENERGY PREDICTED BY IDOCK:   -3.78 KCAL/MOL
REMARK 922        TOTAL FREE ENERGY PREDICTED BY IDOCK:  -10.40 KCAL/MOL
REMARK 923 INTER-LIGAND FREE ENERGY PREDICTED BY IDOCK:   -8.70 KCAL/MOL
REMARK 924 INTRA-LIGAND FREE ENERGY PREDICTED BY IDOCK:   -1.69 KCAL/MOL
REMARK 927      BINDING AFFINITY PREDICTED BY RF-SCORE:    0.00 PKD
ROOT
HETATM    1 HG   UNL     2      -9.364   6.174  63.167  1.00  0.00    -0.334 Hg 
HETATM    2  C   UNL     3      -7.296  18.607  65.999  1.00  0.00    -0.276 C  
HETATM    3  C   UNL     3      -8.417  17.589  66.251  1.00  0.00    -0.212 C  
HETATM    4  C   UNL     4      -7.429   6.030  66.656  1.00  0.00    -0.090 C  
HETATM    5  C   UNL     4      -8.077   7.264  66.012  1.00  0.00    -0.121 C  
ENDROOT
BRANCH   3   6
HETATM    6  N   UNL     3      -9.367  17.982  67.326  1.00  0.00    -0.253 NA 
BRANCH   6   7
HETATM    7  C   UNL     3     -10.118  19.238  67.047  1.00  0.00    -0.374 C  
HETATM    8  C   UNL     3     -10.193  20.219  68.231  1.00  0.00    -0.373 C  
ENDBRANCH   6   7
BRANCH   6   9
HETATM    9  C   UNL     3     -10.319  16.892  67.659  1.00  0.00    -0.317 C  
BRANCH   9  10
HETATM   10  C   UNL     3      -9.984  16.133  68.939  1.00  0.00    -0.233 C  
BRANCH  10  11
HETATM   11  O   UNL     3     -10.164  14.778  68.786  1.00  0.00    -0.227 OA 
BRANCH  11  12
HETATM   12  C   UNL     3     -11.343  14.207  68.442  1.00  0.00    -0.287 C  
HETATM   13  O   UNL     3     -12.320  14.305  69.173  1.00  0.00    -0.277 OA 
BRANCH  12  14
HETATM   14  C   UNL     3     -11.444  13.557  67.123  1.00  0.00    -0.368 A  
HETATM   15  C   UNL     3     -11.746  12.311  64.620  1.00  0.00    -0.356 A  
HETATM   16  C   UNL     3     -10.789  11.840  65.531  1.00  0.00    -0.348 A  
HETATM   17  C   UNL     3     -10.637  12.458  66.777  1.00  0.00    -0.250 A  
HETATM   18  N   UNL     3     -11.904  11.689  63.352  1.00  0.00    -0.813 NA 
HETATM   19  C   UNL     3     -12.554  13.400  64.967  1.00  0.00    -0.459 A  
HETATM   20  C   UNL     3     -12.403  14.019  66.204  1.00  0.00    -0.491 A  
HETATM   21  H1  UNL     3     -12.600  12.031  62.690  1.00  0.00     0.000 HD 
HETATM   22  H2  UNL     3     -12.070  10.694  63.503  1.00  0.00     0.000 HD 
ENDBRANCH  12  14
ENDBRANCH  11  12
ENDBRANCH  10  11
ENDBRANCH   9  10
ENDBRANCH   6   9
ENDBRANCH   3   6
BRANCH   5  23
HETATM   23  C   UNL     4      -9.556   7.456  66.504  1.00  0.00    -0.164 C  
BRANCH  23  24
HETATM   24  N   UNL     4      -9.769   8.036  67.848  1.00  0.00    -0.155 NA 
HETATM   25  H   UNL     4      -9.522   9.013  67.999  1.00  0.00     0.000 HD 
BRANCH  24  26
HETATM   26  C   UNL     4     -10.262   7.350  68.858  1.00  0.00    -0.196 C  
HETATM   27  H   UNL     4     -11.716   7.313  70.246  1.00  0.00     0.000 HD 
HETATM   28  O   UNL     4     -11.360   7.808  69.517  1.00  0.00     0.018 OA 
BRANCH  26  29
HETATM   29  C   UNL     4      -9.715   6.012  69.357  1.00  0.00    -0.176 A  
HETATM   30  C   UNL     4      -8.989   5.755  70.568  1.00  0.00    -0.143 A  
HETATM   31  C   UNL     4      -9.947   4.891  68.501  1.00  0.00    -0.185 A  
HETATM   32  C   UNL     4      -9.480   3.609  68.812  1.00  0.00    -0.214 A  
HETATM   33  C   UNL     4      -8.753   3.396  69.969  1.00  0.00    -0.127 A  
HETATM   34  C   UNL     4      -8.514   4.452  70.845  1.00  0.00    -0.105 A  
BRANCH  30  35
HETATM   35  O   UNL     4      -8.743   6.692  71.517  1.00  0.00    -0.131 OA 
BRANCH  35  36
HETATM   36  C   UNL     4      -7.484   7.099  71.914  1.00  0.00    -0.085 C  
HETATM   37  C   UNL     4      -6.719   7.681  70.767  1.00  0.00    -0.042 C  
HETATM   38  O   UNL     4      -7.212   8.745  70.106  1.00  0.00    -0.048 OA 
HETATM   39  O   UNL     4      -5.626   7.232  70.461  1.00  0.00    -0.023 OA 
ENDBRANCH  35  36
ENDBRANCH  30  35
ENDBRANCH  26  29
ENDBRANCH  24  26
ENDBRANCH  23  24
ENDBRANCH   5  23
BRANCH   5  40
HETATM   40  O   UNL     4      -7.310   8.435  66.340  1.00  0.00    -0.081 OA 
BRANCH  40  41
HETATM   41  C   UNL     4      -7.943   9.638  65.888  1.00  0.00    -0.112 C  
BRANCH  41  42
HETATM   42  C   UNL     4      -7.487  10.890  66.667  1.00  0.00    -0.139 C  
BRANCH  42  43
HETATM   43  O   UNL     4      -6.078  11.029  66.642  1.00  0.00    -0.096 OA 
HETATM   44  C   UNL     4      -5.617  11.388  67.934  1.00  0.00    -0.044 C  
ENDBRANCH  42  43
ENDBRANCH  41  42
ENDBRANCH  40  41
ENDBRANCH   5  40
TORSDOF 17
ENDMDL
MODEL       92
REMARK 921   NORMALIZED FREE ENERGY PREDICTED BY IDOCK:   -3.74 KCAL/MOL
REMARK 922        TOTAL FREE ENERGY PREDICTED BY IDOCK:  -10.32 KCAL/MOL
REMARK 923 INTER-LIGAND FREE ENERGY PREDICTED BY IDOCK:   -8.70 KCAL/MOL
REMARK 924 INTRA-LIGAND FREE ENERGY PREDICTED BY IDOCK:   -1.62 KCAL/MOL
REMARK 927      BINDING AFFINITY PREDICTED BY RF-SCORE:    0.00 PKD
ROOT
HETATM    1 HG   UNL     2      -9.507   5.124  74.535  1.00  0.00    -0.117 Hg 
HETATM    2  C   UNL     3     -12.905  13.887  65.674  1.00  0.00    -0.467 C  
HETATM    3  C   UNL     3     -11.586  13.322  66.217  1.00  0.00    -0.346 C  
HETATM    4  C   UNL     4      -9.923   2.970  71.200  1.00  0.00     0.012 C  
HETATM    5  C   UNL     4      -9.835   4.499  71.304  1.00  0.00    -0.190 C  
ENDROOT
BRANCH   3   6
HETATM    6  N   UNL     3     -10.406  13.580  65.347  1.00  0.00    -0.309 NA 
BRANCH   6   7
HETATM    7  C   UNL     3     -10.533  13.029  63.969  1.00  0.00    -0.312 C  
HETATM    8  C   UNL     3      -9.997  11.597  63.798  1.00  0.00    -0.378 C  
ENDBRANCH   6   7
BRANCH   6   9
HETATM    9  C   UNL     3     -10.065  15.024  65.282  1.00  0.00    -0.343 C  
BRANCH   9  10
HETATM   10  C   UNL     3      -8.979  15.458  66.262  1.00  0.00    -0.306 C  
BRANCH  10  11
HETATM   11  O   UNL     3      -9.515  15.876  67.458  1.00  0.00    -0.217 OA 
BRANCH  11  12
HETATM   12  C   UNL     3      -8.830  15.896  68.627  1.00  0.00    -0.206 C  
HETATM   13  O   UNL     3      -8.906  14.958  69.410  1.00  0.00    -0.149 OA 
BRANCH  12  14
HETATM   14  C   UNL     3      -7.916  17.025  68.880  1.00  0.00    -0.217 A  
HETATM   15  C   UNL     3      -6.208  19.223  69.270  1.00  0.00    -0.280 A  
HETATM   16  C   UNL     3      -5.714  17.917  69.390  1.00  0.00    -0.221 A  
HETATM   17  C   UNL     3      -6.561  16.821  69.196  1.00  0.00    -0.214 A  
HETATM   18  N   UNL     3      -5.352  20.341  69.467  1.00  0.00    -0.240 NA 
HETATM   19  C   UNL     3      -7.555  19.427  68.948  1.00  0.00    -0.398 A  
HETATM   20  C   UNL     3      -8.401  18.339  68.758  1.00  0.00    -0.244 A  
HETATM   21  H1  UNL     3      -5.712  21.291  69.380  1.00  0.00     0.000 HD 
HETATM   22  H2  UNL     3      -4.552  20.244  68.842  1.00  0.00     0.000 HD 
ENDBRANCH  12  14
ENDBRANCH  11  12
ENDBRANCH  10  11
ENDBRANCH   9  10
ENDBRANCH   6   9
ENDBRANCH   3   6
BRANCH   5  23
HETATM   23  C   UNL     4      -8.353   4.998  71.149  1.00  0.00    -0.115 C  
BRANCH  23  24
HETATM   24  N   UNL     4      -7.470   4.265  70.217  1.00  0.00    -0.045 NA 
HETATM   25  H   UNL     4      -7.003   3.422  70.551  1.00  0.00     0.000 HD 
BRANCH  24  26
HETATM   26  C   UNL     4      -7.257   4.648  68.975  1.00  0.00    -0.053 C  
HETATM   27  H   UNL     4      -5.831   5.068  67.622  1.00  0.00     0.000 HD 
HETATM   28  O   UNL     4      -5.984   4.792  68.518  1.00  0.00    -0.024 OA 
BRANCH  26  29
HETATM   29  C   UNL     4      -8.353   4.922  67.944  1.00  0.00    -0.103 A  
HETATM   30  C   UNL     4      -9.079   6.142  67.735  1.00  0.00    -0.117 A  
HETATM   31  C   UNL     4      -8.699   3.821  67.102  1.00  0.00    -0.122 A  
HETATM   32  C   UNL     4      -9.703   3.913  66.132  1.00  0.00    -0.173 A  
HETATM   33  C   UNL     4     -10.410   5.091  65.974  1.00  0.00    -0.276 A  
HETATM   34  C   UNL     4     -10.101   6.199  66.759  1.00  0.00    -0.234 A  
BRANCH  30  35
HETATM   35  O   UNL     4      -8.829   7.297  68.402  1.00  0.00    -0.129 OA 
BRANCH  35  36
HETATM   36  C   UNL     4      -8.648   8.528  67.803  1.00  0.00    -0.134 C  
HETATM   37  C   UNL     4      -9.913   9.327  67.819  1.00  0.00    -0.190 C  
HETATM   38  O   UNL     4     -10.505   9.619  68.992  1.00  0.00    -0.200 OA 
HETATM   39  O   UNL     4     -10.383   9.761  66.780  1.00  0.00    -0.234 OA 
ENDBRANCH  35  36
ENDBRANCH  30  35
ENDBRANCH  26  29
ENDBRANCH  24  26
ENDBRANCH  23  24
ENDBRANCH   5  23
BRANCH   5  40
HETATM   40  O   UNL     4     -10.649   5.097  70.281  1.00  0.00    -0.262 OA 
BRANCH  40  41
HETATM   41  C   UNL     4     -11.156   6.378  70.677  1.00  0.00    -0.317 C  
BRANCH  41  42
HETATM   42  C   UNL     4     -11.642   6.409  72.141  1.00  0.00    -0.313 C  
BRANCH  42  43
HETATM   43  O   UNL     4     -12.407   7.570  72.407  1.00  0.00    -0.206 OA 
HETATM   44  C   UNL     4     -11.561   8.707  72.383  1.00  0.00    -0.315 C  
ENDBRANCH  42  43
ENDBRANCH  41  42
ENDBRANCH  40  41
ENDBRANCH   5  40
TORSDOF 17
ENDMDL
MODEL       93
REMARK 921   NORMALIZED FREE ENERGY PREDICTED BY IDOCK:   -3.69 KCAL/MOL
REMARK 922        TOTAL FREE ENERGY PREDICTED BY IDOCK:  -10.23 KCAL/MOL
REMARK 923 INTER-LIGAND FREE ENERGY PREDICTED BY IDOCK:   -8.60 KCAL/MOL
REMARK 924 INTRA-LIGAND FREE ENERGY PREDICTED BY IDOCK:   -1.63 KCAL/MOL
REMARK 927      BINDING AFFINITY PREDICTED BY RF-SCORE:    0.00 PKD
ROOT
HETATM    1 HG   UNL     2     -10.566   1.488  68.138  1.00  0.00    -0.285 Hg 
HETATM    2  C   UNL     3     -12.161  13.603  63.949  1.00  0.00    -0.462 C  
HETATM    3  C   UNL     3     -12.013  12.918  65.315  1.00  0.00    -0.419 C  
HETATM    4  C   UNL     4      -6.832   2.771  67.540  1.00  0.00    -0.045 C  
HETATM    5  C   UNL     4      -8.103   3.630  67.602  1.00  0.00    -0.085 C  
ENDROOT
BRANCH   3   6
HETATM    6  N   UNL     3     -11.655  13.842  66.425  1.00  0.00    -0.344 NA 
BRANCH   6   7
HETATM    7  C   UNL     3     -12.190  13.434  67.753  1.00  0.00    -0.130 C  
HETATM    8  C   UNL     3     -11.214  13.630  68.927  1.00  0.00    -0.309 C  
ENDBRANCH   6   7
BRANCH   6   9
HETATM    9  C   UNL     3     -10.189  14.062  66.520  1.00  0.00    -0.279 C  
BRANCH   9  10
HETATM   10  C   UNL     3      -9.683  15.273  65.743  1.00  0.00    -0.350 C  
BRANCH  10  11
HETATM   11  O   UNL     3      -8.659  15.908  66.406  1.00  0.00    -0.285 OA 
BRANCH  11  12
HETATM   12  C   UNL     3      -8.577  17.252  66.561  1.00  0.00    -0.264 C  
HETATM   13  O   UNL     3      -9.246  18.001  65.861  1.00  0.00    -0.520 OA 
BRANCH  12  14
HETATM   14  C   UNL     3      -7.745  17.778  67.658  1.00  0.00    -0.212 A  
HETATM   15  C   UNL     3      -6.191  18.698  69.812  1.00  0.00    -0.209 A  
HETATM   16  C   UNL     3      -7.041  19.580  69.129  1.00  0.00    -0.392 A  
HETATM   17  C   UNL     3      -7.816  19.125  68.057  1.00  0.00    -0.325 A  
HETATM   18  N   UNL     3      -5.400  19.155  70.902  1.00  0.00    -0.235 NA 
HETATM   19  C   UNL     3      -6.126  17.356  69.420  1.00  0.00    -0.244 A  
HETATM   20  C   UNL     3      -6.893  16.901  68.352  1.00  0.00    -0.167 A  
HETATM   21  H1  UNL     3      -4.782  18.514  71.399  1.00  0.00     0.000 HD 
HETATM   22  H2  UNL     3      -6.020  19.594  71.584  1.00  0.00     0.000 HD 
ENDBRANCH  12  14
ENDBRANCH  11  12
ENDBRANCH  10  11
ENDBRANCH   9  10
ENDBRANCH   6   9
ENDBRANCH   3   6
BRANCH   5  23
HETATM   23  C   UNL     4      -8.366   4.158  69.058  1.00  0.00    -0.077 C  
BRANCH  23  24
HETATM   24  N   UNL     4      -7.937   5.536  69.382  1.00  0.00    -0.093 NA 
HETATM   25  H   UNL     4      -7.403   6.055  68.686  1.00  0.00     0.000 HD 
BRANCH  24  26
HETATM   26  C   UNL     4      -8.214   6.125  70.527  1.00  0.00    -0.114 C  
HETATM   27  H   UNL     4      -7.473   6.599  72.335  1.00  0.00     0.000 HD 
HETATM   28  O   UNL     4      -7.273   6.174  71.509  1.00  0.00    -0.082 OA 
BRANCH  26  29
HETATM   29  C   UNL     4      -9.535   6.821  70.856  1.00  0.00    -0.159 A  
HETATM   30  C   UNL     4     -10.185   7.869  70.122  1.00  0.00    -0.202 A  
HETATM   31  C   UNL     4     -10.186   6.378  72.049  1.00  0.00    -0.216 A  
HETATM   32  C   UNL     4     -11.387   6.942  72.493  1.00  0.00    -0.291 A  
HETATM   33  C   UNL     4     -11.975   7.973  71.784  1.00  0.00    -0.342 A  
HETATM   34  C   UNL     4     -11.388   8.431  70.607  1.00  0.00    -0.262 A  
BRANCH  30  35
HETATM   35  O   UNL     4      -9.735   8.356  68.939  1.00  0.00    -0.162 OA 
BRANCH  35  36
HETATM   36  C   UNL     4      -9.071   9.557  68.784  1.00  0.00    -0.133 C  
HETATM   37  C   UNL     4      -7.723   9.515  69.430  1.00  0.00    -0.094 C  
HETATM   38  O   UNL     4      -6.822   8.593  69.042  1.00  0.00    -0.054 OA 
HETATM   39  O   UNL     4      -7.413  10.345  70.270  1.00  0.00    -0.206 OA 
ENDBRANCH  35  36
ENDBRANCH  30  35
ENDBRANCH  26  29
ENDBRANCH  24  26
ENDBRANCH  23  24
ENDBRANCH   5  23
BRANCH   5  40
HETATM   40  O   UNL     4      -7.971   4.747  66.706  1.00  0.00    -0.102 OA 
BRANCH  40  41
HETATM   41  C   UNL     4      -8.191   4.372  65.341  1.00  0.00    -0.110 C  
BRANCH  41  42
HETATM   42  C   UNL     4      -8.178   5.576  64.375  1.00  0.00    -0.127 C  
BRANCH  42  43
HETATM   43  O   UNL     4      -7.382   6.633  64.878  1.00  0.00    -0.070 OA 
HETATM   44  C   UNL     4      -7.986   7.874  64.551  1.00  0.00    -0.140 C  
ENDBRANCH  42  43
ENDBRANCH  41  42
ENDBRANCH  40  41
ENDBRANCH   5  40
TORSDOF 17
ENDMDL
MODEL       94
REMARK 921   NORMALIZED FREE ENERGY PREDICTED BY IDOCK:   -3.67 KCAL/MOL
REMARK 922        TOTAL FREE ENERGY PREDICTED BY IDOCK:  -10.17 KCAL/MOL
REMARK 923 INTER-LIGAND FREE ENERGY PREDICTED BY IDOCK:   -8.22 KCAL/MOL
REMARK 924 INTRA-LIGAND FREE ENERGY PREDICTED BY IDOCK:   -1.96 KCAL/MOL
REMARK 927      BINDING AFFINITY PREDICTED BY RF-SCORE:    0.00 PKD
ROOT
HETATM    1 HG   UNL     2      -9.408   4.631  63.811  1.00  0.00    -0.137 Hg 
HETATM    2  C   UNL     3     -11.952  16.588  67.986  1.00  0.00     0.758 C  
HETATM    3  C   UNL     3     -11.788  15.205  68.631  1.00  0.00    -0.302 C  
HETATM    4  C   UNL     4      -5.788   6.187  64.457  1.00  0.00    -0.022 C  
HETATM    5  C   UNL     4      -7.133   6.752  64.936  1.00  0.00    -0.060 C  
ENDROOT
BRANCH   3   6
HETATM    6  N   UNL     3     -11.553  15.241  70.100  1.00  0.00    -0.274 NA 
BRANCH   6   7
HETATM    7  C   UNL     3     -12.252  14.164  70.856  1.00  0.00    -0.363 C  
HETATM    8  C   UNL     3     -13.650  14.546  71.374  1.00  0.00    -0.452 C  
ENDBRANCH   6   7
BRANCH   6   9
HETATM    9  C   UNL     3     -10.107  15.234  70.436  1.00  0.00     0.125 C  
BRANCH   9  10
HETATM   10  C   UNL     3      -9.179  15.307  69.227  1.00  0.00    -0.233 C  
BRANCH  10  11
HETATM   11  O   UNL     3      -8.736  14.059  68.853  1.00  0.00    -0.079 OA 
BRANCH  11  12
HETATM   12  C   UNL     3      -8.508  13.692  67.569  1.00  0.00    -0.189 C  
HETATM   13  O   UNL     3      -7.485  13.093  67.264  1.00  0.00    -0.146 OA 
BRANCH  12  14
HETATM   14  C   UNL     3      -9.567  13.941  66.574  1.00  0.00    -0.299 A  
HETATM   15  C   UNL     3     -11.572  14.315  64.639  1.00  0.00    -0.408 A  
HETATM   16  C   UNL     3     -10.565  15.276  64.805  1.00  0.00    -0.283 A  
HETATM   17  C   UNL     3      -9.566  15.093  65.767  1.00  0.00    -0.344 A  
HETATM   18  N   UNL     3     -12.591  14.496  63.664  1.00  0.00    -0.992 NA 
HETATM   19  C   UNL     3     -11.569  13.165  65.437  1.00  0.00    -0.362 A  
HETATM   20  C   UNL     3     -10.579  12.981  66.397  1.00  0.00    -0.294 A  
HETATM   21  H1  UNL     3     -13.323  13.797  63.543  1.00  0.00     0.000 HD 
HETATM   22  H2  UNL     3     -12.143  14.650  62.760  1.00  0.00     0.000 HD 
ENDBRANCH  12  14
ENDBRANCH  11  12
ENDBRANCH  10  11
ENDBRANCH   9  10
ENDBRANCH   6   9
ENDBRANCH   3   6
BRANCH   5  23
HETATM   23  C   UNL     4      -7.491   6.233  66.375  1.00  0.00    -0.086 C  
BRANCH  23  24
HETATM   24  N   UNL     4      -8.507   5.165  66.492  1.00  0.00    -0.111 NA 
HETATM   25  H   UNL     4      -8.417   4.342  65.897  1.00  0.00     0.000 HD 
BRANCH  24  26
HETATM   26  C   UNL     4      -9.522   5.225  67.328  1.00  0.00    -0.127 C  
HETATM   27  H   UNL     4     -11.418   5.858  67.545  1.00  0.00     0.000 HD 
HETATM   28  O   UNL     4     -10.686   5.814  66.941  1.00  0.00    -0.285 OA 
BRANCH  26  29
HETATM   29  C   UNL     4      -9.529   4.639  68.741  1.00  0.00    -0.214 A  
HETATM   30  C   UNL     4      -9.643   5.343  69.986  1.00  0.00    -0.169 A  
HETATM   31  C   UNL     4      -9.389   3.218  68.821  1.00  0.00    -0.235 A  
HETATM   32  C   UNL     4      -9.349   2.543  70.045  1.00  0.00    -0.186 A  
HETATM   33  C   UNL     4      -9.427   3.250  71.231  1.00  0.00    -0.222 A  
HETATM   34  C   UNL     4      -9.580   4.634  71.208  1.00  0.00    -0.238 A  
BRANCH  30  35
HETATM   35  O   UNL     4      -9.848   6.680  70.084  1.00  0.00    -0.167 OA 
BRANCH  35  36
HETATM   36  C   UNL     4     -11.071   7.303  69.931  1.00  0.00    -0.212 C  
HETATM   37  C   UNL     4     -11.144   8.556  70.746  1.00  0.00    -0.254 C  
HETATM   38  O   UNL     4     -10.250   9.540  70.540  1.00  0.00    -0.249 OA 
HETATM   39  O   UNL     4     -12.041   8.713  71.559  1.00  0.00    -0.290 OA 
ENDBRANCH  35  36
ENDBRANCH  30  35
ENDBRANCH  26  29
ENDBRANCH  24  26
ENDBRANCH  23  24
ENDBRANCH   5  23
BRANCH   5  40
HETATM   40  O   UNL     4      -7.073   8.188  64.949  1.00  0.00    -0.075 OA 
BRANCH  40  41
HETATM   41  C   UNL     4      -8.276   8.783  64.447  1.00  0.00    -0.168 C  
BRANCH  41  42
HETATM   42  C   UNL     4      -8.639  10.104  65.158  1.00  0.00    -0.164 C  
BRANCH  42  43
HETATM   43  O   UNL     4      -8.896   9.895  66.534  1.00  0.00    -0.136 OA 
HETATM   44  C   UNL     4     -10.127   9.209  66.686  1.00  0.00    -0.273 C  
ENDBRANCH  42  43
ENDBRANCH  41  42
ENDBRANCH  40  41
ENDBRANCH   5  40
TORSDOF 17
ENDMDL
MODEL       95
REMARK 921   NORMALIZED FREE ENERGY PREDICTED BY IDOCK:   -3.53 KCAL/MOL
REMARK 922        TOTAL FREE ENERGY PREDICTED BY IDOCK:   -9.90 KCAL/MOL
REMARK 923 INTER-LIGAND FREE ENERGY PREDICTED BY IDOCK:   -7.87 KCAL/MOL
REMARK 924 INTRA-LIGAND FREE ENERGY PREDICTED BY IDOCK:   -2.03 KCAL/MOL
REMARK 927      BINDING AFFINITY PREDICTED BY RF-SCORE:    0.00 PKD
ROOT
HETATM    1 HG   UNL     2      -6.644   3.578  65.472  1.00  0.00    -0.029 Hg 
HETATM    2  C   UNL     3      -8.245  15.738  69.526  1.00  0.00    -0.136 C  
HETATM    3  C   UNL     3      -9.137  14.657  68.901  1.00  0.00    -0.148 C  
HETATM    4  C   UNL     4      -7.567   3.163  69.334  1.00  0.00    -0.047 C  
HETATM    5  C   UNL     4      -7.726   4.428  68.479  1.00  0.00    -0.074 C  
ENDROOT
BRANCH   3   6
HETATM    6  N   UNL     3     -10.596  14.903  69.059  1.00  0.00    -0.239 NA 
BRANCH   6   7
HETATM    7  C   UNL     3     -11.210  14.199  70.219  1.00  0.00     0.061 C  
HETATM    8  C   UNL     3     -12.103  13.002  69.845  1.00  0.00    -0.347 C  
ENDBRANCH   6   7
BRANCH   6   9
HETATM    9  C   UNL     3     -10.916  16.352  69.123  1.00  0.00    -0.324 C  
BRANCH   9  10
HETATM   10  C   UNL     3     -10.701  17.102  67.812  1.00  0.00    -0.329 C  
BRANCH  10  11
HETATM   11  O   UNL     3     -11.183  16.391  66.737  1.00  0.00     0.039 OA 
BRANCH  11  12
HETATM   12  C   UNL     3     -10.398  15.856  65.772  1.00  0.00    -0.376 C  
HETATM   13  O   UNL     3      -9.266  16.284  65.581  1.00  0.00    -0.444 OA 
BRANCH  12  14
HETATM   14  C   UNL     3     -10.901  14.684  65.032  1.00  0.00    -0.431 A  
HETATM   15  C   UNL     3     -11.960  12.464  63.670  1.00  0.00    -0.539 A  
HETATM   16  C   UNL     3     -10.733  12.360  64.342  1.00  0.00    -0.371 A  
HETATM   17  C   UNL     3     -10.204  13.462  65.021  1.00  0.00    -0.325 A  
HETATM   18  N   UNL     3     -12.502  11.348  62.977  1.00  0.00    -0.854 NA 
HETATM   19  C   UNL     3     -12.657  13.678  63.687  1.00  0.00    -0.065 A  
HETATM   20  C   UNL     3     -12.132  14.778  64.359  1.00  0.00    -0.457 A  
HETATM   21  H1  UNL     3     -13.394  11.424  62.488  1.00  0.00     0.000 HD 
HETATM   22  H2  UNL     3     -12.561  10.566  63.629  1.00  0.00     0.000 HD 
ENDBRANCH  12  14
ENDBRANCH  11  12
ENDBRANCH  10  11
ENDBRANCH   9  10
ENDBRANCH   6   9
ENDBRANCH   3   6
BRANCH   5  23
HETATM   23  C   UNL     4      -9.160   4.511  67.841  1.00  0.00    -0.123 C  
BRANCH  23  24
HETATM   24  N   UNL     4      -9.850   5.819  67.857  1.00  0.00    -0.120 NA 
HETATM   25  H   UNL     4     -10.675   5.926  68.447  1.00  0.00     0.000 HD 
BRANCH  24  26
HETATM   26  C   UNL     4      -9.450   6.853  67.146  1.00  0.00    -0.140 C  
HETATM   27  H   UNL     4      -8.738   7.418  65.353  1.00  0.00     0.000 HD 
HETATM   28  O   UNL     4      -9.026   6.672  65.866  1.00  0.00    -0.147 OA 
BRANCH  26  29
HETATM   29  C   UNL     4      -9.452   8.303  67.632  1.00  0.00    -0.176 A  
HETATM   30  C   UNL     4      -8.670   9.398  67.136  1.00  0.00    -0.128 A  
HETATM   31  C   UNL     4     -10.333   8.588  68.722  1.00  0.00    -0.233 A  
HETATM   32  C   UNL     4     -10.421   9.863  69.291  1.00  0.00    -0.240 A  
HETATM   33  C   UNL     4      -9.630  10.893  68.816  1.00  0.00    -0.195 A  
HETATM   34  C   UNL     4      -8.768  10.671  67.745  1.00  0.00    -0.129 A  
BRANCH  30  35
HETATM   35  O   UNL     4      -7.838   9.313  66.068  1.00  0.00    -0.100 OA 
BRANCH  35  36
HETATM   36  C   UNL     4      -8.034   9.959  64.864  1.00  0.00    -0.138 C  
HETATM   37  C   UNL     4      -7.272   9.292  63.763  1.00  0.00    -0.095 C  
HETATM   38  O   UNL     4      -7.503   7.996  63.479  1.00  0.00    -0.106 OA 
HETATM   39  O   UNL     4      -6.480   9.927  63.085  1.00  0.00    -0.111 OA 
ENDBRANCH  35  36
ENDBRANCH  30  35
ENDBRANCH  26  29
ENDBRANCH  24  26
ENDBRANCH  23  24
ENDBRANCH   5  23
BRANCH   5  40
HETATM   40  O   UNL     4      -7.500   5.590  69.295  1.00  0.00    -0.074 OA 
BRANCH  40  41
HETATM   41  C   UNL     4      -6.107   5.906  69.409  1.00  0.00    -0.028 C  
BRANCH  41  42
HETATM   42  C   UNL     4      -5.847   7.231  70.158  1.00  0.00    -0.024 C  
BRANCH  42  43
HETATM   43  O   UNL     4      -6.748   8.242  69.746  1.00  0.00    -0.039 OA 
HETATM   44  C   UNL     4      -6.548   9.402  70.536  1.00  0.00    -0.084 C  
ENDBRANCH  42  43
ENDBRANCH  41  42
ENDBRANCH  40  41
ENDBRANCH   5  40
TORSDOF 17
ENDMDL
MODEL       96
REMARK 921   NORMALIZED FREE ENERGY PREDICTED BY IDOCK:   -3.50 KCAL/MOL
REMARK 922        TOTAL FREE ENERGY PREDICTED BY IDOCK:   -9.83 KCAL/MOL
REMARK 923 INTER-LIGAND FREE ENERGY PREDICTED BY IDOCK:   -8.25 KCAL/MOL
REMARK 924 INTRA-LIGAND FREE ENERGY PREDICTED BY IDOCK:   -1.58 KCAL/MOL
REMARK 927      BINDING AFFINITY PREDICTED BY RF-SCORE:    0.00 PKD
ROOT
HETATM    1 HG   UNL     2      -8.094   5.298  74.250  1.00  0.00    -0.096 Hg 
HETATM    2  C   UNL     3     -12.997  13.818  65.870  1.00  0.00    -0.240 C  
HETATM    3  C   UNL     3     -11.592  13.355  66.278  1.00  0.00    -0.344 C  
HETATM    4  C   UNL     4      -8.659   3.137  70.942  1.00  0.00    -0.114 C  
HETATM    5  C   UNL     4      -8.681   4.668  71.057  1.00  0.00    -0.115 C  
ENDROOT
BRANCH   3   6
HETATM    6  N   UNL     3     -10.525  13.710  65.303  1.00  0.00    -0.333 NA 
BRANCH   6   7
HETATM    7  C   UNL     3     -10.526  12.876  64.069  1.00  0.00    -0.368 C  
HETATM    8  C   UNL     3     -10.352  11.366  64.314  1.00  0.00    -0.383 C  
ENDBRANCH   6   7
BRANCH   6   9
HETATM    9  C   UNL     3     -10.558  15.149  64.937  1.00  0.00    -0.365 C  
BRANCH   9  10
HETATM   10  C   UNL     3      -9.695  16.043  65.822  1.00  0.00    -0.305 C  
BRANCH  10  11
HETATM   11  O   UNL     3     -10.412  17.105  66.321  1.00  0.00    -0.319 OA 
BRANCH  11  12
HETATM   12  C   UNL     3     -10.083  18.403  66.115  1.00  0.00    -0.360 C  
HETATM   13  O   UNL     3     -10.691  19.078  65.294  1.00  0.00    -0.500 OA 
BRANCH  12  14
HETATM   14  C   UNL     3      -9.047  19.004  66.975  1.00  0.00    -0.319 A  
HETATM   15  C   UNL     3      -7.150  20.174  68.689  1.00  0.00    -0.204 A  
HETATM   16  C   UNL     3      -7.190  20.531  67.333  1.00  0.00    -0.370 A  
HETATM   17  C   UNL     3      -8.133  19.951  66.478  1.00  0.00    -0.357 A  
HETATM   18  N   UNL     3      -6.194  20.759  69.563  1.00  0.00    -0.197 NA 
HETATM   19  C   UNL     3      -8.065  19.239  69.185  1.00  0.00    -0.198 A  
HETATM   20  C   UNL     3      -9.002  18.657  68.337  1.00  0.00    -0.356 A  
HETATM   21  H1  UNL     3      -6.165  20.500  70.549  1.00  0.00     0.000 HD 
HETATM   22  H2  UNL     3      -6.284  21.774  69.502  1.00  0.00     0.000 HD 
ENDBRANCH  12  14
ENDBRANCH  11  12
ENDBRANCH  10  11
ENDBRANCH   9  10
ENDBRANCH   6   9
ENDBRANCH   3   6
BRANCH   5  23
HETATM   23  C   UNL     4      -7.264   5.283  70.768  1.00  0.00    -0.065 C  
BRANCH  23  24
HETATM   24  N   UNL     4      -6.407   4.607  69.770  1.00  0.00    -0.026 NA 
HETATM   25  H   UNL     4      -5.745   3.903  70.096  1.00  0.00     0.000 HD 
BRANCH  24  26
HETATM   26  C   UNL     4      -6.457   4.871  68.481  1.00  0.00    -0.037 C  
HETATM   27  H   UNL     4      -5.346   5.314  66.865  1.00  0.00     0.000 HD 
HETATM   28  O   UNL     4      -5.310   5.124  67.795  1.00  0.00    -0.010 OA 
BRANCH  26  29
HETATM   29  C   UNL     4      -7.734   4.885  67.640  1.00  0.00    -0.087 A  
HETATM   30  C   UNL     4      -8.441   6.025  67.131  1.00  0.00    -0.104 A  
HETATM   31  C   UNL     4      -8.292   3.602  67.342  1.00  0.00    -0.097 A  
HETATM   32  C   UNL     4      -9.473   3.459  66.607  1.00  0.00    -0.151 A  
HETATM   33  C   UNL     4     -10.152   4.576  66.157  1.00  0.00    -0.282 A  
HETATM   34  C   UNL     4      -9.642   5.847  66.407  1.00  0.00    -0.173 A  
BRANCH  30  35
HETATM   35  O   UNL     4      -8.012   7.305  67.267  1.00  0.00    -0.108 OA 
BRANCH  35  36
HETATM   36  C   UNL     4      -7.309   8.005  66.307  1.00  0.00    -0.078 C  
HETATM   37  C   UNL     4      -6.288   8.902  66.932  1.00  0.00    -0.060 C  
HETATM   38  O   UNL     4      -5.330   8.379  67.720  1.00  0.00    -0.033 OA 
HETATM   39  O   UNL     4      -6.285  10.099  66.692  1.00  0.00    -0.065 OA 
ENDBRANCH  35  36
ENDBRANCH  30  35
ENDBRANCH  26  29
ENDBRANCH  24  26
ENDBRANCH  23  24
ENDBRANCH   5  23
BRANCH   5  40
HETATM   40  O   UNL     4      -9.633   5.206  70.125  1.00  0.00    -0.154 OA 
BRANCH  40  41
HETATM   41  C   UNL     4      -9.963   6.570  70.418  1.00  0.00    -0.179 C  
BRANCH  41  42
HETATM   42  C   UNL     4     -11.016   6.709  71.537  1.00  0.00    -0.247 C  
BRANCH  42  43
HETATM   43  O   UNL     4     -10.418   7.071  72.767  1.00  0.00    -0.207 OA 
HETATM   44  C   UNL     4     -10.603   6.024  73.706  1.00  0.00    -0.248 C  
ENDBRANCH  42  43
ENDBRANCH  41  42
ENDBRANCH  40  41
ENDBRANCH   5  40
TORSDOF 17
ENDMDL
MODEL       97
REMARK 921   NORMALIZED FREE ENERGY PREDICTED BY IDOCK:   -3.35 KCAL/MOL
REMARK 922        TOTAL FREE ENERGY PREDICTED BY IDOCK:   -9.55 KCAL/MOL
REMARK 923 INTER-LIGAND FREE ENERGY PREDICTED BY IDOCK:   -8.00 KCAL/MOL
REMARK 924 INTRA-LIGAND FREE ENERGY PREDICTED BY IDOCK:   -1.54 KCAL/MOL
REMARK 927      BINDING AFFINITY PREDICTED BY RF-SCORE:    0.00 PKD
ROOT
HETATM    1 HG   UNL     2      -8.377   4.717  63.451  1.00  0.00    -0.075 Hg 
HETATM    2  C   UNL     3      -5.891  16.828  67.195  1.00  0.00    -0.206 C  
HETATM    3  C   UNL     3      -7.093  15.875  67.266  1.00  0.00    -0.207 C  
HETATM    4  C   UNL     4      -6.855   4.270  67.115  1.00  0.00    -0.052 C  
HETATM    5  C   UNL     4      -7.351   5.575  66.476  1.00  0.00    -0.082 C  
ENDROOT
BRANCH   3   6
HETATM    6  N   UNL     3      -8.132  16.276  68.253  1.00  0.00    -0.162 NA 
BRANCH   6   7
HETATM    7  C   UNL     3      -8.419  17.737  68.276  1.00  0.00    -0.277 C  
HETATM    8  C   UNL     3      -9.063  18.285  66.989  1.00  0.00    -0.271 C  
ENDBRANCH   6   7
BRANCH   6   9
HETATM    9  C   UNL     3      -9.396  15.518  68.074  1.00  0.00    -0.193 C  
BRANCH   9  10
HETATM   10  C   UNL     3      -9.977  14.949  69.366  1.00  0.00    -0.136 C  
BRANCH  10  11
HETATM   11  O   UNL     3     -10.809  13.882  69.119  1.00  0.00    -0.243 OA 
BRANCH  11  12
HETATM   12  C   UNL     3     -11.612  13.786  68.032  1.00  0.00    -0.333 C  
HETATM   13  O   UNL     3     -12.634  14.456  67.951  1.00  0.00     0.076 OA 
BRANCH  12  14
HETATM   14  C   UNL     3     -11.172  12.934  66.913  1.00  0.00    -0.331 A  
HETATM   15  C   UNL     3     -10.419  11.343  64.721  1.00  0.00    -0.308 A  
HETATM   16  C   UNL     3     -10.439  10.798  66.013  1.00  0.00    -0.273 A  
HETATM   17  C   UNL     3     -10.814  11.587  67.105  1.00  0.00    -0.314 A  
HETATM   18  N   UNL     3     -10.038  10.546  63.606  1.00  0.00    -0.460 NA 
HETATM   19  C   UNL     3     -10.782  12.681  64.528  1.00  0.00    -0.368 A  
HETATM   20  C   UNL     3     -11.152  13.469  65.613  1.00  0.00    -0.299 A  
HETATM   21  H1  UNL     3     -10.024  10.942  62.667  1.00  0.00     0.000 HD 
HETATM   22  H2  UNL     3     -10.628   9.714  63.593  1.00  0.00     0.000 HD 
ENDBRANCH  12  14
ENDBRANCH  11  12
ENDBRANCH  10  11
ENDBRANCH   9  10
ENDBRANCH   6   9
ENDBRANCH   3   6
BRANCH   5  23
HETATM   23  C   UNL     4      -8.862   5.839  66.816  1.00  0.00    -0.117 C  
BRANCH  23  24
HETATM   24  N   UNL     4      -9.171   6.818  67.880  1.00  0.00    -0.114 NA 
HETATM   25  H   UNL     4      -8.402   7.185  68.441  1.00  0.00     0.000 HD 
BRANCH  24  26
HETATM   26  C   UNL     4     -10.392   7.239  68.139  1.00  0.00    -0.194 C  
HETATM   27  H   UNL     4     -12.245   7.424  67.382  1.00  0.00     0.000 HD 
HETATM   28  O   UNL     4     -11.364   7.120  67.195  1.00  0.00    -0.160 OA 
BRANCH  26  29
HETATM   29  C   UNL     4     -10.846   7.841  69.469  1.00  0.00    -0.157 A  
HETATM   30  C   UNL     4     -11.143   7.152  70.692  1.00  0.00    -0.267 A  
HETATM   31  C   UNL     4     -11.005   9.262  69.482  1.00  0.00    -0.169 A  
HETATM   32  C   UNL     4     -11.443   9.950  70.619  1.00  0.00    -0.411 A  
HETATM   33  C   UNL     4     -11.755   9.257  71.774  1.00  0.00    -0.456 A  
HETATM   34  C   UNL     4     -11.601   7.873  71.818  1.00  0.00    -0.321 A  
BRANCH  30  35
HETATM   35  O   UNL     4     -10.981   5.816  70.867  1.00  0.00    -0.276 OA 
BRANCH  35  36
HETATM   36  C   UNL     4     -10.501   5.226  72.019  1.00  0.00    -0.222 C  
HETATM   37  C   UNL     4      -9.005   5.202  72.031  1.00  0.00    -0.133 C  
HETATM   38  O   UNL     4      -8.316   6.356  71.945  1.00  0.00    -0.116 OA 
HETATM   39  O   UNL     4      -8.404   4.149  72.171  1.00  0.00    -0.098 OA 
ENDBRANCH  35  36
ENDBRANCH  30  35
ENDBRANCH  26  29
ENDBRANCH  24  26
ENDBRANCH  23  24
ENDBRANCH   5  23
BRANCH   5  40
HETATM   40  O   UNL     4      -6.556   6.675  66.952  1.00  0.00    -0.045 OA 
BRANCH  40  41
HETATM   41  C   UNL     4      -6.776   7.868  66.189  1.00  0.00    -0.054 C  
BRANCH  41  42
HETATM   42  C   UNL     4      -6.097   9.111  66.803  1.00  0.00    -0.064 C  
BRANCH  42  43
HETATM   43  O   UNL     4      -6.744  10.304  66.403  1.00  0.00    -0.088 OA 
HETATM   44  C   UNL     4      -5.771  11.280  66.071  1.00  0.00    -0.030 C  
ENDBRANCH  42  43
ENDBRANCH  41  42
ENDBRANCH  40  41
ENDBRANCH   5  40
TORSDOF 17
ENDMDL
MODEL       98
REMARK 921   NORMALIZED FREE ENERGY PREDICTED BY IDOCK:   -3.18 KCAL/MOL
REMARK 922        TOTAL FREE ENERGY PREDICTED BY IDOCK:   -9.20 KCAL/MOL
REMARK 923 INTER-LIGAND FREE ENERGY PREDICTED BY IDOCK:   -7.06 KCAL/MOL
REMARK 924 INTRA-LIGAND FREE ENERGY PREDICTED BY IDOCK:   -2.15 KCAL/MOL
REMARK 927      BINDING AFFINITY PREDICTED BY RF-SCORE:    0.00 PKD
ROOT
HETATM    1 HG   UNL     2      -7.940   5.024  73.400  1.00  0.00    -0.090 Hg 
HETATM    2  C   UNL     3     -13.273  13.902  65.680  1.00  0.00     0.019 C  
HETATM    3  C   UNL     3     -11.867  13.324  65.890  1.00  0.00    -0.393 C  
HETATM    4  C   UNL     4      -9.150   2.909  70.238  1.00  0.00    -0.187 C  
HETATM    5  C   UNL     4      -9.028   4.436  70.333  1.00  0.00    -0.092 C  
ENDROOT
BRANCH   3   6
HETATM    6  N   UNL     3     -10.926  13.585  64.768  1.00  0.00    -0.352 NA 
BRANCH   6   7
HETATM    7  C   UNL     3     -10.074  14.792  64.957  1.00  0.00    -0.273 C  
HETATM    8  C   UNL     3     -10.179  15.442  66.348  1.00  0.00    -0.296 C  
ENDBRANCH   6   7
BRANCH   6   9
HETATM    9  C   UNL     3     -10.071  12.409  64.468  1.00  0.00    -0.250 C  
BRANCH   9  10
HETATM   10  C   UNL     3      -9.790  11.513  65.671  1.00  0.00    -0.236 C  
BRANCH  10  11
HETATM   11  O   UNL     3      -9.123  12.192  66.663  1.00  0.00    -0.201 OA 
BRANCH  11  12
HETATM   12  C   UNL     3      -8.840  11.667  67.880  1.00  0.00    -0.155 C  
HETATM   13  O   UNL     3      -7.693  11.664  68.306  1.00  0.00    -0.113 OA 
BRANCH  12  14
HETATM   14  C   UNL     3      -9.962  11.196  68.713  1.00  0.00    -0.207 A  
HETATM   15  C   UNL     3     -12.080  10.380  70.372  1.00  0.00    -0.315 A  
HETATM   16  C   UNL     3     -11.132   9.446  69.928  1.00  0.00    -0.223 A  
HETATM   17  C   UNL     3     -10.077   9.849  69.103  1.00  0.00    -0.210 A  
HETATM   18  N   UNL     3     -13.155   9.976  71.210  1.00  0.00    -0.386 NA 
HETATM   19  C   UNL     3     -11.961  11.721  69.990  1.00  0.00    -0.421 A  
HETATM   20  C   UNL     3     -10.914  12.125  69.167  1.00  0.00    -0.215 A  
HETATM   21  H1  UNL     3     -13.844  10.655  71.532  1.00  0.00     0.000 HD 
HETATM   22  H2  UNL     3     -12.764   9.505  72.026  1.00  0.00     0.000 HD 
ENDBRANCH  12  14
ENDBRANCH  11  12
ENDBRANCH  10  11
ENDBRANCH   9  10
ENDBRANCH   6   9
ENDBRANCH   3   6
BRANCH   5  23
HETATM   23  C   UNL     4      -7.622   4.930  69.836  1.00  0.00    -0.056 C  
BRANCH  23  24
HETATM   24  N   UNL     4      -6.670   3.915  69.334  1.00  0.00    -0.040 NA 
HETATM   25  H   UNL     4      -6.136   3.372  70.012  1.00  0.00     0.000 HD 
BRANCH  24  26
HETATM   26  C   UNL     4      -6.479   3.678  68.053  1.00  0.00    -0.037 C  
HETATM   27  H   UNL     4      -5.228   2.842  66.720  1.00  0.00     0.000 HD 
HETATM   28  O   UNL     4      -5.365   3.013  67.644  1.00  0.00    -0.012 OA 
BRANCH  26  29
HETATM   29  C   UNL     4      -7.452   4.065  66.938  1.00  0.00    -0.073 A  
HETATM   30  C   UNL     4      -7.645   5.358  66.347  1.00  0.00    -0.088 A  
HETATM   31  C   UNL     4      -8.273   3.006  66.439  1.00  0.00    -0.087 A  
HETATM   32  C   UNL     4      -9.229   3.215  65.439  1.00  0.00    -0.148 A  
HETATM   33  C   UNL     4      -9.418   4.479  64.912  1.00  0.00    -0.143 A  
HETATM   34  C   UNL     4      -8.632   5.542  65.351  1.00  0.00    -0.151 A  
BRANCH  30  35
HETATM   35  O   UNL     4      -6.904   6.451  66.658  1.00  0.00    -0.061 OA 
BRANCH  35  36
HETATM   36  C   UNL     4      -5.955   7.020  65.832  1.00  0.00    -0.036 C  
HETATM   37  C   UNL     4      -6.358   8.399  65.415  1.00  0.00    -0.048 C  
HETATM   38  O   UNL     4      -6.583   9.341  66.349  1.00  0.00    -0.066 OA 
HETATM   39  O   UNL     4      -6.434   8.690  64.232  1.00  0.00    -0.070 OA 
ENDBRANCH  35  36
ENDBRANCH  30  35
ENDBRANCH  26  29
ENDBRANCH  24  26
ENDBRANCH  23  24
ENDBRANCH   5  23
BRANCH   5  40
HETATM   40  O   UNL     4     -10.057   5.050  69.538  1.00  0.00    -0.212 OA 
BRANCH  40  41
HETATM   41  C   UNL     4     -10.921   5.881  70.323  1.00  0.00    -0.320 C  
BRANCH  41  42
HETATM   42  C   UNL     4     -10.602   5.828  71.832  1.00  0.00    -0.232 C  
BRANCH  42  43
HETATM   43  O   UNL     4     -10.874   7.066  72.461  1.00  0.00    -0.228 OA 
HETATM   44  C   UNL     4     -10.235   7.102  73.727  1.00  0.00    -0.352 C  
ENDBRANCH  42  43
ENDBRANCH  41  42
ENDBRANCH  40  41
ENDBRANCH   5  40
TORSDOF 17
ENDMDL
MODEL       99
REMARK 921   NORMALIZED FREE ENERGY PREDICTED BY IDOCK:   -3.11 KCAL/MOL
REMARK 922        TOTAL FREE ENERGY PREDICTED BY IDOCK:   -9.07 KCAL/MOL
REMARK 923 INTER-LIGAND FREE ENERGY PREDICTED BY IDOCK:   -7.38 KCAL/MOL
REMARK 924 INTRA-LIGAND FREE ENERGY PREDICTED BY IDOCK:   -1.69 KCAL/MOL
REMARK 927      BINDING AFFINITY PREDICTED BY RF-SCORE:    0.00 PKD
ROOT
HETATM    1 HG   UNL     2     -10.847   1.502  68.439  1.00  0.00     0.120 Hg 
HETATM    2  C   UNL     3     -12.181  13.624  64.176  1.00  0.00    -0.450 C  
HETATM    3  C   UNL     3     -11.993  12.948  65.542  1.00  0.00    -0.436 C  
HETATM    4  C   UNL     4      -7.101   2.633  67.646  1.00  0.00    -0.049 C  
HETATM    5  C   UNL     4      -8.334   3.542  67.758  1.00  0.00    -0.089 C  
ENDROOT
BRANCH   3   6
HETATM    6  N   UNL     3     -11.547  13.869  66.622  1.00  0.00    -0.355 NA 
BRANCH   6   7
HETATM    7  C   UNL     3     -12.220  13.643  67.932  1.00  0.00    -0.150 C  
HETATM    8  C   UNL     3     -11.263  13.514  69.131  1.00  0.00    -0.310 C  
ENDBRANCH   6   7
BRANCH   6   9
HETATM    9  C   UNL     3     -10.073  13.848  66.804  1.00  0.00    -0.265 C  
BRANCH   9  10
HETATM   10  C   UNL     3      -9.307  14.741  65.832  1.00  0.00    -0.154 C  
BRANCH  10  11
HETATM   11  O   UNL     3      -8.290  15.419  66.463  1.00  0.00    -0.258 OA 
BRANCH  11  12
HETATM   12  C   UNL     3      -8.031  16.736  66.276  1.00  0.00    -0.316 C  
HETATM   13  O   UNL     3      -7.274  17.101  65.385  1.00  0.00     0.278 OA 
BRANCH  12  14
HETATM   14  C   UNL     3      -8.760  17.715  67.102  1.00  0.00    -0.252 A  
HETATM   15  C   UNL     3     -10.172  19.639  68.588  1.00  0.00    -0.394 A  
HETATM   16  C   UNL     3      -8.894  19.233  68.996  1.00  0.00    -0.265 A  
HETATM   17  C   UNL     3      -8.188  18.276  68.259  1.00  0.00    -0.312 A  
HETATM   18  N   UNL     3     -10.895  20.610  69.333  1.00  0.00     0.083 NA 
HETATM   19  C   UNL     3     -10.738  19.086  67.433  1.00  0.00    -0.559 A  
HETATM   20  C   UNL     3     -10.040  18.132  66.699  1.00  0.00    -0.376 A  
HETATM   21  H1  UNL     3     -11.824  20.906  69.036  1.00  0.00     0.000 HD 
HETATM   22  H2  UNL     3     -10.310  21.441  69.426  1.00  0.00     0.000 HD 
ENDBRANCH  12  14
ENDBRANCH  11  12
ENDBRANCH  10  11
ENDBRANCH   9  10
ENDBRANCH   6   9
ENDBRANCH   3   6
BRANCH   5  23
HETATM   23  C   UNL     4      -8.505   4.095  69.218  1.00  0.00    -0.076 C  
BRANCH  23  24
HETATM   24  N   UNL     4      -8.110   5.497  69.478  1.00  0.00    -0.100 NA 
HETATM   25  H   UNL     4      -8.109   6.153  68.698  1.00  0.00     0.000 HD 
BRANCH  24  26
HETATM   26  C   UNL     4      -7.761   5.937  70.668  1.00  0.00    -0.097 C  
HETATM   27  H   UNL     4      -6.195   6.460  71.816  1.00  0.00     0.000 HD 
HETATM   28  O   UNL     4      -6.447   6.142  70.957  1.00  0.00    -0.045 OA 
BRANCH  26  29
HETATM   29  C   UNL     4      -8.736   6.290  71.792  1.00  0.00    -0.133 A  
HETATM   30  C   UNL     4     -10.063   6.823  71.671  1.00  0.00    -0.183 A  
HETATM   31  C   UNL     4      -8.254   6.072  73.120  1.00  0.00    -0.116 A  
HETATM   32  C   UNL     4      -9.023   6.375  74.249  1.00  0.00    -0.171 A  
HETATM   33  C   UNL     4     -10.286   6.920  74.104  1.00  0.00    -0.331 A  
HETATM   34  C   UNL     4     -10.808   7.137  72.832  1.00  0.00    -0.362 A  
BRANCH  30  35
HETATM   35  O   UNL     4     -10.693   7.026  70.487  1.00  0.00    -0.226 OA 
BRANCH  35  36
HETATM   36  C   UNL     4     -10.663   8.207  69.772  1.00  0.00    -0.229 C  
HETATM   37  C   UNL     4      -9.933   8.035  68.477  1.00  0.00    -0.192 C  
HETATM   38  O   UNL     4     -10.361   7.124  67.584  1.00  0.00    -0.180 OA 
HETATM   39  O   UNL     4      -8.984   8.752  68.203  1.00  0.00    -0.140 OA 
ENDBRANCH  35  36
ENDBRANCH  30  35
ENDBRANCH  26  29
ENDBRANCH  24  26
ENDBRANCH  23  24
ENDBRANCH   5  23
BRANCH   5  40
HETATM   40  O   UNL     4      -8.203   4.643  66.843  1.00  0.00    -0.106 OA 
BRANCH  40  41
HETATM   41  C   UNL     4      -7.492   4.275  65.655  1.00  0.00    -0.081 C  
BRANCH  41  42
HETATM   42  C   UNL     4      -7.500   5.382  64.579  1.00  0.00    -0.067 C  
BRANCH  42  43
HETATM   43  O   UNL     4      -6.195   5.643  64.097  1.00  0.00    -0.024 OA 
HETATM   44  C   UNL     4      -5.265   4.829  64.791  1.00  0.00    -0.013 C  
ENDBRANCH  42  43
ENDBRANCH  41  42
ENDBRANCH  40  41
ENDBRANCH   5  40
TORSDOF 17
ENDMDL
MODEL      100
REMARK 921   NORMALIZED FREE ENERGY PREDICTED BY IDOCK:   -3.06 KCAL/MOL
REMARK 922        TOTAL FREE ENERGY PREDICTED BY IDOCK:   -8.96 KCAL/MOL
REMARK 923 INTER-LIGAND FREE ENERGY PREDICTED BY IDOCK:   -6.76 KCAL/MOL
REMARK 924 INTRA-LIGAND FREE ENERGY PREDICTED BY IDOCK:   -2.20 KCAL/MOL
REMARK 927      BINDING AFFINITY PREDICTED BY RF-SCORE:    0.00 PKD
ROOT
HETATM    1 HG   UNL     2     -11.082  15.480  73.072  1.00  0.00    -0.416 Hg 
HETATM    2  C   UNL     3      -5.620   9.610  62.944  1.00  0.00    -0.090 C  
HETATM    3  C   UNL     3      -6.132   9.179  64.325  1.00  0.00    -0.072 C  
HETATM    4  C   UNL     4     -14.194  14.480  70.779  1.00  0.00     0.408 C  
HETATM    5  C   UNL     4     -12.753  13.966  70.652  1.00  0.00    -0.281 C  
ENDROOT
BRANCH   3   6
HETATM    6  N   UNL     3      -6.359   7.715  64.462  1.00  0.00    -0.044 NA 
BRANCH   6   7
HETATM    7  C   UNL     3      -5.558   7.073  65.541  1.00  0.00    -0.031 C  
HETATM    8  C   UNL     3      -5.275   7.976  66.755  1.00  0.00    -0.028 C  
ENDBRANCH   6   7
BRANCH   6   9
HETATM    9  C   UNL     3      -7.796   7.385  64.638  1.00  0.00    -0.123 C  
BRANCH   9  10
HETATM   10  C   UNL     3      -8.063   5.946  65.071  1.00  0.00    -0.132 C  
BRANCH  10  11
HETATM   11  O   UNL     3      -9.009   5.885  66.068  1.00  0.00    -0.149 OA 
BRANCH  11  12
HETATM   12  C   UNL     3      -9.715   4.769  66.372  1.00  0.00    -0.195 C  
HETATM   13  O   UNL     3     -10.604   4.374  65.629  1.00  0.00    -0.257 OA 
BRANCH  12  14
HETATM   14  C   UNL     3      -9.316   3.993  67.560  1.00  0.00    -0.219 A  
HETATM   15  C   UNL     3      -8.558   2.422  69.765  1.00  0.00    -0.056 A  
HETATM   16  C   UNL     3      -9.606   3.347  69.885  1.00  0.00    -0.198 A  
HETATM   17  C   UNL     3      -9.986   4.129  68.790  1.00  0.00     0.035 A  
HETATM   18  N   UNL     3      -8.167   1.625  70.875  1.00  0.00    -0.048 NA 
HETATM   19  C   UNL     3      -7.897   2.281  68.539  1.00  0.00    -0.057 A  
HETATM   20  C   UNL     3      -8.270   3.061  67.449  1.00  0.00    -0.085 A  
HETATM   21  H1  UNL     3      -7.405   0.953  70.787  1.00  0.00     0.000 HD 
HETATM   22  H2  UNL     3      -8.991   1.131  71.219  1.00  0.00     0.000 HD 
ENDBRANCH  12  14
ENDBRANCH  11  12
ENDBRANCH  10  11
ENDBRANCH   9  10
ENDBRANCH   6   9
ENDBRANCH   3   6
BRANCH   5  23
HETATM   23  C   UNL     4     -12.546  12.637  71.463  1.00  0.00    -0.151 C  
BRANCH  23  24
HETATM   24  N   UNL     4     -12.638  11.357  70.728  1.00  0.00    -0.337 NA 
HETATM   25  H   UNL     4     -12.633  11.380  69.709  1.00  0.00     0.000 HD 
BRANCH  24  26
HETATM   26  C   UNL     4     -12.728  10.188  71.328  1.00  0.00    -0.407 C  
HETATM   27  H   UNL     4     -13.972   8.955  72.316  1.00  0.00     0.000 HD 
HETATM   28  O   UNL     4     -13.907   9.799  71.884  1.00  0.00    -0.278 OA 
BRANCH  26  29
HETATM   29  C   UNL     4     -11.593   9.168  71.430  1.00  0.00    -0.411 A  
HETATM   30  C   UNL     4     -10.505   8.968  70.517  1.00  0.00    -0.223 A  
HETATM   31  C   UNL     4     -11.639   8.304  72.568  1.00  0.00    -0.454 A  
HETATM   32  C   UNL     4     -10.685   7.303  72.780  1.00  0.00    -0.340 A  
HETATM   33  C   UNL     4      -9.665   7.110  71.867  1.00  0.00    -0.169 A  
HETATM   34  C   UNL     4      -9.567   7.935  70.749  1.00  0.00    -0.171 A  
BRANCH  30  35
HETATM   35  O   UNL     4     -10.279   9.742  69.426  1.00  0.00    -0.185 OA 
BRANCH  35  36
HETATM   36  C   UNL     4      -9.498   9.374  68.348  1.00  0.00    -0.141 C  
HETATM   37  C   UNL     4      -8.223  10.156  68.313  1.00  0.00    -0.110 C  
HETATM   38  O   UNL     4      -7.378  10.105  69.360  1.00  0.00    -0.080 OA 
HETATM   39  O   UNL     4      -7.918  10.799  67.321  1.00  0.00    -0.113 OA 
ENDBRANCH  35  36
ENDBRANCH  30  35
ENDBRANCH  26  29
ENDBRANCH  24  26
ENDBRANCH  23  24
ENDBRANCH   5  23
BRANCH   5  40
HETATM   40  O   UNL     4     -12.447  13.732  69.266  1.00  0.00    -0.241 OA 
BRANCH  40  41
HETATM   41  C   UNL     4     -12.163  14.948  68.563  1.00  0.00    -0.049 C  
BRANCH  41  42
HETATM   42  C   UNL     4     -11.033  14.794  67.523  1.00  0.00    -0.304 C  
BRANCH  42  43
HETATM   43  O   UNL     4      -9.936  15.636  67.824  1.00  0.00    -0.221 OA 
HETATM   44  C   UNL     4     -10.400  16.960  68.026  1.00  0.00    -0.334 C  
ENDBRANCH  42  43
ENDBRANCH  41  42
ENDBRANCH  40  41
ENDBRANCH   5  40
TORSDOF 17
ENDMDL
MODEL      101
REMARK 921   NORMALIZED FREE ENERGY PREDICTED BY IDOCK:   -3.00 KCAL/MOL
REMARK 922        TOTAL FREE ENERGY PREDICTED BY IDOCK:   -8.85 KCAL/MOL
REMARK 923 INTER-LIGAND FREE ENERGY PREDICTED BY IDOCK:   -6.10 KCAL/MOL
REMARK 924 INTRA-LIGAND FREE ENERGY PREDICTED BY IDOCK:   -2.75 KCAL/MOL
REMARK 927      BINDING AFFINITY PREDICTED BY RF-SCORE:    0.00 PKD
ROOT
HETATM    1 HG   UNL     2     -11.084   1.486  68.534  1.00  0.00     0.669 Hg 
HETATM    2  C   UNL     3     -11.508  13.774  64.573  1.00  0.00    -0.401 C  
HETATM    3  C   UNL     3     -11.318  13.053  65.915  1.00  0.00    -0.313 C  
HETATM    4  C   UNL     4      -7.292   2.294  67.582  1.00  0.00    -0.056 C  
HETATM    5  C   UNL     4      -8.430   3.306  67.771  1.00  0.00    -0.088 C  
ENDROOT
BRANCH   3   6
HETATM    6  N   UNL     3     -10.741  13.905  66.989  1.00  0.00    -0.282 NA 
BRANCH   6   7
HETATM    7  C   UNL     3     -11.593  14.012  68.206  1.00  0.00    -0.329 C  
HETATM    8  C   UNL     3     -11.473  15.350  68.959  1.00  0.00    -0.349 C  
ENDBRANCH   6   7
BRANCH   6   9
HETATM    9  C   UNL     3      -9.372  13.473  67.371  1.00  0.00    -0.228 C  
BRANCH   9  10
HETATM   10  C   UNL     3      -9.331  12.316  68.365  1.00  0.00    -0.162 C  
BRANCH  10  11
HETATM   11  O   UNL     3      -8.164  11.596  68.256  1.00  0.00    -0.142 OA 
BRANCH  11  12
HETATM   12  C   UNL     3      -7.419  11.532  67.127  1.00  0.00    -0.142 C  
HETATM   13  O   UNL     3      -6.551  12.366  66.904  1.00  0.00    -0.070 OA 
BRANCH  12  14
HETATM   14  C   UNL     3      -7.611  10.377  66.230  1.00  0.00    -0.127 A  
HETATM   15  C   UNL     3      -8.084   8.185  64.535  1.00  0.00    -0.142 A  
HETATM   16  C   UNL     3      -7.137   8.088  65.564  1.00  0.00    -0.060 A  
HETATM   17  C   UNL     3      -6.899   9.177  66.409  1.00  0.00    -0.079 A  
HETATM   18  N   UNL     3      -8.330   7.083  63.671  1.00  0.00    -0.346 NA 
HETATM   19  C   UNL     3      -8.798   9.377  64.361  1.00  0.00    -0.225 A  
HETATM   20  C   UNL     3      -8.561  10.463  65.198  1.00  0.00    -0.189 A  
HETATM   21  H1  UNL     3      -9.019   7.153  62.923  1.00  0.00     0.000 HD 
HETATM   22  H2  UNL     3      -8.565   6.273  64.246  1.00  0.00     0.000 HD 
ENDBRANCH  12  14
ENDBRANCH  11  12
ENDBRANCH  10  11
ENDBRANCH   9  10
ENDBRANCH   6   9
ENDBRANCH   3   6
BRANCH   5  23
HETATM   23  C   UNL     4      -8.482   3.839  69.248  1.00  0.00    -0.068 C  
BRANCH  23  24
HETATM   24  N   UNL     4      -7.771   5.099  69.555  1.00  0.00    -0.068 NA 
HETATM   25  H   UNL     4      -7.219   5.537  68.818  1.00  0.00     0.000 HD 
BRANCH  24  26
HETATM   26  C   UNL     4      -7.816   5.682  70.734  1.00  0.00    -0.093 C  
HETATM   27  H   UNL     4      -6.951   5.758  72.547  1.00  0.00     0.000 HD 
HETATM   28  O   UNL     4      -6.918   5.337  71.696  1.00  0.00    -0.061 OA 
BRANCH  26  29
HETATM   29  C   UNL     4      -8.802   6.782  71.129  1.00  0.00    -0.137 A  
HETATM   30  C   UNL     4      -9.423   7.755  70.277  1.00  0.00    -0.160 A  
HETATM   31  C   UNL     4      -9.127   6.851  72.520  1.00  0.00    -0.145 A  
HETATM   32  C   UNL     4      -9.992   7.824  73.033  1.00  0.00    -0.356 A  
HETATM   33  C   UNL     4     -10.550   8.770  72.194  1.00  0.00    -0.386 A  
HETATM   34  C   UNL     4     -10.278   8.737  70.829  1.00  0.00    -0.262 A  
BRANCH  30  35
HETATM   35  O   UNL     4      -9.274   7.787  68.929  1.00  0.00    -0.141 OA 
BRANCH  35  36
HETATM   36  C   UNL     4     -10.310   7.915  68.025  1.00  0.00    -0.209 C  
HETATM   37  C   UNL     4     -10.703   6.585  67.464  1.00  0.00    -0.321 C  
HETATM   38  O   UNL     4     -11.112   5.604  68.290  1.00  0.00    -0.093 OA 
HETATM   39  O   UNL     4     -10.708   6.400  66.257  1.00  0.00     0.009 OA 
ENDBRANCH  35  36
ENDBRANCH  30  35
ENDBRANCH  26  29
ENDBRANCH  24  26
ENDBRANCH  23  24
ENDBRANCH   5  23
BRANCH   5  40
HETATM   40  O   UNL     4      -8.243   4.412  66.872  1.00  0.00    -0.101 OA 
BRANCH  40  41
HETATM   41  C   UNL     4      -7.636   4.008  65.638  1.00  0.00    -0.085 C  
BRANCH  41  42
HETATM   42  C   UNL     4      -8.618   3.287  64.690  1.00  0.00    -0.098 C  
BRANCH  42  43
HETATM   43  O   UNL     4      -9.757   4.085  64.424  1.00  0.00    -0.160 OA 
HETATM   44  C   UNL     4     -10.004   4.103  63.028  1.00  0.00    -0.102 C  
ENDBRANCH  42  43
ENDBRANCH  41  42
ENDBRANCH  40  41
ENDBRANCH   5  40
TORSDOF 17
ENDMDL
MODEL      102
REMARK 921   NORMALIZED FREE ENERGY PREDICTED BY IDOCK:   -2.94 KCAL/MOL
REMARK 922        TOTAL FREE ENERGY PREDICTED BY IDOCK:   -8.73 KCAL/MOL
REMARK 923 INTER-LIGAND FREE ENERGY PREDICTED BY IDOCK:   -6.91 KCAL/MOL
REMARK 924 INTRA-LIGAND FREE ENERGY PREDICTED BY IDOCK:   -1.81 KCAL/MOL
REMARK 927      BINDING AFFINITY PREDICTED BY RF-SCORE:    0.00 PKD
ROOT
HETATM    1 HG   UNL     2      -9.522  16.816  69.727  1.00  0.00    -0.211 Hg 
HETATM    2  C   UNL     3      -6.252   4.512  71.913  1.00  0.00    -0.021 C  
HETATM    3  C   UNL     3      -7.546   5.267  71.579  1.00  0.00    -0.102 C  
HETATM    4  C   UNL     4      -8.497  15.464  66.113  1.00  0.00     0.142 C  
HETATM    5  C   UNL     4      -8.776  14.623  67.367  1.00  0.00    -0.197 C  
ENDROOT
BRANCH   3   6
HETATM    6  N   UNL     3      -8.646   4.401  71.078  1.00  0.00    -0.088 NA 
BRANCH   6   7
HETATM    7  C   UNL     3     -10.011   4.938  71.336  1.00  0.00    -0.197 C  
HETATM    8  C   UNL     3     -10.403   6.144  70.464  1.00  0.00    -0.270 C  
ENDBRANCH   6   7
BRANCH   6   9
HETATM    9  C   UNL     3      -8.496   4.084  69.634  1.00  0.00    -0.060 C  
BRANCH   9  10
HETATM   10  C   UNL     3      -8.785   2.629  69.276  1.00  0.00    -0.083 C  
BRANCH  10  11
HETATM   11  O   UNL     3      -8.223   2.284  68.069  1.00  0.00    -0.058 OA 
BRANCH  11  12
HETATM   12  C   UNL     3      -8.571   2.845  66.886  1.00  0.00    -0.107 C  
HETATM   13  O   UNL     3      -9.534   2.424  66.257  1.00  0.00     0.014 OA 
BRANCH  12  14
HETATM   14  C   UNL     3      -7.827   4.033  66.431  1.00  0.00    -0.094 A  
HETATM   15  C   UNL     3      -6.448   6.284  65.464  1.00  0.00    -0.039 A  
HETATM   16  C   UNL     3      -5.772   5.313  66.215  1.00  0.00    -0.018 A  
HETATM   17  C   UNL     3      -6.455   4.191  66.698  1.00  0.00    -0.041 A  
HETATM   18  N   UNL     3      -5.760   7.426  64.972  1.00  0.00    -0.036 NA 
HETATM   19  C   UNL     3      -7.812   6.123  65.192  1.00  0.00    -0.108 A  
HETATM   20  C   UNL     3      -8.495   5.010  65.673  1.00  0.00    -0.127 A  
HETATM   21  H1  UNL     3      -6.252   8.133  64.425  1.00  0.00     0.000 HD 
HETATM   22  H2  UNL     3      -4.956   7.106  64.431  1.00  0.00     0.000 HD 
ENDBRANCH  12  14
ENDBRANCH  11  12
ENDBRANCH  10  11
ENDBRANCH   9  10
ENDBRANCH   6   9
ENDBRANCH   3   6
BRANCH   5  23
HETATM   23  C   UNL     4     -10.281  14.176  67.431  1.00  0.00    -0.244 C  
BRANCH  23  24
HETATM   24  N   UNL     4     -10.867  13.910  68.763  1.00  0.00    -0.258 NA 
HETATM   25  H   UNL     4     -10.730  12.989  69.178  1.00  0.00     0.000 HD 
BRANCH  24  26
HETATM   26  C   UNL     4     -11.557  14.805  69.438  1.00  0.00    -0.310 C  
HETATM   27  H   UNL     4     -12.148  16.726  69.462  1.00  0.00     0.000 HD 
HETATM   28  O   UNL     4     -11.650  16.081  68.975  1.00  0.00    -0.367 OA 
BRANCH  26  29
HETATM   29  C   UNL     4     -12.328  14.524  70.729  1.00  0.00    -0.410 A  
HETATM   30  C   UNL     4     -12.900  13.281  71.160  1.00  0.00    -0.280 A  
HETATM   31  C   UNL     4     -12.507  15.645  71.598  1.00  0.00    -0.503 A  
HETATM   32  C   UNL     4     -13.216  15.548  72.800  1.00  0.00    -0.605 A  
HETATM   33  C   UNL     4     -13.786  14.345  73.175  1.00  0.00     0.165 A  
HETATM   34  C   UNL     4     -13.626  13.219  72.372  1.00  0.00    -0.694 A  
BRANCH  30  35
HETATM   35  O   UNL     4     -12.764  12.111  70.488  1.00  0.00    -0.133 OA 
BRANCH  35  36
HETATM   36  C   UNL     4     -12.162  10.976  70.995  1.00  0.00    -0.351 C  
HETATM   37  C   UNL     4     -13.180  10.019  71.530  1.00  0.00    -0.401 C  
HETATM   38  O   UNL     4     -14.141   9.542  70.718  1.00  0.00     0.015 OA 
HETATM   39  O   UNL     4     -13.113   9.626  72.684  1.00  0.00    -0.279 OA 
ENDBRANCH  35  36
ENDBRANCH  30  35
ENDBRANCH  26  29
ENDBRANCH  24  26
ENDBRANCH  23  24
ENDBRANCH   5  23
BRANCH   5  40
HETATM   40  O   UNL     4      -7.933  13.458  67.361  1.00  0.00    -0.167 OA 
BRANCH  40  41
HETATM   41  C   UNL     4      -8.480  12.401  66.561  1.00  0.00     0.058 C  
BRANCH  41  42
HETATM   42  C   UNL     4      -8.698  11.095  67.355  1.00  0.00    -0.133 C  
BRANCH  42  43
HETATM   43  O   UNL     4      -8.792  11.345  68.745  1.00  0.00    -0.150 OA 
HETATM   44  C   UNL     4      -8.101  10.330  69.454  1.00  0.00    -0.163 C  
ENDBRANCH  42  43
ENDBRANCH  41  42
ENDBRANCH  40  41
ENDBRANCH   5  40
TORSDOF 17
ENDMDL
MODEL      103
REMARK 921   NORMALIZED FREE ENERGY PREDICTED BY IDOCK:   -2.54 KCAL/MOL
REMARK 922        TOTAL FREE ENERGY PREDICTED BY IDOCK:   -7.93 KCAL/MOL
REMARK 923 INTER-LIGAND FREE ENERGY PREDICTED BY IDOCK:   -8.39 KCAL/MOL
REMARK 924 INTRA-LIGAND FREE ENERGY PREDICTED BY IDOCK:    0.46 KCAL/MOL
REMARK 927      BINDING AFFINITY PREDICTED BY RF-SCORE:    0.00 PKD
ROOT
HETATM    1 HG   UNL     2      -8.860  17.974  66.670  1.00  0.00    -0.217 Hg 
HETATM    2  C   UNL     3      -5.188   5.899  69.421  1.00  0.00    -0.004 C  
HETATM    3  C   UNL     3      -6.149   6.927  70.033  1.00  0.00    -0.024 C  
HETATM    4  C   UNL     4     -11.412  15.722  64.583  1.00  0.00    -0.284 C  
HETATM    5  C   UNL     4     -10.476  15.254  65.706  1.00  0.00    -0.349 C  
ENDROOT
BRANCH   3   6
HETATM    6  N   UNL     3      -7.139   6.347  70.981  1.00  0.00    -0.068 NA 
BRANCH   6   7
HETATM    7  C   UNL     3      -7.222   7.059  72.287  1.00  0.00    -0.073 C  
HETATM    8  C   UNL     3      -6.761   8.527  72.249  1.00  0.00    -0.092 C  
ENDBRANCH   6   7
BRANCH   6   9
HETATM    9  C   UNL     3      -8.494   6.242  70.380  1.00  0.00    -0.134 C  
BRANCH   9  10
HETATM   10  C   UNL     3      -8.701   7.105  69.139  1.00  0.00    -0.133 C  
BRANCH  10  11
HETATM   11  O   UNL     3      -9.145   8.365  69.468  1.00  0.00    -0.151 OA 
BRANCH  11  12
HETATM   12  C   UNL     3     -10.377   8.836  69.158  1.00  0.00    -0.217 C  
HETATM   13  O   UNL     3     -10.658   9.135  68.004  1.00  0.00    -0.229 OA 
BRANCH  12  14
HETATM   14  C   UNL     3     -11.395   8.880  70.223  1.00  0.00    -0.179 A  
HETATM   15  C   UNL     3     -13.257   8.984  72.327  1.00  0.00    -0.460 A  
HETATM   16  C   UNL     3     -13.277   7.914  71.421  1.00  0.00    -0.283 A  
HETATM   17  C   UNL     3     -12.352   7.859  70.373  1.00  0.00     0.402 A  
HETATM   18  N   UNL     3     -14.195   9.045  73.393  1.00  0.00    -1.088 NA 
HETATM   19  C   UNL     3     -12.301   9.995  72.183  1.00  0.00    -0.070 A  
HETATM   20  C   UNL     3     -11.381   9.946  71.140  1.00  0.00    -0.443 A  
HETATM   21  H1  UNL     3     -14.181   9.823  74.053  1.00  0.00     0.000 HD 
HETATM   22  H2  UNL     3     -14.133   8.176  73.924  1.00  0.00     0.000 HD 
ENDBRANCH  12  14
ENDBRANCH  11  12
ENDBRANCH  10  11
ENDBRANCH   9  10
ENDBRANCH   6   9
ENDBRANCH   3   6
BRANCH   5  23
HETATM   23  C   UNL     4     -11.194  15.295  67.103  1.00  0.00    -0.291 C  
BRANCH  23  24
HETATM   24  N   UNL     4     -10.350  15.235  68.317  1.00  0.00    -0.231 NA 
HETATM   25  H   UNL     4     -10.800  15.041  69.211  1.00  0.00     0.000 HD 
BRANCH  24  26
HETATM   26  C   UNL     4      -9.047  15.422  68.297  1.00  0.00    -0.187 C  
HETATM   27  H   UNL     4      -7.283  14.549  67.887  1.00  0.00     0.000 HD 
HETATM   28  O   UNL     4      -8.223  14.414  67.901  1.00  0.00    -0.136 OA 
BRANCH  26  29
HETATM   29  C   UNL     4      -8.345  16.731  68.660  1.00  0.00    -0.252 A  
HETATM   30  C   UNL     4      -6.960  16.929  68.976  1.00  0.00    -0.224 A  
HETATM   31  C   UNL     4      -9.181  17.890  68.699  1.00  0.00    -0.269 A  
HETATM   32  C   UNL     4      -8.686  19.152  69.044  1.00  0.00    -0.238 A  
HETATM   33  C   UNL     4      -7.353  19.309  69.377  1.00  0.00    -0.213 A  
HETATM   34  C   UNL     4      -6.493  18.214  69.338  1.00  0.00    -0.236 A  
BRANCH  30  35
HETATM   35  O   UNL     4      -6.022  15.950  68.920  1.00  0.00    -0.109 OA 
BRANCH  35  36
HETATM   36  C   UNL     4      -5.320  15.470  70.007  1.00  0.00    -0.117 C  
HETATM   37  C   UNL     4      -5.610  14.021  70.241  1.00  0.00    -0.125 C  
HETATM   38  O   UNL     4      -5.360  13.123  69.270  1.00  0.00    -0.073 OA 
HETATM   39  O   UNL     4      -6.023  13.640  71.325  1.00  0.00    -0.243 OA 
ENDBRANCH  35  36
ENDBRANCH  30  35
ENDBRANCH  26  29
ENDBRANCH  24  26
ENDBRANCH  23  24
ENDBRANCH   5  23
BRANCH   5  40
HETATM   40  O   UNL     4     -10.035  13.913  65.436  1.00  0.00    -0.306 OA 
BRANCH  40  41
HETATM   41  C   UNL     4     -10.600  12.965  66.350  1.00  0.00    -0.271 C  
BRANCH  41  42
HETATM   42  C   UNL     4     -10.336  11.500  65.941  1.00  0.00    -0.247 C  
BRANCH  42  43
HETATM   43  O   UNL     4      -9.564  11.426  64.757  1.00  0.00    -0.236 OA 
HETATM   44  C   UNL     4      -9.597  10.100  64.255  1.00  0.00    -0.290 C  
ENDBRANCH  42  43
ENDBRANCH  41  42
ENDBRANCH  40  41
ENDBRANCH   5  40
TORSDOF 17
ENDMDL
MODEL      104
REMARK 921   NORMALIZED FREE ENERGY PREDICTED BY IDOCK:   -2.46 KCAL/MOL
REMARK 922        TOTAL FREE ENERGY PREDICTED BY IDOCK:   -7.77 KCAL/MOL
REMARK 923 INTER-LIGAND FREE ENERGY PREDICTED BY IDOCK:   -7.03 KCAL/MOL
REMARK 924 INTRA-LIGAND FREE ENERGY PREDICTED BY IDOCK:   -0.74 KCAL/MOL
REMARK 927      BINDING AFFINITY PREDICTED BY RF-SCORE:    0.00 PKD
ROOT
HETATM    1 HG   UNL     2      -9.133  16.863  69.893  1.00  0.00    -0.078 Hg 
HETATM    2  C   UNL     3      -6.113   4.318  69.289  1.00  0.00    -0.027 C  
HETATM    3  C   UNL     3      -7.326   5.180  68.914  1.00  0.00    -0.065 C  
HETATM    4  C   UNL     4      -7.351  16.499  66.339  1.00  0.00    -0.144 C  
HETATM    5  C   UNL     4      -7.866  15.362  67.233  1.00  0.00    -0.206 C  
ENDROOT
BRANCH   3   6
HETATM    6  N   UNL     3      -8.280   4.520  67.981  1.00  0.00    -0.094 NA 
BRANCH   6   7
HETATM    7  C   UNL     3      -9.683   5.003  68.102  1.00  0.00    -0.148 C  
HETATM    8  C   UNL     3      -9.881   6.160  69.098  1.00  0.00    -0.176 C  
ENDBRANCH   6   7
BRANCH   6   9
HETATM    9  C   UNL     3      -7.836   4.614  66.567  1.00  0.00    -0.099 C  
BRANCH   9  10
HETATM   10  C   UNL     3      -7.879   3.293  65.805  1.00  0.00    -0.085 C  
BRANCH  10  11
HETATM   11  O   UNL     3      -7.127   3.348  64.654  1.00  0.00    -0.055 OA 
BRANCH  11  12
HETATM   12  C   UNL     3      -7.443   4.112  63.581  1.00  0.00    -0.055 C  
HETATM   13  O   UNL     3      -8.027   3.625  62.621  1.00  0.00    -0.068 OA 
BRANCH  12  14
HETATM   14  C   UNL     3      -7.159   5.557  63.645  1.00  0.00    -0.048 A  
HETATM   15  C   UNL     3      -6.562   8.296  63.860  1.00  0.00    -0.071 A  
HETATM   16  C   UNL     3      -7.879   7.878  63.618  1.00  0.00    -0.138 A  
HETATM   17  C   UNL     3      -8.179   6.516  63.511  1.00  0.00     0.070 A  
HETATM   18  N   UNL     3      -6.251   9.678  63.969  1.00  0.00    -0.102 NA 
HETATM   19  C   UNL     3      -5.549   7.341  64.001  1.00  0.00    -0.033 A  
HETATM   20  C   UNL     3      -5.843   5.985  63.891  1.00  0.00    -0.022 A  
HETATM   21  H1  UNL     3      -5.293   9.982  64.145  1.00  0.00     0.000 HD 
HETATM   22  H2  UNL     3      -6.851  10.085  64.686  1.00  0.00     0.000 HD 
ENDBRANCH  12  14
ENDBRANCH  11  12
ENDBRANCH  10  11
ENDBRANCH   9  10
ENDBRANCH   6   9
ENDBRANCH   3   6
BRANCH   5  23
HETATM   23  C   UNL     4      -9.341  14.967  66.864  1.00  0.00    -0.241 C  
BRANCH  23  24
HETATM   24  N   UNL     4     -10.259  14.614  67.968  1.00  0.00    -0.229 NA 
HETATM   25  H   UNL     4     -10.540  15.347  68.620  1.00  0.00     0.000 HD 
BRANCH  24  26
HETATM   26  C   UNL     4     -10.732  13.399  68.150  1.00  0.00    -0.253 C  
HETATM   27  H   UNL     4     -10.827  11.553  67.359  1.00  0.00     0.000 HD 
HETATM   28  O   UNL     4     -10.485  12.430  67.228  1.00  0.00    -0.220 OA 
BRANCH  26  29
HETATM   29  C   UNL     4     -11.536  12.946  69.369  1.00  0.00    -0.363 A  
HETATM   30  C   UNL     4     -11.835  13.698  70.555  1.00  0.00    -0.203 A  
HETATM   31  C   UNL     4     -12.034  11.607  69.319  1.00  0.00    -0.382 A  
HETATM   32  C   UNL     4     -12.762  11.045  70.374  1.00  0.00    -0.297 A  
HETATM   33  C   UNL     4     -13.006  11.780  71.519  1.00  0.00    -0.446 A  
HETATM   34  C   UNL     4     -12.557  13.095  71.611  1.00  0.00    -0.229 A  
BRANCH  30  35
HETATM   35  O   UNL     4     -11.495  14.999  70.733  1.00  0.00    -0.276 OA 
BRANCH  35  36
HETATM   36  C   UNL     4     -12.366  15.991  71.137  1.00  0.00    -0.271 C  
HETATM   37  C   UNL     4     -12.730  15.836  72.579  1.00  0.00    -0.451 C  
HETATM   38  O   UNL     4     -11.766  15.846  73.519  1.00  0.00    -0.310 OA 
HETATM   39  O   UNL     4     -13.901  15.752  72.916  1.00  0.00    -0.575 OA 
ENDBRANCH  35  36
ENDBRANCH  30  35
ENDBRANCH  26  29
ENDBRANCH  24  26
ENDBRANCH  23  24
ENDBRANCH   5  23
BRANCH   5  40
HETATM   40  O   UNL     4      -7.014  14.213  67.085  1.00  0.00    -0.146 OA 
BRANCH  40  41
HETATM   41  C   UNL     4      -6.526  13.738  68.346  1.00  0.00    -0.099 C  
BRANCH  41  42
HETATM   42  C   UNL     4      -6.915  14.652  69.527  1.00  0.00    -0.165 C  
BRANCH  42  43
HETATM   43  O   UNL     4      -5.770  15.192  70.160  1.00  0.00    -0.122 OA 
HETATM   44  C   UNL     4      -5.127  16.098  69.279  1.00  0.00    -0.110 C  
ENDBRANCH  42  43
ENDBRANCH  41  42
ENDBRANCH  40  41
ENDBRANCH   5  40
TORSDOF 17
ENDMDL
MODEL      105
REMARK 921   NORMALIZED FREE ENERGY PREDICTED BY IDOCK:   -2.34 KCAL/MOL
REMARK 922        TOTAL FREE ENERGY PREDICTED BY IDOCK:   -7.54 KCAL/MOL
REMARK 923 INTER-LIGAND FREE ENERGY PREDICTED BY IDOCK:   -4.58 KCAL/MOL
REMARK 924 INTRA-LIGAND FREE ENERGY PREDICTED BY IDOCK:   -2.95 KCAL/MOL
REMARK 927      BINDING AFFINITY PREDICTED BY RF-SCORE:    0.00 PKD
ROOT
HETATM    1 HG   UNL     2     -11.221   1.477  68.443  1.00  0.00     0.956 Hg 
HETATM    2  C   UNL     3     -11.338  13.982  65.205  1.00  0.00    -0.328 C  
HETATM    3  C   UNL     3     -11.067  13.175  66.482  1.00  0.00    -0.294 C  
HETATM    4  C   UNL     4      -7.493   2.153  67.182  1.00  0.00    -0.060 C  
HETATM    5  C   UNL     4      -8.553   3.207  67.532  1.00  0.00    -0.105 C  
ENDROOT
BRANCH   3   6
HETATM    6  N   UNL     3     -10.348  13.934  67.541  1.00  0.00    -0.244 NA 
BRANCH   6   7
HETATM    7  C   UNL     3     -10.689  13.514  68.929  1.00  0.00    -0.201 C  
HETATM    8  C   UNL     3     -12.174  13.672  69.301  1.00  0.00    -0.283 C  
ENDBRANCH   6   7
BRANCH   6   9
HETATM    9  C   UNL     3      -8.875  13.898  67.354  1.00  0.00    -0.207 C  
BRANCH   9  10
HETATM   10  C   UNL     3      -8.204  12.634  67.882  1.00  0.00    -0.170 C  
BRANCH  10  11
HETATM   11  O   UNL     3      -7.449  12.018  66.910  1.00  0.00    -0.131 OA 
BRANCH  11  12
HETATM   12  C   UNL     3      -7.840  10.906  66.243  1.00  0.00    -0.158 C  
HETATM   13  O   UNL     3      -8.663  10.978  65.339  1.00  0.00    -0.184 OA 
BRANCH  12  14
HETATM   14  C   UNL     3      -7.175   9.630  66.563  1.00  0.00    -0.090 A  
HETATM   15  C   UNL     3      -5.990   7.144  67.130  1.00  0.00    -0.040 A  
HETATM   16  C   UNL     3      -6.085   8.124  68.129  1.00  0.00    -0.046 A  
HETATM   17  C   UNL     3      -6.674   9.362  67.850  1.00  0.00    -0.067 A  
HETATM   18  N   UNL     3      -5.392   5.885  67.407  1.00  0.00    -0.005 NA 
HETATM   19  C   UNL     3      -6.496   7.408  65.852  1.00  0.00    -0.045 A  
HETATM   20  C   UNL     3      -7.079   8.639  65.570  1.00  0.00    -0.083 A  
HETATM   21  H1  UNL     3      -5.324   5.172  66.681  1.00  0.00     0.000 HD 
HETATM   22  H2  UNL     3      -5.867   5.476  68.212  1.00  0.00     0.000 HD 
ENDBRANCH  12  14
ENDBRANCH  11  12
ENDBRANCH  10  11
ENDBRANCH   9  10
ENDBRANCH   6   9
ENDBRANCH   3   6
BRANCH   5  23
HETATM   23  C   UNL     4      -8.441   3.654  69.033  1.00  0.00    -0.073 C  
BRANCH  23  24
HETATM   24  N   UNL     4      -7.701   4.900  69.331  1.00  0.00    -0.066 NA 
HETATM   25  H   UNL     4      -7.822   5.698  68.708  1.00  0.00     0.000 HD 
BRANCH  24  26
HETATM   26  C   UNL     4      -6.892   5.027  70.362  1.00  0.00    -0.044 C  
HETATM   27  H   UNL     4      -5.277   4.248  71.271  1.00  0.00     0.000 HD 
HETATM   28  O   UNL     4      -5.860   4.156  70.527  1.00  0.00    -0.013 OA 
BRANCH  26  29
HETATM   29  C   UNL     4      -6.985   6.131  71.416  1.00  0.00    -0.076 A  
HETATM   30  C   UNL     4      -8.169   6.727  71.965  1.00  0.00    -0.104 A  
HETATM   31  C   UNL     4      -5.736   6.634  71.897  1.00  0.00    -0.037 A  
HETATM   32  C   UNL     4      -5.663   7.665  72.840  1.00  0.00    -0.044 A  
HETATM   33  C   UNL     4      -6.820   8.244  73.327  1.00  0.00    -0.136 A  
HETATM   34  C   UNL     4      -8.063   7.780  72.903  1.00  0.00    -0.169 A  
BRANCH  30  35
HETATM   35  O   UNL     4      -9.429   6.322  71.667  1.00  0.00    -0.149 OA 
BRANCH  35  36
HETATM   36  C   UNL     4     -10.517   6.452  72.507  1.00  0.00    -0.202 C  
HETATM   37  C   UNL     4     -11.473   7.484  71.996  1.00  0.00    -0.279 C  
HETATM   38  O   UNL     4     -12.020   7.343  70.774  1.00  0.00    -0.292 OA 
HETATM   39  O   UNL     4     -11.801   8.425  72.700  1.00  0.00    -0.393 OA 
ENDBRANCH  35  36
ENDBRANCH  30  35
ENDBRANCH  26  29
ENDBRANCH  24  26
ENDBRANCH  23  24
ENDBRANCH   5  23
BRANCH   5  40
HETATM   40  O   UNL     4      -8.389   4.354  66.680  1.00  0.00    -0.105 OA 
BRANCH  40  41
HETATM   41  C   UNL     4      -7.694   4.030  65.468  1.00  0.00    -0.086 C  
BRANCH  41  42
HETATM   42  C   UNL     4      -8.607   4.053  64.224  1.00  0.00    -0.108 C  
BRANCH  42  43
HETATM   43  O   UNL     4      -9.971   4.169  64.587  1.00  0.00    -0.182 OA 
HETATM   44  C   UNL     4     -10.756   3.348  63.738  1.00  0.00    -0.244 C  
ENDBRANCH  42  43
ENDBRANCH  41  42
ENDBRANCH  40  41
ENDBRANCH   5  40
TORSDOF 17
ENDMDL
MODEL      106
REMARK 921   NORMALIZED FREE ENERGY PREDICTED BY IDOCK:   -2.33 KCAL/MOL
REMARK 922        TOTAL FREE ENERGY PREDICTED BY IDOCK:   -7.50 KCAL/MOL
REMARK 923 INTER-LIGAND FREE ENERGY PREDICTED BY IDOCK:   -6.79 KCAL/MOL
REMARK 924 INTRA-LIGAND FREE ENERGY PREDICTED BY IDOCK:   -0.71 KCAL/MOL
REMARK 927      BINDING AFFINITY PREDICTED BY RF-SCORE:    0.00 PKD
ROOT
HETATM    1 HG   UNL     2      -9.026  17.408  69.692  1.00  0.00    -0.100 Hg 
HETATM    2  C   UNL     3     -10.566   5.326  73.997  1.00  0.00    -0.321 C  
HETATM    3  C   UNL     3     -10.830   6.071  72.681  1.00  0.00    -0.244 C  
HETATM    4  C   UNL     4      -5.526  15.670  68.874  1.00  0.00    -0.103 C  
HETATM    5  C   UNL     4      -6.834  14.968  69.266  1.00  0.00    -0.149 C  
ENDROOT
BRANCH   3   6
HETATM    6  N   UNL     3     -11.017   5.182  71.503  1.00  0.00    -0.034 NA 
BRANCH   6   7
HETATM    7  C   UNL     3     -10.841   5.863  70.191  1.00  0.00    -0.332 C  
HETATM    8  C   UNL     3     -10.029   7.170  70.249  1.00  0.00    -0.191 C  
ENDBRANCH   6   7
BRANCH   6   9
HETATM    9  C   UNL     3     -10.148   3.979  71.566  1.00  0.00    -0.096 C  
BRANCH   9  10
HETATM   10  C   UNL     3      -9.548   3.566  70.225  1.00  0.00    -0.162 C  
BRANCH  10  11
HETATM   11  O   UNL     3      -8.178   3.690  70.224  1.00  0.00    -0.055 OA 
BRANCH  11  12
HETATM   12  C   UNL     3      -7.355   2.960  69.433  1.00  0.00    -0.044 C  
HETATM   13  O   UNL     3      -6.776   1.976  69.876  1.00  0.00    -0.032 OA 
BRANCH  12  14
HETATM   14  C   UNL     3      -7.257   3.321  68.007  1.00  0.00    -0.050 A  
HETATM   15  C   UNL     3      -7.064   3.902  65.263  1.00  0.00    -0.063 A  
HETATM   16  C   UNL     3      -6.237   4.562  66.183  1.00  0.00    -0.032 A  
HETATM   17  C   UNL     3      -6.330   4.275  67.549  1.00  0.00    -0.037 A  
HETATM   18  N   UNL     3      -6.975   4.190  63.874  1.00  0.00    -0.045 NA 
HETATM   19  C   UNL     3      -7.981   2.947  65.718  1.00  0.00    -0.085 A  
HETATM   20  C   UNL     3      -8.079   2.662  67.077  1.00  0.00    -0.076 A  
HETATM   21  H1  UNL     3      -7.577   3.710  63.205  1.00  0.00     0.000 HD 
HETATM   22  H2  UNL     3      -6.006   4.060  63.583  1.00  0.00     0.000 HD 
ENDBRANCH  12  14
ENDBRANCH  11  12
ENDBRANCH  10  11
ENDBRANCH   9  10
ENDBRANCH   6   9
ENDBRANCH   3   6
BRANCH   5  23
HETATM   23  C   UNL     4      -7.667  14.563  67.997  1.00  0.00    -0.135 C  
BRANCH  23  24
HETATM   24  N   UNL     4      -7.344  15.227  66.716  1.00  0.00    -0.285 NA 
HETATM   25  H   UNL     4      -7.082  14.645  65.920  1.00  0.00     0.000 HD 
BRANCH  24  26
HETATM   26  C   UNL     4      -7.378  16.533  66.553  1.00  0.00    -0.194 C  
HETATM   27  H   UNL     4      -6.242  18.173  66.302  1.00  0.00     0.000 HD 
HETATM   28  O   UNL     4      -6.217  17.230  66.419  1.00  0.00    -0.202 OA 
BRANCH  26  29
HETATM   29  C   UNL     4      -8.654  17.370  66.460  1.00  0.00    -0.293 A  
HETATM   30  C   UNL     4      -9.817  17.116  65.659  1.00  0.00     0.047 A  
HETATM   31  C   UNL     4      -8.676  18.555  67.260  1.00  0.00    -0.272 A  
HETATM   32  C   UNL     4      -9.763  19.435  67.255  1.00  0.00    -0.428 A  
HETATM   33  C   UNL     4     -10.858  19.183  66.448  1.00  0.00    -0.327 A  
HETATM   34  C   UNL     4     -10.893  18.034  65.662  1.00  0.00     0.068 A  
BRANCH  30  35
HETATM   35  O   UNL     4      -9.985  16.006  64.897  1.00  0.00    -0.328 OA 
BRANCH  35  36
HETATM   36  C   UNL     4     -10.392  14.777  65.376  1.00  0.00    -0.386 C  
HETATM   37  C   UNL     4     -11.880  14.635  65.302  1.00  0.00    -0.324 C  
HETATM   38  O   UNL     4     -12.504  14.746  64.115  1.00  0.00    -0.758 OA 
HETATM   39  O   UNL     4     -12.527  14.368  66.302  1.00  0.00    -0.393 OA 
ENDBRANCH  35  36
ENDBRANCH  30  35
ENDBRANCH  26  29
ENDBRANCH  24  26
ENDBRANCH  23  24
ENDBRANCH   5  23
BRANCH   5  40
HETATM   40  O   UNL     4      -6.536  13.791  70.035  1.00  0.00    -0.112 OA 
BRANCH  40  41
HETATM   41  C   UNL     4      -6.815  12.587  69.310  1.00  0.00    -0.019 C  
BRANCH  41  42
HETATM   42  C   UNL     4      -5.545  11.778  68.972  1.00  0.00    -0.051 C  
BRANCH  42  43
HETATM   43  O   UNL     4      -5.695  11.064  67.759  1.00  0.00    -0.042 OA 
HETATM   44  C   UNL     4      -6.994  11.287  67.238  1.00  0.00    -0.109 C  
ENDBRANCH  42  43
ENDBRANCH  41  42
ENDBRANCH  40  41
ENDBRANCH   5  40
TORSDOF 17
ENDMDL
MODEL      107
REMARK 921   NORMALIZED FREE ENERGY PREDICTED BY IDOCK:   -2.23 KCAL/MOL
REMARK 922        TOTAL FREE ENERGY PREDICTED BY IDOCK:   -7.32 KCAL/MOL
REMARK 923 INTER-LIGAND FREE ENERGY PREDICTED BY IDOCK:   -5.01 KCAL/MOL
REMARK 924 INTRA-LIGAND FREE ENERGY PREDICTED BY IDOCK:   -2.31 KCAL/MOL
REMARK 927      BINDING AFFINITY PREDICTED BY RF-SCORE:    0.00 PKD
ROOT
HETATM    1 HG   UNL     2     -10.881  17.011  72.648  1.00  0.00     0.210 Hg 
HETATM    2  C   UNL     3      -5.142   9.586  63.772  1.00  0.00    -0.060 C  
HETATM    3  C   UNL     3      -5.747   9.372  65.166  1.00  0.00    -0.058 C  
HETATM    4  C   UNL     4     -13.905  15.813  70.334  1.00  0.00     1.174 C  
HETATM    5  C   UNL     4     -12.483  15.234  70.365  1.00  0.00    -0.381 C  
ENDROOT
BRANCH   3   6
HETATM    6  N   UNL     3      -6.045   7.950  65.490  1.00  0.00    -0.038 NA 
BRANCH   6   7
HETATM    7  C   UNL     3      -5.238   7.399  66.614  1.00  0.00    -0.023 C  
HETATM    8  C   UNL     3      -5.175   8.299  67.861  1.00  0.00    -0.034 C  
ENDBRANCH   6   7
BRANCH   6   9
HETATM    9  C   UNL     3      -7.490   7.727  65.752  1.00  0.00    -0.078 C  
BRANCH   9  10
HETATM   10  C   UNL     3      -7.783   6.600  66.738  1.00  0.00    -0.106 C  
BRANCH  10  11
HETATM   11  O   UNL     3      -8.820   6.923  67.582  1.00  0.00    -0.120 OA 
BRANCH  11  12
HETATM   12  C   UNL     3      -8.961   6.421  68.832  1.00  0.00    -0.123 C  
HETATM   13  O   UNL     3      -9.600   5.394  69.023  1.00  0.00    -0.125 OA 
BRANCH  12  14
HETATM   14  C   UNL     3      -8.241   7.083  69.935  1.00  0.00    -0.130 A  
HETATM   15  C   UNL     3      -6.944   8.309  72.107  1.00  0.00    -0.088 A  
HETATM   16  C   UNL     3      -7.213   9.042  70.942  1.00  0.00    -0.106 A  
HETATM   17  C   UNL     3      -7.858   8.435  69.860  1.00  0.00    -0.101 A  
HETATM   18  N   UNL     3      -6.288   8.920  73.210  1.00  0.00    -0.304 NA 
HETATM   19  C   UNL     3      -7.332   6.966  72.185  1.00  0.00    -0.087 A  
HETATM   20  C   UNL     3      -7.971   6.359  71.109  1.00  0.00    -0.116 A  
HETATM   21  H1  UNL     3      -6.093   8.387  74.058  1.00  0.00     0.000 HD 
HETATM   22  H2  UNL     3      -6.813   9.754  73.472  1.00  0.00     0.000 HD 
ENDBRANCH  12  14
ENDBRANCH  11  12
ENDBRANCH  10  11
ENDBRANCH   9  10
ENDBRANCH   6   9
ENDBRANCH   3   6
BRANCH   5  23
HETATM   23  C   UNL     4     -12.380  14.026  71.363  1.00  0.00    -0.326 C  
BRANCH  23  24
HETATM   24  N   UNL     4     -13.477  13.034  71.365  1.00  0.00    -0.107 NA 
HETATM   25  H   UNL     4     -14.348  13.273  70.891  1.00  0.00     0.000 HD 
BRANCH  24  26
HETATM   26  C   UNL     4     -13.384  11.859  71.950  1.00  0.00    -0.300 C  
HETATM   27  H   UNL     4     -13.961  10.785  73.549  1.00  0.00     0.000 HD 
HETATM   28  O   UNL     4     -14.029  11.634  73.127  1.00  0.00     1.411 OA 
BRANCH  26  29
HETATM   29  C   UNL     4     -12.618  10.660  71.389  1.00  0.00    -0.526 A  
HETATM   30  C   UNL     4     -11.867  10.588  70.169  1.00  0.00    -0.320 A  
HETATM   31  C   UNL     4     -12.672   9.468  72.176  1.00  0.00    -0.442 A  
HETATM   32  C   UNL     4     -12.044   8.284  71.776  1.00  0.00    -0.364 A  
HETATM   33  C   UNL     4     -11.356   8.233  70.578  1.00  0.00    -0.225 A  
HETATM   34  C   UNL     4     -11.259   9.372  69.782  1.00  0.00    -0.139 A  
BRANCH  30  35
HETATM   35  O   UNL     4     -11.661  11.645  69.343  1.00  0.00    -0.284 OA 
BRANCH  35  36
HETATM   36  C   UNL     4     -10.576  11.786  68.501  1.00  0.00    -0.217 C  
HETATM   37  C   UNL     4     -10.973  11.590  67.071  1.00  0.00    -0.294 C  
HETATM   38  O   UNL     4     -11.914  12.381  66.524  1.00  0.00    -0.564 OA 
HETATM   39  O   UNL     4     -10.411  10.753  66.382  1.00  0.00    -0.245 OA 
ENDBRANCH  35  36
ENDBRANCH  30  35
ENDBRANCH  26  29
ENDBRANCH  24  26
ENDBRANCH  23  24
ENDBRANCH   5  23
BRANCH   5  40
HETATM   40  O   UNL     4     -12.114  14.797  69.046  1.00  0.00    -0.287 OA 
BRANCH  40  41
HETATM   41  C   UNL     4     -11.585  15.866  68.252  1.00  0.00    -0.272 C  
BRANCH  41  42
HETATM   42  C   UNL     4     -10.719  16.851  69.065  1.00  0.00    -0.308 C  
BRANCH  42  43
HETATM   43  O   UNL     4      -9.417  16.964  68.520  1.00  0.00    -0.248 OA 
HETATM   44  C   UNL     4      -9.488  17.608  67.259  1.00  0.00    -0.257 C  
ENDBRANCH  42  43
ENDBRANCH  41  42
ENDBRANCH  40  41
ENDBRANCH   5  40
TORSDOF 17
ENDMDL
MODEL      108
REMARK 921   NORMALIZED FREE ENERGY PREDICTED BY IDOCK:   -2.11 KCAL/MOL
REMARK 922        TOTAL FREE ENERGY PREDICTED BY IDOCK:   -7.08 KCAL/MOL
REMARK 923 INTER-LIGAND FREE ENERGY PREDICTED BY IDOCK:   -7.31 KCAL/MOL
REMARK 924 INTRA-LIGAND FREE ENERGY PREDICTED BY IDOCK:    0.24 KCAL/MOL
REMARK 927      BINDING AFFINITY PREDICTED BY RF-SCORE:    0.00 PKD
ROOT
HETATM    1 HG   UNL     2      -8.882  16.747  70.142  1.00  0.00     0.152 Hg 
HETATM    2  C   UNL     3      -7.406   3.917  70.391  1.00  0.00    -0.041 C  
HETATM    3  C   UNL     3      -8.402   4.901  69.761  1.00  0.00    -0.076 C  
HETATM    4  C   UNL     4      -6.488  16.020  67.031  1.00  0.00    -0.047 C  
HETATM    5  C   UNL     4      -7.309  14.992  67.822  1.00  0.00    -0.166 C  
ENDROOT
BRANCH   3   6
HETATM    6  N   UNL     3      -9.225   4.320  68.667  1.00  0.00    -0.130 NA 
BRANCH   6   7
HETATM    7  C   UNL     3     -10.322   5.209  68.192  1.00  0.00    -0.071 C  
HETATM    8  C   UNL     3     -10.497   5.253  66.663  1.00  0.00    -0.345 C  
ENDBRANCH   6   7
BRANCH   6   9
HETATM    9  C   UNL     3      -8.397   3.884  67.514  1.00  0.00    -0.094 C  
BRANCH   9  10
HETATM   10  C   UNL     3      -8.671   2.458  67.046  1.00  0.00    -0.124 C  
BRANCH  10  11
HETATM   11  O   UNL     3      -7.587   1.923  66.389  1.00  0.00    -0.060 OA 
BRANCH  11  12
HETATM   12  C   UNL     3      -6.677   2.661  65.709  1.00  0.00    -0.043 C  
HETATM   13  O   UNL     3      -5.483   2.396  65.779  1.00  0.00    -0.014 OA 
BRANCH  12  14
HETATM   14  C   UNL     3      -7.170   3.718  64.808  1.00  0.00    -0.067 A  
HETATM   15  C   UNL     3      -8.178   5.767  63.168  1.00  0.00    -0.084 A  
HETATM   16  C   UNL     3      -8.060   4.460  62.672  1.00  0.00    -0.070 A  
HETATM   17  C   UNL     3      -7.559   3.439  63.486  1.00  0.00    -0.063 A  
HETATM   18  N   UNL     3      -8.685   6.809  62.345  1.00  0.00    -0.345 NA 
HETATM   19  C   UNL     3      -7.797   6.043  64.486  1.00  0.00    -0.113 A  
HETATM   20  C   UNL     3      -7.295   5.030  65.297  1.00  0.00    -0.072 A  
HETATM   21  H1  UNL     3      -8.771   7.759  62.706  1.00  0.00     0.000 HD 
HETATM   22  H2  UNL     3      -9.596   6.520  61.989  1.00  0.00     0.000 HD 
ENDBRANCH  12  14
ENDBRANCH  11  12
ENDBRANCH  10  11
ENDBRANCH   9  10
ENDBRANCH   6   9
ENDBRANCH   3   6
BRANCH   5  23
HETATM   23  C   UNL     4      -8.718  14.762  67.168  1.00  0.00    -0.221 C  
BRANCH  23  24
HETATM   24  N   UNL     4      -9.823  14.317  68.045  1.00  0.00    -0.218 NA 
HETATM   25  H   UNL     4     -10.126  14.936  68.796  1.00  0.00     0.000 HD 
BRANCH  24  26
HETATM   26  C   UNL     4     -10.434  13.159  67.902  1.00  0.00    -0.240 C  
HETATM   27  H   UNL     4     -10.812  11.665  66.610  1.00  0.00     0.000 HD 
HETATM   28  O   UNL     4     -10.371  12.501  66.713  1.00  0.00    -0.224 OA 
BRANCH  26  29
HETATM   29  C   UNL     4     -11.210  12.437  69.005  1.00  0.00    -0.320 A  
HETATM   30  C   UNL     4     -12.033  13.017  70.026  1.00  0.00    -0.312 A  
HETATM   31  C   UNL     4     -11.081  11.013  69.020  1.00  0.00    -0.301 A  
HETATM   32  C   UNL     4     -11.709  10.221  69.987  1.00  0.00    -0.330 A  
HETATM   33  C   UNL     4     -12.469  10.809  70.981  1.00  0.00    -0.522 A  
HETATM   34  C   UNL     4     -12.639  12.191  71.001  1.00  0.00    -0.359 A  
BRANCH  30  35
HETATM   35  O   UNL     4     -12.312  14.342  70.113  1.00  0.00    -0.324 OA 
BRANCH  35  36
HETATM   36  C   UNL     4     -13.462  14.870  70.667  1.00  0.00    -0.137 C  
HETATM   37  C   UNL     4     -13.223  15.328  72.071  1.00  0.00    -0.407 C  
HETATM   38  O   UNL     4     -12.284  16.259  72.321  1.00  0.00    -0.482 OA 
HETATM   39  O   UNL     4     -13.910  14.901  72.986  1.00  0.00    -0.484 OA 
ENDBRANCH  35  36
ENDBRANCH  30  35
ENDBRANCH  26  29
ENDBRANCH  24  26
ENDBRANCH  23  24
ENDBRANCH   5  23
BRANCH   5  40
HETATM   40  O   UNL     4      -6.596  13.744  67.871  1.00  0.00    -0.127 OA 
BRANCH  40  41
HETATM   41  C   UNL     4      -6.134  13.439  69.193  1.00  0.00    -0.093 C  
BRANCH  41  42
HETATM   42  C   UNL     4      -5.560  12.012  69.317  1.00  0.00    -0.068 C  
BRANCH  42  43
HETATM   43  O   UNL     4      -6.199  11.286  70.350  1.00  0.00    -0.213 OA 
HETATM   44  C   UNL     4      -5.492  10.079  70.586  1.00  0.00    -0.060 C  
ENDBRANCH  42  43
ENDBRANCH  41  42
ENDBRANCH  40  41
ENDBRANCH   5  40
TORSDOF 17
ENDMDL
MODEL      109
REMARK 921   NORMALIZED FREE ENERGY PREDICTED BY IDOCK:   -2.09 KCAL/MOL
REMARK 922        TOTAL FREE ENERGY PREDICTED BY IDOCK:   -7.03 KCAL/MOL
REMARK 923 INTER-LIGAND FREE ENERGY PREDICTED BY IDOCK:   -6.87 KCAL/MOL
REMARK 924 INTRA-LIGAND FREE ENERGY PREDICTED BY IDOCK:   -0.15 KCAL/MOL
REMARK 927      BINDING AFFINITY PREDICTED BY RF-SCORE:    0.00 PKD
ROOT
HETATM    1 HG   UNL     2      -7.227   3.412  68.672  1.00  0.00    -0.045 Hg 
HETATM    2  C   UNL     3      -5.230  16.102  70.025  1.00  0.00    -0.144 C  
HETATM    3  C   UNL     3      -6.089  15.211  69.118  1.00  0.00    -0.101 C  
HETATM    4  C   UNL     4      -9.918   4.496  71.415  1.00  0.00    -0.259 C  
HETATM    5  C   UNL     4      -9.110   5.426  70.499  1.00  0.00    -0.142 C  
ENDROOT
BRANCH   3   6
HETATM    6  N   UNL     3      -7.194  15.929  68.427  1.00  0.00    -0.118 NA 
BRANCH   6   7
HETATM    7  C   UNL     3      -7.959  15.088  67.465  1.00  0.00    -0.178 C  
HETATM    8  C   UNL     3      -7.695  13.576  67.583  1.00  0.00    -0.180 C  
ENDBRANCH   6   7
BRANCH   6   9
HETATM    9  C   UNL     3      -8.128  16.574  69.384  1.00  0.00     0.048 C  
BRANCH   9  10
HETATM   10  C   UNL     3      -9.423  15.801  69.617  1.00  0.00    -0.204 C  
BRANCH  10  11
HETATM   11  O   UNL     3     -10.392  16.152  68.705  1.00  0.00    -0.231 OA 
BRANCH  11  12
HETATM   12  C   UNL     3     -11.432  15.354  68.364  1.00  0.00    -0.355 C  
HETATM   13  O   UNL     3     -12.031  15.527  67.310  1.00  0.00     0.076 OA 
BRANCH  12  14
HETATM   14  C   UNL     3     -11.754  14.215  69.243  1.00  0.00    -0.368 A  
HETATM   15  C   UNL     3     -12.388  11.982  70.829  1.00  0.00    -0.308 A  
HETATM   16  C   UNL     3     -12.973  13.227  71.100  1.00  0.00    -0.297 A  
HETATM   17  C   UNL     3     -12.660  14.340  70.312  1.00  0.00    -0.378 A  
HETATM   18  N   UNL     3     -12.700  10.847  71.627  1.00  0.00    -0.410 NA 
HETATM   19  C   UNL     3     -11.492  11.855  69.761  1.00  0.00    -0.303 A  
HETATM   20  C   UNL     3     -11.176  12.961  68.977  1.00  0.00    -0.320 A  
HETATM   21  H1  UNL     3     -12.275   9.942  71.430  1.00  0.00     0.000 HD 
HETATM   22  H2  UNL     3     -13.714  10.730  71.631  1.00  0.00     0.000 HD 
ENDBRANCH  12  14
ENDBRANCH  11  12
ENDBRANCH  10  11
ENDBRANCH   9  10
ENDBRANCH   6   9
ENDBRANCH   3   6
BRANCH   5  23
HETATM   23  C   UNL     4      -9.894   5.747  69.175  1.00  0.00    -0.162 C  
BRANCH  23  24
HETATM   24  N   UNL     4     -10.223   7.160  68.891  1.00  0.00    -0.181 NA 
HETATM   25  H   UNL     4     -11.160   7.495  69.114  1.00  0.00     0.000 HD 
BRANCH  24  26
HETATM   26  C   UNL     4      -9.364   8.008  68.364  1.00  0.00    -0.138 C  
HETATM   27  H   UNL     4      -9.028   9.949  67.966  1.00  0.00     0.000 HD 
HETATM   28  O   UNL     4      -9.648   9.338  68.346  1.00  0.00    -0.145 OA 
BRANCH  26  29
HETATM   29  C   UNL     4      -8.004   7.625  67.780  1.00  0.00    -0.121 A  
HETATM   30  C   UNL     4      -7.654   7.463  66.398  1.00  0.00    -0.088 A  
HETATM   31  C   UNL     4      -6.965   7.388  68.733  1.00  0.00    -0.078 A  
HETATM   32  C   UNL     4      -5.677   7.003  68.349  1.00  0.00    -0.021 A  
HETATM   33  C   UNL     4      -5.376   6.820  67.011  1.00  0.00    -0.013 A  
HETATM   34  C   UNL     4      -6.348   7.053  66.041  1.00  0.00    -0.046 A  
BRANCH  30  35
HETATM   35  O   UNL     4      -8.500   7.712  65.367  1.00  0.00    -0.138 OA 
BRANCH  35  36
HETATM   36  C   UNL     4      -8.113   7.873  64.052  1.00  0.00    -0.078 C  
HETATM   37  C   UNL     4      -8.035   9.321  63.685  1.00  0.00    -0.141 C  
HETATM   38  O   UNL     4      -7.215  10.141  64.368  1.00  0.00    -0.138 OA 
HETATM   39  O   UNL     4      -8.671   9.754  62.737  1.00  0.00    -0.185 OA 
ENDBRANCH  35  36
ENDBRANCH  30  35
ENDBRANCH  26  29
ENDBRANCH  24  26
ENDBRANCH  23  24
ENDBRANCH   5  23
BRANCH   5  40
HETATM   40  O   UNL     4      -8.824   6.652  71.192  1.00  0.00    -0.137 OA 
BRANCH  40  41
HETATM   41  C   UNL     4      -9.991   7.204  71.816  1.00  0.00    -0.175 C  
BRANCH  41  42
HETATM   42  C   UNL     4      -9.853   7.329  73.348  1.00  0.00    -0.277 C  
BRANCH  42  43
HETATM   43  O   UNL     4      -8.793   8.197  73.703  1.00  0.00    -0.263 OA 
HETATM   44  C   UNL     4      -7.697   7.434  74.178  1.00  0.00    -0.128 C  
ENDBRANCH  42  43
ENDBRANCH  41  42
ENDBRANCH  40  41
ENDBRANCH   5  40
TORSDOF 17
ENDMDL
MODEL      110
REMARK 921   NORMALIZED FREE ENERGY PREDICTED BY IDOCK:   -2.02 KCAL/MOL
REMARK 922        TOTAL FREE ENERGY PREDICTED BY IDOCK:   -6.90 KCAL/MOL
REMARK 923 INTER-LIGAND FREE ENERGY PREDICTED BY IDOCK:   -7.07 KCAL/MOL
REMARK 924 INTRA-LIGAND FREE ENERGY PREDICTED BY IDOCK:    0.18 KCAL/MOL
REMARK 927      BINDING AFFINITY PREDICTED BY RF-SCORE:    0.00 PKD
ROOT
HETATM    1 HG   UNL     2     -10.314   5.065  62.853  1.00  0.00    -0.375 Hg 
HETATM    2  C   UNL     3     -11.525  16.803  68.109  1.00  0.00     0.126 C  
HETATM    3  C   UNL     3     -11.744  15.357  68.575  1.00  0.00    -0.338 C  
HETATM    4  C   UNL     4      -6.690   5.793  64.362  1.00  0.00    -0.046 C  
HETATM    5  C   UNL     4      -7.984   6.564  64.660  1.00  0.00    -0.116 C  
ENDROOT
BRANCH   3   6
HETATM    6  N   UNL     3     -11.815  15.196  70.053  1.00  0.00    -0.302 NA 
BRANCH   6   7
HETATM    7  C   UNL     3     -11.951  13.784  70.506  1.00  0.00    -0.296 C  
HETATM    8  C   UNL     3     -12.652  12.851  69.502  1.00  0.00     0.350 C  
ENDBRANCH   6   7
BRANCH   6   9
HETATM    9  C   UNL     3     -10.666  15.837  70.742  1.00  0.00    -0.091 C  
BRANCH   9  10
HETATM   10  C   UNL     3      -9.641  16.466  69.802  1.00  0.00     0.242 C  
BRANCH  10  11
HETATM   11  O   UNL     3      -8.620  15.593  69.509  1.00  0.00    -0.258 OA 
BRANCH  11  12
HETATM   12  C   UNL     3      -7.420  15.974  69.007  1.00  0.00    -0.202 C  
HETATM   13  O   UNL     3      -6.508  15.165  68.891  1.00  0.00    -0.094 OA 
BRANCH  12  14
HETATM   14  C   UNL     3      -7.279  17.355  68.512  1.00  0.00    -0.230 A  
HETATM   15  C   UNL     3      -7.005  20.024  67.672  1.00  0.00    -0.261 A  
HETATM   16  C   UNL     3      -8.009  19.213  67.125  1.00  0.00    -0.279 A  
HETATM   17  C   UNL     3      -8.148  17.885  67.541  1.00  0.00    -0.228 A  
HETATM   18  N   UNL     3      -6.858  21.375  67.253  1.00  0.00    -0.727 NA 
HETATM   19  C   UNL     3      -6.145  19.500  68.644  1.00  0.00    -0.267 A  
HETATM   20  C   UNL     3      -6.278  18.178  69.058  1.00  0.00    -0.237 A  
HETATM   21  H1  UNL     3      -6.128  21.965  67.651  1.00  0.00     0.000 HD 
HETATM   22  H2  UNL     3      -7.754  21.847  67.378  1.00  0.00     0.000 HD 
ENDBRANCH  12  14
ENDBRANCH  11  12
ENDBRANCH  10  11
ENDBRANCH   9  10
ENDBRANCH   6   9
ENDBRANCH   3   6
BRANCH   5  23
HETATM   23  C   UNL     4      -8.717   5.984  65.923  1.00  0.00    -0.154 C  
BRANCH  23  24
HETATM   24  N   UNL     4      -8.914   6.881  67.082  1.00  0.00    -0.118 NA 
HETATM   25  H   UNL     4      -8.314   7.701  67.169  1.00  0.00     0.000 HD 
BRANCH  24  26
HETATM   26  C   UNL     4      -9.827   6.672  68.007  1.00  0.00    -0.131 C  
HETATM   27  H   UNL     4     -11.385   5.511  68.525  1.00  0.00     0.000 HD 
HETATM   28  O   UNL     4     -10.726   5.662  67.857  1.00  0.00    -0.223 OA 
BRANCH  26  29
HETATM   29  C   UNL     4      -9.955   7.469  69.306  1.00  0.00    -0.179 A  
HETATM   30  C   UNL     4      -9.328   7.201  70.568  1.00  0.00    -0.158 A  
HETATM   31  C   UNL     4     -10.816   8.609  69.250  1.00  0.00    -0.082 A  
HETATM   32  C   UNL     4     -11.054   9.416  70.368  1.00  0.00    -0.311 A  
HETATM   33  C   UNL     4     -10.463   9.115  71.581  1.00  0.00    -0.403 A  
HETATM   34  C   UNL     4      -9.602   8.025  71.684  1.00  0.00    -0.218 A  
BRANCH  30  35
HETATM   35  O   UNL     4      -8.434   6.201  70.773  1.00  0.00    -0.127 OA 
BRANCH  35  36
HETATM   36  C   UNL     4      -8.733   4.985  71.355  1.00  0.00    -0.131 C  
HETATM   37  C   UNL     4      -8.145   3.853  70.572  1.00  0.00    -0.054 C  
HETATM   38  O   UNL     4      -6.815   3.799  70.369  1.00  0.00    -0.033 OA 
HETATM   39  O   UNL     4      -8.856   2.950  70.161  1.00  0.00    -0.069 OA 
ENDBRANCH  35  36
ENDBRANCH  30  35
ENDBRANCH  26  29
ENDBRANCH  24  26
ENDBRANCH  23  24
ENDBRANCH   5  23
BRANCH   5  40
HETATM   40  O   UNL     4      -7.677   7.950  64.883  1.00  0.00    -0.097 OA 
BRANCH  40  41
HETATM   41  C   UNL     4      -8.212   8.793  63.855  1.00  0.00    -0.160 C  
BRANCH  41  42
HETATM   42  C   UNL     4      -8.897  10.060  64.409  1.00  0.00    -0.213 C  
BRANCH  42  43
HETATM   43  O   UNL     4     -10.179  10.246  63.837  1.00  0.00    -0.145 OA 
HETATM   44  C   UNL     4     -10.366  11.619  63.535  1.00  0.00    -0.441 C  
ENDBRANCH  42  43
ENDBRANCH  41  42
ENDBRANCH  40  41
ENDBRANCH   5  40
TORSDOF 17
ENDMDL
MODEL      111
REMARK 921   NORMALIZED FREE ENERGY PREDICTED BY IDOCK:   -1.99 KCAL/MOL
REMARK 922        TOTAL FREE ENERGY PREDICTED BY IDOCK:   -6.84 KCAL/MOL
REMARK 923 INTER-LIGAND FREE ENERGY PREDICTED BY IDOCK:   -7.35 KCAL/MOL
REMARK 924 INTRA-LIGAND FREE ENERGY PREDICTED BY IDOCK:    0.51 KCAL/MOL
REMARK 927      BINDING AFFINITY PREDICTED BY RF-SCORE:    0.00 PKD
ROOT
HETATM    1 HG   UNL     2      -9.219  17.385  69.818  1.00  0.00    -0.037 Hg 
HETATM    2  C   UNL     3     -10.073   5.381  74.512  1.00  0.00    -0.291 C  
HETATM    3  C   UNL     3     -10.546   6.107  73.246  1.00  0.00    -0.258 C  
HETATM    4  C   UNL     4      -5.906  15.614  68.466  1.00  0.00    -0.101 C  
HETATM    5  C   UNL     4      -7.135  14.926  69.078  1.00  0.00    -0.130 C  
ENDROOT
BRANCH   3   6
HETATM    6  N   UNL     3     -10.927   5.200  72.129  1.00  0.00    -0.156 NA 
BRANCH   6   7
HETATM    7  C   UNL     3     -10.645   5.750  70.774  1.00  0.00    -0.269 C  
HETATM    8  C   UNL     3     -11.835   6.467  70.111  1.00  0.00    -0.331 C  
ENDBRANCH   6   7
BRANCH   6   9
HETATM    9  C   UNL     3     -10.309   3.856  72.263  1.00  0.00    -0.100 C  
BRANCH   9  10
HETATM   10  C   UNL     3      -9.334   3.497  71.146  1.00  0.00    -0.140 C  
BRANCH  10  11
HETATM   11  O   UNL     3      -8.194   4.265  71.204  1.00  0.00    -0.074 OA 
BRANCH  11  12
HETATM   12  C   UNL     3      -7.337   4.423  70.167  1.00  0.00    -0.046 C  
HETATM   13  O   UNL     3      -6.279   3.806  70.133  1.00  0.00    -0.025 OA 
BRANCH  12  14
HETATM   14  C   UNL     3      -7.756   5.274  69.038  1.00  0.00    -0.082 A  
HETATM   15  C   UNL     3      -8.500   6.831  66.819  1.00  0.00    -0.117 A  
HETATM   16  C   UNL     3      -7.990   7.445  67.972  1.00  0.00    -0.119 A  
HETATM   17  C   UNL     3      -7.619   6.674  69.078  1.00  0.00    -0.101 A  
HETATM   18  N   UNL     3      -8.881   7.611  65.693  1.00  0.00    -0.341 NA 
HETATM   19  C   UNL     3      -8.630   5.438  66.777  1.00  0.00    -0.110 A  
HETATM   20  C   UNL     3      -8.265   4.668  67.876  1.00  0.00    -0.099 A  
HETATM   21  H1  UNL     3      -9.252   7.164  64.854  1.00  0.00     0.000 HD 
HETATM   22  H2  UNL     3      -8.085   8.188  65.421  1.00  0.00     0.000 HD 
ENDBRANCH  12  14
ENDBRANCH  11  12
ENDBRANCH  10  11
ENDBRANCH   9  10
ENDBRANCH   6   9
ENDBRANCH   3   6
BRANCH   5  23
HETATM   23  C   UNL     4      -8.166  14.506  67.970  1.00  0.00    -0.145 C  
BRANCH  23  24
HETATM   24  N   UNL     4      -8.076  15.173  66.652  1.00  0.00    -0.342 NA 
HETATM   25  H   UNL     4      -8.295  14.630  65.817  1.00  0.00     0.000 HD 
BRANCH  24  26
HETATM   26  C   UNL     4      -7.726  16.434  66.506  1.00  0.00    -0.260 C  
HETATM   27  H   UNL     4      -6.218  17.655  65.980  1.00  0.00     0.000 HD 
HETATM   28  O   UNL     4      -6.470  16.745  66.085  1.00  0.00    -0.138 OA 
BRANCH  26  29
HETATM   29  C   UNL     4      -8.649  17.630  66.739  1.00  0.00    -0.276 A  
HETATM   30  C   UNL     4      -8.509  18.673  67.715  1.00  0.00    -0.275 A  
HETATM   31  C   UNL     4      -9.794  17.704  65.887  1.00  0.00    -0.090 A  
HETATM   32  C   UNL     4     -10.742  18.725  66.002  1.00  0.00    -0.337 A  
HETATM   33  C   UNL     4     -10.601  19.699  66.974  1.00  0.00    -0.602 A  
HETATM   34  C   UNL     4      -9.494  19.682  67.820  1.00  0.00    -0.446 A  
BRANCH  30  35
HETATM   35  O   UNL     4      -7.449  18.788  68.554  1.00  0.00    -0.280 OA 
BRANCH  35  36
HETATM   36  C   UNL     4      -6.134  18.903  68.150  1.00  0.00    -0.209 C  
HETATM   37  C   UNL     4      -5.892  20.212  67.466  1.00  0.00    -0.183 C  
HETATM   38  O   UNL     4      -6.133  21.363  68.121  1.00  0.00    -0.294 OA 
HETATM   39  O   UNL     4      -5.427  20.243  66.338  1.00  0.00    -0.169 OA 
ENDBRANCH  35  36
ENDBRANCH  30  35
ENDBRANCH  26  29
ENDBRANCH  24  26
ENDBRANCH  23  24
ENDBRANCH   5  23
BRANCH   5  40
HETATM   40  O   UNL     4      -6.718  13.759  69.808  1.00  0.00    -0.079 OA 
BRANCH  40  41
HETATM   41  C   UNL     4      -6.919  12.554  69.058  1.00  0.00    -0.066 C  
BRANCH  41  42
HETATM   42  C   UNL     4      -5.699  11.610  69.094  1.00  0.00    -0.053 C  
BRANCH  42  43
HETATM   43  O   UNL     4      -6.097  10.253  69.151  1.00  0.00    -0.037 OA 
HETATM   44  C   UNL     4      -6.688   9.989  70.412  1.00  0.00    -0.138 C  
ENDBRANCH  42  43
ENDBRANCH  41  42
ENDBRANCH  40  41
ENDBRANCH   5  40
TORSDOF 17
ENDMDL
MODEL      112
REMARK 921   NORMALIZED FREE ENERGY PREDICTED BY IDOCK:   -1.85 KCAL/MOL
REMARK 922        TOTAL FREE ENERGY PREDICTED BY IDOCK:   -6.55 KCAL/MOL
REMARK 923 INTER-LIGAND FREE ENERGY PREDICTED BY IDOCK:   -6.45 KCAL/MOL
REMARK 924 INTRA-LIGAND FREE ENERGY PREDICTED BY IDOCK:   -0.10 KCAL/MOL
REMARK 927      BINDING AFFINITY PREDICTED BY RF-SCORE:    0.00 PKD
ROOT
HETATM    1 HG   UNL     2      -9.100  16.889  69.911  1.00  0.00    -0.078 Hg 
HETATM    2  C   UNL     3      -5.871   4.414  69.011  1.00  0.00    -0.022 C  
HETATM    3  C   UNL     3      -7.114   5.258  68.696  1.00  0.00    -0.061 C  
HETATM    4  C   UNL     4      -7.454  16.608  66.284  1.00  0.00    -0.175 C  
HETATM    5  C   UNL     4      -7.911  15.449  67.181  1.00  0.00    -0.217 C  
ENDROOT
BRANCH   3   6
HETATM    6  N   UNL     3      -8.090   4.592  67.793  1.00  0.00    -0.098 NA 
BRANCH   6   7
HETATM    7  C   UNL     3      -9.495   5.056  67.965  1.00  0.00    -0.131 C  
HETATM    8  C   UNL     3      -9.672   6.206  68.973  1.00  0.00    -0.157 C  
ENDBRANCH   6   7
BRANCH   6   9
HETATM    9  C   UNL     3      -7.697   4.701  66.364  1.00  0.00    -0.091 C  
BRANCH   9  10
HETATM   10  C   UNL     3      -7.774   3.390  65.589  1.00  0.00    -0.078 C  
BRANCH  10  11
HETATM   11  O   UNL     3      -7.041   3.446  64.426  1.00  0.00    -0.054 OA 
BRANCH  11  12
HETATM   12  C   UNL     3      -7.325   4.276  63.394  1.00  0.00    -0.050 C  
HETATM   13  O   UNL     3      -7.768   3.833  62.342  1.00  0.00    -0.058 OA 
BRANCH  12  14
HETATM   14  C   UNL     3      -7.183   5.728  63.607  1.00  0.00    -0.055 A  
HETATM   15  C   UNL     3      -6.865   8.476  64.110  1.00  0.00    -0.075 A  
HETATM   16  C   UNL     3      -8.108   7.974  63.699  1.00  0.00    -0.099 A  
HETATM   17  C   UNL     3      -8.270   6.607  63.448  1.00  0.00     0.075 A  
HETATM   18  N   UNL     3      -6.694   9.864  64.366  1.00  0.00    -0.120 NA 
HETATM   19  C   UNL     3      -5.785   7.600  64.275  1.00  0.00    -0.041 A  
HETATM   20  C   UNL     3      -5.942   6.240  64.024  1.00  0.00    -0.022 A  
HETATM   21  H1  UNL     3      -5.790  10.228  64.665  1.00  0.00     0.000 HD 
HETATM   22  H2  UNL     3      -7.396  10.151  65.048  1.00  0.00     0.000 HD 
ENDBRANCH  12  14
ENDBRANCH  11  12
ENDBRANCH  10  11
ENDBRANCH   9  10
ENDBRANCH   6   9
ENDBRANCH   3   6
BRANCH   5  23
HETATM   23  C   UNL     4      -9.392  15.031  66.865  1.00  0.00    -0.241 C  
BRANCH  23  24
HETATM   24  N   UNL     4     -10.278  14.707  68.004  1.00  0.00    -0.229 NA 
HETATM   25  H   UNL     4     -10.500  15.445  68.672  1.00  0.00     0.000 HD 
BRANCH  24  26
HETATM   26  C   UNL     4     -10.794  13.511  68.198  1.00  0.00    -0.254 C  
HETATM   27  H   UNL     4     -11.073  11.703  67.364  1.00  0.00     0.000 HD 
HETATM   28  O   UNL     4     -10.701  12.566  67.224  1.00  0.00    -0.228 OA 
BRANCH  26  29
HETATM   29  C   UNL     4     -11.484  13.054  69.484  1.00  0.00    -0.289 A  
HETATM   30  C   UNL     4     -11.529  11.730  70.036  1.00  0.00    -0.151 A  
HETATM   31  C   UNL     4     -12.177  14.072  70.210  1.00  0.00    -0.430 A  
HETATM   32  C   UNL     4     -12.879  13.798  71.388  1.00  0.00    -0.449 A  
HETATM   33  C   UNL     4     -12.934  12.507  71.880  1.00  0.00    -0.406 A  
HETATM   34  C   UNL     4     -12.262  11.481  71.219  1.00  0.00    -0.198 A  
BRANCH  30  35
HETATM   35  O   UNL     4     -10.871  10.667  69.510  1.00  0.00    -0.229 OA 
BRANCH  35  36
HETATM   36  C   UNL     4     -10.083   9.792  70.232  1.00  0.00    -0.266 C  
HETATM   37  C   UNL     4     -10.917   8.922  71.119  1.00  0.00    -0.286 C  
HETATM   38  O   UNL     4     -11.869   8.136  70.582  1.00  0.00    -0.221 OA 
HETATM   39  O   UNL     4     -10.705   8.880  72.320  1.00  0.00    -0.320 OA 
ENDBRANCH  35  36
ENDBRANCH  30  35
ENDBRANCH  26  29
ENDBRANCH  24  26
ENDBRANCH  23  24
ENDBRANCH   5  23
BRANCH   5  40
HETATM   40  O   UNL     4      -7.045  14.318  66.984  1.00  0.00    -0.047 OA 
BRANCH  40  41
HETATM   41  C   UNL     4      -6.477  13.853  68.215  1.00  0.00    -0.111 C  
BRANCH  41  42
HETATM   42  C   UNL     4      -6.834  14.747  69.421  1.00  0.00    -0.162 C  
BRANCH  42  43
HETATM   43  O   UNL     4      -5.683  15.369  69.961  1.00  0.00    -0.125 OA 
HETATM   44  C   UNL     4      -5.750  16.767  69.728  1.00  0.00    -0.206 C  
ENDBRANCH  42  43
ENDBRANCH  41  42
ENDBRANCH  40  41
ENDBRANCH   5  40
TORSDOF 17
ENDMDL
MODEL      113
REMARK 921   NORMALIZED FREE ENERGY PREDICTED BY IDOCK:   -1.68 KCAL/MOL
REMARK 922        TOTAL FREE ENERGY PREDICTED BY IDOCK:   -6.21 KCAL/MOL
REMARK 923 INTER-LIGAND FREE ENERGY PREDICTED BY IDOCK:   -6.37 KCAL/MOL
REMARK 924 INTRA-LIGAND FREE ENERGY PREDICTED BY IDOCK:    0.16 KCAL/MOL
REMARK 927      BINDING AFFINITY PREDICTED BY RF-SCORE:    0.00 PKD
ROOT
HETATM    1 HG   UNL     2      -7.758  14.920  72.333  1.00  0.00     1.023 Hg 
HETATM    2  C   UNL     3      -5.788   6.717  62.550  1.00  0.00    -0.039 C  
HETATM    3  C   UNL     3      -6.806   6.851  63.690  1.00  0.00    -0.054 C  
HETATM    4  C   UNL     4      -9.801  16.553  69.317  1.00  0.00    -0.218 C  
HETATM    5  C   UNL     4      -9.235  15.127  69.381  1.00  0.00    -0.175 C  
ENDROOT
BRANCH   3   6
HETATM    6  N   UNL     3      -8.052   6.061  63.492  1.00  0.00    -0.107 NA 
BRANCH   6   7
HETATM    7  C   UNL     3      -7.976   5.074  62.379  1.00  0.00    -0.074 C  
HETATM    8  C   UNL     3      -6.788   4.100  62.463  1.00  0.00    -0.031 C  
ENDBRANCH   6   7
BRANCH   6   9
HETATM    9  C   UNL     3      -8.489   5.381  64.738  1.00  0.00    -0.138 C  
BRANCH   9  10
HETATM   10  C   UNL     3      -8.371   6.236  65.996  1.00  0.00    -0.138 C  
BRANCH  10  11
HETATM   11  O   UNL     3      -8.604   5.498  67.133  1.00  0.00    -0.111 OA 
BRANCH  11  12
HETATM   12  C   UNL     3      -9.689   5.658  67.928  1.00  0.00    -0.125 C  
HETATM   13  O   UNL     3     -10.804   5.791  67.441  1.00  0.00    -0.268 OA 
BRANCH  12  14
HETATM   14  C   UNL     3      -9.504   5.566  69.388  1.00  0.00    -0.176 A  
HETATM   15  C   UNL     3      -9.042   5.391  72.156  1.00  0.00    -0.136 A  
HETATM   16  C   UNL     3      -9.936   4.508  71.533  1.00  0.00    -0.259 A  
HETATM   17  C   UNL     3     -10.168   4.592  70.156  1.00  0.00    -0.197 A  
HETATM   18  N   UNL     3      -8.804   5.312  73.555  1.00  0.00    -0.116 NA 
HETATM   19  C   UNL     3      -8.376   6.355  71.390  1.00  0.00    -0.122 A  
HETATM   20  C   UNL     3      -8.606   6.444  70.021  1.00  0.00    -0.135 A  
HETATM   21  H1  UNL     3      -8.154   5.954  74.007  1.00  0.00     0.000 HD 
HETATM   22  H2  UNL     3      -8.516   4.358  73.775  1.00  0.00     0.000 HD 
ENDBRANCH  12  14
ENDBRANCH  11  12
ENDBRANCH  10  11
ENDBRANCH   9  10
ENDBRANCH   6   9
ENDBRANCH   3   6
BRANCH   5  23
HETATM   23  C   UNL     4     -10.298  14.115  69.943  1.00  0.00     0.541 C  
BRANCH  23  24
HETATM   24  N   UNL     4     -11.348  13.631  69.020  1.00  0.00    -0.271 NA 
HETATM   25  H   UNL     4     -11.837  12.767  69.251  1.00  0.00     0.000 HD 
BRANCH  24  26
HETATM   26  C   UNL     4     -11.681  14.263  67.914  1.00  0.00    -0.359 C  
HETATM   27  H   UNL     4     -12.266  16.034  67.164  1.00  0.00     0.000 HD 
HETATM   28  O   UNL     4     -12.025  15.579  67.962  1.00  0.00    -0.195 OA 
BRANCH  26  29
HETATM   29  C   UNL     4     -11.684  13.640  66.517  1.00  0.00    -0.414 A  
HETATM   30  C   UNL     4     -11.337  12.297  66.152  1.00  0.00    -0.353 A  
HETATM   31  C   UNL     4     -12.064  14.514  65.452  1.00  0.00    -0.317 A  
HETATM   32  C   UNL     4     -12.085  14.094  64.118  1.00  0.00    -0.437 A  
HETATM   33  C   UNL     4     -11.714  12.803  63.790  1.00  0.00    -0.562 A  
HETATM   34  C   UNL     4     -11.350  11.907  64.792  1.00  0.00    -0.344 A  
BRANCH  30  35
HETATM   35  O   UNL     4     -11.019  11.327  67.045  1.00  0.00    -0.270 OA 
BRANCH  35  36
HETATM   36  C   UNL     4     -10.237  10.224  66.764  1.00  0.00    -0.228 C  
HETATM   37  C   UNL     4      -9.775   9.556  68.020  1.00  0.00    -0.147 C  
HETATM   38  O   UNL     4     -10.679   9.097  68.906  1.00  0.00    -0.212 OA 
HETATM   39  O   UNL     4      -8.584   9.376  68.224  1.00  0.00    -0.120 OA 
ENDBRANCH  35  36
ENDBRANCH  30  35
ENDBRANCH  26  29
ENDBRANCH  24  26
ENDBRANCH  23  24
ENDBRANCH   5  23
BRANCH   5  40
HETATM   40  O   UNL     4      -8.830  14.711  68.066  1.00  0.00    -0.159 OA 
BRANCH  40  41
HETATM   41  C   UNL     4      -7.987  15.680  67.430  1.00  0.00    -0.178 C  
BRANCH  41  42
HETATM   42  C   UNL     4      -8.667  16.382  66.236  1.00  0.00    -0.334 C  
BRANCH  42  43
HETATM   43  O   UNL     4      -7.734  17.126  65.475  1.00  0.00    -0.137 OA 
HETATM   44  C   UNL     4      -6.710  17.611  66.327  1.00  0.00    -0.282 C  
ENDBRANCH  42  43
ENDBRANCH  41  42
ENDBRANCH  40  41
ENDBRANCH   5  40
TORSDOF 17
ENDMDL
MODEL      114
REMARK 921   NORMALIZED FREE ENERGY PREDICTED BY IDOCK:   -1.23 KCAL/MOL
REMARK 922        TOTAL FREE ENERGY PREDICTED BY IDOCK:   -5.33 KCAL/MOL
REMARK 923 INTER-LIGAND FREE ENERGY PREDICTED BY IDOCK:   -7.14 KCAL/MOL
REMARK 924 INTRA-LIGAND FREE ENERGY PREDICTED BY IDOCK:    1.81 KCAL/MOL
REMARK 927      BINDING AFFINITY PREDICTED BY RF-SCORE:    0.00 PKD
ROOT
HETATM    1 HG   UNL     2      -8.479  17.443  66.950  1.00  0.00    -0.193 Hg 
HETATM    2  C   UNL     3      -6.229   5.162  70.266  1.00  0.00    -0.022 C  
HETATM    3  C   UNL     3      -7.094   6.310  70.804  1.00  0.00    -0.069 C  
HETATM    4  C   UNL     4     -11.186  15.395  64.849  1.00  0.00    -0.410 C  
HETATM    5  C   UNL     4     -10.345  14.874  66.023  1.00  0.00    -0.299 C  
ENDROOT
BRANCH   3   6
HETATM    6  N   UNL     3      -8.173   5.877  71.733  1.00  0.00    -0.118 NA 
BRANCH   6   7
HETATM    7  C   UNL     3      -8.343   6.758  72.922  1.00  0.00    -0.116 C  
HETATM    8  C   UNL     3      -7.529   8.064  72.876  1.00  0.00    -0.153 C  
ENDBRANCH   6   7
BRANCH   6   9
HETATM    9  C   UNL     3      -9.476   5.712  71.040  1.00  0.00    -0.166 C  
BRANCH   9  10
HETATM   10  C   UNL     3      -9.893   4.261  70.822  1.00  0.00    -0.195 C  
BRANCH  10  11
HETATM   11  O   UNL     3      -9.226   3.697  69.759  1.00  0.00    -0.114 OA 
BRANCH  11  12
HETATM   12  C   UNL     3      -9.556   3.910  68.462  1.00  0.00    -0.111 C  
HETATM   13  O   UNL     3      -9.905   2.979  67.747  1.00  0.00    -0.008 OA 
BRANCH  12  14
HETATM   14  C   UNL     3      -9.582   5.298  67.968  1.00  0.00    -0.163 A  
HETATM   15  C   UNL     3      -9.523   7.949  67.032  1.00  0.00    -0.174 A  
HETATM   16  C   UNL     3     -10.392   7.588  68.072  1.00  0.00    -0.254 A  
HETATM   17  C   UNL     3     -10.424   6.270  68.540  1.00  0.00    -0.273 A  
HETATM   18  N   UNL     3      -9.487   9.287  66.552  1.00  0.00    -0.185 NA 
HETATM   19  C   UNL     3      -8.680   6.984  66.468  1.00  0.00    -0.138 A  
HETATM   20  C   UNL     3      -8.712   5.672  66.929  1.00  0.00    -0.113 A  
HETATM   21  H1  UNL     3      -8.854   9.549  65.796  1.00  0.00     0.000 HD 
HETATM   22  H2  UNL     3      -9.312   9.905  67.344  1.00  0.00     0.000 HD 
ENDBRANCH  12  14
ENDBRANCH  11  12
ENDBRANCH  10  11
ENDBRANCH   9  10
ENDBRANCH   6   9
ENDBRANCH   3   6
BRANCH   5  23
HETATM   23  C   UNL     4     -11.102  15.046  67.388  1.00  0.00    -0.324 C  
BRANCH  23  24
HETATM   24  N   UNL     4     -10.332  15.548  68.548  1.00  0.00    -0.222 NA 
HETATM   25  H   UNL     4     -10.845  15.938  69.339  1.00  0.00     0.000 HD 
BRANCH  24  26
HETATM   26  C   UNL     4      -9.018  15.515  68.607  1.00  0.00    -0.194 C  
HETATM   27  H   UNL     4      -7.372  16.637  68.879  1.00  0.00     0.000 HD 
HETATM   28  O   UNL     4      -8.320  16.661  68.836  1.00  0.00    -0.238 OA 
BRANCH  26  29
HETATM   29  C   UNL     4      -8.167  14.252  68.474  1.00  0.00    -0.145 A  
HETATM   30  C   UNL     4      -6.736  14.146  68.509  1.00  0.00    -0.101 A  
HETATM   31  C   UNL     4      -8.892  13.036  68.277  1.00  0.00    -0.172 A  
HETATM   32  C   UNL     4      -8.248  11.805  68.110  1.00  0.00    -0.153 A  
HETATM   33  C   UNL     4      -6.867  11.737  68.114  1.00  0.00    -0.066 A  
HETATM   34  C   UNL     4      -6.114  12.890  68.319  1.00  0.00    -0.082 A  
BRANCH  30  35
HETATM   35  O   UNL     4      -5.905  15.190  68.753  1.00  0.00    -0.086 OA 
BRANCH  35  36
HETATM   36  C   UNL     4      -5.160  15.844  67.792  1.00  0.00    -0.124 C  
HETATM   37  C   UNL     4      -5.444  17.313  67.795  1.00  0.00    -0.118 C  
HETATM   38  O   UNL     4      -5.236  18.032  68.913  1.00  0.00    -0.172 OA 
HETATM   39  O   UNL     4      -5.814  17.874  66.776  1.00  0.00    -0.135 OA 
ENDBRANCH  35  36
ENDBRANCH  30  35
ENDBRANCH  26  29
ENDBRANCH  24  26
ENDBRANCH  23  24
ENDBRANCH   5  23
BRANCH   5  40
HETATM   40  O   UNL     4     -10.043  13.484  65.817  1.00  0.00    -0.288 OA 
BRANCH  40  41
HETATM   41  C   UNL     4     -11.190  12.741  65.385  1.00  0.00    -0.292 C  
BRANCH  41  42
HETATM   42  C   UNL     4     -10.908  11.860  64.149  1.00  0.00    -0.356 C  
BRANCH  42  43
HETATM   43  O   UNL     4     -10.241  10.664  64.509  1.00  0.00    -0.336 OA 
HETATM   44  C   UNL     4      -9.511  10.179  63.394  1.00  0.00    -0.261 C  
ENDBRANCH  42  43
ENDBRANCH  41  42
ENDBRANCH  40  41
ENDBRANCH   5  40
TORSDOF 17
ENDMDL
MODEL      115
REMARK 921   NORMALIZED FREE ENERGY PREDICTED BY IDOCK:   -0.67 KCAL/MOL
REMARK 922        TOTAL FREE ENERGY PREDICTED BY IDOCK:   -4.19 KCAL/MOL
REMARK 923 INTER-LIGAND FREE ENERGY PREDICTED BY IDOCK:   -3.31 KCAL/MOL
REMARK 924 INTRA-LIGAND FREE ENERGY PREDICTED BY IDOCK:   -0.89 KCAL/MOL
REMARK 927      BINDING AFFINITY PREDICTED BY RF-SCORE:    0.00 PKD
ROOT
HETATM    1 HG   UNL     2      -8.363  15.883  71.319  1.00  0.00     1.585 Hg 
HETATM    2  C   UNL     3      -6.499   3.156  70.134  1.00  0.00    -0.032 C  
HETATM    3  C   UNL     3      -7.566   4.161  69.682  1.00  0.00    -0.053 C  
HETATM    4  C   UNL     4      -6.186  15.562  67.987  1.00  0.00    -0.153 C  
HETATM    5  C   UNL     4      -6.916  14.430  68.724  1.00  0.00    -0.100 C  
ENDROOT
BRANCH   3   6
HETATM    6  N   UNL     3      -8.452   3.664  68.595  1.00  0.00    -0.080 NA 
BRANCH   6   7
HETATM    7  C   UNL     3      -9.644   4.519  68.341  1.00  0.00    -0.145 C  
HETATM    8  C   UNL     3     -10.365   5.009  69.610  1.00  0.00    -0.260 C  
ENDBRANCH   6   7
BRANCH   6   9
HETATM    9  C   UNL     3      -7.711   3.445  67.326  1.00  0.00    -0.078 C  
BRANCH   9  10
HETATM   10  C   UNL     3      -7.993   2.103  66.657  1.00  0.00    -0.076 C  
BRANCH  10  11
HETATM   11  O   UNL     3      -7.001   1.764  65.766  1.00  0.00    -0.043 OA 
BRANCH  11  12
HETATM   12  C   UNL     3      -6.268   2.667  65.072  1.00  0.00    -0.019 C  
HETATM   13  O   UNL     3      -5.126   2.403  64.719  1.00  0.00    -0.007 OA 
BRANCH  12  14
HETATM   14  C   UNL     3      -6.915   3.928  64.669  1.00  0.00    -0.050 A  
HETATM   15  C   UNL     3      -8.160   6.360  64.004  1.00  0.00    -0.043 A  
HETATM   16  C   UNL     3      -8.600   5.162  63.425  1.00  0.00    -0.081 A  
HETATM   17  C   UNL     3      -7.983   3.950  63.753  1.00  0.00    -0.088 A  
HETATM   18  N   UNL     3      -8.782   7.595  63.674  1.00  0.00    -0.106 NA 
HETATM   19  C   UNL     3      -7.102   6.338  64.921  1.00  0.00    -0.060 A  
HETATM   20  C   UNL     3      -6.484   5.135  65.247  1.00  0.00    -0.036 A  
HETATM   21  H1  UNL     3      -8.462   8.466  64.095  1.00  0.00     0.000 HD 
HETATM   22  H2  UNL     3      -9.783   7.505  63.848  1.00  0.00     0.000 HD 
ENDBRANCH  12  14
ENDBRANCH  11  12
ENDBRANCH  10  11
ENDBRANCH   9  10
ENDBRANCH   6   9
ENDBRANCH   3   6
BRANCH   5  23
HETATM   23  C   UNL     4      -8.363  14.215  68.151  1.00  0.00    -0.161 C  
BRANCH  23  24
HETATM   24  N   UNL     4      -9.122  13.033  68.614  1.00  0.00    -0.389 NA 
HETATM   25  H   UNL     4      -9.204  12.871  69.618  1.00  0.00     0.000 HD 
BRANCH  24  26
HETATM   26  C   UNL     4      -9.696  12.179  67.792  1.00  0.00    -0.197 C  
HETATM   27  H   UNL     4     -10.445  11.954  65.940  1.00  0.00     0.000 HD 
HETATM   28  O   UNL     4     -10.031  12.570  66.533  1.00  0.00    -0.233 OA 
BRANCH  26  29
HETATM   29  C   UNL     4     -10.002  10.718  68.123  1.00  0.00    -0.176 A  
HETATM   30  C   UNL     4     -10.514  10.181  69.351  1.00  0.00    -0.233 A  
HETATM   31  C   UNL     4      -9.727   9.778  67.081  1.00  0.00    -0.223 A  
HETATM   32  C   UNL     4      -9.929   8.404  67.247  1.00  0.00    -0.291 A  
HETATM   33  C   UNL     4     -10.392   7.910  68.453  1.00  0.00    -0.235 A  
HETATM   34  C   UNL     4     -10.690   8.785  69.494  1.00  0.00    -0.196 A  
BRANCH  30  35
HETATM   35  O   UNL     4     -10.888  10.940  70.411  1.00  0.00    -0.060 OA 
BRANCH  35  36
HETATM   36  C   UNL     4     -12.153  11.459  70.601  1.00  0.00    -0.372 C  
HETATM   37  C   UNL     4     -12.093  12.913  70.949  1.00  0.00    -0.068 C  
HETATM   38  O   UNL     4     -11.509  13.780  70.103  1.00  0.00    -0.196 OA 
HETATM   39  O   UNL     4     -12.617  13.326  71.972  1.00  0.00    -0.134 OA 
ENDBRANCH  35  36
ENDBRANCH  30  35
ENDBRANCH  26  29
ENDBRANCH  24  26
ENDBRANCH  23  24
ENDBRANCH   5  23
BRANCH   5  40
HETATM   40  O   UNL     4      -6.166  13.210  68.593  1.00  0.00    -0.074 OA 
BRANCH  40  41
HETATM   41  C   UNL     4      -5.247  13.258  67.494  1.00  0.00     0.054 C  
BRANCH  41  42
HETATM   42  C   UNL     4      -5.248  11.967  66.649  1.00  0.00     0.014 C  
BRANCH  42  43
HETATM   43  O   UNL     4      -6.511  11.328  66.685  1.00  0.00    -0.119 OA 
HETATM   44  C   UNL     4      -6.432  10.089  66.000  1.00  0.00    -0.093 C  
ENDBRANCH  42  43
ENDBRANCH  41  42
ENDBRANCH  40  41
ENDBRANCH   5  40
TORSDOF 17
ENDMDL
MODEL      116
REMARK 921   NORMALIZED FREE ENERGY PREDICTED BY IDOCK:   -0.60 KCAL/MOL
REMARK 922        TOTAL FREE ENERGY PREDICTED BY IDOCK:   -4.07 KCAL/MOL
REMARK 923 INTER-LIGAND FREE ENERGY PREDICTED BY IDOCK:   -4.48 KCAL/MOL
REMARK 924 INTRA-LIGAND FREE ENERGY PREDICTED BY IDOCK:    0.41 KCAL/MOL
REMARK 927      BINDING AFFINITY PREDICTED BY RF-SCORE:    0.00 PKD
ROOT
HETATM    1 HG   UNL     2      -7.408   4.892  72.563  1.00  0.00    -0.066 Hg 
HETATM    2  C   UNL     3     -13.286  14.521  66.271  1.00  0.00     1.357 C  
HETATM    3  C   UNL     3     -11.936  13.798  66.169  1.00  0.00    -0.418 C  
HETATM    4  C   UNL     4      -9.475   3.019  69.707  1.00  0.00    -0.184 C  
HETATM    5  C   UNL     4      -9.176   4.522  69.792  1.00  0.00    -0.125 C  
ENDROOT
BRANCH   3   6
HETATM    6  N   UNL     3     -11.231  14.002  64.875  1.00  0.00    -0.346 NA 
BRANCH   6   7
HETATM    7  C   UNL     3     -10.889  15.423  64.585  1.00  0.00    -0.258 C  
HETATM    8  C   UNL     3     -10.154  16.152  65.724  1.00  0.00    -0.390 C  
ENDBRANCH   6   7
BRANCH   6   9
HETATM    9  C   UNL     3     -10.013  13.160  64.761  1.00  0.00    -0.125 C  
BRANCH   9  10
HETATM   10  C   UNL     3      -9.106  13.197  65.987  1.00  0.00     0.213 C  
BRANCH  10  11
HETATM   11  O   UNL     3      -9.828  13.354  67.147  1.00  0.00    -0.228 OA 
BRANCH  11  12
HETATM   12  C   UNL     3     -10.121  12.341  67.998  1.00  0.00    -0.206 C  
HETATM   13  O   UNL     3     -10.752  12.553  69.026  1.00  0.00    -0.195 OA 
BRANCH  12  14
HETATM   14  C   UNL     3      -9.751  10.970  67.602  1.00  0.00    -0.184 A  
HETATM   15  C   UNL     3      -9.149   8.323  66.868  1.00  0.00    -0.150 A  
HETATM   16  C   UNL     3      -8.322   9.011  67.768  1.00  0.00    -0.117 A  
HETATM   17  C   UNL     3      -8.619  10.327  68.136  1.00  0.00    -0.119 A  
HETATM   18  N   UNL     3      -8.852   6.986  66.490  1.00  0.00    -0.135 NA 
HETATM   19  C   UNL     3     -10.280   8.960  66.343  1.00  0.00    -0.273 A  
HETATM   20  C   UNL     3     -10.576  10.271  66.704  1.00  0.00    -0.232 A  
HETATM   21  H1  UNL     3      -9.453   6.486  65.836  1.00  0.00     0.000 HD 
HETATM   22  H2  UNL     3      -8.768   6.426  67.339  1.00  0.00     0.000 HD 
ENDBRANCH  12  14
ENDBRANCH  11  12
ENDBRANCH  10  11
ENDBRANCH   9  10
ENDBRANCH   6   9
ENDBRANCH   3   6
BRANCH   5  23
HETATM   23  C   UNL     4      -7.862   4.889  69.013  1.00  0.00    -0.076 C  
BRANCH  23  24
HETATM   24  N   UNL     4      -6.898   3.803  68.732  1.00  0.00    -0.045 NA 
HETATM   25  H   UNL     4      -6.022   3.785  69.252  1.00  0.00     0.000 HD 
BRANCH  24  26
HETATM   26  C   UNL     4      -7.118   2.858  67.841  1.00  0.00    -0.049 C  
HETATM   27  H   UNL     4      -7.007   0.879  67.506  1.00  0.00     0.000 HD 
HETATM   28  O   UNL     4      -6.848   1.560  68.148  1.00  0.00    -0.032 OA 
BRANCH  26  29
HETATM   29  C   UNL     4      -7.707   3.088  66.449  1.00  0.00    -0.077 A  
HETATM   30  C   UNL     4      -7.366   4.116  65.508  1.00  0.00    -0.076 A  
HETATM   31  C   UNL     4      -8.729   2.171  66.051  1.00  0.00    -0.116 A  
HETATM   32  C   UNL     4      -9.380   2.274  64.817  1.00  0.00    -0.116 A  
HETATM   33  C   UNL     4      -9.056   3.295  63.943  1.00  0.00    -0.101 A  
HETATM   34  C   UNL     4      -8.056   4.205  64.276  1.00  0.00    -0.091 A  
BRANCH  30  35
HETATM   35  O   UNL     4      -6.376   5.022  65.701  1.00  0.00    -0.033 OA 
BRANCH  35  36
HETATM   36  C   UNL     4      -5.865   5.851  64.722  1.00  0.00    -0.025 C  
HETATM   37  C   UNL     4      -5.833   7.274  65.182  1.00  0.00    -0.037 C  
HETATM   38  O   UNL     4      -5.137   7.606  66.285  1.00  0.00    -0.023 OA 
HETATM   39  O   UNL     4      -6.391   8.146  64.534  1.00  0.00    -0.062 OA 
ENDBRANCH  35  36
ENDBRANCH  30  35
ENDBRANCH  26  29
ENDBRANCH  24  26
ENDBRANCH  23  24
ENDBRANCH   5  23
BRANCH   5  40
HETATM   40  O   UNL     4     -10.278   5.264  69.243  1.00  0.00    -0.214 OA 
BRANCH  40  41
HETATM   41  C   UNL     4     -10.564   6.446  70.000  1.00  0.00    -0.236 C  
BRANCH  41  42
HETATM   42  C   UNL     4     -11.481   6.180  71.213  1.00  0.00    -0.247 C  
BRANCH  42  43
HETATM   43  O   UNL     4     -12.404   7.236  71.404  1.00  0.00    -0.331 OA 
HETATM   44  C   UNL     4     -11.704   8.414  71.770  1.00  0.00    -0.310 C  
ENDBRANCH  42  43
ENDBRANCH  41  42
ENDBRANCH  40  41
ENDBRANCH   5  40
TORSDOF 17
ENDMDL
MODEL      117
REMARK 921   NORMALIZED FREE ENERGY PREDICTED BY IDOCK:   -0.39 KCAL/MOL
REMARK 922        TOTAL FREE ENERGY PREDICTED BY IDOCK:   -3.64 KCAL/MOL
REMARK 923 INTER-LIGAND FREE ENERGY PREDICTED BY IDOCK:   -6.47 KCAL/MOL
REMARK 924 INTRA-LIGAND FREE ENERGY PREDICTED BY IDOCK:    2.84 KCAL/MOL
REMARK 927      BINDING AFFINITY PREDICTED BY RF-SCORE:    0.00 PKD
ROOT
HETATM    1 HG   UNL     2      -6.521   3.859  68.110  1.00  0.00    -0.030 Hg 
HETATM    2  C   UNL     3      -5.129  16.482  70.473  1.00  0.00    -0.214 C  
HETATM    3  C   UNL     3      -5.829  15.629  69.406  1.00  0.00    -0.118 C  
HETATM    4  C   UNL     4      -9.589   4.703  70.520  1.00  0.00    -0.268 C  
HETATM    5  C   UNL     4      -8.695   5.708  69.780  1.00  0.00    -0.125 C  
ENDROOT
BRANCH   3   6
HETATM    6  N   UNL     3      -6.854  16.363  68.615  1.00  0.00    -0.145 NA 
BRANCH   6   7
HETATM    7  C   UNL     3      -7.387  15.601  67.452  1.00  0.00    -0.204 C  
HETATM    8  C   UNL     3      -7.890  14.185  67.788  1.00  0.00    -0.177 C  
ENDBRANCH   6   7
BRANCH   6   9
HETATM    9  C   UNL     3      -7.978  16.841  69.460  1.00  0.00     0.320 C  
BRANCH   9  10
HETATM   10  C   UNL     3      -9.356  16.384  68.992  1.00  0.00    -0.248 C  
BRANCH  10  11
HETATM   11  O   UNL     3      -9.418  16.286  67.621  1.00  0.00    -0.219 OA 
BRANCH  11  12
HETATM   12  C   UNL     3     -10.516  16.595  66.890  1.00  0.00    -0.271 C  
HETATM   13  O   UNL     3     -10.928  17.747  66.842  1.00  0.00    -0.124 OA 
BRANCH  12  14
HETATM   14  C   UNL     3     -11.135  15.532  66.078  1.00  0.00    -0.185 A  
HETATM   15  C   UNL     3     -12.245  13.432  64.573  1.00  0.00    -0.398 A  
HETATM   16  C   UNL     3     -11.876  14.631  63.946  1.00  0.00     0.038 A  
HETATM   17  C   UNL     3     -11.323  15.677  64.691  1.00  0.00    -0.355 A  
HETATM   18  N   UNL     3     -12.809  12.366  63.821  1.00  0.00    -0.781 NA 
HETATM   19  C   UNL     3     -12.051  13.285  65.952  1.00  0.00    -0.493 A  
HETATM   20  C   UNL     3     -11.504  14.325  66.697  1.00  0.00    -0.374 A  
HETATM   21  H1  UNL     3     -13.078  11.495  64.278  1.00  0.00     0.000 HD 
HETATM   22  H2  UNL     3     -12.172  12.143  63.057  1.00  0.00     0.000 HD 
ENDBRANCH  12  14
ENDBRANCH  11  12
ENDBRANCH  10  11
ENDBRANCH   9  10
ENDBRANCH   6   9
ENDBRANCH   3   6
BRANCH   5  23
HETATM   23  C   UNL     4      -9.304   6.093  68.383  1.00  0.00    -0.116 C  
BRANCH  23  24
HETATM   24  N   UNL     4      -9.871   7.450  68.226  1.00  0.00    -0.156 NA 
HETATM   25  H   UNL     4     -10.813   7.626  68.574  1.00  0.00     0.000 HD 
BRANCH  24  26
HETATM   26  C   UNL     4      -9.217   8.442  67.658  1.00  0.00    -0.134 C  
HETATM   27  H   UNL     4      -9.099  10.444  67.514  1.00  0.00     0.000 HD 
HETATM   28  O   UNL     4      -9.571   9.729  67.924  1.00  0.00    -0.137 OA 
BRANCH  26  29
HETATM   29  C   UNL     4      -8.024   8.278  66.716  1.00  0.00    -0.099 A  
HETATM   30  C   UNL     4      -7.988   8.483  65.296  1.00  0.00    -0.120 A  
HETATM   31  C   UNL     4      -6.804   7.854  67.331  1.00  0.00    -0.070 A  
HETATM   32  C   UNL     4      -5.637   7.633  66.592  1.00  0.00    -0.028 A  
HETATM   33  C   UNL     4      -5.640   7.806  65.220  1.00  0.00    -0.037 A  
HETATM   34  C   UNL     4      -6.797   8.234  64.575  1.00  0.00    -0.068 A  
BRANCH  30  35
HETATM   35  O   UNL     4      -9.036   8.947  64.571  1.00  0.00    -0.058 OA 
BRANCH  35  36
HETATM   36  C   UNL     4      -8.987   9.260  63.227  1.00  0.00    -0.052 C  
HETATM   37  C   UNL     4      -8.311  10.577  63.005  1.00  0.00    -0.158 C  
HETATM   38  O   UNL     4      -7.047  10.761  63.429  1.00  0.00     0.094 OA 
HETATM   39  O   UNL     4      -8.880  11.468  62.394  1.00  0.00    -0.318 OA 
ENDBRANCH  35  36
ENDBRANCH  30  35
ENDBRANCH  26  29
ENDBRANCH  24  26
ENDBRANCH  23  24
ENDBRANCH   5  23
BRANCH   5  40
HETATM   40  O   UNL     4      -8.544   6.895  70.577  1.00  0.00    -0.139 OA 
BRANCH  40  41
HETATM   41  C   UNL     4      -7.193   7.079  71.019  1.00  0.00    -0.075 C  
BRANCH  41  42
HETATM   42  C   UNL     4      -7.088   7.388  72.527  1.00  0.00    -0.068 C  
BRANCH  42  43
HETATM   43  O   UNL     4      -6.933   8.776  72.761  1.00  0.00    -0.305 OA 
HETATM   44  C   UNL     4      -5.562   9.120  72.657  1.00  0.00    -0.060 C  
ENDBRANCH  42  43
ENDBRANCH  41  42
ENDBRANCH  40  41
ENDBRANCH   5  40
TORSDOF 17
ENDMDL
MODEL      118
REMARK 921   NORMALIZED FREE ENERGY PREDICTED BY IDOCK:   -0.15 KCAL/MOL
REMARK 922        TOTAL FREE ENERGY PREDICTED BY IDOCK:   -3.16 KCAL/MOL
REMARK 923 INTER-LIGAND FREE ENERGY PREDICTED BY IDOCK:   -2.82 KCAL/MOL
REMARK 924 INTRA-LIGAND FREE ENERGY PREDICTED BY IDOCK:   -0.34 KCAL/MOL
REMARK 927      BINDING AFFINITY PREDICTED BY RF-SCORE:    0.00 PKD
ROOT
HETATM    1 HG   UNL     2      -8.436  18.517  67.146  1.00  0.00    -0.237 Hg 
HETATM    2  C   UNL     3      -6.245   6.108  69.991  1.00  0.00    -0.031 C  
HETATM    3  C   UNL     3      -7.093   7.243  70.582  1.00  0.00    -0.065 C  
HETATM    4  C   UNL     4     -11.190  16.567  65.012  1.00  0.00    -0.091 C  
HETATM    5  C   UNL     4     -10.337  15.999  66.155  1.00  0.00    -0.328 C  
ENDROOT
BRANCH   3   6
HETATM    6  N   UNL     3      -8.162   6.786  71.510  1.00  0.00    -0.111 NA 
BRANCH   6   7
HETATM    7  C   UNL     3      -7.835   6.966  72.952  1.00  0.00    -0.093 C  
HETATM    8  C   UNL     3      -8.738   7.966  73.696  1.00  0.00    -0.329 C  
ENDBRANCH   6   7
BRANCH   6   9
HETATM    9  C   UNL     3      -9.472   7.418  71.210  1.00  0.00    -0.154 C  
BRANCH   9  10
HETATM   10  C   UNL     3     -10.611   6.429  70.983  1.00  0.00    -0.234 C  
BRANCH  10  11
HETATM   11  O   UNL     3     -11.479   6.869  70.011  1.00  0.00    -0.306 OA 
BRANCH  11  12
HETATM   12  C   UNL     3     -11.278   7.985  69.269  1.00  0.00     0.277 C  
HETATM   13  O   UNL     3     -11.537   9.092  69.725  1.00  0.00     0.052 OA 
BRANCH  12  14
HETATM   14  C   UNL     3     -10.647   7.837  67.945  1.00  0.00    -0.221 A  
HETATM   15  C   UNL     3      -9.464   7.660  65.400  1.00  0.00     0.744 A  
HETATM   16  C   UNL     3     -10.407   6.706  65.807  1.00  0.00     1.195 A  
HETATM   17  C   UNL     3     -10.998   6.791  67.072  1.00  0.00    -0.439 A  
HETATM   18  N   UNL     3      -8.860   7.578  64.116  1.00  0.00     0.045 NA 
HETATM   19  C   UNL     3      -9.121   8.705  66.266  1.00  0.00    -0.233 A  
HETATM   20  C   UNL     3      -9.704   8.791  67.526  1.00  0.00    -0.214 A  
HETATM   21  H1  UNL     3      -8.174   8.273  63.821  1.00  0.00     0.000 HD 
HETATM   22  H2  UNL     3      -9.601   7.544  63.417  1.00  0.00     0.000 HD 
ENDBRANCH  12  14
ENDBRANCH  11  12
ENDBRANCH  10  11
ENDBRANCH   9  10
ENDBRANCH   6   9
ENDBRANCH   3   6
BRANCH   5  23
HETATM   23  C   UNL     4     -11.073  16.128  67.536  1.00  0.00    -0.175 C  
BRANCH  23  24
HETATM   24  N   UNL     4     -10.254  16.426  68.731  1.00  0.00    -0.242 NA 
HETATM   25  H   UNL     4     -10.186  17.394  69.044  1.00  0.00     0.000 HD 
BRANCH  24  26
HETATM   26  C   UNL     4      -9.609  15.501  69.411  1.00  0.00    -0.279 C  
HETATM   27  H   UNL     4      -9.817  14.047  70.784  1.00  0.00     0.000 HD 
HETATM   28  O   UNL     4     -10.283  14.714  70.294  1.00  0.00     0.224 OA 
BRANCH  26  29
HETATM   29  C   UNL     4      -8.119  15.190  69.268  1.00  0.00    -0.217 A  
HETATM   30  C   UNL     4      -7.195  15.727  68.310  1.00  0.00    -0.116 A  
HETATM   31  C   UNL     4      -7.594  14.238  70.197  1.00  0.00     0.721 A  
HETATM   32  C   UNL     4      -6.256  13.833  70.169  1.00  0.00    -0.110 A  
HETATM   33  C   UNL     4      -5.395  14.341  69.214  1.00  0.00    -0.081 A  
HETATM   34  C   UNL     4      -5.853  15.283  68.296  1.00  0.00    -0.121 A  
BRANCH  30  35
HETATM   35  O   UNL     4      -7.514  16.686  67.406  1.00  0.00    -0.144 OA 
BRANCH  35  36
HETATM   36  C   UNL     4      -6.947  16.806  66.153  1.00  0.00     0.165 C  
HETATM   37  C   UNL     4      -6.768  18.243  65.777  1.00  0.00    -0.282 C  
HETATM   38  O   UNL     4      -6.019  19.049  66.552  1.00  0.00    -0.164 OA 
HETATM   39  O   UNL     4      -7.253  18.677  64.743  1.00  0.00     0.285 OA 
ENDBRANCH  35  36
ENDBRANCH  30  35
ENDBRANCH  26  29
ENDBRANCH  24  26
ENDBRANCH  23  24
ENDBRANCH   5  23
BRANCH   5  40
HETATM   40  O   UNL     4     -10.049  14.614  65.895  1.00  0.00    -0.287 OA 
BRANCH  40  41
HETATM   41  C   UNL     4     -10.679  14.148  64.695  1.00  0.00    -0.389 C  
BRANCH  41  42
HETATM   42  C   UNL     4     -11.257  12.723  64.831  1.00  0.00    -0.297 C  
BRANCH  42  43
HETATM   43  O   UNL     4     -10.350  11.858  65.489  1.00  0.00    -0.245 OA 
HETATM   44  C   UNL     4      -9.815  10.937  64.553  1.00  0.00    -0.300 C  
ENDBRANCH  42  43
ENDBRANCH  41  42
ENDBRANCH  40  41
ENDBRANCH   5  40
TORSDOF 17
ENDMDL
MODEL      119
REMARK 921   NORMALIZED FREE ENERGY PREDICTED BY IDOCK:   -0.06 KCAL/MOL
REMARK 922        TOTAL FREE ENERGY PREDICTED BY IDOCK:   -2.99 KCAL/MOL
REMARK 923 INTER-LIGAND FREE ENERGY PREDICTED BY IDOCK:   -6.23 KCAL/MOL
REMARK 924 INTRA-LIGAND FREE ENERGY PREDICTED BY IDOCK:    3.24 KCAL/MOL
REMARK 927      BINDING AFFINITY PREDICTED BY RF-SCORE:    0.00 PKD
ROOT
HETATM    1 HG   UNL     2      -8.041  17.540  67.597  1.00  0.00    -0.185 Hg 
HETATM    2  C   UNL     3      -6.104   5.027  70.156  1.00  0.00    -0.021 C  
HETATM    3  C   UNL     3      -6.708   6.226  70.901  1.00  0.00    -0.058 C  
HETATM    4  C   UNL     4     -11.347  15.780  66.216  1.00  0.00     0.146 C  
HETATM    5  C   UNL     4     -10.291  15.159  67.141  1.00  0.00    -0.263 C  
ENDROOT
BRANCH   3   6
HETATM    6  N   UNL     3      -7.558   5.855  72.064  1.00  0.00    -0.096 NA 
BRANCH   6   7
HETATM    7  C   UNL     3      -7.096   6.422  73.362  1.00  0.00    -0.082 C  
HETATM    8  C   UNL     3      -6.393   7.787  73.252  1.00  0.00    -0.066 C  
ENDBRANCH   6   7
BRANCH   6   9
HETATM    9  C   UNL     3      -8.987   6.199  71.846  1.00  0.00    -0.140 C  
BRANCH   9  10
HETATM   10  C   UNL     3      -9.758   5.181  71.011  1.00  0.00    -0.183 C  
BRANCH  10  11
HETATM   11  O   UNL     3      -9.847   5.569  69.695  1.00  0.00    -0.164 OA 
BRANCH  11  12
HETATM   12  C   UNL     3     -10.712   6.508  69.241  1.00  0.00    -0.280 C  
HETATM   13  O   UNL     3     -11.905   6.256  69.134  1.00  0.00    -0.016 OA 
BRANCH  12  14
HETATM   14  C   UNL     3     -10.196   7.864  68.980  1.00  0.00    -0.216 A  
HETATM   15  C   UNL     3      -9.164  10.412  68.392  1.00  0.00    -0.147 A  
HETATM   16  C   UNL     3      -9.003   9.865  69.673  1.00  0.00    -0.232 A  
HETATM   17  C   UNL     3      -9.514   8.597  69.969  1.00  0.00    -0.170 A  
HETATM   18  N   UNL     3      -8.648  11.701  68.085  1.00  0.00    -0.152 NA 
HETATM   19  C   UNL     3      -9.836   9.680  67.406  1.00  0.00    -0.218 A  
HETATM   20  C   UNL     3     -10.349   8.420  67.698  1.00  0.00    -0.317 A  
HETATM   21  H1  UNL     3      -8.765  12.099  67.154  1.00  0.00     0.000 HD 
HETATM   22  H2  UNL     3      -7.653  11.708  68.312  1.00  0.00     0.000 HD 
ENDBRANCH  12  14
ENDBRANCH  11  12
ENDBRANCH  10  11
ENDBRANCH   9  10
ENDBRANCH   6   9
ENDBRANCH   3   6
BRANCH   5  23
HETATM   23  C   UNL     4     -10.670  15.353  68.653  1.00  0.00    -0.246 C  
BRANCH  23  24
HETATM   24  N   UNL     4      -9.972  16.413  69.411  1.00  0.00    -0.242 NA 
HETATM   25  H   UNL     4     -10.448  16.833  70.209  1.00  0.00     0.000 HD 
BRANCH  24  26
HETATM   26  C   UNL     4      -8.764  16.840  69.106  1.00  0.00    -0.092 C  
HETATM   27  H   UNL     4      -7.712  18.429  68.466  1.00  0.00     0.000 HD 
HETATM   28  O   UNL     4      -8.584  18.121  68.686  1.00  0.00    -0.307 OA 
BRANCH  26  29
HETATM   29  C   UNL     4      -7.487  16.007  69.220  1.00  0.00    -0.228 A  
HETATM   30  C   UNL     4      -6.189  16.308  68.687  1.00  0.00    -0.122 A  
HETATM   31  C   UNL     4      -7.614  14.773  69.932  1.00  0.00     0.113 A  
HETATM   32  C   UNL     4      -6.539  13.893  70.091  1.00  0.00     0.049 A  
HETATM   33  C   UNL     4      -5.307  14.193  69.539  1.00  0.00    -0.087 A  
HETATM   34  C   UNL     4      -5.126  15.389  68.849  1.00  0.00    -0.099 A  
BRANCH  30  35
HETATM   35  O   UNL     4      -5.883  17.464  68.046  1.00  0.00    -0.132 OA 
BRANCH  35  36
HETATM   36  C   UNL     4      -5.785  17.601  66.675  1.00  0.00    -0.181 C  
HETATM   37  C   UNL     4      -6.980  18.307  66.117  1.00  0.00    -0.266 C  
HETATM   38  O   UNL     4      -7.287  19.545  66.547  1.00  0.00    -0.221 OA 
HETATM   39  O   UNL     4      -7.649  17.790  65.236  1.00  0.00    -0.015 OA 
ENDBRANCH  35  36
ENDBRANCH  30  35
ENDBRANCH  26  29
ENDBRANCH  24  26
ENDBRANCH  23  24
ENDBRANCH   5  23
BRANCH   5  40
HETATM   40  O   UNL     4     -10.168  13.756  66.856  1.00  0.00    -0.255 OA 
BRANCH  40  41
HETATM   41  C   UNL     4     -11.384  13.203  66.334  1.00  0.00    -0.315 C  
BRANCH  41  42
HETATM   42  C   UNL     4     -11.142  12.098  65.284  1.00  0.00    -0.321 C  
BRANCH  42  43
HETATM   43  O   UNL     4     -10.410  12.589  64.176  1.00  0.00    -0.358 OA 
HETATM   44  C   UNL     4     -10.830  11.920  62.999  1.00  0.00    -0.046 C  
ENDBRANCH  42  43
ENDBRANCH  41  42
ENDBRANCH  40  41
ENDBRANCH   5  40
TORSDOF 17
ENDMDL
MODEL      120
REMARK 921   NORMALIZED FREE ENERGY PREDICTED BY IDOCK:    0.13 KCAL/MOL
REMARK 922        TOTAL FREE ENERGY PREDICTED BY IDOCK:   -2.60 KCAL/MOL
REMARK 923 INTER-LIGAND FREE ENERGY PREDICTED BY IDOCK:   -0.35 KCAL/MOL
REMARK 924 INTRA-LIGAND FREE ENERGY PREDICTED BY IDOCK:   -2.26 KCAL/MOL
REMARK 927      BINDING AFFINITY PREDICTED BY RF-SCORE:    0.00 PKD
ROOT
HETATM    1 HG   UNL     2     -12.013   1.751  68.012  1.00  0.00     4.830 Hg 
HETATM    2  C   UNL     3     -10.559  14.224  64.983  1.00  0.00    -0.444 C  
HETATM    3  C   UNL     3     -10.581  13.397  66.276  1.00  0.00    -0.291 C  
HETATM    4  C   UNL     4      -8.080   2.121  67.434  1.00  0.00    -0.067 C  
HETATM    5  C   UNL     4      -9.097   3.258  67.607  1.00  0.00    -0.174 C  
ENDROOT
BRANCH   3   6
HETATM    6  N   UNL     3     -10.002  14.095  67.456  1.00  0.00    -0.234 NA 
BRANCH   6   7
HETATM    7  C   UNL     3     -10.523  13.613  68.765  1.00  0.00    -0.202 C  
HETATM    8  C   UNL     3     -11.649  12.568  68.664  1.00  0.00    -0.357 C  
ENDBRANCH   6   7
BRANCH   6   9
HETATM    9  C   UNL     3      -8.517  14.050  67.459  1.00  0.00    -0.195 C  
BRANCH   9  10
HETATM   10  C   UNL     3      -7.926  12.856  68.202  1.00  0.00    -0.153 C  
BRANCH  10  11
HETATM   11  O   UNL     3      -7.039  12.159  67.414  1.00  0.00    -0.123 OA 
BRANCH  11  12
HETATM   12  C   UNL     3      -7.345  11.008  66.768  1.00  0.00    -0.139 C  
HETATM   13  O   UNL     3      -7.889  11.035  65.672  1.00  0.00    -0.076 OA 
BRANCH  12  14
HETATM   14  C   UNL     3      -6.913   9.734  67.372  1.00  0.00    -0.084 A  
HETATM   15  C   UNL     3      -6.065   7.268  68.422  1.00  0.00    -0.031 A  
HETATM   16  C   UNL     3      -7.304   7.806  68.799  1.00  0.00    -0.087 A  
HETATM   17  C   UNL     3      -7.729   9.032  68.278  1.00  0.00    -0.095 A  
HETATM   18  N   UNL     3      -5.626   6.023  68.950  1.00  0.00    -0.011 NA 
HETATM   19  C   UNL     3      -5.256   7.963  67.515  1.00  0.00    -0.032 A  
HETATM   20  C   UNL     3      -5.674   9.185  66.997  1.00  0.00    -0.045 A  
HETATM   21  H1  UNL     3      -4.725   5.632  68.676  1.00  0.00     0.000 HD 
HETATM   22  H2  UNL     3      -6.347   5.326  68.762  1.00  0.00     0.000 HD 
ENDBRANCH  12  14
ENDBRANCH  11  12
ENDBRANCH  10  11
ENDBRANCH   9  10
ENDBRANCH   6   9
ENDBRANCH   3   6
BRANCH   5  23
HETATM   23  C   UNL     4      -9.215   3.695  69.112  1.00  0.00    -0.159 C  
BRANCH  23  24
HETATM   24  N   UNL     4      -8.487   4.909  69.539  1.00  0.00    -0.083 NA 
HETATM   25  H   UNL     4      -8.099   5.520  68.822  1.00  0.00     0.000 HD 
BRANCH  24  26
HETATM   26  C   UNL     4      -8.315   5.237  70.803  1.00  0.00    -0.115 C  
HETATM   27  H   UNL     4      -7.096   5.031  72.388  1.00  0.00     0.000 HD 
HETATM   28  O   UNL     4      -7.220   4.794  71.477  1.00  0.00    -0.063 OA 
BRANCH  26  29
HETATM   29  C   UNL     4      -9.252   6.140  71.607  1.00  0.00    -0.150 A  
HETATM   30  C   UNL     4     -10.362   6.911  71.124  1.00  0.00    -0.204 A  
HETATM   31  C   UNL     4      -8.973   6.230  73.006  1.00  0.00    -0.130 A  
HETATM   32  C   UNL     4      -9.726   7.039  73.864  1.00  0.00    -0.331 A  
HETATM   33  C   UNL     4     -10.769   7.798  73.365  1.00  0.00    -0.225 A  
HETATM   34  C   UNL     4     -11.092   7.733  72.012  1.00  0.00    -0.318 A  
BRANCH  30  35
HETATM   35  O   UNL     4     -10.800   6.886  69.840  1.00  0.00    -0.233 OA 
BRANCH  35  36
HETATM   36  C   UNL     4     -11.507   7.903  69.230  1.00  0.00     0.586 C  
HETATM   37  C   UNL     4     -10.825   8.359  67.979  1.00  0.00     0.054 C  
HETATM   38  O   UNL     4     -10.592   7.482  66.985  1.00  0.00    -0.319 OA 
HETATM   39  O   UNL     4     -10.524   9.534  67.832  1.00  0.00    -0.214 OA 
ENDBRANCH  35  36
ENDBRANCH  30  35
ENDBRANCH  26  29
ENDBRANCH  24  26
ENDBRANCH  23  24
ENDBRANCH   5  23
BRANCH   5  40
HETATM   40  O   UNL     4      -8.694   4.387  66.814  1.00  0.00    -0.111 OA 
BRANCH  40  41
HETATM   41  C   UNL     4      -8.361   4.012  65.471  1.00  0.00    -0.109 C  
BRANCH  41  42
HETATM   42  C   UNL     4      -8.856   5.028  64.420  1.00  0.00    -0.084 C  
BRANCH  42  43
HETATM   43  O   UNL     4      -7.785   5.793  63.899  1.00  0.00    -0.080 OA 
HETATM   44  C   UNL     4      -7.002   6.298  64.968  1.00  0.00    -0.052 C  
ENDBRANCH  42  43
ENDBRANCH  41  42
ENDBRANCH  40  41
ENDBRANCH   5  40
TORSDOF 17
ENDMDL
MODEL      121
REMARK 921   NORMALIZED FREE ENERGY PREDICTED BY IDOCK:    0.22 KCAL/MOL
REMARK 922        TOTAL FREE ENERGY PREDICTED BY IDOCK:   -2.42 KCAL/MOL
REMARK 923 INTER-LIGAND FREE ENERGY PREDICTED BY IDOCK:    0.35 KCAL/MOL
REMARK 924 INTRA-LIGAND FREE ENERGY PREDICTED BY IDOCK:   -2.77 KCAL/MOL
REMARK 927      BINDING AFFINITY PREDICTED BY RF-SCORE:    0.00 PKD
ROOT
HETATM    1 HG   UNL     2     -12.908   1.467  68.596  1.00  0.00     5.974 Hg 
HETATM    2  C   UNL     3     -10.462  13.486  64.542  1.00  0.00    -0.426 C  
HETATM    3  C   UNL     3     -10.650  12.796  65.900  1.00  0.00    -0.274 C  
HETATM    4  C   UNL     4      -8.924   1.584  68.365  1.00  0.00    -0.157 C  
HETATM    5  C   UNL     4      -9.885   2.781  68.331  1.00  0.00     0.372 C  
ENDROOT
BRANCH   3   6
HETATM    6  N   UNL     3     -10.140  13.579  67.058  1.00  0.00    -0.241 NA 
BRANCH   6   7
HETATM    7  C   UNL     3     -10.938  13.414  68.305  1.00  0.00    -0.259 C  
HETATM    8  C   UNL     3     -11.550  14.716  68.853  1.00  0.00    -0.340 C  
ENDBRANCH   6   7
BRANCH   6   9
HETATM    9  C   UNL     3      -8.708  13.299  67.338  1.00  0.00    -0.206 C  
BRANCH   9  10
HETATM   10  C   UNL     3      -8.469  12.089  68.237  1.00  0.00    -0.167 C  
BRANCH  10  11
HETATM   11  O   UNL     3      -7.414  11.327  67.789  1.00  0.00    -0.090 OA 
BRANCH  11  12
HETATM   12  C   UNL     3      -7.511  10.416  66.791  1.00  0.00    -0.110 C  
HETATM   13  O   UNL     3      -6.749  10.458  65.834  1.00  0.00    -0.112 OA 
BRANCH  12  14
HETATM   14  C   UNL     3      -8.484   9.319  66.940  1.00  0.00    -0.128 A  
HETATM   15  C   UNL     3     -10.348   7.221  67.116  1.00  0.00    -0.297 A  
HETATM   16  C   UNL     3     -10.523   8.385  67.878  1.00  0.00    -0.255 A  
HETATM   17  C   UNL     3      -9.598   9.431  67.792  1.00  0.00    -0.158 A  
HETATM   18  N   UNL     3     -11.284   6.155  67.199  1.00  0.00    -0.571 NA 
HETATM   19  C   UNL     3      -9.244   7.113  66.263  1.00  0.00    -0.169 A  
HETATM   20  C   UNL     3      -8.320   8.150  66.178  1.00  0.00    -0.126 A  
HETATM   21  H1  UNL     3     -11.156   5.308  66.645  1.00  0.00     0.000 HD 
HETATM   22  H2  UNL     3     -12.212   6.529  67.001  1.00  0.00     0.000 HD 
ENDBRANCH  12  14
ENDBRANCH  11  12
ENDBRANCH  10  11
ENDBRANCH   9  10
ENDBRANCH   6   9
ENDBRANCH   3   6
BRANCH   5  23
HETATM   23  C   UNL     4     -10.114   3.372  69.768  1.00  0.00     0.710 C  
BRANCH  23  24
HETATM   24  N   UNL     4      -9.506   4.684  70.082  1.00  0.00    -0.158 NA 
HETATM   25  H   UNL     4     -10.054   5.526  69.910  1.00  0.00     0.000 HD 
BRANCH  24  26
HETATM   26  C   UNL     4      -8.292   4.816  70.573  1.00  0.00    -0.095 C  
HETATM   27  H   UNL     4      -6.568   3.846  70.937  1.00  0.00     0.000 HD 
HETATM   28  O   UNL     4      -7.445   3.751  70.583  1.00  0.00    -0.040 OA 
BRANCH  26  29
HETATM   29  C   UNL     4      -7.707   6.117  71.122  1.00  0.00    -0.106 A  
HETATM   30  C   UNL     4      -8.379   7.369  71.324  1.00  0.00    -0.110 A  
HETATM   31  C   UNL     4      -6.318   6.077  71.460  1.00  0.00    -0.048 A  
HETATM   32  C   UNL     4      -5.639   7.199  71.947  1.00  0.00    -0.037 A  
HETATM   33  C   UNL     4      -6.303   8.402  72.099  1.00  0.00    -0.068 A  
HETATM   34  C   UNL     4      -7.660   8.490  71.800  1.00  0.00    -0.147 A  
BRANCH  30  35
HETATM   35  O   UNL     4      -9.706   7.557  71.117  1.00  0.00    -0.164 OA 
BRANCH  35  36
HETATM   36  C   UNL     4     -10.469   8.528  71.735  1.00  0.00    -0.300 C  
HETATM   37  C   UNL     4     -11.874   8.518  71.223  1.00  0.00    -0.291 C  
HETATM   38  O   UNL     4     -12.618   7.402  71.331  1.00  0.00    -0.345 OA 
HETATM   39  O   UNL     4     -12.370   9.531  70.754  1.00  0.00    -0.258 OA 
ENDBRANCH  35  36
ENDBRANCH  30  35
ENDBRANCH  26  29
ENDBRANCH  24  26
ENDBRANCH  23  24
ENDBRANCH   5  23
BRANCH   5  40
HETATM   40  O   UNL     4      -9.347   3.804  67.475  1.00  0.00    -0.168 OA 
BRANCH  40  41
HETATM   41  C   UNL     4      -8.840   3.268  66.247  1.00  0.00    -0.140 C  
BRANCH  41  42
HETATM   42  C   UNL     4      -7.322   3.489  66.072  1.00  0.00    -0.072 C  
BRANCH  42  43
HETATM   43  O   UNL     4      -6.795   4.293  67.110  1.00  0.00    -0.050 OA 
HETATM   44  C   UNL     4      -5.461   3.896  67.383  1.00  0.00    -0.020 C  
ENDBRANCH  42  43
ENDBRANCH  41  42
ENDBRANCH  40  41
ENDBRANCH   5  40
TORSDOF 17
ENDMDL
MODEL      122
REMARK 921   NORMALIZED FREE ENERGY PREDICTED BY IDOCK:    0.45 KCAL/MOL
REMARK 922        TOTAL FREE ENERGY PREDICTED BY IDOCK:   -1.98 KCAL/MOL
REMARK 923 INTER-LIGAND FREE ENERGY PREDICTED BY IDOCK:   -0.93 KCAL/MOL
REMARK 924 INTRA-LIGAND FREE ENERGY PREDICTED BY IDOCK:   -1.04 KCAL/MOL
REMARK 927      BINDING AFFINITY PREDICTED BY RF-SCORE:    0.00 PKD
ROOT
HETATM    1 HG   UNL     2     -10.463   6.433  65.088  1.00  0.00     0.095 Hg 
HETATM    2  C   UNL     3     -14.406  16.464  72.207  1.00  0.00     1.351 C  
HETATM    3  C   UNL     3     -13.299  15.406  72.309  1.00  0.00    -0.450 C  
HETATM    4  C   UNL     4      -8.415   9.511  63.583  1.00  0.00    -0.197 C  
HETATM    5  C   UNL     4      -9.191   9.480  64.907  1.00  0.00    -0.223 C  
ENDROOT
BRANCH   3   6
HETATM    6  N   UNL     3     -12.211  15.752  73.263  1.00  0.00    -0.465 NA 
BRANCH   6   7
HETATM    7  C   UNL     3     -11.529  14.571  73.863  1.00  0.00     1.107 C  
HETATM    8  C   UNL     3     -11.930  13.217  73.250  1.00  0.00     3.707 C  
ENDBRANCH   6   7
BRANCH   6   9
HETATM    9  C   UNL     3     -11.203  16.660  72.659  1.00  0.00     1.071 C  
BRANCH   9  10
HETATM   10  C   UNL     3     -11.142  16.607  71.135  1.00  0.00     0.370 C  
BRANCH  10  11
HETATM   11  O   UNL     3     -10.353  15.568  70.697  1.00  0.00    -0.198 OA 
BRANCH  11  12
HETATM   12  C   UNL     3      -9.762  15.531  69.478  1.00  0.00    -0.282 C  
HETATM   13  O   UNL     3      -9.390  14.468  68.999  1.00  0.00    -0.168 OA 
BRANCH  12  14
HETATM   14  C   UNL     3      -9.675  16.784  68.707  1.00  0.00    -0.261 A  
HETATM   15  C   UNL     3      -9.488  19.228  67.329  1.00  0.00    -0.314 A  
HETATM   16  C   UNL     3     -10.580  18.376  67.108  1.00  0.00    -0.416 A  
HETATM   17  C   UNL     3     -10.676  17.160  67.792  1.00  0.00    -0.329 A  
HETATM   18  N   UNL     3      -9.384  20.465  66.636  1.00  0.00    -0.597 NA 
HETATM   19  C   UNL     3      -8.496  18.858  68.245  1.00  0.00    -0.365 A  
HETATM   20  C   UNL     3      -8.587  17.647  68.924  1.00  0.00    -0.118 A  
HETATM   21  H1  UNL     3      -8.591  21.084  66.797  1.00  0.00     0.000 HD 
HETATM   22  H2  UNL     3     -10.241  20.994  66.799  1.00  0.00     0.000 HD 
ENDBRANCH  12  14
ENDBRANCH  11  12
ENDBRANCH  10  11
ENDBRANCH   9  10
ENDBRANCH   6   9
ENDBRANCH   3   6
BRANCH   5  23
HETATM   23  C   UNL     4      -8.262   9.067  66.104  1.00  0.00    -0.115 C  
BRANCH  23  24
HETATM   24  N   UNL     4      -8.322   7.666  66.574  1.00  0.00    -0.124 NA 
HETATM   25  H   UNL     4      -8.275   6.919  65.882  1.00  0.00     0.000 HD 
BRANCH  24  26
HETATM   26  C   UNL     4      -8.432   7.337  67.844  1.00  0.00    -0.118 C  
HETATM   27  H   UNL     4      -8.322   8.040  69.725  1.00  0.00     0.000 HD 
HETATM   28  O   UNL     4      -8.242   8.278  68.808  1.00  0.00    -0.114 OA 
BRANCH  26  29
HETATM   29  C   UNL     4      -8.806   5.945  68.359  1.00  0.00    -0.111 A  
HETATM   30  C   UNL     4      -9.188   5.572  69.690  1.00  0.00    -0.132 A  
HETATM   31  C   UNL     4      -8.751   4.894  67.392  1.00  0.00    -0.103 A  
HETATM   32  C   UNL     4      -9.037   3.565  67.722  1.00  0.00    -0.197 A  
HETATM   33  C   UNL     4      -9.370   3.228  69.021  1.00  0.00    -0.234 A  
HETATM   34  C   UNL     4      -9.453   4.218  69.997  1.00  0.00    -0.254 A  
BRANCH  30  35
HETATM   35  O   UNL     4      -9.352   6.456  70.707  1.00  0.00    -0.157 OA 
BRANCH  35  36
HETATM   36  C   UNL     4     -10.574   6.886  71.185  1.00  0.00    -0.222 C  
HETATM   37  C   UNL     4     -10.430   7.542  72.522  1.00  0.00    -0.249 C  
HETATM   38  O   UNL     4      -9.630   8.615  72.658  1.00  0.00    -0.254 OA 
HETATM   39  O   UNL     4     -11.073   7.142  73.480  1.00  0.00    -0.260 OA 
ENDBRANCH  35  36
ENDBRANCH  30  35
ENDBRANCH  26  29
ENDBRANCH  24  26
ENDBRANCH  23  24
ENDBRANCH   5  23
BRANCH   5  40
HETATM   40  O   UNL     4      -9.752  10.779  65.165  1.00  0.00    -0.225 OA 
BRANCH  40  41
HETATM   41  C   UNL     4      -9.686  11.632  64.016  1.00  0.00    -0.202 C  
BRANCH  41  42
HETATM   42  C   UNL     4     -10.852  12.642  63.946  1.00  0.00    -0.429 C  
BRANCH  42  43
HETATM   43  O   UNL     4     -11.680  12.554  65.091  1.00  0.00    -0.344 OA 
HETATM   44  C   UNL     4     -12.108  13.853  65.464  1.00  0.00    -0.407 C  
ENDBRANCH  42  43
ENDBRANCH  41  42
ENDBRANCH  40  41
ENDBRANCH   5  40
TORSDOF 17
ENDMDL
MODEL      123
REMARK 921   NORMALIZED FREE ENERGY PREDICTED BY IDOCK:    0.60 KCAL/MOL
REMARK 922        TOTAL FREE ENERGY PREDICTED BY IDOCK:   -1.66 KCAL/MOL
REMARK 923 INTER-LIGAND FREE ENERGY PREDICTED BY IDOCK:    0.10 KCAL/MOL
REMARK 924 INTRA-LIGAND FREE ENERGY PREDICTED BY IDOCK:   -1.76 KCAL/MOL
REMARK 927      BINDING AFFINITY PREDICTED BY RF-SCORE:    0.00 PKD
ROOT
HETATM    1 HG   UNL     2     -10.821  17.051  72.658  1.00  0.00     0.210 Hg 
HETATM    2  C   UNL     3      -5.970   9.009  63.788  1.00  0.00    -0.076 C  
HETATM    3  C   UNL     3      -6.572   8.870  65.194  1.00  0.00    -0.065 C  
HETATM    4  C   UNL     4     -13.983  16.131  70.399  1.00  0.00     2.938 C  
HETATM    5  C   UNL     4     -12.624  15.417  70.417  1.00  0.00    -0.389 C  
ENDROOT
BRANCH   3   6
HETATM    6  N   UNL     3      -7.003   7.488  65.538  1.00  0.00    -0.059 NA 
BRANCH   6   7
HETATM    7  C   UNL     3      -6.325   6.918  66.736  1.00  0.00    -0.045 C  
HETATM    8  C   UNL     3      -6.331   7.834  67.973  1.00  0.00    -0.050 C  
ENDBRANCH   6   7
BRANCH   6   9
HETATM    9  C   UNL     3      -8.476   7.384  65.698  1.00  0.00    -0.130 C  
BRANCH   9  10
HETATM   10  C   UNL     3      -9.045   6.000  65.398  1.00  0.00     0.105 C  
BRANCH  10  11
HETATM   11  O   UNL     3     -10.072   5.679  66.256  1.00  0.00    -0.165 OA 
BRANCH  11  12
HETATM   12  C   UNL     3     -10.386   4.411  66.617  1.00  0.00     0.031 C  
HETATM   13  O   UNL     3     -11.197   3.762  65.970  1.00  0.00     1.890 OA 
BRANCH  12  14
HETATM   14  C   UNL     3      -9.651   3.804  67.741  1.00  0.00    -0.193 A  
HETATM   15  C   UNL     3      -8.335   2.581  69.904  1.00  0.00    -0.045 A  
HETATM   16  C   UNL     3      -8.382   3.980  69.807  1.00  0.00    -0.080 A  
HETATM   17  C   UNL     3      -9.036   4.591  68.733  1.00  0.00    -0.166 A  
HETATM   18  N   UNL     3      -7.671   1.954  70.994  1.00  0.00    -0.032 NA 
HETATM   19  C   UNL     3      -8.953   1.799  68.922  1.00  0.00    -0.150 A  
HETATM   20  C   UNL     3      -9.601   2.403  67.850  1.00  0.00    -0.057 A  
HETATM   21  H1  UNL     3      -7.637   0.938  71.064  1.00  0.00     0.000 HD 
HETATM   22  H2  UNL     3      -8.063   2.322  71.861  1.00  0.00     0.000 HD 
ENDBRANCH  12  14
ENDBRANCH  11  12
ENDBRANCH  10  11
ENDBRANCH   9  10
ENDBRANCH   6   9
ENDBRANCH   3   6
BRANCH   5  23
HETATM   23  C   UNL     4     -12.624  14.213  71.428  1.00  0.00    -0.368 C  
BRANCH  23  24
HETATM   24  N   UNL     4     -13.763  13.271  71.381  1.00  0.00     0.022 NA 
HETATM   25  H   UNL     4     -14.623  13.570  70.922  1.00  0.00     0.000 HD 
BRANCH  24  26
HETATM   26  C   UNL     4     -13.720  12.063  71.903  1.00  0.00     0.138 C  
HETATM   27  H   UNL     4     -14.371  10.923  73.426  1.00  0.00     0.000 HD 
HETATM   28  O   UNL     4     -14.403  11.795  73.049  1.00  0.00     1.156 OA 
BRANCH  26  29
HETATM   29  C   UNL     4     -12.972  10.874  71.298  1.00  0.00    -0.492 A  
HETATM   30  C   UNL     4     -12.172  10.851  70.107  1.00  0.00    -0.343 A  
HETATM   31  C   UNL     4     -13.104   9.637  72.003  1.00  0.00    -0.537 A  
HETATM   32  C   UNL     4     -12.501   8.458  71.554  1.00  0.00    -0.342 A  
HETATM   33  C   UNL     4     -11.763   8.456  70.384  1.00  0.00     0.013 A  
HETATM   34  C   UNL     4     -11.591   9.639  69.669  1.00  0.00     0.030 A  
BRANCH  30  35
HETATM   35  O   UNL     4     -11.893  11.949  69.361  1.00  0.00    -0.301 OA 
BRANCH  35  36
HETATM   36  C   UNL     4     -10.756  12.110  68.594  1.00  0.00    -0.233 C  
HETATM   37  C   UNL     4     -11.067  11.987  67.135  1.00  0.00    -0.290 C  
HETATM   38  O   UNL     4     -11.962  12.817  66.569  1.00  0.00    -0.402 OA 
HETATM   39  O   UNL     4     -10.475  11.173  66.444  1.00  0.00    -0.244 OA 
ENDBRANCH  35  36
ENDBRANCH  30  35
ENDBRANCH  26  29
ENDBRANCH  24  26
ENDBRANCH  23  24
ENDBRANCH   5  23
BRANCH   5  40
HETATM   40  O   UNL     4     -12.319  14.932  69.099  1.00  0.00    -0.187 OA 
BRANCH  40  41
HETATM   41  C   UNL     4     -11.692  15.933  68.288  1.00  0.00    -0.186 C  
BRANCH  41  42
HETATM   42  C   UNL     4     -10.717  16.829  69.081  1.00  0.00    -0.329 C  
BRANCH  42  43
HETATM   43  O   UNL     4      -9.417  16.799  68.521  1.00  0.00    -0.229 OA 
HETATM   44  C   UNL     4      -9.435  17.433  67.253  1.00  0.00    -0.251 C  
ENDBRANCH  42  43
ENDBRANCH  41  42
ENDBRANCH  40  41
ENDBRANCH   5  40
TORSDOF 17
ENDMDL
MODEL      124
REMARK 921   NORMALIZED FREE ENERGY PREDICTED BY IDOCK:    0.63 KCAL/MOL
REMARK 922        TOTAL FREE ENERGY PREDICTED BY IDOCK:   -1.60 KCAL/MOL
REMARK 923 INTER-LIGAND FREE ENERGY PREDICTED BY IDOCK:   -1.74 KCAL/MOL
REMARK 924 INTRA-LIGAND FREE ENERGY PREDICTED BY IDOCK:    0.14 KCAL/MOL
REMARK 927      BINDING AFFINITY PREDICTED BY RF-SCORE:    0.00 PKD
ROOT
HETATM    1 HG   UNL     2      -6.869   3.017  68.767  1.00  0.00    -0.037 Hg 
HETATM    2  C   UNL     3      -5.757  15.740  70.704  1.00  0.00    -0.016 C  
HETATM    3  C   UNL     3      -6.666  14.826  69.872  1.00  0.00    -0.172 C  
HETATM    4  C   UNL     4      -9.194   3.687  71.943  1.00  0.00    -0.176 C  
HETATM    5  C   UNL     4      -8.615   4.739  70.987  1.00  0.00    -0.112 C  
ENDROOT
BRANCH   3   6
HETATM    6  N   UNL     3      -7.919  15.476  69.401  1.00  0.00    -0.232 NA 
BRANCH   6   7
HETATM    7  C   UNL     3      -8.771  14.607  68.542  1.00  0.00    -0.176 C  
HETATM    8  C   UNL     3      -8.414  13.111  68.588  1.00  0.00     0.029 C  
ENDBRANCH   6   7
BRANCH   6   9
HETATM    9  C   UNL     3      -8.726  16.017  70.525  1.00  0.00     2.145 C  
BRANCH   9  10
HETATM   10  C   UNL     3     -10.060  15.309  70.740  1.00  0.00     0.577 C  
BRANCH  10  11
HETATM   11  O   UNL     3     -11.066  15.891  70.005  1.00  0.00    -0.296 OA 
BRANCH  11  12
HETATM   12  C   UNL     3     -12.127  15.213  69.506  1.00  0.00    -0.283 C  
HETATM   13  O   UNL     3     -13.140  15.058  70.178  1.00  0.00    -0.155 OA 
BRANCH  12  14
HETATM   14  C   UNL     3     -12.069  14.759  68.105  1.00  0.00    -0.167 A  
HETATM   15  C   UNL     3     -11.873  13.827  65.459  1.00  0.00    -0.363 A  
HETATM   16  C   UNL     3     -11.938  15.203  65.719  1.00  0.00     0.165 A  
HETATM   17  C   UNL     3     -12.035  15.670  67.034  1.00  0.00     0.611 A  
HETATM   18  N   UNL     3     -11.776  13.346  64.125  1.00  0.00    -0.408 NA 
HETATM   19  C   UNL     3     -11.900  12.920  66.525  1.00  0.00    -0.473 A  
HETATM   20  C   UNL     3     -11.999  13.381  67.835  1.00  0.00    -0.360 A  
HETATM   21  H1  UNL     3     -11.729  12.345  63.937  1.00  0.00     0.000 HD 
HETATM   22  H2  UNL     3     -10.972  13.793  63.683  1.00  0.00     0.000 HD 
ENDBRANCH  12  14
ENDBRANCH  11  12
ENDBRANCH  10  11
ENDBRANCH   9  10
ENDBRANCH   6   9
ENDBRANCH   3   6
BRANCH   5  23
HETATM   23  C   UNL     4      -9.614   5.061  69.818  1.00  0.00    -0.170 C  
BRANCH  23  24
HETATM   24  N   UNL     4     -10.251   6.395  69.799  1.00  0.00    -0.178 NA 
HETATM   25  H   UNL     4     -11.199   6.486  70.166  1.00  0.00     0.000 HD 
BRANCH  24  26
HETATM   26  C   UNL     4      -9.655   7.472  69.332  1.00  0.00    -0.155 C  
HETATM   27  H   UNL     4      -9.777   9.474  69.201  1.00  0.00     0.000 HD 
HETATM   28  O   UNL     4     -10.208   8.697  69.538  1.00  0.00    -0.198 OA 
BRANCH  26  29
HETATM   29  C   UNL     4      -8.323   7.477  68.580  1.00  0.00    -0.129 A  
HETATM   30  C   UNL     4      -8.113   7.537  67.162  1.00  0.00    -0.118 A  
HETATM   31  C   UNL     4      -7.152   7.399  69.396  1.00  0.00    -0.070 A  
HETATM   32  C   UNL     4      -5.865   7.365  68.848  1.00  0.00    -0.023 A  
HETATM   33  C   UNL     4      -5.693   7.390  67.476  1.00  0.00    -0.034 A  
HETATM   34  C   UNL     4      -6.801   7.482  66.638  1.00  0.00    -0.066 A  
BRANCH  30  35
HETATM   35  O   UNL     4      -9.111   7.680  66.254  1.00  0.00    -0.163 OA 
BRANCH  35  36
HETATM   36  C   UNL     4      -8.924   8.001  64.924  1.00  0.00     0.384 C  
HETATM   37  C   UNL     4      -9.121   9.466  64.690  1.00  0.00    -0.173 C  
HETATM   38  O   UNL     4      -8.358  10.357  65.350  1.00  0.00    -0.157 OA 
HETATM   39  O   UNL     4      -9.931   9.857  63.865  1.00  0.00     0.032 OA 
ENDBRANCH  35  36
ENDBRANCH  30  35
ENDBRANCH  26  29
ENDBRANCH  24  26
ENDBRANCH  23  24
ENDBRANCH   5  23
BRANCH   5  40
HETATM   40  O   UNL     4      -8.330   5.945  71.715  1.00  0.00    -0.118 OA 
BRANCH  40  41
HETATM   41  C   UNL     4      -9.047   6.008  72.955  1.00  0.00    -0.131 C  
BRANCH  41  42
HETATM   42  C   UNL     4      -8.132   6.279  74.168  1.00  0.00    -0.108 C  
BRANCH  42  43
HETATM   43  O   UNL     4      -7.701   7.627  74.199  1.00  0.00    -0.127 OA 
HETATM   44  C   UNL     4      -7.958   8.233  72.943  1.00  0.00    -0.141 C  
ENDBRANCH  42  43
ENDBRANCH  41  42
ENDBRANCH  40  41
ENDBRANCH   5  40
TORSDOF 17
ENDMDL
MODEL      125
REMARK 921   NORMALIZED FREE ENERGY PREDICTED BY IDOCK:    0.69 KCAL/MOL
REMARK 922        TOTAL FREE ENERGY PREDICTED BY IDOCK:   -1.49 KCAL/MOL
REMARK 923 INTER-LIGAND FREE ENERGY PREDICTED BY IDOCK:   -0.98 KCAL/MOL
REMARK 924 INTRA-LIGAND FREE ENERGY PREDICTED BY IDOCK:   -0.52 KCAL/MOL
REMARK 927      BINDING AFFINITY PREDICTED BY RF-SCORE:    0.00 PKD
ROOT
HETATM    1 HG   UNL     2      -8.674  18.642  68.391  1.00  0.00    -0.262 Hg 
HETATM    2  C   UNL     3      -7.411   5.819  67.462  1.00  0.00    -0.078 C  
HETATM    3  C   UNL     3      -7.981   6.800  68.496  1.00  0.00    -0.119 C  
HETATM    4  C   UNL     4     -12.015  17.505  66.523  1.00  0.00     3.186 C  
HETATM    5  C   UNL     4     -11.018  16.600  67.262  1.00  0.00    -0.064 C  
ENDROOT
BRANCH   3   6
HETATM    6  N   UNL     3      -8.884   6.173  69.498  1.00  0.00    -0.129 NA 
BRANCH   6   7
HETATM    7  C   UNL     3     -10.111   5.563  68.916  1.00  0.00    -0.198 C  
HETATM    8  C   UNL     3     -11.433   6.151  69.443  1.00  0.00    -0.256 C  
ENDBRANCH   6   7
BRANCH   6   9
HETATM    9  C   UNL     3      -8.177   5.174  70.341  1.00  0.00    -0.098 C  
BRANCH   9  10
HETATM   10  C   UNL     3      -7.982   5.601  71.792  1.00  0.00    -0.114 C  
BRANCH  10  11
HETATM   11  O   UNL     3      -6.742   6.163  71.992  1.00  0.00    -0.061 OA 
BRANCH  11  12
HETATM   12  C   UNL     3      -6.032   6.791  71.024  1.00  0.00    -0.032 C  
HETATM   13  O   UNL     3      -5.399   6.145  70.198  1.00  0.00    -0.012 OA 
BRANCH  12  14
HETATM   14  C   UNL     3      -6.127   8.259  70.931  1.00  0.00    -0.033 A  
HETATM   15  C   UNL     3      -6.287  11.065  70.860  1.00  0.00     0.452 A  
HETATM   16  C   UNL     3      -7.294  10.286  70.270  1.00  0.00    -0.032 A  
HETATM   17  C   UNL     3      -7.217   8.890  70.304  1.00  0.00    -0.054 A  
HETATM   18  N   UNL     3      -6.359  12.484  70.828  1.00  0.00    -0.430 NA 
HETATM   19  C   UNL     3      -5.207  10.437  71.490  1.00  0.00    -0.058 A  
HETATM   20  C   UNL     3      -5.126   9.048  71.523  1.00  0.00    -0.038 A  
HETATM   21  H1  UNL     3      -5.627  13.050  71.257  1.00  0.00     0.000 HD 
HETATM   22  H2  UNL     3      -7.255  12.767  71.224  1.00  0.00     0.000 HD 
ENDBRANCH  12  14
ENDBRANCH  11  12
ENDBRANCH  10  11
ENDBRANCH   9  10
ENDBRANCH   6   9
ENDBRANCH   3   6
BRANCH   5  23
HETATM   23  C   UNL     4     -11.435  16.395  68.762  1.00  0.00    -0.222 C  
BRANCH  23  24
HETATM   24  N   UNL     4     -10.375  16.459  69.790  1.00  0.00    -0.241 NA 
HETATM   25  H   UNL     4     -10.251  17.330  70.307  1.00  0.00     0.000 HD 
BRANCH  24  26
HETATM   26  C   UNL     4      -9.581  15.446  70.071  1.00  0.00     0.029 C  
HETATM   27  H   UNL     4      -9.084  14.112  71.490  1.00  0.00     0.000 HD 
HETATM   28  O   UNL     4      -9.656  14.843  71.288  1.00  0.00     1.673 OA 
BRANCH  26  29
HETATM   29  C   UNL     4      -8.566  14.836  69.104  1.00  0.00    -0.089 A  
HETATM   30  C   UNL     4      -8.736  13.690  68.257  1.00  0.00    -0.171 A  
HETATM   31  C   UNL     4      -7.293  15.484  69.054  1.00  0.00    -0.162 A  
HETATM   32  C   UNL     4      -6.255  15.021  68.237  1.00  0.00    -0.124 A  
HETATM   33  C   UNL     4      -6.435  13.894  67.457  1.00  0.00    -0.077 A  
HETATM   34  C   UNL     4      -7.662  13.235  67.457  1.00  0.00    -0.175 A  
BRANCH  30  35
HETATM   35  O   UNL     4      -9.899  13.003  68.136  1.00  0.00    -0.218 OA 
BRANCH  35  36
HETATM   36  C   UNL     4     -10.241  11.895  68.886  1.00  0.00    -0.075 C  
HETATM   37  C   UNL     4     -11.616  11.415  68.544  1.00  0.00    -0.318 C  
HETATM   38  O   UNL     4     -11.904  11.053  67.280  1.00  0.00    -0.468 OA 
HETATM   39  O   UNL     4     -12.465  11.299  69.414  1.00  0.00    -0.272 OA 
ENDBRANCH  35  36
ENDBRANCH  30  35
ENDBRANCH  26  29
ENDBRANCH  24  26
ENDBRANCH  23  24
ENDBRANCH   5  23
BRANCH   5  40
HETATM   40  O   UNL     4     -10.953  15.322  66.606  1.00  0.00    -0.313 OA 
BRANCH  40  41
HETATM   41  C   UNL     4     -10.329  15.408  65.318  1.00  0.00    -0.390 C  
BRANCH  41  42
HETATM   42  C   UNL     4     -11.317  15.193  64.153  1.00  0.00     0.087 C  
BRANCH  42  43
HETATM   43  O   UNL     4     -12.412  14.387  64.546  1.00  0.00    -0.608 OA 
HETATM   44  C   UNL     4     -12.284  13.100  63.965  1.00  0.00    -0.414 C  
ENDBRANCH  42  43
ENDBRANCH  41  42
ENDBRANCH  40  41
ENDBRANCH   5  40
TORSDOF 17
ENDMDL
MODEL      126
REMARK 921   NORMALIZED FREE ENERGY PREDICTED BY IDOCK:    1.43 KCAL/MOL
REMARK 922        TOTAL FREE ENERGY PREDICTED BY IDOCK:   -0.00 KCAL/MOL
REMARK 923 INTER-LIGAND FREE ENERGY PREDICTED BY IDOCK:   -0.50 KCAL/MOL
REMARK 924 INTRA-LIGAND FREE ENERGY PREDICTED BY IDOCK:    0.50 KCAL/MOL
REMARK 927      BINDING AFFINITY PREDICTED BY RF-SCORE:    0.00 PKD
ROOT
HETATM    1 HG   UNL     2      -5.234  17.361  72.916  1.00  0.00    -0.177 Hg 
HETATM    2  C   UNL     3      -5.882   7.603  64.476  1.00  0.00    -0.037 C  
HETATM    3  C   UNL     3      -6.784   8.168  65.582  1.00  0.00    -0.055 C  
HETATM    4  C   UNL     4      -6.888  19.026  69.686  1.00  0.00    -0.129 C  
HETATM    5  C   UNL     4      -6.717  17.526  69.965  1.00  0.00     0.485 C  
ENDROOT
BRANCH   3   6
HETATM    6  N   UNL     3      -8.200   7.719  65.503  1.00  0.00    -0.132 NA 
BRANCH   6   7
HETATM    7  C   UNL     3      -8.726   7.604  64.114  1.00  0.00     0.563 C  
HETATM    8  C   UNL     3      -9.006   8.949  63.419  1.00  0.00     0.215 C  
ENDBRANCH   6   7
BRANCH   6   9
HETATM    9  C   UNL     3      -8.426   6.445  66.232  1.00  0.00    -0.131 C  
BRANCH   9  10
HETATM   10  C   UNL     3      -7.542   6.259  67.461  1.00  0.00    -0.097 C  
BRANCH  10  11
HETATM   11  O   UNL     3      -7.613   7.343  68.305  1.00  0.00    -0.109 OA 
BRANCH  11  12
HETATM   12  C   UNL     3      -7.655   7.248  69.656  1.00  0.00    -0.099 C  
HETATM   13  O   UNL     3      -6.653   6.944  70.291  1.00  0.00    -0.045 OA 
BRANCH  12  14
HETATM   14  C   UNL     3      -8.906   7.618  70.342  1.00  0.00    -0.144 A  
HETATM   15  C   UNL     3     -11.243   8.414  71.687  1.00  0.00    -0.278 A  
HETATM   16  C   UNL     3     -10.753   7.110  71.839  1.00  0.00    -0.243 A  
HETATM   17  C   UNL     3      -9.590   6.710  71.171  1.00  0.00    -0.177 A  
HETATM   18  N   UNL     3     -12.425   8.826  72.362  1.00  0.00    -0.376 NA 
HETATM   19  C   UNL     3     -10.559   9.320  70.868  1.00  0.00    -0.366 A  
HETATM   20  C   UNL     3      -9.404   8.925  70.200  1.00  0.00    -0.197 A  
HETATM   21  H1  UNL     3     -12.781   9.775  72.252  1.00  0.00     0.000 HD 
HETATM   22  H2  UNL     3     -12.302   8.645  73.359  1.00  0.00     0.000 HD 
ENDBRANCH  12  14
ENDBRANCH  11  12
ENDBRANCH  10  11
ENDBRANCH   9  10
ENDBRANCH   6   9
ENDBRANCH   3   6
BRANCH   5  23
HETATM   23  C   UNL     4      -7.987  16.927  70.670  1.00  0.00     4.058 C  
BRANCH  23  24
HETATM   24  N   UNL     4      -9.282  17.025  69.963  1.00  0.00     1.228 NA 
HETATM   25  H   UNL     4      -9.702  17.947  69.845  1.00  0.00     0.000 HD 
BRANCH  24  26
HETATM   26  C   UNL     4      -9.919  15.979  69.479  1.00  0.00    -0.255 C  
HETATM   27  H   UNL     4     -10.970  14.339  69.976  1.00  0.00     0.000 HD 
HETATM   28  O   UNL     4     -10.510  15.093  70.326  1.00  0.00    -0.227 OA 
BRANCH  26  29
HETATM   29  C   UNL     4     -10.096  15.674  67.991  1.00  0.00    -0.224 A  
HETATM   30  C   UNL     4     -10.134  14.389  67.354  1.00  0.00    -0.243 A  
HETATM   31  C   UNL     4     -10.225  16.814  67.137  1.00  0.00    -0.295 A  
HETATM   32  C   UNL     4     -10.365  16.691  65.751  1.00  0.00    -0.338 A  
HETATM   33  C   UNL     4     -10.363  15.441  65.160  1.00  0.00    -0.405 A  
HETATM   34  C   UNL     4     -10.257  14.299  65.948  1.00  0.00    -0.338 A  
BRANCH  30  35
HETATM   35  O   UNL     4     -10.092  13.210  68.024  1.00  0.00    -0.219 OA 
BRANCH  35  36
HETATM   36  C   UNL     4      -9.470  12.066  67.566  1.00  0.00    -0.178 C  
HETATM   37  C   UNL     4     -10.398  11.247  66.725  1.00  0.00    -0.238 C  
HETATM   38  O   UNL     4     -10.948  11.784  65.620  1.00  0.00    -0.293 OA 
HETATM   39  O   UNL     4     -10.618  10.079  67.004  1.00  0.00    -0.240 OA 
ENDBRANCH  35  36
ENDBRANCH  30  35
ENDBRANCH  26  29
ENDBRANCH  24  26
ENDBRANCH  23  24
ENDBRANCH   5  23
BRANCH   5  40
HETATM   40  O   UNL     4      -6.487  16.831  68.727  1.00  0.00    -0.154 OA 
BRANCH  40  41
HETATM   41  C   UNL     4      -5.263  17.236  68.101  1.00  0.00    -0.121 C  
BRANCH  41  42
HETATM   42  C   UNL     4      -5.443  18.429  67.139  1.00  0.00    -0.129 C  
BRANCH  42  43
HETATM   43  O   UNL     4      -5.261  18.037  65.791  1.00  0.00    -0.167 OA 
HETATM   44  C   UNL     4      -6.211  18.703  64.974  1.00  0.00    -0.196 C  
ENDBRANCH  42  43
ENDBRANCH  41  42
ENDBRANCH  40  41
ENDBRANCH   5  40
TORSDOF 17
ENDMDL
MODEL      127
REMARK 921   NORMALIZED FREE ENERGY PREDICTED BY IDOCK:    1.45 KCAL/MOL
REMARK 922        TOTAL FREE ENERGY PREDICTED BY IDOCK:    0.04 KCAL/MOL
REMARK 923 INTER-LIGAND FREE ENERGY PREDICTED BY IDOCK:    1.76 KCAL/MOL
REMARK 924 INTRA-LIGAND FREE ENERGY PREDICTED BY IDOCK:   -1.72 KCAL/MOL
REMARK 927      BINDING AFFINITY PREDICTED BY RF-SCORE:    0.00 PKD
ROOT
HETATM    1 HG   UNL     2     -10.463   6.433  65.088  1.00  0.00     0.095 Hg 
HETATM    2  C   UNL     3     -14.406  16.464  72.207  1.00  0.00     1.351 C  
HETATM    3  C   UNL     3     -13.299  15.406  72.309  1.00  0.00    -0.450 C  
HETATM    4  C   UNL     4      -8.415   9.511  63.583  1.00  0.00    -0.197 C  
HETATM    5  C   UNL     4      -9.191   9.480  64.907  1.00  0.00    -0.223 C  
ENDROOT
BRANCH   3   6
HETATM    6  N   UNL     3     -12.211  15.752  73.263  1.00  0.00    -0.465 NA 
BRANCH   6   7
HETATM    7  C   UNL     3     -11.529  14.571  73.863  1.00  0.00     1.107 C  
HETATM    8  C   UNL     3     -11.930  13.217  73.250  1.00  0.00     3.707 C  
ENDBRANCH   6   7
BRANCH   6   9
HETATM    9  C   UNL     3     -11.203  16.660  72.659  1.00  0.00     1.071 C  
BRANCH   9  10
HETATM   10  C   UNL     3     -11.142  16.607  71.135  1.00  0.00     0.370 C  
BRANCH  10  11
HETATM   11  O   UNL     3     -10.353  15.568  70.697  1.00  0.00    -0.198 OA 
BRANCH  11  12
HETATM   12  C   UNL     3      -9.762  15.531  69.478  1.00  0.00    -0.282 C  
HETATM   13  O   UNL     3      -9.390  14.468  68.999  1.00  0.00    -0.168 OA 
BRANCH  12  14
HETATM   14  C   UNL     3      -9.675  16.784  68.707  1.00  0.00    -0.261 A  
HETATM   15  C   UNL     3      -9.488  19.228  67.329  1.00  0.00    -0.314 A  
HETATM   16  C   UNL     3     -10.580  18.376  67.108  1.00  0.00    -0.416 A  
HETATM   17  C   UNL     3     -10.676  17.160  67.792  1.00  0.00    -0.329 A  
HETATM   18  N   UNL     3      -9.384  20.465  66.636  1.00  0.00    -0.597 NA 
HETATM   19  C   UNL     3      -8.496  18.858  68.245  1.00  0.00    -0.365 A  
HETATM   20  C   UNL     3      -8.587  17.647  68.924  1.00  0.00    -0.118 A  
HETATM   21  H1  UNL     3      -8.591  21.084  66.797  1.00  0.00     0.000 HD 
HETATM   22  H2  UNL     3     -10.241  20.994  66.799  1.00  0.00     0.000 HD 
ENDBRANCH  12  14
ENDBRANCH  11  12
ENDBRANCH  10  11
ENDBRANCH   9  10
ENDBRANCH   6   9
ENDBRANCH   3   6
BRANCH   5  23
HETATM   23  C   UNL     4      -8.262   9.067  66.104  1.00  0.00    -0.115 C  
BRANCH  23  24
HETATM   24  N   UNL     4      -8.322   7.666  66.574  1.00  0.00    -0.124 NA 
HETATM   25  H   UNL     4      -8.415   6.924  65.881  1.00  0.00     0.000 HD 
BRANCH  24  26
HETATM   26  C   UNL     4      -8.260   7.330  67.846  1.00  0.00    -0.119 C  
HETATM   27  H   UNL     4      -7.839   8.008  69.691  1.00  0.00     0.000 HD 
HETATM   28  O   UNL     4      -7.884   8.251  68.774  1.00  0.00    -0.111 OA 
BRANCH  26  29
HETATM   29  C   UNL     4      -8.623   5.954  68.406  1.00  0.00    -0.113 A  
HETATM   30  C   UNL     4      -8.948   4.763  67.674  1.00  0.00    -0.110 A  
HETATM   31  C   UNL     4      -8.652   5.855  69.832  1.00  0.00    -0.129 A  
HETATM   32  C   UNL     4      -8.996   4.667  70.487  1.00  0.00    -0.155 A  
HETATM   33  C   UNL     4      -9.338   3.544  69.757  1.00  0.00    -0.244 A  
HETATM   34  C   UNL     4      -9.309   3.583  68.365  1.00  0.00    -0.228 A  
BRANCH  30  35
HETATM   35  O   UNL     4      -8.902   4.669  66.321  1.00  0.00    -0.113 OA 
BRANCH  35  36
HETATM   36  C   UNL     4      -7.900   4.041  65.609  1.00  0.00    -0.090 C  
HETATM   37  C   UNL     4      -8.322   3.780  64.198  1.00  0.00    -0.091 C  
HETATM   38  O   UNL     4      -8.688   4.807  63.408  1.00  0.00    -0.132 OA 
HETATM   39  O   UNL     4      -8.288   2.648  63.741  1.00  0.00    -0.084 OA 
ENDBRANCH  35  36
ENDBRANCH  30  35
ENDBRANCH  26  29
ENDBRANCH  24  26
ENDBRANCH  23  24
ENDBRANCH   5  23
BRANCH   5  40
HETATM   40  O   UNL     4      -9.752  10.779  65.165  1.00  0.00    -0.225 OA 
BRANCH  40  41
HETATM   41  C   UNL     4      -8.739  11.775  65.357  1.00  0.00     0.359 C  
BRANCH  41  42
HETATM   42  C   UNL     4      -9.176  13.178  64.887  1.00  0.00     1.055 C  
BRANCH  42  43
HETATM   43  O   UNL     4     -10.523  13.181  64.451  1.00  0.00    -0.393 OA 
HETATM   44  C   UNL     4     -11.145  14.391  64.848  1.00  0.00    -0.398 C  
ENDBRANCH  42  43
ENDBRANCH  41  42
ENDBRANCH  40  41
ENDBRANCH   5  40
TORSDOF 17
ENDMDL
MODEL      128
REMARK 921   NORMALIZED FREE ENERGY PREDICTED BY IDOCK:    2.06 KCAL/MOL
REMARK 922        TOTAL FREE ENERGY PREDICTED BY IDOCK:    1.25 KCAL/MOL
REMARK 923 INTER-LIGAND FREE ENERGY PREDICTED BY IDOCK:    2.44 KCAL/MOL
REMARK 924 INTRA-LIGAND FREE ENERGY PREDICTED BY IDOCK:   -1.19 KCAL/MOL
REMARK 927      BINDING AFFINITY PREDICTED BY RF-SCORE:    0.00 PKD
ROOT
HETATM    1 HG   UNL     2      -8.610  18.741  68.036  1.00  0.00    -0.253 Hg 
HETATM    2  C   UNL     3      -7.827   5.856  67.546  1.00  0.00    -0.098 C  
HETATM    3  C   UNL     3      -8.559   6.885  68.418  1.00  0.00    -0.125 C  
HETATM    4  C   UNL     4     -11.512  17.723  65.491  1.00  0.00     1.605 C  
HETATM    5  C   UNL     4     -10.749  16.788  66.440  1.00  0.00    -0.105 C  
ENDROOT
BRANCH   3   6
HETATM    6  N   UNL     3      -9.691   6.323  69.204  1.00  0.00    -0.134 NA 
BRANCH   6   7
HETATM    7  C   UNL     3     -10.740   5.665  68.377  1.00  0.00    -0.156 C  
HETATM    8  C   UNL     3     -10.687   4.126  68.378  1.00  0.00     1.773 C  
ENDBRANCH   6   7
BRANCH   6   9
HETATM    9  C   UNL     3      -9.228   5.391  70.264  1.00  0.00    -0.148 C  
BRANCH   9  10
HETATM   10  C   UNL     3      -9.609   5.810  71.681  1.00  0.00    -0.153 C  
BRANCH  10  11
HETATM   11  O   UNL     3      -8.497   6.018  72.463  1.00  0.00    -0.119 OA 
BRANCH  11  12
HETATM   12  C   UNL     3      -7.263   6.274  71.969  1.00  0.00    -0.091 C  
HETATM   13  O   UNL     3      -6.514   5.357  71.656  1.00  0.00    -0.037 OA 
BRANCH  12  14
HETATM   14  C   UNL     3      -6.888   7.679  71.722  1.00  0.00    -0.061 A  
HETATM   15  C   UNL     3      -6.095  10.322  71.183  1.00  0.00     0.089 A  
HETATM   16  C   UNL     3      -6.266   9.893  72.507  1.00  0.00     0.838 A  
HETATM   17  C   UNL     3      -6.660   8.579  72.779  1.00  0.00    -0.080 A  
HETATM   18  N   UNL     3      -5.697  11.657  70.901  1.00  0.00    -0.346 NA 
HETATM   19  C   UNL     3      -6.315   9.425  70.132  1.00  0.00    -0.058 A  
HETATM   20  C   UNL     3      -6.711   8.117  70.398  1.00  0.00    -0.037 A  
HETATM   21  H1  UNL     3      -5.573  11.968  69.938  1.00  0.00     0.000 HD 
HETATM   22  H2  UNL     3      -4.834  11.847  71.411  1.00  0.00     0.000 HD 
ENDBRANCH  12  14
ENDBRANCH  11  12
ENDBRANCH  10  11
ENDBRANCH   9  10
ENDBRANCH   6   9
ENDBRANCH   3   6
BRANCH   5  23
HETATM   23  C   UNL     4     -11.496  16.635  67.814  1.00  0.00     0.198 C  
BRANCH  23  24
HETATM   24  N   UNL     4     -10.675  16.491  69.035  1.00  0.00    -0.312 NA 
HETATM   25  H   UNL     4     -10.332  17.336  69.492  1.00  0.00     0.000 HD 
BRANCH  24  26
HETATM   26  C   UNL     4     -10.365  15.325  69.562  1.00  0.00    -0.262 C  
HETATM   27  H   UNL     4     -10.827  14.023  71.023  1.00  0.00     0.000 HD 
HETATM   28  O   UNL     4     -11.050  14.865  70.643  1.00  0.00    -0.222 OA 
BRANCH  26  29
HETATM   29  C   UNL     4      -9.287  14.382  69.026  1.00  0.00    -0.028 A  
HETATM   30  C   UNL     4      -8.121  14.722  68.261  1.00  0.00    -0.139 A  
HETATM   31  C   UNL     4      -9.478  12.995  69.317  1.00  0.00     0.823 A  
HETATM   32  C   UNL     4      -8.590  12.013  68.868  1.00  0.00     0.189 A  
HETATM   33  C   UNL     4      -7.493  12.364  68.102  1.00  0.00    -0.118 A  
HETATM   34  C   UNL     4      -7.252  13.703  67.805  1.00  0.00    -0.169 A  
BRANCH  30  35
HETATM   35  O   UNL     4      -7.759  15.993  67.957  1.00  0.00    -0.129 OA 
BRANCH  35  36
HETATM   36  C   UNL     4      -7.580  16.475  66.675  1.00  0.00    -0.275 C  
HETATM   37  C   UNL     4      -6.475  17.483  66.627  1.00  0.00    -0.217 C  
HETATM   38  O   UNL     4      -5.235  17.136  67.020  1.00  0.00    -0.131 OA 
HETATM   39  O   UNL     4      -6.678  18.603  66.185  1.00  0.00    -0.203 OA 
ENDBRANCH  35  36
ENDBRANCH  30  35
ENDBRANCH  26  29
ENDBRANCH  24  26
ENDBRANCH  23  24
ENDBRANCH   5  23
BRANCH   5  40
HETATM   40  O   UNL     4     -10.607  15.495  65.828  1.00  0.00    -0.318 OA 
BRANCH  40  41
HETATM   41  C   UNL     4     -10.305  15.590  64.430  1.00  0.00     0.932 C  
BRANCH  41  42
HETATM   42  C   UNL     4     -11.540  15.371  63.530  1.00  0.00     1.423 C  
BRANCH  42  43
HETATM   43  O   UNL     4     -12.457  14.469  64.122  1.00  0.00    -0.707 OA 
HETATM   44  C   UNL     4     -12.534  13.292  63.335  1.00  0.00    -0.199 C  
ENDBRANCH  42  43
ENDBRANCH  41  42
ENDBRANCH  40  41
ENDBRANCH   5  40
TORSDOF 17
ENDMDL
MODEL      129
REMARK 921   NORMALIZED FREE ENERGY PREDICTED BY IDOCK:    4.98 KCAL/MOL
REMARK 922        TOTAL FREE ENERGY PREDICTED BY IDOCK:    7.06 KCAL/MOL
REMARK 923 INTER-LIGAND FREE ENERGY PREDICTED BY IDOCK:    6.45 KCAL/MOL
REMARK 924 INTRA-LIGAND FREE ENERGY PREDICTED BY IDOCK:    0.62 KCAL/MOL
REMARK 927      BINDING AFFINITY PREDICTED BY RF-SCORE:    0.00 PKD
ROOT
HETATM    1 HG   UNL     2      -9.675  18.386  72.220  1.00  0.00     3.505 Hg 
HETATM    2  C   UNL     3      -5.139  11.024  62.623  1.00  0.00    -0.194 C  
HETATM    3  C   UNL     3      -5.536  10.805  64.090  1.00  0.00    -0.020 C  
HETATM    4  C   UNL     4     -12.978  17.132  70.361  1.00  0.00     7.585 C  
HETATM    5  C   UNL     4     -11.557  16.576  70.190  1.00  0.00     0.184 C  
ENDROOT
BRANCH   3   6
HETATM    6  N   UNL     3      -5.761   9.380  64.454  1.00  0.00    -0.068 NA 
BRANCH   6   7
HETATM    7  C   UNL     3      -5.250   9.008  65.803  1.00  0.00    -0.040 C  
HETATM    8  C   UNL     3      -6.265   9.186  66.946  1.00  0.00    -0.062 C  
ENDBRANCH   6   7
BRANCH   6   9
HETATM    9  C   UNL     3      -7.189   8.990  64.333  1.00  0.00    -0.098 C  
BRANCH   9  10
HETATM   10  C   UNL     3      -7.472   7.527  64.661  1.00  0.00    -0.089 C  
BRANCH  10  11
HETATM   11  O   UNL     3      -8.733   7.361  65.186  1.00  0.00    -0.017 OA 
BRANCH  11  12
HETATM   12  C   UNL     3      -9.075   6.353  66.024  1.00  0.00    -0.097 C  
HETATM   13  O   UNL     3      -9.422   5.265  65.582  1.00  0.00    -0.152 OA 
BRANCH  12  14
HETATM   14  C   UNL     3      -8.919   6.569  67.474  1.00  0.00    -0.110 A  
HETATM   15  C   UNL     3      -8.676   7.075  70.229  1.00  0.00    -0.144 A  
HETATM   16  C   UNL     3      -7.551   6.704  69.479  1.00  0.00    -0.095 A  
HETATM   17  C   UNL     3      -7.669   6.451  68.108  1.00  0.00    -0.104 A  
HETATM   18  N   UNL     3      -8.564   7.332  71.623  1.00  0.00    -0.117 NA 
HETATM   19  C   UNL     3      -9.919   7.200  69.597  1.00  0.00    -0.176 A  
HETATM   20  C   UNL     3     -10.040   6.946  68.234  1.00  0.00    -0.182 A  
HETATM   21  H1  UNL     3      -9.382   7.602  72.168  1.00  0.00     0.000 HD 
HETATM   22  H2  UNL     3      -7.841   8.039  71.759  1.00  0.00     0.000 HD 
ENDBRANCH  12  14
ENDBRANCH  11  12
ENDBRANCH  10  11
ENDBRANCH   9  10
ENDBRANCH   6   9
ENDBRANCH   3   6
BRANCH   5  23
HETATM   23  C   UNL     4     -11.293  15.372  71.164  1.00  0.00    -0.378 C  
BRANCH  23  24
HETATM   24  N   UNL     4     -12.458  14.751  71.828  1.00  0.00    -0.328 NA 
HETATM   25  H   UNL     4     -13.236  15.349  72.105  1.00  0.00     0.000 HD 
BRANCH  24  26
HETATM   26  C   UNL     4     -12.541  13.461  72.079  1.00  0.00    -0.023 C  
HETATM   27  H   UNL     4     -12.996  12.102  73.489  1.00  0.00     0.000 HD 
HETATM   28  O   UNL     4     -12.937  13.033  73.308  1.00  0.00     0.458 OA 
BRANCH  26  29
HETATM   29  C   UNL     4     -12.256  12.352  71.065  1.00  0.00    -0.201 A  
HETATM   30  C   UNL     4     -11.506  12.446  69.845  1.00  0.00    -0.097 A  
HETATM   31  C   UNL     4     -12.820  11.074  71.371  1.00  0.00    -0.548 A  
HETATM   32  C   UNL     4     -12.668   9.973  70.523  1.00  0.00    -0.199 A  
HETATM   33  C   UNL     4     -11.969  10.100  69.336  1.00  0.00     0.044 A  
HETATM   34  C   UNL     4     -11.386  11.319  68.999  1.00  0.00    -0.344 A  
BRANCH  30  35
HETATM   35  O   UNL     4     -10.853  13.565  69.442  1.00  0.00    -0.133 OA 
BRANCH  35  36
HETATM   36  C   UNL     4      -9.553  13.592  68.976  1.00  0.00     0.266 C  
HETATM   37  C   UNL     4      -9.497  13.261  67.518  1.00  0.00    -0.220 C  
HETATM   38  O   UNL     4     -10.176  14.014  66.633  1.00  0.00    -0.265 OA 
HETATM   39  O   UNL     4      -8.796  12.344  67.118  1.00  0.00    -0.183 OA 
ENDBRANCH  35  36
ENDBRANCH  30  35
ENDBRANCH  26  29
ENDBRANCH  24  26
ENDBRANCH  23  24
ENDBRANCH   5  23
BRANCH   5  40
HETATM   40  O   UNL     4     -11.373  16.140  68.833  1.00  0.00    -0.341 OA 
BRANCH  40  41
HETATM   41  C   UNL     4     -10.324  16.860  68.173  1.00  0.00    -0.336 C  
BRANCH  41  42
HETATM   42  C   UNL     4      -9.295  17.463  69.154  1.00  0.00    -0.009 C  
BRANCH  42  43
HETATM   43  O   UNL     4      -8.100  16.704  69.179  1.00  0.00    -0.226 OA 
HETATM   44  C   UNL     4      -7.021  17.539  69.566  1.00  0.00     0.000 C  
ENDBRANCH  42  43
ENDBRANCH  41  42
ENDBRANCH  40  41
ENDBRANCH   5  40
TORSDOF 17
ENDMDL
MODEL      130
REMARK 921   NORMALIZED FREE ENERGY PREDICTED BY IDOCK:    6.18 KCAL/MOL
REMARK 922        TOTAL FREE ENERGY PREDICTED BY IDOCK:    9.46 KCAL/MOL
REMARK 923 INTER-LIGAND FREE ENERGY PREDICTED BY IDOCK:   -3.11 KCAL/MOL
REMARK 924 INTRA-LIGAND FREE ENERGY PREDICTED BY IDOCK:   12.57 KCAL/MOL
REMARK 927      BINDING AFFINITY PREDICTED BY RF-SCORE:    0.00 PKD
ROOT
HETATM    1 HG   UNL     2      -7.284  17.603  68.139  1.00  0.00    -0.174 Hg 
HETATM    2  C   UNL     3      -5.739   4.965  70.324  1.00  0.00    -0.016 C  
HETATM    3  C   UNL     3      -6.147   6.188  71.158  1.00  0.00    -0.035 C  
HETATM    4  C   UNL     4     -10.864  16.060  67.278  1.00  0.00    -0.255 C  
HETATM    5  C   UNL     4      -9.717  15.366  68.027  1.00  0.00    -0.207 C  
ENDROOT
BRANCH   3   6
HETATM    6  N   UNL     3      -6.829   5.853  72.437  1.00  0.00    -0.072 NA 
BRANCH   6   7
HETATM    7  C   UNL     3      -6.972   7.005  73.371  1.00  0.00    -0.073 C  
HETATM    8  C   UNL     3      -8.282   7.019  74.178  1.00  0.00    -0.162 C  
ENDBRANCH   6   7
BRANCH   6   9
HETATM    9  C   UNL     3      -8.154   5.219  72.217  1.00  0.00    -0.110 C  
BRANCH   9  10
HETATM   10  C   UNL     3      -8.195   3.725  72.526  1.00  0.00    -0.089 C  
BRANCH  10  11
HETATM   11  O   UNL     3      -7.849   2.971  71.429  1.00  0.00    -0.050 OA 
BRANCH  11  12
HETATM   12  C   UNL     3      -8.684   2.715  70.394  1.00  0.00    -0.074 C  
HETATM   13  O   UNL     3      -9.449   1.759  70.433  1.00  0.00    -0.106 OA 
BRANCH  12  14
HETATM   14  C   UNL     3      -8.721   3.671  69.273  1.00  0.00    -0.130 A  
HETATM   15  C   UNL     3      -8.683   5.515  67.151  1.00  0.00    -0.107 A  
HETATM   16  C   UNL     3      -9.677   5.595  68.137  1.00  0.00    -0.153 A  
HETATM   17  C   UNL     3      -9.698   4.680  69.194  1.00  0.00    -0.255 A  
HETATM   18  N   UNL     3      -8.657   6.442  66.074  1.00  0.00    -0.143 NA 
HETATM   19  C   UNL     3      -7.706   4.517  67.233  1.00  0.00    -0.089 A  
HETATM   20  C   UNL     3      -7.726   3.602  68.282  1.00  0.00    -0.061 A  
HETATM   21  H1  UNL     3      -7.934   6.384  65.357  1.00  0.00     0.000 HD 
HETATM   22  H2  UNL     3      -8.644   7.385  66.464  1.00  0.00     0.000 HD 
ENDBRANCH  12  14
ENDBRANCH  11  12
ENDBRANCH  10  11
ENDBRANCH   9  10
ENDBRANCH   6   9
ENDBRANCH   3   6
BRANCH   5  23
HETATM   23  C   UNL     4      -9.848  15.562  69.580  1.00  0.00    -0.278 C  
BRANCH  23  24
HETATM   24  N   UNL     4      -9.102  16.678  70.202  1.00  0.00     1.347 NA 
HETATM   25  H   UNL     4      -9.228  16.850  71.199  1.00  0.00     0.000 HD 
BRANCH  24  26
HETATM   26  C   UNL     4      -8.284  17.460  69.529  1.00  0.00     0.613 C  
HETATM   27  H   UNL     4      -7.779  19.375  69.183  1.00  0.00     0.000 HD 
HETATM   28  O   UNL     4      -8.369  18.811  69.669  1.00  0.00     0.373 OA 
BRANCH  26  29
HETATM   29  C   UNL     4      -7.177  16.971  68.594  1.00  0.00    -0.221 A  
HETATM   30  C   UNL     4      -6.502  17.712  67.567  1.00  0.00    -0.161 A  
HETATM   31  C   UNL     4      -6.785  15.607  68.761  1.00  0.00    -0.116 A  
HETATM   32  C   UNL     4      -5.806  15.012  67.958  1.00  0.00    -0.155 A  
HETATM   33  C   UNL     4      -5.195  15.739  66.953  1.00  0.00     0.666 A  
HETATM   34  C   UNL     4      -5.530  17.077  66.760  1.00  0.00    -0.193 A  
BRANCH  30  35
HETATM   35  O   UNL     4      -6.708  19.030  67.323  1.00  0.00    -0.197 OA 
BRANCH  35  36
HETATM   36  C   UNL     4      -7.475  19.529  66.289  1.00  0.00    -0.280 C  
HETATM   37  C   UNL     4      -6.617  19.977  65.148  1.00  0.00    -0.295 C  
HETATM   38  O   UNL     4      -5.791  19.100  64.547  1.00  0.00    -0.259 OA 
HETATM   39  O   UNL     4      -6.699  21.119  64.724  1.00  0.00    -0.076 OA 
ENDBRANCH  35  36
ENDBRANCH  30  35
ENDBRANCH  26  29
ENDBRANCH  24  26
ENDBRANCH  23  24
ENDBRANCH   5  23
BRANCH   5  40
HETATM   40  O   UNL     4      -9.726  13.961  67.722  1.00  0.00    -0.215 OA 
BRANCH  40  41
HETATM   41  C   UNL     4     -10.850  13.289  68.304  1.00  0.00    -0.256 C  
BRANCH  41  42
HETATM   42  C   UNL     4     -10.878  11.778  67.993  1.00  0.00    -0.213 C  
BRANCH  42  43
HETATM   43  O   UNL     4     -11.936  11.130  68.674  1.00  0.00    -0.487 OA 
HETATM   44  C   UNL     4     -11.651  11.093  70.062  1.00  0.00    -0.338 C  
ENDBRANCH  42  43
ENDBRANCH  41  42
ENDBRANCH  40  41
ENDBRANCH   5  40
TORSDOF 17
ENDMDL
MODEL      131
REMARK 921   NORMALIZED FREE ENERGY PREDICTED BY IDOCK:    6.39 KCAL/MOL
REMARK 922        TOTAL FREE ENERGY PREDICTED BY IDOCK:    9.88 KCAL/MOL
REMARK 923 INTER-LIGAND FREE ENERGY PREDICTED BY IDOCK:    8.74 KCAL/MOL
REMARK 924 INTRA-LIGAND FREE ENERGY PREDICTED BY IDOCK:    1.14 KCAL/MOL
REMARK 927      BINDING AFFINITY PREDICTED BY RF-SCORE:    0.00 PKD
ROOT
HETATM    1 HG   UNL     2      -9.675  18.387  72.221  1.00  0.00     3.505 Hg 
HETATM    2  C   UNL     3      -5.167  11.093  62.559  1.00  0.00    -0.162 C  
HETATM    3  C   UNL     3      -5.569  10.861  64.022  1.00  0.00     0.176 C  
HETATM    4  C   UNL     4     -12.982  17.177  70.340  1.00  0.00     7.585 C  
HETATM    5  C   UNL     4     -11.565  16.613  70.166  1.00  0.00     0.395 C  
ENDROOT
BRANCH   3   6
HETATM    6  N   UNL     3      -5.806   9.434  64.371  1.00  0.00    -0.070 NA 
BRANCH   6   7
HETATM    7  C   UNL     3      -5.302   9.044  65.717  1.00  0.00    -0.040 C  
HETATM    8  C   UNL     3      -6.320   9.217  66.859  1.00  0.00    -0.063 C  
ENDBRANCH   6   7
BRANCH   6   9
HETATM    9  C   UNL     3      -7.237   9.057  64.241  1.00  0.00    -0.091 C  
BRANCH   9  10
HETATM   10  C   UNL     3      -7.532   7.592  64.553  1.00  0.00    -0.094 C  
BRANCH  10  11
HETATM   11  O   UNL     3      -8.795   7.430  65.072  1.00  0.00     0.117 OA 
BRANCH  11  12
HETATM   12  C   UNL     3      -9.148   6.416  65.899  1.00  0.00    -0.051 C  
HETATM   13  O   UNL     3      -9.153   6.576  67.113  1.00  0.00    -0.118 OA 
BRANCH  12  14
HETATM   14  C   UNL     3      -9.620   5.157  65.296  1.00  0.00     0.038 A  
HETATM   15  C   UNL     3     -10.433   2.755  64.082  1.00  0.00     0.036 A  
HETATM   16  C   UNL     3     -11.340   3.816  64.223  1.00  0.00     0.616 A  
HETATM   17  C   UNL     3     -10.938   5.012  64.826  1.00  0.00     0.896 A  
HETATM   18  N   UNL     3     -10.836   1.536  63.471  1.00  0.00    -0.340 NA 
HETATM   19  C   UNL     3      -9.120   2.902  64.543  1.00  0.00    -0.127 A  
HETATM   20  C   UNL     3      -8.718   4.089  65.147  1.00  0.00    -0.120 A  
HETATM   21  H1  UNL     3     -10.176   0.765  63.368  1.00  0.00     0.000 HD 
HETATM   22  H2  UNL     3     -11.220   1.753  62.550  1.00  0.00     0.000 HD 
ENDBRANCH  12  14
ENDBRANCH  11  12
ENDBRANCH  10  11
ENDBRANCH   9  10
ENDBRANCH   6   9
ENDBRANCH   3   6
BRANCH   5  23
HETATM   23  C   UNL     4     -11.312  15.397  71.128  1.00  0.00    -0.378 C  
BRANCH  23  24
HETATM   24  N   UNL     4     -12.485  14.776  71.782  1.00  0.00    -0.328 NA 
HETATM   25  H   UNL     4     -13.259  15.378  72.062  1.00  0.00     0.000 HD 
BRANCH  24  26
HETATM   26  C   UNL     4     -12.577  13.485  72.019  1.00  0.00    -0.064 C  
HETATM   27  H   UNL     4     -13.048  12.114  73.413  1.00  0.00     0.000 HD 
HETATM   28  O   UNL     4     -12.981  13.047  73.242  1.00  0.00     0.458 OA 
BRANCH  26  29
HETATM   29  C   UNL     4     -12.295  12.385  70.995  1.00  0.00    -0.309 A  
HETATM   30  C   UNL     4     -11.539  12.486  69.779  1.00  0.00    -0.221 A  
HETATM   31  C   UNL     4     -12.869  11.108  71.285  1.00  0.00    -0.515 A  
HETATM   32  C   UNL     4     -12.721  10.014  70.426  1.00  0.00    -0.111 A  
HETATM   33  C   UNL     4     -12.017  10.149  69.244  1.00  0.00     0.097 A  
HETATM   34  C   UNL     4     -11.424  11.367  68.922  1.00  0.00    -0.363 A  
BRANCH  30  35
HETATM   35  O   UNL     4     -10.876  13.604  69.391  1.00  0.00    -0.148 OA 
BRANCH  35  36
HETATM   36  C   UNL     4      -9.575  13.627  68.930  1.00  0.00     0.100 C  
HETATM   37  C   UNL     4      -9.514  13.310  67.469  1.00  0.00    -0.220 C  
HETATM   38  O   UNL     4     -10.184  14.078  66.589  1.00  0.00    -0.265 OA 
HETATM   39  O   UNL     4      -8.818  12.393  67.063  1.00  0.00    -0.198 OA 
ENDBRANCH  35  36
ENDBRANCH  30  35
ENDBRANCH  26  29
ENDBRANCH  24  26
ENDBRANCH  23  24
ENDBRANCH   5  23
BRANCH   5  40
HETATM   40  O   UNL     4     -11.379  16.190  68.805  1.00  0.00    -0.346 OA 
BRANCH  40  41
HETATM   41  C   UNL     4     -10.323  16.909  68.156  1.00  0.00    -0.336 C  
BRANCH  41  42
HETATM   42  C   UNL     4      -9.293  17.492  69.146  1.00  0.00     0.015 C  
BRANCH  42  43
HETATM   43  O   UNL     4      -8.104  16.725  69.167  1.00  0.00    -0.214 OA 
HETATM   44  C   UNL     4      -7.019  17.546  69.566  1.00  0.00     0.000 C  
ENDBRANCH  42  43
ENDBRANCH  41  42
ENDBRANCH  40  41
ENDBRANCH   5  40
TORSDOF 17
ENDMDL
MODEL      132
REMARK 921   NORMALIZED FREE ENERGY PREDICTED BY IDOCK:    7.65 KCAL/MOL
REMARK 922        TOTAL FREE ENERGY PREDICTED BY IDOCK:   12.39 KCAL/MOL
REMARK 923 INTER-LIGAND FREE ENERGY PREDICTED BY IDOCK:    9.78 KCAL/MOL
REMARK 924 INTRA-LIGAND FREE ENERGY PREDICTED BY IDOCK:    2.61 KCAL/MOL
REMARK 927      BINDING AFFINITY PREDICTED BY RF-SCORE:    0.00 PKD
ROOT
HETATM    1 HG   UNL     2      -6.518   3.924  68.101  1.00  0.00    -0.030 Hg 
HETATM    2  C   UNL     3      -5.143  15.915  72.705  1.00  0.00     1.082 C  
HETATM    3  C   UNL     3      -5.763  15.277  71.454  1.00  0.00     0.259 C  
HETATM    4  C   UNL     4      -9.768   4.437  70.363  1.00  0.00    -0.284 C  
HETATM    5  C   UNL     4      -8.799   5.526  69.881  1.00  0.00    -0.127 C  
ENDROOT
BRANCH   3   6
HETATM    6  N   UNL     3      -6.705  16.165  70.720  1.00  0.00     1.133 NA 
BRANCH   6   7
HETATM    7  C   UNL     3      -7.136  15.634  69.396  1.00  0.00    -0.198 C  
HETATM    8  C   UNL     3      -6.269  14.484  68.852  1.00  0.00    -0.087 C  
ENDBRANCH   6   7
BRANCH   6   9
HETATM    9  C   UNL     3      -7.897  16.513  71.534  1.00  0.00     7.640 C  
BRANCH   9  10
HETATM   10  C   UNL     3      -9.231  16.239  70.846  1.00  0.00     3.401 C  
BRANCH  10  11
HETATM   11  O   UNL     3      -9.146  16.426  69.486  1.00  0.00    -0.113 OA 
BRANCH  11  12
HETATM   12  C   UNL     3     -10.215  16.667  68.689  1.00  0.00    -0.284 C  
HETATM   13  O   UNL     3     -11.269  16.069  68.862  1.00  0.00    -0.308 OA 
BRANCH  12  14
HETATM   14  C   UNL     3     -10.105  17.737  67.680  1.00  0.00    -0.342 A  
HETATM   15  C   UNL     3      -9.813  19.819  65.814  1.00  0.00    -0.208 A  
HETATM   16  C   UNL     3     -11.078  19.513  66.336  1.00  0.00    -0.133 A  
HETATM   17  C   UNL     3     -11.227  18.478  67.265  1.00  0.00     0.281 A  
HETATM   18  N   UNL     3      -9.656  20.869  64.869  1.00  0.00     0.849 NA 
HETATM   19  C   UNL     3      -8.696  19.087  66.232  1.00  0.00    -0.281 A  
HETATM   20  C   UNL     3      -8.841  18.054  67.154  1.00  0.00    -0.249 A  
HETATM   21  H1  UNL     3      -8.736  21.092  64.489  1.00  0.00     0.000 HD 
HETATM   22  H2  UNL     3     -10.051  21.721  65.269  1.00  0.00     0.000 HD 
ENDBRANCH  12  14
ENDBRANCH  11  12
ENDBRANCH  10  11
ENDBRANCH   9  10
ENDBRANCH   6   9
ENDBRANCH   3   6
BRANCH   5  23
HETATM   23  C   UNL     4      -9.280   6.161  68.527  1.00  0.00    -0.115 C  
BRANCH  23  24
HETATM   24  N   UNL     4      -9.915   7.495  68.575  1.00  0.00    -0.163 NA 
HETATM   25  H   UNL     4     -10.903   7.555  68.822  1.00  0.00     0.000 HD 
BRANCH  24  26
HETATM   26  C   UNL     4      -9.267   8.611  68.315  1.00  0.00    -0.137 C  
HETATM   27  H   UNL     4      -9.268  10.601  68.602  1.00  0.00     0.000 HD 
HETATM   28  O   UNL     4      -9.737   9.796  68.790  1.00  0.00    -0.154 OA 
BRANCH  26  29
HETATM   29  C   UNL     4      -7.960   8.699  67.525  1.00  0.00    -0.106 A  
HETATM   30  C   UNL     4      -7.725   9.381  66.285  1.00  0.00    -0.097 A  
HETATM   31  C   UNL     4      -6.847   8.004  68.092  1.00  0.00    -0.069 A  
HETATM   32  C   UNL     4      -5.595   7.971  67.468  1.00  0.00    -0.038 A  
HETATM   33  C   UNL     4      -5.406   8.608  66.256  1.00  0.00    -0.031 A  
HETATM   34  C   UNL     4      -6.454   9.314  65.669  1.00  0.00    -0.068 A  
BRANCH  30  35
HETATM   35  O   UNL     4      -8.653  10.141  65.650  1.00  0.00    -0.144 OA 
BRANCH  35  36
HETATM   36  C   UNL     4      -9.534   9.672  64.695  1.00  0.00    -0.152 C  
HETATM   37  C   UNL     4      -9.117  10.097  63.322  1.00  0.00    -0.271 C  
HETATM   38  O   UNL     4      -7.907   9.742  62.851  1.00  0.00    -0.122 OA 
HETATM   39  O   UNL     4      -9.887  10.717  62.606  1.00  0.00    -0.255 OA 
ENDBRANCH  35  36
ENDBRANCH  30  35
ENDBRANCH  26  29
ENDBRANCH  24  26
ENDBRANCH  23  24
ENDBRANCH   5  23
BRANCH   5  40
HETATM   40  O   UNL     4      -8.699   6.555  70.880  1.00  0.00    -0.134 OA 
BRANCH  40  41
HETATM   41  C   UNL     4      -7.389   7.134  70.928  1.00  0.00    -0.075 C  
BRANCH  41  42
HETATM   42  C   UNL     4      -6.269   6.081  71.069  1.00  0.00    -0.039 C  
BRANCH  42  43
HETATM   43  O   UNL     4      -6.799   4.771  71.152  1.00  0.00    -0.036 OA 
HETATM   44  C   UNL     4      -5.745   3.829  71.042  1.00  0.00    -0.013 C  
ENDBRANCH  42  43
ENDBRANCH  41  42
ENDBRANCH  40  41
ENDBRANCH   5  40
TORSDOF 17
ENDMDL
MODEL      133
REMARK 921   NORMALIZED FREE ENERGY PREDICTED BY IDOCK:    9.25 KCAL/MOL
REMARK 922        TOTAL FREE ENERGY PREDICTED BY IDOCK:   15.57 KCAL/MOL
REMARK 923 INTER-LIGAND FREE ENERGY PREDICTED BY IDOCK:   12.28 KCAL/MOL
REMARK 924 INTRA-LIGAND FREE ENERGY PREDICTED BY IDOCK:    3.29 KCAL/MOL
REMARK 927      BINDING AFFINITY PREDICTED BY RF-SCORE:    0.00 PKD
ROOT
HETATM    1 HG   UNL     2      -8.543  19.014  73.326  1.00  0.00     2.634 Hg 
HETATM    2  C   UNL     3      -5.167  10.852  63.900  1.00  0.00    -0.013 C  
HETATM    3  C   UNL     3      -5.657  10.723  65.349  1.00  0.00    -0.120 C  
HETATM    4  C   UNL     4     -11.952  18.425  71.332  1.00  0.00     8.542 C  
HETATM    5  C   UNL     4     -10.662  17.600  71.217  1.00  0.00     2.358 C  
ENDROOT
BRANCH   3   6
HETATM    6  N   UNL     3      -6.173   9.372  65.700  1.00  0.00    -0.063 NA 
BRANCH   6   7
HETATM    7  C   UNL     3      -5.506   8.752  66.878  1.00  0.00    -0.040 C  
HETATM    8  C   UNL     3      -5.954   7.312  67.186  1.00  0.00    -0.041 C  
ENDBRANCH   6   7
BRANCH   6   9
HETATM    9  C   UNL     3      -7.646   9.369  65.897  1.00  0.00    -0.099 C  
BRANCH   9  10
HETATM   10  C   UNL     3      -8.263   7.978  66.009  1.00  0.00    -0.120 C  
BRANCH  10  11
HETATM   11  O   UNL     3      -9.562   8.036  66.457  1.00  0.00    -0.207 OA 
BRANCH  11  12
HETATM   12  C   UNL     3      -9.905   8.231  67.753  1.00  0.00    -0.170 C  
HETATM   13  O   UNL     3     -10.238   9.341  68.149  1.00  0.00    -0.186 OA 
BRANCH  12  14
HETATM   14  C   UNL     3      -9.967   7.058  68.643  1.00  0.00    -0.156 A  
HETATM   15  C   UNL     3     -10.131   4.763  70.259  1.00  0.00    -0.234 A  
HETATM   16  C   UNL     3     -10.584   5.998  70.742  1.00  0.00    -0.316 A  
HETATM   17  C   UNL     3     -10.504   7.142  69.941  1.00  0.00    -0.237 A  
HETATM   18  N   UNL     3     -10.208   3.597  71.069  1.00  0.00     0.146 NA 
HETATM   19  C   UNL     3      -9.603   4.677  68.965  1.00  0.00    -0.242 A  
HETATM   20  C   UNL     3      -9.519   5.813  68.166  1.00  0.00    -0.120 A  
HETATM   21  H1  UNL     3      -9.879   2.698  70.717  1.00  0.00     0.000 HD 
HETATM   22  H2  UNL     3     -11.175   3.485  71.375  1.00  0.00     0.000 HD 
ENDBRANCH  12  14
ENDBRANCH  11  12
ENDBRANCH  10  11
ENDBRANCH   9  10
ENDBRANCH   6   9
ENDBRANCH   3   6
BRANCH   5  23
HETATM   23  C   UNL     4     -10.680  16.373  72.197  1.00  0.00     2.208 C  
BRANCH  23  24
HETATM   24  N   UNL     4     -11.967  16.008  72.827  1.00  0.00    -0.492 NA 
HETATM   25  H   UNL     4     -12.526  16.747  73.253  1.00  0.00     0.000 HD 
BRANCH  24  26
HETATM   26  C   UNL     4     -12.427  14.775  72.864  1.00  0.00    -0.337 C  
HETATM   27  H   UNL     4     -13.345  13.413  74.025  1.00  0.00     0.000 HD 
HETATM   28  O   UNL     4     -13.013  14.303  73.998  1.00  0.00    -0.030 OA 
BRANCH  26  29
HETATM   29  C   UNL     4     -12.396  13.794  71.692  1.00  0.00    -0.223 A  
HETATM   30  C   UNL     4     -11.579  13.855  70.514  1.00  0.00    -0.062 A  
HETATM   31  C   UNL     4     -13.304  12.693  71.782  1.00  0.00    -0.405 A  
HETATM   32  C   UNL     4     -13.409  11.731  70.772  1.00  0.00     0.614 A  
HETATM   33  C   UNL     4     -12.633  11.834  69.632  1.00  0.00     0.146 A  
HETATM   34  C   UNL     4     -11.721  12.878  69.502  1.00  0.00    -0.387 A  
BRANCH  30  35
HETATM   35  O   UNL     4     -10.622  14.794  70.304  1.00  0.00    -0.066 OA 
BRANCH  35  36
HETATM   36  C   UNL     4      -9.270  14.532  70.210  1.00  0.00     1.459 C  
HETATM   37  C   UNL     4      -8.865  14.281  68.792  1.00  0.00    -0.094 C  
HETATM   38  O   UNL     4      -9.079  15.226  67.858  1.00  0.00    -0.173 OA 
HETATM   39  O   UNL     4      -8.294  13.246  68.485  1.00  0.00    -0.148 OA 
ENDBRANCH  35  36
ENDBRANCH  30  35
ENDBRANCH  26  29
ENDBRANCH  24  26
ENDBRANCH  23  24
ENDBRANCH   5  23
BRANCH   5  40
HETATM   40  O   UNL     4     -10.513  17.129  69.867  1.00  0.00    -0.097 OA 
BRANCH  40  41
HETATM   41  C   UNL     4      -9.521  17.868  69.144  1.00  0.00     0.004 C  
BRANCH  41  42
HETATM   42  C   UNL     4     -10.085  18.574  67.893  1.00  0.00    -0.369 C  
BRANCH  42  43
HETATM   43  O   UNL     4      -9.149  19.484  67.347  1.00  0.00    -0.295 OA 
HETATM   44  C   UNL     4      -8.272  18.792  66.475  1.00  0.00    -0.291 C  
ENDBRANCH  42  43
ENDBRANCH  41  42
ENDBRANCH  40  41
ENDBRANCH   5  40
TORSDOF 17
ENDMDL
MODEL      134
REMARK 921   NORMALIZED FREE ENERGY PREDICTED BY IDOCK:    9.68 KCAL/MOL
REMARK 922        TOTAL FREE ENERGY PREDICTED BY IDOCK:   16.43 KCAL/MOL
REMARK 923 INTER-LIGAND FREE ENERGY PREDICTED BY IDOCK:    2.55 KCAL/MOL
REMARK 924 INTRA-LIGAND FREE ENERGY PREDICTED BY IDOCK:   13.88 KCAL/MOL
REMARK 927      BINDING AFFINITY PREDICTED BY RF-SCORE:    0.00 PKD
ROOT
HETATM    1 HG   UNL     2      -9.604  17.491  69.978  1.00  0.00     0.105 Hg 
HETATM    2  C   UNL     3     -10.394   5.430  74.536  1.00  0.00    -0.272 C  
HETATM    3  C   UNL     3     -11.165   6.277  73.515  1.00  0.00     0.197 C  
HETATM    4  C   UNL     4      -7.197  15.417  67.560  1.00  0.00    -0.224 C  
HETATM    5  C   UNL     4      -8.229  14.847  68.544  1.00  0.00    -0.153 C  
ENDROOT
BRANCH   3   6
HETATM    6  N   UNL     3     -12.013   5.485  72.583  1.00  0.00    -0.159 NA 
BRANCH   6   7
HETATM    7  C   UNL     3     -11.585   5.558  71.158  1.00  0.00     0.501 C  
HETATM    8  C   UNL     3     -12.426   6.504  70.282  1.00  0.00     0.467 C  
ENDBRANCH   6   7
BRANCH   6   9
HETATM    9  C   UNL     3     -12.129   4.064  73.000  1.00  0.00     0.568 C  
BRANCH   9  10
HETATM   10  C   UNL     3     -11.008   3.165  72.487  1.00  0.00     0.341 C  
BRANCH  10  11
HETATM   11  O   UNL     3      -9.774   3.607  72.903  1.00  0.00    -0.125 OA 
BRANCH  11  12
HETATM   12  C   UNL     3      -8.605   3.230  72.331  1.00  0.00    -0.083 C  
HETATM   13  O   UNL     3      -7.894   2.387  72.863  1.00  0.00    -0.048 OA 
BRANCH  12  14
HETATM   14  C   UNL     3      -8.265   3.785  71.008  1.00  0.00    -0.077 A  
HETATM   15  C   UNL     3      -7.724   4.842  68.460  1.00  0.00    -0.078 A  
HETATM   16  C   UNL     3      -6.998   3.741  68.934  1.00  0.00    -0.046 A  
HETATM   17  C   UNL     3      -7.265   3.212  70.202  1.00  0.00    -0.041 A  
HETATM   18  N   UNL     3      -7.457   5.384  67.173  1.00  0.00    -0.083 NA 
HETATM   19  C   UNL     3      -8.725   5.408  69.259  1.00  0.00    -0.105 A  
HETATM   20  C   UNL     3      -8.991   4.887  70.521  1.00  0.00    -0.159 A  
HETATM   21  H1  UNL     3      -7.985   6.185  66.828  1.00  0.00     0.000 HD 
HETATM   22  H2  UNL     3      -7.533   4.632  66.488  1.00  0.00     0.000 HD 
ENDBRANCH  12  14
ENDBRANCH  11  12
ENDBRANCH  10  11
ENDBRANCH   9  10
ENDBRANCH   6   9
ENDBRANCH   3   6
BRANCH   5  23
HETATM   23  C   UNL     4      -9.617  14.615  67.847  1.00  0.00    -0.212 C  
BRANCH  23  24
HETATM   24  N   UNL     4     -10.004  15.533  66.753  1.00  0.00    -0.243 NA 
HETATM   25  H   UNL     4     -10.834  15.310  66.204  1.00  0.00     0.000 HD 
BRANCH  24  26
HETATM   26  C   UNL     4      -9.328  16.623  66.455  1.00  0.00    -0.265 C  
HETATM   27  H   UNL     4      -8.684  17.776  64.940  1.00  0.00     0.000 HD 
HETATM   28  O   UNL     4      -9.171  16.989  65.155  1.00  0.00     0.472 OA 
BRANCH  26  29
HETATM   29  C   UNL     4      -8.708  17.575  67.479  1.00  0.00    -0.225 A  
HETATM   30  C   UNL     4      -9.273  18.781  68.014  1.00  0.00    -0.302 A  
HETATM   31  C   UNL     4      -7.403  17.221  67.942  1.00  0.00    -0.189 A  
HETATM   32  C   UNL     4      -6.699  18.011  68.856  1.00  0.00    -0.245 A  
HETATM   33  C   UNL     4      -7.253  19.186  69.330  1.00  0.00    -0.283 A  
HETATM   34  C   UNL     4      -8.528  19.569  68.922  1.00  0.00    -0.291 A  
BRANCH  30  35
HETATM   35  O   UNL     4     -10.524  19.223  67.730  1.00  0.00    -0.404 OA 
BRANCH  35  36
HETATM   36  C   UNL     4     -11.642  18.418  67.644  1.00  0.00     1.314 C  
HETATM   37  C   UNL     4     -11.635  17.369  68.711  1.00  0.00     1.212 C  
HETATM   38  O   UNL     4     -11.594  17.732  70.006  1.00  0.00     2.300 OA 
HETATM   39  O   UNL     4     -11.720  16.187  68.417  1.00  0.00    -0.320 OA 
ENDBRANCH  35  36
ENDBRANCH  30  35
ENDBRANCH  26  29
ENDBRANCH  24  26
ENDBRANCH  23  24
ENDBRANCH   5  23
BRANCH   5  40
HETATM   40  O   UNL     4      -7.748  13.600  69.074  1.00  0.00    -0.048 OA 
BRANCH  40  41
HETATM   41  C   UNL     4      -8.698  12.541  68.908  1.00  0.00     0.320 C  
BRANCH  41  42
HETATM   42  C   UNL     4      -9.013  12.240  67.427  1.00  0.00    -0.183 C  
BRANCH  42  43
HETATM   43  O   UNL     4     -10.191  11.466  67.296  1.00  0.00    -0.193 OA 
HETATM   44  C   UNL     4     -10.596  11.004  68.574  1.00  0.00    -0.190 C  
ENDBRANCH  42  43
ENDBRANCH  41  42
ENDBRANCH  40  41
ENDBRANCH   5  40
TORSDOF 17
ENDMDL
MODEL      135
REMARK 921   NORMALIZED FREE ENERGY PREDICTED BY IDOCK:   11.39 KCAL/MOL
REMARK 922        TOTAL FREE ENERGY PREDICTED BY IDOCK:   19.84 KCAL/MOL
REMARK 923 INTER-LIGAND FREE ENERGY PREDICTED BY IDOCK:   20.63 KCAL/MOL
REMARK 924 INTRA-LIGAND FREE ENERGY PREDICTED BY IDOCK:   -0.79 KCAL/MOL
REMARK 927      BINDING AFFINITY PREDICTED BY RF-SCORE:    0.00 PKD
ROOT
HETATM    1 HG   UNL     2      -5.184  17.406  73.349  1.00  0.00     0.747 Hg 
HETATM    2  C   UNL     3      -7.601  11.058  62.361  1.00  0.00    -0.067 C  
HETATM    3  C   UNL     3      -8.241  11.137  63.754  1.00  0.00     0.490 C  
HETATM    4  C   UNL     4      -7.523  19.919  71.312  1.00  0.00     1.424 C  
HETATM    5  C   UNL     4      -7.283  18.433  71.009  1.00  0.00     3.682 C  
ENDROOT
BRANCH   3   6
HETATM    6  N   UNL     3      -9.637  10.625  63.814  1.00  0.00    -0.280 NA 
BRANCH   6   7
HETATM    7  C   UNL     3     -10.471  10.991  62.636  1.00  0.00     0.424 C  
HETATM    8  C   UNL     3     -11.737  11.800  62.972  1.00  0.00     0.011 C  
ENDBRANCH   6   7
BRANCH   6   9
HETATM    9  C   UNL     3      -9.685   9.155  64.027  1.00  0.00     1.375 C  
BRANCH   9  10
HETATM   10  C   UNL     3      -8.465   8.583  64.741  1.00  0.00    -0.127 C  
BRANCH  10  11
HETATM   11  O   UNL     3      -8.165   9.293  65.880  1.00  0.00    -0.111 OA 
BRANCH  11  12
HETATM   12  C   UNL     3      -7.792   8.721  67.050  1.00  0.00    -0.095 C  
HETATM   13  O   UNL     3      -6.624   8.756  67.416  1.00  0.00    -0.057 OA 
BRANCH  12  14
HETATM   14  C   UNL     3      -8.842   8.152  67.914  1.00  0.00    -0.131 A  
HETATM   15  C   UNL     3     -10.836   7.154  69.626  1.00  0.00    -0.234 A  
HETATM   16  C   UNL     3      -9.766   6.336  69.239  1.00  0.00    -0.157 A  
HETATM   17  C   UNL     3      -8.772   6.829  68.387  1.00  0.00    -0.123 A  
HETATM   18  N   UNL     3     -11.851   6.658  70.490  1.00  0.00    -0.447 NA 
HETATM   19  C   UNL     3     -10.903   8.473  69.161  1.00  0.00    -0.049 A  
HETATM   20  C   UNL     3      -9.917   8.966  68.311  1.00  0.00    -0.201 A  
HETATM   21  H1  UNL     3     -12.629   7.253  70.771  1.00  0.00     0.000 HD 
HETATM   22  H2  UNL     3     -11.403   6.298  71.333  1.00  0.00     0.000 HD 
ENDBRANCH  12  14
ENDBRANCH  11  12
ENDBRANCH  10  11
ENDBRANCH   9  10
ENDBRANCH   6   9
ENDBRANCH   3   6
BRANCH   5  23
HETATM   23  C   UNL     4      -8.361  17.526  71.705  1.00  0.00    11.437 C  
BRANCH  23  24
HETATM   24  N   UNL     4      -9.726  17.512  71.134  1.00  0.00     4.560 NA 
HETATM   25  H   UNL     4     -10.412  18.171  71.501  1.00  0.00     0.000 HD 
BRANCH  24  26
HETATM   26  C   UNL     4     -10.097  16.689  70.176  1.00  0.00     0.530 C  
HETATM   27  H   UNL     4     -10.663  14.801  69.780  1.00  0.00     0.000 HD 
HETATM   28  O   UNL     4     -10.395  15.395  70.471  1.00  0.00    -0.246 OA 
BRANCH  26  29
HETATM   29  C   UNL     4     -10.268  17.076  68.707  1.00  0.00    -0.317 A  
HETATM   30  C   UNL     4     -10.027  16.265  67.549  1.00  0.00    -0.248 A  
HETATM   31  C   UNL     4     -10.707  18.416  68.468  1.00  0.00     0.089 A  
HETATM   32  C   UNL     4     -10.880  18.922  67.175  1.00  0.00    -0.425 A  
HETATM   33  C   UNL     4     -10.607  18.128  66.076  1.00  0.00    -0.278 A  
HETATM   34  C   UNL     4     -10.192  16.811  66.255  1.00  0.00    -0.341 A  
BRANCH  30  35
HETATM   35  O   UNL     4      -9.671  14.957  67.601  1.00  0.00    -0.210 OA 
BRANCH  35  36
HETATM   36  C   UNL     4      -9.478  14.149  66.498  1.00  0.00    -0.285 C  
HETATM   37  C   UNL     4      -8.494  13.061  66.791  1.00  0.00     0.003 C  
HETATM   38  O   UNL     4      -8.734  12.193  67.792  1.00  0.00    -0.155 OA 
HETATM   39  O   UNL     4      -7.500  12.921  66.096  1.00  0.00     1.258 OA 
ENDBRANCH  35  36
ENDBRANCH  30  35
ENDBRANCH  26  29
ENDBRANCH  24  26
ENDBRANCH  23  24
ENDBRANCH   5  23
BRANCH   5  40
HETATM   40  O   UNL     4      -7.327  18.219  69.588  1.00  0.00     0.099 OA 
BRANCH  40  41
HETATM   41  C   UNL     4      -6.019  18.041  69.030  1.00  0.00    -0.217 C  
BRANCH  41  42
HETATM   42  C   UNL     4      -5.348  19.371  68.626  1.00  0.00    -0.194 C  
BRANCH  42  43
HETATM   43  O   UNL     4      -5.778  19.799  67.348  1.00  0.00    -0.174 OA 
HETATM   44  C   UNL     4      -5.914  21.211  67.345  1.00  0.00    -0.329 C  
ENDBRANCH  42  43
ENDBRANCH  41  42
ENDBRANCH  40  41
ENDBRANCH   5  40
TORSDOF 17
ENDMDL
MODEL      136
REMARK 921   NORMALIZED FREE ENERGY PREDICTED BY IDOCK:   11.77 KCAL/MOL
REMARK 922        TOTAL FREE ENERGY PREDICTED BY IDOCK:   20.60 KCAL/MOL
REMARK 923 INTER-LIGAND FREE ENERGY PREDICTED BY IDOCK:   16.09 KCAL/MOL
REMARK 924 INTRA-LIGAND FREE ENERGY PREDICTED BY IDOCK:    4.51 KCAL/MOL
REMARK 927      BINDING AFFINITY PREDICTED BY RF-SCORE:    0.00 PKD
ROOT
HETATM    1 HG   UNL     2      -8.605  18.984  73.578  1.00  0.00     2.127 Hg 
HETATM    2  C   UNL     3      -5.618  10.818  64.025  1.00  0.00     0.011 C  
HETATM    3  C   UNL     3      -6.126  10.690  65.468  1.00  0.00    -0.105 C  
HETATM    4  C   UNL     4     -12.026  18.624  71.551  1.00  0.00     9.544 C  
HETATM    5  C   UNL     4     -10.784  17.729  71.429  1.00  0.00     2.622 C  
ENDROOT
BRANCH   3   6
HETATM    6  N   UNL     3      -6.720   9.365  65.790  1.00  0.00    -0.076 NA 
BRANCH   6   7
HETATM    7  C   UNL     3      -6.107   8.693  66.969  1.00  0.00    -0.055 C  
HETATM    8  C   UNL     3      -6.683   7.301  67.287  1.00  0.00    -0.068 C  
ENDBRANCH   6   7
BRANCH   6   9
HETATM    9  C   UNL     3      -8.194   9.439  65.965  1.00  0.00    -0.111 C  
BRANCH   9  10
HETATM   10  C   UNL     3      -8.693  10.761  66.538  1.00  0.00    -0.151 C  
BRANCH  10  11
HETATM   11  O   UNL     3      -9.997  11.010  66.176  1.00  0.00    -0.215 OA 
BRANCH  11  12
HETATM   12  C   UNL     3     -10.355  11.652  65.037  1.00  0.00    -0.281 C  
HETATM   13  O   UNL     3     -10.655  11.018  64.033  1.00  0.00    -0.366 OA 
BRANCH  12  14
HETATM   14  C   UNL     3     -10.471  13.121  65.072  1.00  0.00    -0.358 A  
HETATM   15  C   UNL     3     -10.709  15.917  65.246  1.00  0.00    -0.424 A  
HETATM   16  C   UNL     3     -11.426  15.207  64.271  1.00  0.00    -0.146 A  
HETATM   17  C   UNL     3     -11.310  13.816  64.182  1.00  0.00    -0.277 A  
HETATM   18  N   UNL     3     -10.822  17.331  65.340  1.00  0.00    -0.480 NA 
HETATM   19  C   UNL     3      -9.880  15.224  66.136  1.00  0.00    -0.333 A  
HETATM   20  C   UNL     3      -9.760  13.841  66.048  1.00  0.00    -0.255 A  
HETATM   21  H1  UNL     3     -10.301  17.846  66.049  1.00  0.00     0.000 HD 
HETATM   22  H2  UNL     3     -11.810  17.566  65.436  1.00  0.00     0.000 HD 
ENDBRANCH  12  14
ENDBRANCH  11  12
ENDBRANCH  10  11
ENDBRANCH   9  10
ENDBRANCH   6   9
ENDBRANCH   3   6
BRANCH   5  23
HETATM   23  C   UNL     4     -10.878  16.487  72.387  1.00  0.00     2.201 C  
BRANCH  23  24
HETATM   24  N   UNL     4     -12.223  16.033  72.801  1.00  0.00    -0.474 NA 
HETATM   25  H   UNL     4     -12.777  16.643  73.402  1.00  0.00     0.000 HD 
BRANCH  24  26
HETATM   26  C   UNL     4     -12.738  14.879  72.433  1.00  0.00    -0.344 C  
HETATM   27  H   UNL     4     -14.091  13.472  72.914  1.00  0.00     0.000 HD 
HETATM   28  O   UNL     4     -13.720  14.305  73.180  1.00  0.00    -0.534 OA 
BRANCH  26  29
HETATM   29  C   UNL     4     -12.346  14.109  71.171  1.00  0.00    -0.447 A  
HETATM   30  C   UNL     4     -11.192  14.306  70.342  1.00  0.00     0.053 A  
HETATM   31  C   UNL     4     -13.253  13.079  70.770  1.00  0.00     0.223 A  
HETATM   32  C   UNL     4     -13.041  12.310  69.620  1.00  0.00     1.474 A  
HETATM   33  C   UNL     4     -11.938  12.544  68.820  1.00  0.00    -0.283 A  
HETATM   34  C   UNL     4     -11.016  13.525  69.176  1.00  0.00    -0.220 A  
BRANCH  30  35
HETATM   35  O   UNL     4     -10.204  15.194  70.618  1.00  0.00    -0.020 OA 
BRANCH  35  36
HETATM   36  C   UNL     4      -8.949  14.855  71.084  1.00  0.00     3.221 C  
HETATM   37  C   UNL     4      -7.949  14.827  69.972  1.00  0.00     0.440 C  
HETATM   38  O   UNL     4      -7.735  15.934  69.237  1.00  0.00    -0.208 OA 
HETATM   39  O   UNL     4      -7.288  13.823  69.760  1.00  0.00     0.242 OA 
ENDBRANCH  35  36
ENDBRANCH  30  35
ENDBRANCH  26  29
ENDBRANCH  24  26
ENDBRANCH  23  24
ENDBRANCH   5  23
BRANCH   5  40
HETATM   40  O   UNL     4     -10.651  17.275  70.071  1.00  0.00     0.018 OA 
BRANCH  40  41
HETATM   41  C   UNL     4      -9.388  17.642  69.502  1.00  0.00     0.511 C  
BRANCH  41  42
HETATM   42  C   UNL     4      -9.526  18.548  68.260  1.00  0.00    -0.335 C  
BRANCH  42  43
HETATM   43  O   UNL     4     -10.863  18.587  67.795  1.00  0.00    -0.388 OA 
HETATM   44  C   UNL     4     -11.260  19.936  67.613  1.00  0.00     0.361 C  
ENDBRANCH  42  43
ENDBRANCH  41  42
ENDBRANCH  40  41
ENDBRANCH   5  40
TORSDOF 17
ENDMDL
MODEL      137
REMARK 921   NORMALIZED FREE ENERGY PREDICTED BY IDOCK:   12.99 KCAL/MOL
REMARK 922        TOTAL FREE ENERGY PREDICTED BY IDOCK:   23.04 KCAL/MOL
REMARK 923 INTER-LIGAND FREE ENERGY PREDICTED BY IDOCK:   17.18 KCAL/MOL
REMARK 924 INTRA-LIGAND FREE ENERGY PREDICTED BY IDOCK:    5.85 KCAL/MOL
REMARK 927      BINDING AFFINITY PREDICTED BY RF-SCORE:    0.00 PKD
ROOT
HETATM    1 HG   UNL     2      -8.509   4.491  63.399  1.00  0.00    -0.080 Hg 
HETATM    2  C   UNL     3      -5.176  16.918  64.553  1.00  0.00     3.966 C  
HETATM    3  C   UNL     3      -6.278  16.013  65.123  1.00  0.00     7.999 C  
HETATM    4  C   UNL     4      -5.902   4.484  66.423  1.00  0.00    -0.023 C  
HETATM    5  C   UNL     4      -6.596   5.707  65.808  1.00  0.00    -0.041 C  
ENDROOT
BRANCH   3   6
HETATM    6  N   UNL     3      -6.959  16.565  66.325  1.00  0.00    -0.064 NA 
BRANCH   6   7
HETATM    7  C   UNL     3      -7.731  17.812  66.069  1.00  0.00    -0.188 C  
HETATM    8  C   UNL     3      -8.840  17.676  65.010  1.00  0.00     3.267 C  
ENDBRANCH   6   7
BRANCH   6   9
HETATM    9  C   UNL     3      -7.832  15.560  66.984  1.00  0.00    -0.225 C  
BRANCH   9  10
HETATM   10  C   UNL     3      -7.560  15.370  68.473  1.00  0.00    -0.122 C  
BRANCH  10  11
HETATM   11  O   UNL     3      -7.869  16.501  69.193  1.00  0.00    -0.239 OA 
BRANCH  11  12
HETATM   12  C   UNL     3      -7.699  17.762  68.728  1.00  0.00    -0.252 C  
HETATM   13  O   UNL     3      -6.575  18.216  68.556  1.00  0.00    -0.204 OA 
BRANCH  12  14
HETATM   14  C   UNL     3      -8.897  18.529  68.340  1.00  0.00    -0.346 A  
HETATM   15  C   UNL     3     -11.230  19.899  67.575  1.00  0.00     0.300 A  
HETATM   16  C   UNL     3      -9.980  20.311  67.091  1.00  0.00    -0.593 A  
HETATM   17  C   UNL     3      -8.817  19.632  67.470  1.00  0.00    -0.371 A  
HETATM   18  N   UNL     3     -12.415  20.586  67.195  1.00  0.00     4.130 NA 
HETATM   19  C   UNL     3     -11.310  18.797  68.434  1.00  0.00     1.294 A  
HETATM   20  C   UNL     3     -10.155  18.121  68.816  1.00  0.00    -0.392 A  
HETATM   21  H1  UNL     3     -13.324  20.286  67.546  1.00  0.00     0.000 HD 
HETATM   22  H2  UNL     3     -12.458  20.608  66.175  1.00  0.00     0.000 HD 
ENDBRANCH  12  14
ENDBRANCH  11  12
ENDBRANCH  10  11
ENDBRANCH   9  10
ENDBRANCH   6   9
ENDBRANCH   3   6
BRANCH   5  23
HETATM   23  C   UNL     4      -7.927   6.051  66.568  1.00  0.00    -0.105 C  
BRANCH  23  24
HETATM   24  N   UNL     4      -7.866   7.056  67.652  1.00  0.00    -0.111 NA 
HETATM   25  H   UNL     4      -6.989   7.169  68.159  1.00  0.00     0.000 HD 
BRANCH  24  26
HETATM   26  C   UNL     4      -8.889   7.810  67.993  1.00  0.00    -0.124 C  
HETATM   27  H   UNL     4     -10.480   8.814  67.284  1.00  0.00     0.000 HD 
HETATM   28  O   UNL     4      -9.742   8.270  67.037  1.00  0.00    -0.175 OA 
BRANCH  26  29
HETATM   29  C   UNL     4      -9.246   8.205  69.427  1.00  0.00    -0.155 A  
HETATM   30  C   UNL     4     -10.152   7.544  70.322  1.00  0.00    -0.194 A  
HETATM   31  C   UNL     4      -8.605   9.383  69.922  1.00  0.00    -0.201 A  
HETATM   32  C   UNL     4      -8.855   9.882  71.204  1.00  0.00     1.145 A  
HETATM   33  C   UNL     4      -9.759   9.244  72.034  1.00  0.00     0.333 A  
HETATM   34  C   UNL     4     -10.399   8.084  71.606  1.00  0.00    -0.267 A  
BRANCH  30  35
HETATM   35  O   UNL     4     -10.790   6.382  70.033  1.00  0.00    -0.248 OA 
BRANCH  35  36
HETATM   36  C   UNL     4     -11.143   5.425  70.965  1.00  0.00     0.053 C  
HETATM   37  C   UNL     4      -9.950   4.639  71.409  1.00  0.00    -0.197 C  
HETATM   38  O   UNL     4      -8.903   5.270  71.972  1.00  0.00    -0.129 OA 
HETATM   39  O   UNL     4      -9.941   3.421  71.313  1.00  0.00    -0.163 OA 
ENDBRANCH  35  36
ENDBRANCH  30  35
ENDBRANCH  26  29
ENDBRANCH  24  26
ENDBRANCH  23  24
ENDBRANCH   5  23
BRANCH   5  40
HETATM   40  O   UNL     4      -5.711   6.839  65.861  1.00  0.00    -0.028 OA 
BRANCH  40  41
HETATM   41  C   UNL     4      -6.418   8.082  65.760  1.00  0.00    -0.042 C  
BRANCH  41  42
HETATM   42  C   UNL     4      -6.251   8.761  64.384  1.00  0.00    -0.067 C  
BRANCH  42  43
HETATM   43  O   UNL     4      -6.378  10.167  64.484  1.00  0.00    -0.124 OA 
HETATM   44  C   UNL     4      -7.195  10.643  63.427  1.00  0.00     0.163 C  
ENDBRANCH  42  43
ENDBRANCH  41  42
ENDBRANCH  40  41
ENDBRANCH   5  40
TORSDOF 17
ENDMDL
MODEL      138
REMARK 921   NORMALIZED FREE ENERGY PREDICTED BY IDOCK:   17.84 KCAL/MOL
REMARK 922        TOTAL FREE ENERGY PREDICTED BY IDOCK:   32.70 KCAL/MOL
REMARK 923 INTER-LIGAND FREE ENERGY PREDICTED BY IDOCK:   33.61 KCAL/MOL
REMARK 924 INTRA-LIGAND FREE ENERGY PREDICTED BY IDOCK:   -0.91 KCAL/MOL
REMARK 927      BINDING AFFINITY PREDICTED BY RF-SCORE:    0.00 PKD
ROOT
HETATM    1 HG   UNL     2      -5.184  17.400  73.694  1.00  0.00     1.467 Hg 
HETATM    2  C   UNL     3      -6.768  11.431  62.348  1.00  0.00     0.422 C  
HETATM    3  C   UNL     3      -7.324  11.266  63.769  1.00  0.00     1.346 C  
HETATM    4  C   UNL     4      -8.148  19.443  71.967  1.00  0.00     4.882 C  
HETATM    5  C   UNL     4      -7.598  18.076  71.536  1.00  0.00     7.637 C  
ENDROOT
BRANCH   3   6
HETATM    6  N   UNL     3      -8.562  10.444  63.848  1.00  0.00    -0.175 NA 
BRANCH   6   7
HETATM    7  C   UNL     3      -9.288  10.310  62.555  1.00  0.00    -0.296 C  
HETATM    8  C   UNL     3     -10.634  11.054  62.493  1.00  0.00     0.720 C  
ENDBRANCH   6   7
BRANCH   6   9
HETATM    9  C   UNL     3      -8.306   9.099  64.422  1.00  0.00    -0.174 C  
BRANCH   9  10
HETATM   10  C   UNL     3      -7.107   8.375  63.817  1.00  0.00    -0.089 C  
BRANCH  10  11
HETATM   11  O   UNL     3      -6.982   7.098  64.315  1.00  0.00    -0.051 OA 
BRANCH  11  12
HETATM   12  C   UNL     3      -6.885   5.991  63.540  1.00  0.00    -0.037 C  
HETATM   13  O   UNL     3      -5.896   5.804  62.843  1.00  0.00    -0.020 OA 
BRANCH  12  14
HETATM   14  C   UNL     3      -7.949   4.976  63.638  1.00  0.00    -0.098 A  
HETATM   15  C   UNL     3      -9.912   2.978  63.885  1.00  0.00    -0.164 A  
HETATM   16  C   UNL     3      -9.603   3.510  62.625  1.00  0.00    -0.102 A  
HETATM   17  C   UNL     3      -8.627   4.504  62.499  1.00  0.00    -0.101 A  
HETATM   18  N   UNL     3     -10.904   1.969  64.021  1.00  0.00    -0.396 NA 
HETATM   19  C   UNL     3      -9.233   3.443  65.018  1.00  0.00    -0.147 A  
HETATM   20  C   UNL     3      -8.264   4.434  64.896  1.00  0.00    -0.104 A  
HETATM   21  H1  UNL     3     -11.129   1.582  64.937  1.00  0.00     0.000 HD 
HETATM   22  H2  UNL     3     -10.661   1.197  63.399  1.00  0.00     0.000 HD 
ENDBRANCH  12  14
ENDBRANCH  11  12
ENDBRANCH  10  11
ENDBRANCH   9  10
ENDBRANCH   6   9
ENDBRANCH   3   6
BRANCH   5  23
HETATM   23  C   UNL     4      -8.400  16.901  72.203  1.00  0.00    13.789 C  
BRANCH  23  24
HETATM   24  N   UNL     4      -9.725  16.560  71.640  1.00  0.00     4.881 NA 
HETATM   25  H   UNL     4     -10.554  16.975  72.065  1.00  0.00     0.000 HD 
BRANCH  24  26
HETATM   26  C   UNL     4      -9.884  15.747  70.617  1.00  0.00     0.923 C  
HETATM   27  H   UNL     4     -10.251  13.841  70.095  1.00  0.00     0.000 HD 
HETATM   28  O   UNL     4     -10.135  14.427  70.833  1.00  0.00     1.380 OA 
BRANCH  26  29
HETATM   29  C   UNL     4      -9.849  16.171  69.149  1.00  0.00    -0.250 A  
HETATM   30  C   UNL     4      -9.331  15.433  68.032  1.00  0.00    -0.196 A  
HETATM   31  C   UNL     4     -10.385  17.466  68.866  1.00  0.00    -0.340 A  
HETATM   32  C   UNL     4     -10.393  18.000  67.573  1.00  0.00    -0.394 A  
HETATM   33  C   UNL     4      -9.858  17.281  66.520  1.00  0.00    -0.306 A  
HETATM   34  C   UNL     4      -9.337  16.008  66.740  1.00  0.00    -0.260 A  
BRANCH  30  35
HETATM   35  O   UNL     4      -8.850  14.168  68.117  1.00  0.00    -0.168 OA 
BRANCH  35  36
HETATM   36  C   UNL     4      -7.947  13.609  67.235  1.00  0.00    -0.114 C  
HETATM   37  C   UNL     4      -8.180  12.139  67.083  1.00  0.00    -0.182 C  
HETATM   38  O   UNL     4      -9.375  11.691  66.654  1.00  0.00    -0.183 OA 
HETATM   39  O   UNL     4      -7.278  11.344  67.296  1.00  0.00    -0.103 OA 
ENDBRANCH  35  36
ENDBRANCH  30  35
ENDBRANCH  26  29
ENDBRANCH  24  26
ENDBRANCH  23  24
ENDBRANCH   5  23
BRANCH   5  40
HETATM   40  O   UNL     4      -7.678  17.955  70.106  1.00  0.00     1.385 OA 
BRANCH  40  41
HETATM   41  C   UNL     4      -6.450  17.486  69.535  1.00  0.00    -0.202 C  
BRANCH  41  42
HETATM   42  C   UNL     4      -5.488  18.629  69.148  1.00  0.00    -0.205 C  
BRANCH  42  43
HETATM   43  O   UNL     4      -6.050  19.461  68.150  1.00  0.00    -0.209 OA 
HETATM   44  C   UNL     4      -5.864  18.863  66.878  1.00  0.00    -0.155 C  
ENDBRANCH  42  43
ENDBRANCH  41  42
ENDBRANCH  40  41
ENDBRANCH   5  40
TORSDOF 17
ENDMDL
MODEL      139
REMARK 921   NORMALIZED FREE ENERGY PREDICTED BY IDOCK:   29.31 KCAL/MOL
REMARK 922        TOTAL FREE ENERGY PREDICTED BY IDOCK:   55.57 KCAL/MOL
REMARK 923 INTER-LIGAND FREE ENERGY PREDICTED BY IDOCK:   24.51 KCAL/MOL
REMARK 924 INTRA-LIGAND FREE ENERGY PREDICTED BY IDOCK:   31.06 KCAL/MOL
REMARK 927      BINDING AFFINITY PREDICTED BY RF-SCORE:    0.00 PKD
ROOT
HETATM    1 HG   UNL     2      -8.564   4.443  63.364  1.00  0.00    -0.083 Hg 
HETATM    2  C   UNL     3      -5.972  16.844  65.883  1.00  0.00     0.895 C  
HETATM    3  C   UNL     3      -7.152  15.893  66.123  1.00  0.00     1.590 C  
HETATM    4  C   UNL     4      -6.772   4.319  66.929  1.00  0.00    -0.051 C  
HETATM    5  C   UNL     4      -7.331   5.561  66.222  1.00  0.00    -0.078 C  
ENDROOT
BRANCH   3   6
HETATM    6  N   UNL     3      -8.121  16.369  67.147  1.00  0.00    -0.167 NA 
BRANCH   6   7
HETATM    7  C   UNL     3      -8.930  17.544  66.720  1.00  0.00    -0.256 C  
HETATM    8  C   UNL     3      -9.801  17.307  65.474  1.00  0.00     0.225 C  
ENDBRANCH   6   7
BRANCH   6   9
HETATM    9  C   UNL     3      -9.021  15.283  67.614  1.00  0.00    -0.179 C  
BRANCH   9  10
HETATM   10  C   UNL     3      -9.284  15.287  69.117  1.00  0.00    -0.234 C  
BRANCH  10  11
HETATM   11  O   UNL     3      -9.930  16.435  69.514  1.00  0.00    -0.236 OA 
BRANCH  11  12
HETATM   12  C   UNL     3      -9.293  17.547  69.952  1.00  0.00     1.324 C  
HETATM   13  O   UNL     3      -8.996  17.670  71.134  1.00  0.00     6.211 OA 
BRANCH  12  14
HETATM   14  C   UNL     3      -8.877  18.551  68.956  1.00  0.00    -0.081 A  
HETATM   15  C   UNL     3      -8.077  20.385  66.982  1.00  0.00    -0.300 A  
HETATM   16  C   UNL     3      -7.457  20.389  68.240  1.00  0.00    -0.109 A  
HETATM   17  C   UNL     3      -7.852  19.477  69.224  1.00  0.00    -0.152 A  
HETATM   18  N   UNL     3      -7.680  21.310  65.978  1.00  0.00     0.307 NA 
HETATM   19  C   UNL     3      -9.091  19.459  66.712  1.00  0.00    -0.382 A  
HETATM   20  C   UNL     3      -9.489  18.553  67.690  1.00  0.00    -0.295 A  
HETATM   21  H1  UNL     3      -8.130  21.308  65.063  1.00  0.00     0.000 HD 
HETATM   22  H2  UNL     3      -6.673  21.217  65.838  1.00  0.00     0.000 HD 
ENDBRANCH  12  14
ENDBRANCH  11  12
ENDBRANCH  10  11
ENDBRANCH   9  10
ENDBRANCH   6   9
ENDBRANCH   3   6
BRANCH   5  23
HETATM   23  C   UNL     4      -8.817   5.843  66.648  1.00  0.00    -0.123 C  
BRANCH  23  24
HETATM   24  N   UNL     4      -9.047   6.744  67.798  1.00  0.00    -0.118 NA 
HETATM   25  H   UNL     4      -8.363   6.751  68.555  1.00  0.00     0.000 HD 
BRANCH  24  26
HETATM   26  C   UNL     4     -10.094   7.538  67.892  1.00  0.00    -0.182 C  
HETATM   27  H   UNL     4     -11.280   8.797  66.868  1.00  0.00     0.000 HD 
HETATM   28  O   UNL     4     -10.525   8.224  66.800  1.00  0.00    -0.318 OA 
BRANCH  26  29
HETATM   29  C   UNL     4     -10.927   7.740  69.158  1.00  0.00     0.029 A  
HETATM   30  C   UNL     4     -12.199   7.158  69.478  1.00  0.00     0.985 A  
HETATM   31  C   UNL     4     -10.371   8.630  70.129  1.00  0.00    -0.219 A  
HETATM   32  C   UNL     4     -11.033   8.936  71.323  1.00  0.00    -0.363 A  
HETATM   33  C   UNL     4     -12.273   8.386  71.590  1.00  0.00    -0.358 A  
HETATM   34  C   UNL     4     -12.852   7.500  70.684  1.00  0.00     0.174 A  
BRANCH  30  35
HETATM   35  O   UNL     4     -12.831   6.245  68.698  1.00  0.00     4.900 OA 
BRANCH  35  36
HETATM   36  C   UNL     4     -12.231   5.526  67.683  1.00  0.00     6.241 C  
HETATM   37  C   UNL     4     -11.831   6.420  66.552  1.00  0.00     2.174 C  
HETATM   38  O   UNL     4     -10.983   7.441  66.774  1.00  0.00    -0.249 OA 
HETATM   39  O   UNL     4     -12.228   6.199  65.419  1.00  0.00     4.078 OA 
ENDBRANCH  35  36
ENDBRANCH  30  35
ENDBRANCH  26  29
ENDBRANCH  24  26
ENDBRANCH  23  24
ENDBRANCH   5  23
BRANCH   5  40
HETATM   40  O   UNL     4      -6.519   6.703  66.543  1.00  0.00    -0.041 OA 
BRANCH  40  41
HETATM   41  C   UNL     4      -7.223   7.937  66.355  1.00  0.00    -0.082 C  
BRANCH  41  42
HETATM   42  C   UNL     4      -6.764   8.708  65.099  1.00  0.00    -0.064 C  
BRANCH  42  43
HETATM   43  O   UNL     4      -6.953  10.103  65.252  1.00  0.00    -0.126 OA 
HETATM   44  C   UNL     4      -7.519  10.635  64.066  1.00  0.00     0.220 C  
ENDBRANCH  42  43
ENDBRANCH  41  42
ENDBRANCH  40  41
ENDBRANCH   5  40
TORSDOF 17
ENDMDL
MODEL      140
REMARK 921   NORMALIZED FREE ENERGY PREDICTED BY IDOCK:   44.13 KCAL/MOL
REMARK 922        TOTAL FREE ENERGY PREDICTED BY IDOCK:   85.13 KCAL/MOL
REMARK 923 INTER-LIGAND FREE ENERGY PREDICTED BY IDOCK:   47.10 KCAL/MOL
REMARK 924 INTRA-LIGAND FREE ENERGY PREDICTED BY IDOCK:   38.03 KCAL/MOL
REMARK 927      BINDING AFFINITY PREDICTED BY RF-SCORE:    0.00 PKD
ROOT
HETATM    1 HG   UNL     2      -8.753  19.303  73.982  1.00  0.00     0.712 Hg 
HETATM    2  C   UNL     3      -8.174  10.501  64.545  1.00  0.00    -0.077 C  
HETATM    3  C   UNL     3      -8.384  10.477  66.065  1.00  0.00    -0.158 C  
HETATM    4  C   UNL     4     -12.527  19.049  72.707  1.00  0.00    12.909 C  
HETATM    5  C   UNL     4     -11.382  18.076  72.394  1.00  0.00     2.762 C  
ENDROOT
BRANCH   3   6
HETATM    6  N   UNL     3      -8.965   9.208  66.581  1.00  0.00    -0.133 NA 
BRANCH   6   7
HETATM    7  C   UNL     3      -8.244   8.641  67.755  1.00  0.00    -0.118 C  
HETATM    8  C   UNL     3      -9.146   7.932  68.782  1.00  0.00    -0.140 C  
ENDBRANCH   6   7
BRANCH   6   9
HETATM    9  C   UNL     3     -10.410   9.340  66.896  1.00  0.00    -0.246 C  
BRANCH   9  10
HETATM   10  C   UNL     3     -10.826  10.729  67.370  1.00  0.00    -0.290 C  
BRANCH  10  11
HETATM   11  O   UNL     3     -12.001  11.135  66.780  1.00  0.00    -0.103 OA 
BRANCH  11  12
HETATM   12  C   UNL     3     -12.068  11.747  65.573  1.00  0.00     0.383 C  
HETATM   13  O   UNL     3     -12.698  11.242  64.653  1.00  0.00     0.671 OA 
BRANCH  12  14
HETATM   14  C   UNL     3     -11.453  13.079  65.432  1.00  0.00    -0.344 A  
HETATM   15  C   UNL     3     -10.252  15.594  65.061  1.00  0.00    -0.167 A  
HETATM   16  C   UNL     3      -9.961  14.836  66.204  1.00  0.00    -0.324 A  
HETATM   17  C   UNL     3     -10.557  13.584  66.392  1.00  0.00    -0.283 A  
HETATM   18  N   UNL     3      -9.650  16.867  64.865  1.00  0.00     1.152 NA 
HETATM   19  C   UNL     3     -11.137  15.088  64.102  1.00  0.00     0.301 A  
HETATM   20  C   UNL     3     -11.735  13.845  64.287  1.00  0.00    -0.406 A  
HETATM   21  H1  UNL     3      -9.861  17.418  64.034  1.00  0.00     0.000 HD 
HETATM   22  H2  UNL     3      -8.638  16.754  64.925  1.00  0.00     0.000 HD 
ENDBRANCH  12  14
ENDBRANCH  11  12
ENDBRANCH  10  11
ENDBRANCH   9  10
ENDBRANCH   6   9
ENDBRANCH   3   6
BRANCH   5  23
HETATM   23  C   UNL     4     -11.339  16.892  73.425  1.00  0.00     1.225 C  
BRANCH  23  24
HETATM   24  N   UNL     4     -12.625  16.291  73.842  1.00  0.00    -0.623 NA 
HETATM   25  H   UNL     4     -13.316  16.889  74.295  1.00  0.00     0.000 HD 
BRANCH  24  26
HETATM   26  C   UNL     4     -12.920  15.022  73.657  1.00  0.00    -0.326 C  
HETATM   27  H   UNL     4     -14.123  13.525  74.254  1.00  0.00     0.000 HD 
HETATM   28  O   UNL     4     -13.910  14.441  74.388  1.00  0.00     4.031 OA 
BRANCH  26  29
HETATM   29  C   UNL     4     -12.252  14.109  72.628  1.00  0.00     0.068 A  
HETATM   30  C   UNL     4     -11.308  14.473  71.610  1.00  0.00     0.446 A  
HETATM   31  C   UNL     4     -12.630  12.732  72.685  1.00  0.00     0.995 A  
HETATM   32  C   UNL     4     -12.123  11.784  71.789  1.00  0.00     0.868 A  
HETATM   33  C   UNL     4     -11.241  12.169  70.796  1.00  0.00     1.624 A  
HETATM   34  C   UNL     4     -10.828  13.496  70.708  1.00  0.00     2.132 A  
BRANCH  30  35
HETATM   35  O   UNL     4     -10.796  15.721  71.463  1.00  0.00    -0.067 OA 
BRANCH  35  36
HETATM   36  C   UNL     4      -9.752  16.236  72.205  1.00  0.00     7.184 C  
HETATM   37  C   UNL     4      -8.469  16.191  71.436  1.00  0.00     6.239 C  
HETATM   38  O   UNL     4      -8.374  16.828  70.254  1.00  0.00     1.762 OA 
HETATM   39  O   UNL     4      -7.491  15.624  71.897  1.00  0.00     4.071 OA 
ENDBRANCH  35  36
ENDBRANCH  30  35
ENDBRANCH  26  29
ENDBRANCH  24  26
ENDBRANCH  23  24
ENDBRANCH   5  23
BRANCH   5  40
HETATM   40  O   UNL     4     -11.550  17.547  71.068  1.00  0.00     1.646 OA 
BRANCH  40  41
HETATM   41  C   UNL     4     -10.676  16.440  70.814  1.00  0.00     0.329 C  
BRANCH  41  42
HETATM   42  C   UNL     4     -10.003  16.507  69.426  1.00  0.00    -0.187 C  
BRANCH  42  43
HETATM   43  O   UNL     4      -8.943  15.576  69.321  1.00  0.00    -0.236 OA 
HETATM   44  C   UNL     4      -9.096  14.819  68.132  1.00  0.00    -0.180 C  
ENDBRANCH  42  43
ENDBRANCH  41  42
ENDBRANCH  40  41
ENDBRANCH   5  40
TORSDOF 17
ENDMDL
