MODEL        1
REMARK 921   NORMALIZED FREE ENERGY PREDICTED BY IDOCK:   -6.75 KCAL/MOL
REMARK 922        TOTAL FREE ENERGY PREDICTED BY IDOCK:   -8.22 KCAL/MOL
REMARK 923 INTER-LIGAND FREE ENERGY PREDICTED BY IDOCK:   -7.54 KCAL/MOL
REMARK 924 INTRA-LIGAND FREE ENERGY PREDICTED BY IDOCK:   -0.68 KCAL/MOL
REMARK 927      BINDING AFFINITY PREDICTED BY RF-SCORE:    0.00 PKD
ROOT
HETATM    1  O   UNL     1     -12.260  15.950  69.277  1.00  0.00    -0.484 OA 
HETATM    2  C   UNL     1     -11.284  14.933  69.517  1.00  0.00    -0.277 C  
HETATM    3  H   UNL     1     -13.116  15.539  69.253  1.00  0.00     0.000 HD 
HETATM    4  C   UNL     1     -11.340  13.920  68.353  1.00  0.00    -0.316 A  
HETATM    5  C   UNL     1     -11.553  14.243  70.919  1.00  0.00    -0.146 C  
HETATM    6  C   UNL     1      -9.883  15.607  69.554  1.00  0.00    -0.289 C  
HETATM    7  C   UNL     1     -14.110  14.348  71.113  1.00  0.00    -0.155 C  
HETATM    8  C   UNL     1     -11.479  15.171  72.156  1.00  0.00    -0.430 C  
HETATM    9  C   UNL     1     -12.255  14.074  67.294  1.00  0.00    -0.325 A  
HETATM   10  C   UNL     1     -12.259  13.201  66.201  1.00  0.00    -0.451 A  
HETATM   11  C   UNL     1     -12.875  13.461  71.027  1.00  0.00    -0.329 C  
HETATM   12  C   UNL     1     -12.669  16.107  72.337  1.00  0.00    -0.407 C  
HETATM   13  C   UNL     1     -14.022  15.416  72.201  1.00  0.00    -0.649 C  
HETATM   14  C   UNL     1     -11.349  12.150  66.144  1.00  0.00    -0.414 A  
HETATM   15  C   UNL     1     -10.441  12.841  68.280  1.00  0.00    -0.250 A  
HETATM   16  C   UNL     1     -10.445  11.965  67.185  1.00  0.00    -0.249 A  
ENDROOT
BRANCH   6  17
HETATM   17  C   UNL     1      -9.431  16.318  68.269  1.00  0.00    -0.214 C  
BRANCH  17  18
HETATM   18  N   UNL     1     -10.272  17.505  68.029  1.00  0.00    -0.334 NA 
HETATM   19  C   UNL     1      -9.776  18.710  68.700  1.00  0.00    -0.377 C  
HETATM   20  C   UNL     1     -10.487  19.826  67.965  1.00  0.00    -0.523 C  
HETATM   21  C   UNL     1     -10.475  19.354  66.524  1.00  0.00    -0.572 C  
HETATM   22  C   UNL     1     -10.384  17.831  66.601  1.00  0.00    -0.345 C  
ENDBRANCH  17  18
ENDBRANCH   6  17
TORSDOF 2
ENDMDL
MODEL        2
REMARK 921   NORMALIZED FREE ENERGY PREDICTED BY IDOCK:   -6.74 KCAL/MOL
REMARK 922        TOTAL FREE ENERGY PREDICTED BY IDOCK:   -8.21 KCAL/MOL
REMARK 923 INTER-LIGAND FREE ENERGY PREDICTED BY IDOCK:   -7.83 KCAL/MOL
REMARK 924 INTRA-LIGAND FREE ENERGY PREDICTED BY IDOCK:   -0.38 KCAL/MOL
REMARK 927      BINDING AFFINITY PREDICTED BY RF-SCORE:    0.00 PKD
ROOT
HETATM    1  O   UNL     1     -12.066  15.654  67.836  1.00  0.00    -0.270 OA 
HETATM    2  C   UNL     1     -10.662  15.597  68.095  1.00  0.00    -0.287 C  
HETATM    3  H   UNL     1     -12.188  15.891  66.924  1.00  0.00     0.000 HD 
HETATM    4  C   UNL     1     -10.062  16.997  67.839  1.00  0.00    -0.306 A  
HETATM    5  C   UNL     1      -9.986  14.485  67.189  1.00  0.00    -0.252 C  
HETATM    6  C   UNL     1     -10.462  15.210  69.588  1.00  0.00    -0.261 C  
HETATM    7  C   UNL     1     -11.406  14.567  65.052  1.00  0.00    -0.377 C  
HETATM    8  C   UNL     1     -10.493  13.038  67.401  1.00  0.00    -0.235 C  
HETATM    9  C   UNL     1     -10.866  18.068  67.409  1.00  0.00    -0.236 A  
HETATM   10  C   UNL     1     -10.342  19.355  67.246  1.00  0.00    -0.554 A  
HETATM   11  C   UNL     1     -10.028  14.754  65.674  1.00  0.00    -0.390 C  
HETATM   12  C   UNL     1     -11.871  12.741  66.818  1.00  0.00    -0.452 C  
HETATM   13  C   UNL     1     -12.048  13.221  65.381  1.00  0.00    -0.464 C  
HETATM   14  C   UNL     1      -8.997  19.598  67.508  1.00  0.00    -0.383 A  
HETATM   15  C   UNL     1      -8.702  17.264  68.081  1.00  0.00    -0.243 A  
HETATM   16  C   UNL     1      -8.176  18.553  67.919  1.00  0.00    -0.277 A  
ENDROOT
BRANCH   6  17
HETATM   17  C   UNL     1     -11.036  16.183  70.630  1.00  0.00    -0.296 C  
BRANCH  17  18
HETATM   18  N   UNL     1     -11.485  15.439  71.820  1.00  0.00    -0.412 NA 
HETATM   19  C   UNL     1     -12.164  16.282  72.809  1.00  0.00    -0.500 C  
HETATM   20  C   UNL     1     -12.905  15.277  73.662  1.00  0.00    -0.662 C  
HETATM   21  C   UNL     1     -13.390  14.255  72.653  1.00  0.00    -0.619 C  
HETATM   22  C   UNL     1     -12.413  14.352  71.484  1.00  0.00    -0.355 C  
ENDBRANCH  17  18
ENDBRANCH   6  17
TORSDOF 2
ENDMDL
MODEL        3
REMARK 921   NORMALIZED FREE ENERGY PREDICTED BY IDOCK:   -6.68 KCAL/MOL
REMARK 922        TOTAL FREE ENERGY PREDICTED BY IDOCK:   -8.13 KCAL/MOL
REMARK 923 INTER-LIGAND FREE ENERGY PREDICTED BY IDOCK:   -7.66 KCAL/MOL
REMARK 924 INTRA-LIGAND FREE ENERGY PREDICTED BY IDOCK:   -0.47 KCAL/MOL
REMARK 927      BINDING AFFINITY PREDICTED BY RF-SCORE:    0.00 PKD
ROOT
HETATM    1  O   UNL     1      -9.476  15.012  68.484  1.00  0.00    -0.190 OA 
HETATM    2  C   UNL     1     -10.694  15.369  67.827  1.00  0.00    -0.289 C  
HETATM    3  H   UNL     1      -8.795  14.943  67.825  1.00  0.00     0.000 HD 
HETATM    4  C   UNL     1     -11.054  14.250  66.826  1.00  0.00    -0.316 A  
HETATM    5  C   UNL     1     -10.535  16.777  67.115  1.00  0.00    -0.299 C  
HETATM    6  C   UNL     1     -11.809  15.481  68.906  1.00  0.00    -0.357 C  
HETATM    7  C   UNL     1      -8.065  16.775  66.418  1.00  0.00    -0.355 C  
HETATM    8  C   UNL     1     -10.213  17.973  68.042  1.00  0.00    -0.390 C  
HETATM    9  C   UNL     1     -10.231  13.121  66.666  1.00  0.00    -0.259 A  
HETATM   10  C   UNL     1     -10.590  12.070  65.815  1.00  0.00    -0.301 A  
HETATM   11  C   UNL     1      -9.517  16.821  65.961  1.00  0.00    -0.257 C  
HETATM   12  C   UNL     1      -8.780  18.023  68.562  1.00  0.00    -0.304 C  
HETATM   13  C   UNL     1      -7.725  17.818  67.481  1.00  0.00    -0.214 C  
HETATM   14  C   UNL     1     -11.782  12.128  65.100  1.00  0.00    -0.366 A  
HETATM   15  C   UNL     1     -12.247  14.293  66.081  1.00  0.00    -0.430 A  
HETATM   16  C   UNL     1     -12.608  13.241  65.227  1.00  0.00    -0.528 A  
ENDROOT
BRANCH   6  17
HETATM   17  C   UNL     1     -12.125  14.203  69.699  1.00  0.00    -0.349 C  
BRANCH  17  18
HETATM   18  N   UNL     1     -12.187  14.507  71.140  1.00  0.00    -0.327 NA 
HETATM   19  C   UNL     1     -11.512  15.759  71.496  1.00  0.00    -0.429 C  
HETATM   20  C   UNL     1     -12.084  16.077  72.860  1.00  0.00    -0.626 C  
HETATM   21  C   UNL     1     -13.540  15.677  72.728  1.00  0.00    -0.678 C  
HETATM   22  C   UNL     1     -13.567  14.616  71.630  1.00  0.00    -0.393 C  
ENDBRANCH  17  18
ENDBRANCH   6  17
TORSDOF 2
ENDMDL
MODEL        4
REMARK 921   NORMALIZED FREE ENERGY PREDICTED BY IDOCK:   -6.38 KCAL/MOL
REMARK 922        TOTAL FREE ENERGY PREDICTED BY IDOCK:   -7.81 KCAL/MOL
REMARK 923 INTER-LIGAND FREE ENERGY PREDICTED BY IDOCK:   -7.50 KCAL/MOL
REMARK 924 INTRA-LIGAND FREE ENERGY PREDICTED BY IDOCK:   -0.31 KCAL/MOL
REMARK 927      BINDING AFFINITY PREDICTED BY RF-SCORE:    0.00 PKD
ROOT
HETATM    1  O   UNL     1     -12.023  11.472  67.557  1.00  0.00    -0.629 OA 
HETATM    2  C   UNL     1     -10.938  12.401  67.612  1.00  0.00    -0.236 C  
HETATM    3  H   UNL     1     -11.984  11.022  66.722  1.00  0.00     0.000 HD 
HETATM    4  C   UNL     1     -11.112  13.422  66.467  1.00  0.00    -0.312 A  
HETATM    5  C   UNL     1      -9.556  11.629  67.516  1.00  0.00    -0.176 C  
HETATM    6  C   UNL     1     -11.002  13.137  68.981  1.00  0.00    -0.241 C  
HETATM    7  C   UNL     1     -10.131   9.641  65.998  1.00  0.00    -0.318 C  
HETATM    8  C   UNL     1      -9.269  10.609  68.645  1.00  0.00    -0.181 C  
HETATM    9  C   UNL     1     -12.195  13.338  65.572  1.00  0.00    -0.506 A  
HETATM   10  C   UNL     1     -12.398  14.302  64.579  1.00  0.00    -0.432 A  
HETATM   11  C   UNL     1      -9.297  10.903  66.183  1.00  0.00    -0.211 C  
HETATM   12  C   UNL     1     -10.056   9.306  68.557  1.00  0.00    -0.211 C  
HETATM   13  C   UNL     1     -10.039   8.669  67.171  1.00  0.00    -0.329 C  
HETATM   14  C   UNL     1     -11.519  15.373  64.457  1.00  0.00    -0.314 A  
HETATM   15  C   UNL     1     -10.228  14.505  66.313  1.00  0.00    -0.306 A  
HETATM   16  C   UNL     1     -10.430  15.472  65.318  1.00  0.00    -0.437 A  
ENDROOT
BRANCH   6  17
HETATM   17  C   UNL     1     -12.268  13.964  69.255  1.00  0.00    -0.277 C  
BRANCH  17  18
HETATM   18  N   UNL     1     -12.388  14.236  70.699  1.00  0.00    -0.337 NA 
HETATM   19  C   UNL     1     -13.247  15.385  71.001  1.00  0.00    -0.496 C  
HETATM   20  C   UNL     1     -13.579  15.186  72.463  1.00  0.00    -0.592 C  
HETATM   21  C   UNL     1     -13.765  13.686  72.576  1.00  0.00    -0.663 C  
HETATM   22  C   UNL     1     -12.936  13.092  71.440  1.00  0.00    -0.298 C  
ENDBRANCH  17  18
ENDBRANCH   6  17
TORSDOF 2
ENDMDL
MODEL        5
REMARK 921   NORMALIZED FREE ENERGY PREDICTED BY IDOCK:   -6.29 KCAL/MOL
REMARK 922        TOTAL FREE ENERGY PREDICTED BY IDOCK:   -7.71 KCAL/MOL
REMARK 923 INTER-LIGAND FREE ENERGY PREDICTED BY IDOCK:   -7.39 KCAL/MOL
REMARK 924 INTRA-LIGAND FREE ENERGY PREDICTED BY IDOCK:   -0.32 KCAL/MOL
REMARK 927      BINDING AFFINITY PREDICTED BY RF-SCORE:    0.00 PKD
ROOT
HETATM    1  O   UNL     1     -11.166  13.802  70.377  1.00  0.00    -0.480 OA 
HETATM    2  C   UNL     1     -11.620  14.958  69.670  1.00  0.00    -0.303 C  
HETATM    3  H   UNL     1     -10.695  14.094  71.149  1.00  0.00     0.000 HD 
HETATM    4  C   UNL     1     -10.387  15.784  69.243  1.00  0.00    -0.245 A  
HETATM    5  C   UNL     1     -12.611  15.796  70.580  1.00  0.00    -0.371 C  
HETATM    6  C   UNL     1     -12.389  14.480  68.406  1.00  0.00    -0.011 C  
HETATM    7  C   UNL     1     -11.681  15.395  72.938  1.00  0.00    -0.508 C  
HETATM    8  C   UNL     1     -13.901  15.067  71.028  1.00  0.00    -0.379 C  
HETATM    9  C   UNL     1      -9.082  15.370  69.569  1.00  0.00    -0.231 A  
HETATM   10  C   UNL     1      -7.960  16.075  69.122  1.00  0.00    -0.238 A  
HETATM   11  C   UNL     1     -11.986  16.412  71.845  1.00  0.00    -0.392 C  
HETATM   12  C   UNL     1     -13.708  14.021  72.121  1.00  0.00    -0.603 C  
HETATM   13  C   UNL     1     -12.871  14.509  73.299  1.00  0.00    -0.510 C  
HETATM   14  C   UNL     1      -8.118  17.215  68.340  1.00  0.00    -0.255 A  
HETATM   15  C   UNL     1     -10.521  16.949  68.466  1.00  0.00    -0.361 A  
HETATM   16  C   UNL     1      -9.397  17.656  68.017  1.00  0.00    -0.274 A  
ENDROOT
BRANCH   6  17
HETATM   17  C   UNL     1     -11.585  13.661  67.385  1.00  0.00    -0.356 C  
BRANCH  17  18
HETATM   18  N   UNL     1     -12.278  13.658  66.084  1.00  0.00    -0.438 NA 
HETATM   19  C   UNL     1     -11.724  14.624  65.131  1.00  0.00    -0.364 C  
HETATM   20  C   UNL     1     -12.253  14.132  63.801  1.00  0.00    -0.183 C  
HETATM   21  C   UNL     1     -12.165  12.624  63.929  1.00  0.00    -0.565 C  
HETATM   22  C   UNL     1     -12.234  12.344  65.429  1.00  0.00    -0.319 C  
ENDBRANCH  17  18
ENDBRANCH   6  17
TORSDOF 2
ENDMDL
MODEL        6
REMARK 921   NORMALIZED FREE ENERGY PREDICTED BY IDOCK:   -6.28 KCAL/MOL
REMARK 922        TOTAL FREE ENERGY PREDICTED BY IDOCK:   -7.69 KCAL/MOL
REMARK 923 INTER-LIGAND FREE ENERGY PREDICTED BY IDOCK:   -7.37 KCAL/MOL
REMARK 924 INTRA-LIGAND FREE ENERGY PREDICTED BY IDOCK:   -0.32 KCAL/MOL
REMARK 927      BINDING AFFINITY PREDICTED BY RF-SCORE:    0.00 PKD
ROOT
HETATM    1  O   UNL     1      -9.973  14.273  69.448  1.00  0.00    -0.421 OA 
HETATM    2  C   UNL     1     -11.357  14.520  69.193  1.00  0.00    -0.277 C  
HETATM    3  H   UNL     1      -9.909  13.527  70.034  1.00  0.00     0.000 HD 
HETATM    4  C   UNL     1     -12.048  14.854  70.533  1.00  0.00    -0.378 A  
HETATM    5  C   UNL     1     -12.011  13.262  68.483  1.00  0.00    -0.340 C  
HETATM    6  C   UNL     1     -11.461  15.740  68.235  1.00  0.00    -0.338 C  
HETATM    7  C   UNL     1     -10.705  11.302  69.503  1.00  0.00    -0.147 C  
HETATM    8  C   UNL     1     -11.413  12.870  67.110  1.00  0.00    -0.388 C  
HETATM    9  C   UNL     1     -11.329  14.866  71.742  1.00  0.00    -0.175 A  
HETATM   10  C   UNL     1     -11.934  15.240  72.947  1.00  0.00    -0.519 A  
HETATM   11  C   UNL     1     -12.060  11.977  69.331  1.00  0.00    -0.261 C  
HETATM   12  C   UNL     1     -10.050  12.187  67.168  1.00  0.00    -0.220 C  
HETATM   13  C   UNL     1      -9.972  11.055  68.187  1.00  0.00    -0.190 C  
HETATM   14  C   UNL     1     -13.276  15.607  72.970  1.00  0.00    -0.664 A  
HETATM   15  C   UNL     1     -13.408  15.212  70.584  1.00  0.00    -0.304 A  
HETATM   16  C   UNL     1     -14.015  15.587  71.791  1.00  0.00    -0.569 A  
ENDROOT
BRANCH   6  17
HETATM   17  C   UNL     1     -10.893  17.070  68.756  1.00  0.00    -0.258 C  
BRANCH  17  18
HETATM   18  N   UNL     1     -10.190  17.777  67.671  1.00  0.00    -0.342 NA 
HETATM   19  C   UNL     1     -10.786  19.077  67.346  1.00  0.00    -0.473 C  
HETATM   20  C   UNL     1      -9.681  19.777  66.586  1.00  0.00    -0.519 C  
HETATM   21  C   UNL     1      -8.429  19.360  67.331  1.00  0.00    -0.330 C  
HETATM   22  C   UNL     1      -8.778  18.027  67.988  1.00  0.00    -0.261 C  
ENDBRANCH  17  18
ENDBRANCH   6  17
TORSDOF 2
ENDMDL
MODEL        7
REMARK 921   NORMALIZED FREE ENERGY PREDICTED BY IDOCK:   -6.18 KCAL/MOL
REMARK 922        TOTAL FREE ENERGY PREDICTED BY IDOCK:   -7.58 KCAL/MOL
REMARK 923 INTER-LIGAND FREE ENERGY PREDICTED BY IDOCK:   -7.22 KCAL/MOL
REMARK 924 INTRA-LIGAND FREE ENERGY PREDICTED BY IDOCK:   -0.36 KCAL/MOL
REMARK 927      BINDING AFFINITY PREDICTED BY RF-SCORE:    0.00 PKD
ROOT
HETATM    1  O   UNL     1      -9.451  13.956  67.670  1.00  0.00    -0.201 OA 
HETATM    2  C   UNL     1     -10.795  14.165  67.229  1.00  0.00    -0.285 C  
HETATM    3  H   UNL     1      -8.865  14.269  66.992  1.00  0.00     0.000 HD 
HETATM    4  C   UNL     1     -11.015  13.347  65.937  1.00  0.00    -0.284 A  
HETATM    5  C   UNL     1     -11.059  15.712  67.006  1.00  0.00    -0.200 C  
HETATM    6  C   UNL     1     -11.754  13.651  68.340  1.00  0.00    -0.393 C  
HETATM    7  C   UNL     1      -8.768  16.564  66.223  1.00  0.00    -0.369 C  
HETATM    8  C   UNL     1     -10.903  16.613  68.255  1.00  0.00    -0.356 C  
HETATM    9  C   UNL     1      -9.982  12.575  65.376  1.00  0.00    -0.236 A  
HETATM   10  C   UNL     1     -10.197  11.775  64.249  1.00  0.00    -0.344 A  
HETATM   11  C   UNL     1     -10.240  16.366  65.879  1.00  0.00    -0.379 C  
HETATM   12  C   UNL     1      -9.465  16.875  68.690  1.00  0.00    -0.268 C  
HETATM   13  C   UNL     1      -8.542  17.288  67.548  1.00  0.00    -0.213 C  
HETATM   14  C   UNL     1     -11.454  11.733  63.654  1.00  0.00    -0.524 A  
HETATM   15  C   UNL     1     -12.272  13.301  65.308  1.00  0.00    -0.492 A  
HETATM   16  C   UNL     1     -12.490  12.500  64.178  1.00  0.00    -0.518 A  
ENDROOT
BRANCH   6  17
HETATM   17  C   UNL     1     -11.660  12.157  68.688  1.00  0.00    -0.321 C  
BRANCH  17  18
HETATM   18  N   UNL     1     -11.829  11.967  70.140  1.00  0.00    -0.330 NA 
HETATM   19  C   UNL     1     -12.678  12.988  70.762  1.00  0.00    -0.165 C  
HETATM   20  C   UNL     1     -13.068  12.351  72.078  1.00  0.00    -0.470 C  
HETATM   21  C   UNL     1     -13.283  10.896  71.709  1.00  0.00    -0.513 C  
HETATM   22  C   UNL     1     -12.423  10.665  70.469  1.00  0.00    -0.358 C  
ENDBRANCH  17  18
ENDBRANCH   6  17
TORSDOF 2
ENDMDL
MODEL        8
REMARK 921   NORMALIZED FREE ENERGY PREDICTED BY IDOCK:   -6.10 KCAL/MOL
REMARK 922        TOTAL FREE ENERGY PREDICTED BY IDOCK:   -7.49 KCAL/MOL
REMARK 923 INTER-LIGAND FREE ENERGY PREDICTED BY IDOCK:   -7.17 KCAL/MOL
REMARK 924 INTRA-LIGAND FREE ENERGY PREDICTED BY IDOCK:   -0.32 KCAL/MOL
REMARK 927      BINDING AFFINITY PREDICTED BY RF-SCORE:    0.00 PKD
ROOT
HETATM    1  O   UNL     1      -9.363  13.675  67.472  1.00  0.00    -0.207 OA 
HETATM    2  C   UNL     1     -10.758  13.877  67.233  1.00  0.00    -0.284 C  
HETATM    3  H   UNL     1      -8.879  14.103  66.776  1.00  0.00     0.000 HD 
HETATM    4  C   UNL     1     -11.118  13.230  65.878  1.00  0.00    -0.301 A  
HETATM    5  C   UNL     1     -11.094  15.426  67.261  1.00  0.00    -0.302 C  
HETATM    6  C   UNL     1     -11.550  13.176  68.372  1.00  0.00    -0.372 C  
HETATM    7  C   UNL     1      -8.949  16.482  66.326  1.00  0.00    -0.359 C  
HETATM    8  C   UNL     1     -10.804  16.159  68.593  1.00  0.00    -0.311 C  
HETATM    9  C   UNL     1     -10.143  12.588  65.093  1.00  0.00    -0.266 A  
HETATM   10  C   UNL     1     -10.479  11.937  63.901  1.00  0.00    -0.441 A  
HETATM   11  C   UNL     1     -10.446  16.263  66.143  1.00  0.00    -0.330 C  
HETATM   12  C   UNL     1      -9.331  16.427  68.879  1.00  0.00    -0.249 C  
HETATM   13  C   UNL     1      -8.575  17.032  67.701  1.00  0.00    -0.213 C  
HETATM   14  C   UNL     1     -11.800  11.917  63.465  1.00  0.00    -0.560 A  
HETATM   15  C   UNL     1     -12.444  13.210  65.408  1.00  0.00    -0.535 A  
HETATM   16  C   UNL     1     -12.782  12.558  64.214  1.00  0.00    -0.432 A  
ENDROOT
BRANCH   6  17
HETATM   17  C   UNL     1     -11.369  11.655  68.496  1.00  0.00    -0.274 C  
BRANCH  17  18
HETATM   18  N   UNL     1     -11.352  11.264  69.918  1.00  0.00    -0.272 NA 
HETATM   19  C   UNL     1     -12.657  10.809  70.408  1.00  0.00    -0.314 C  
HETATM   20  C   UNL     1     -12.302  10.060  71.673  1.00  0.00    -0.486 C  
HETATM   21  C   UNL     1     -11.017   9.344  71.305  1.00  0.00    -0.440 C  
HETATM   22  C   UNL     1     -10.397  10.183  70.190  1.00  0.00    -0.224 C  
ENDBRANCH  17  18
ENDBRANCH   6  17
TORSDOF 2
ENDMDL
MODEL        9
REMARK 921   NORMALIZED FREE ENERGY PREDICTED BY IDOCK:   -6.09 KCAL/MOL
REMARK 922        TOTAL FREE ENERGY PREDICTED BY IDOCK:   -7.48 KCAL/MOL
REMARK 923 INTER-LIGAND FREE ENERGY PREDICTED BY IDOCK:   -7.07 KCAL/MOL
REMARK 924 INTRA-LIGAND FREE ENERGY PREDICTED BY IDOCK:   -0.41 KCAL/MOL
REMARK 927      BINDING AFFINITY PREDICTED BY RF-SCORE:    0.00 PKD
ROOT
HETATM    1  O   UNL     1      -9.276  13.949  65.890  1.00  0.00    -0.498 OA 
HETATM    2  C   UNL     1     -10.565  14.504  66.162  1.00  0.00    -0.306 C  
HETATM    3  H   UNL     1      -9.202  13.128  66.363  1.00  0.00     0.000 HD 
HETATM    4  C   UNL     1     -10.670  14.770  67.679  1.00  0.00    -0.270 A  
HETATM    5  C   UNL     1     -11.699  13.521  65.650  1.00  0.00    -0.363 C  
HETATM    6  C   UNL     1     -10.685  15.847  65.388  1.00  0.00    -0.415 C  
HETATM    7  C   UNL     1     -10.638  11.211  66.004  1.00  0.00    -0.298 C  
HETATM    8  C   UNL     1     -11.703  13.222  64.131  1.00  0.00    -0.470 C  
HETATM    9  C   UNL     1      -9.609  14.461  68.550  1.00  0.00    -0.217 A  
HETATM   10  C   UNL     1      -9.671  14.768  69.913  1.00  0.00     0.286 A  
HETATM   11  C   UNL     1     -11.769  12.163  66.371  1.00  0.00    -0.394 C  
HETATM   12  C   UNL     1     -10.605  12.278  63.653  1.00  0.00    -0.501 C  
HETATM   13  C   UNL     1     -10.465  11.017  64.499  1.00  0.00    -0.411 C  
HETATM   14  C   UNL     1     -10.800  15.390  70.438  1.00  0.00    -0.333 A  
HETATM   15  C   UNL     1     -11.807  15.384  68.236  1.00  0.00    -0.225 A  
HETATM   16  C   UNL     1     -11.870  15.692  69.602  1.00  0.00    -0.377 A  
ENDROOT
BRANCH   6  17
HETATM   17  C   UNL     1      -9.675  16.944  65.760  1.00  0.00    -0.092 C  
BRANCH  17  18
HETATM   18  N   UNL     1     -10.321  17.952  66.620  1.00  0.00    -0.365 NA 
HETATM   19  C   UNL     1      -9.614  18.173  67.885  1.00  0.00    -0.288 C  
HETATM   20  C   UNL     1     -10.161  19.503  68.353  1.00  0.00    -0.546 C  
HETATM   21  C   UNL     1     -10.278  20.302  67.070  1.00  0.00    -0.503 C  
HETATM   22  C   UNL     1     -10.430  19.261  65.963  1.00  0.00    -0.487 C  
ENDBRANCH  17  18
ENDBRANCH   6  17
TORSDOF 2
ENDMDL
MODEL       10
REMARK 921   NORMALIZED FREE ENERGY PREDICTED BY IDOCK:   -6.07 KCAL/MOL
REMARK 922        TOTAL FREE ENERGY PREDICTED BY IDOCK:   -7.46 KCAL/MOL
REMARK 923 INTER-LIGAND FREE ENERGY PREDICTED BY IDOCK:   -6.97 KCAL/MOL
REMARK 924 INTRA-LIGAND FREE ENERGY PREDICTED BY IDOCK:   -0.49 KCAL/MOL
REMARK 927      BINDING AFFINITY PREDICTED BY RF-SCORE:    0.00 PKD
ROOT
HETATM    1  O   UNL     1      -9.897  13.549  67.480  1.00  0.00    -0.220 OA 
HETATM    2  C   UNL     1     -11.209  13.165  67.899  1.00  0.00    -0.270 C  
HETATM    3  H   UNL     1      -9.530  12.838  66.968  1.00  0.00     0.000 HD 
HETATM    4  C   UNL     1     -11.089  11.901  68.778  1.00  0.00    -0.296 A  
HETATM    5  C   UNL     1     -12.133  12.923  66.633  1.00  0.00    -0.360 C  
HETATM    6  C   UNL     1     -11.809  14.328  68.738  1.00  0.00    -0.377 C  
HETATM    7  C   UNL     1     -10.476  12.020  64.894  1.00  0.00    -0.325 C  
HETATM    8  C   UNL     1     -12.349  14.145  65.708  1.00  0.00    -0.481 C  
HETATM    9  C   UNL     1      -9.839  11.310  69.041  1.00  0.00    -0.101 A  
HETATM   10  C   UNL     1      -9.717  10.210  69.896  1.00  0.00    -0.195 A  
HETATM   11  C   UNL     1     -11.721  11.747  65.729  1.00  0.00    -0.093 C  
HETATM   12  C   UNL     1     -11.159  14.509  64.826  1.00  0.00    -0.400 C  
HETATM   13  C   UNL     1     -10.548  13.319  64.094  1.00  0.00    -0.331 C  
HETATM   14  C   UNL     1     -10.846   9.673  70.507  1.00  0.00    -0.371 A  
HETATM   15  C   UNL     1     -12.217  11.330  69.394  1.00  0.00    -0.315 A  
HETATM   16  C   UNL     1     -12.096  10.228  70.252  1.00  0.00    -0.330 A  
ENDROOT
BRANCH   6  17
HETATM   17  C   UNL     1     -11.057  14.702  70.025  1.00  0.00    -0.164 C  
BRANCH  17  18
HETATM   18  N   UNL     1     -11.932  14.503  71.194  1.00  0.00    -0.343 NA 
HETATM   19  C   UNL     1     -11.767  15.534  72.223  1.00  0.00    -0.482 C  
HETATM   20  C   UNL     1     -13.025  15.394  73.051  1.00  0.00    -0.598 C  
HETATM   21  C   UNL     1     -14.095  15.118  72.013  1.00  0.00    -0.659 C  
HETATM   22  C   UNL     1     -13.355  14.492  70.833  1.00  0.00    -0.265 C  
ENDBRANCH  17  18
ENDBRANCH   6  17
TORSDOF 2
ENDMDL
MODEL       11
REMARK 921   NORMALIZED FREE ENERGY PREDICTED BY IDOCK:   -6.03 KCAL/MOL
REMARK 922        TOTAL FREE ENERGY PREDICTED BY IDOCK:   -7.42 KCAL/MOL
REMARK 923 INTER-LIGAND FREE ENERGY PREDICTED BY IDOCK:   -6.80 KCAL/MOL
REMARK 924 INTRA-LIGAND FREE ENERGY PREDICTED BY IDOCK:   -0.62 KCAL/MOL
REMARK 927      BINDING AFFINITY PREDICTED BY RF-SCORE:    0.00 PKD
ROOT
HETATM    1  O   UNL     1     -11.913  11.968  66.664  1.00  0.00    -0.614 OA 
HETATM    2  C   UNL     1     -10.649  12.609  66.847  1.00  0.00    -0.240 C  
HETATM    3  H   UNL     1     -12.543  12.627  66.397  1.00  0.00     0.000 HD 
HETATM    4  C   UNL     1     -10.795  13.667  67.962  1.00  0.00    -0.261 A  
HETATM    5  C   UNL     1     -10.162  13.248  65.480  1.00  0.00    -0.298 C  
HETATM    6  C   UNL     1      -9.619  11.529  67.285  1.00  0.00    -0.183 C  
HETATM    7  C   UNL     1     -12.370  13.937  64.367  1.00  0.00    -0.400 C  
HETATM    8  C   UNL     1      -9.947  12.261  64.308  1.00  0.00    -0.244 C  
HETATM    9  C   UNL     1     -12.027  13.881  68.608  1.00  0.00    -0.401 A  
HETATM   10  C   UNL     1     -12.147  14.786  69.668  1.00  0.00    -0.346 A  
HETATM   11  C   UNL     1     -11.035  14.396  64.941  1.00  0.00    -0.416 C  
HETATM   12  C   UNL     1     -11.223  11.734  63.660  1.00  0.00    -0.519 C  
HETATM   13  C   UNL     1     -12.240  12.822  63.332  1.00  0.00    -0.594 C  
HETATM   14  C   UNL     1     -11.036  15.500  70.105  1.00  0.00    -0.336 A  
HETATM   15  C   UNL     1      -9.690  14.412  68.411  1.00  0.00    -0.226 A  
HETATM   16  C   UNL     1      -9.809  15.319  69.474  1.00  0.00    -0.230 A  
ENDROOT
BRANCH   6  17
HETATM   17  C   UNL     1      -9.909  10.803  68.608  1.00  0.00    -0.184 C  
BRANCH  17  18
HETATM   18  N   UNL     1     -10.642   9.551  68.345  1.00  0.00    -0.226 NA 
HETATM   19  C   UNL     1     -10.197   8.865  67.129  1.00  0.00    -0.269 C  
HETATM   20  C   UNL     1     -10.728   7.461  67.316  1.00  0.00    -0.379 C  
HETATM   21  C   UNL     1     -10.517   7.205  68.796  1.00  0.00    -0.217 C  
HETATM   22  C   UNL     1     -10.515   8.587  69.445  1.00  0.00    -0.218 C  
ENDBRANCH  17  18
ENDBRANCH   6  17
TORSDOF 2
ENDMDL
MODEL       12
REMARK 921   NORMALIZED FREE ENERGY PREDICTED BY IDOCK:   -5.86 KCAL/MOL
REMARK 922        TOTAL FREE ENERGY PREDICTED BY IDOCK:   -7.23 KCAL/MOL
REMARK 923 INTER-LIGAND FREE ENERGY PREDICTED BY IDOCK:   -6.70 KCAL/MOL
REMARK 924 INTRA-LIGAND FREE ENERGY PREDICTED BY IDOCK:   -0.53 KCAL/MOL
REMARK 927      BINDING AFFINITY PREDICTED BY RF-SCORE:    0.00 PKD
ROOT
HETATM    1  O   UNL     1      -9.611  13.228  67.706  1.00  0.00    -0.201 OA 
HETATM    2  C   UNL     1     -10.964  13.461  67.309  1.00  0.00    -0.272 C  
HETATM    3  H   UNL     1      -9.041  13.666  67.084  1.00  0.00     0.000 HD 
HETATM    4  C   UNL     1     -11.171  12.859  65.903  1.00  0.00    -0.323 A  
HETATM    5  C   UNL     1     -11.279  15.015  67.343  1.00  0.00    -0.337 C  
HETATM    6  C   UNL     1     -11.896  12.743  68.326  1.00  0.00    -0.357 C  
HETATM    7  C   UNL     1      -9.024  16.058  66.700  1.00  0.00    -0.293 C  
HETATM    8  C   UNL     1     -11.140  15.705  68.721  1.00  0.00    -0.307 C  
HETATM    9  C   UNL     1     -10.119  12.222  65.219  1.00  0.00    -0.295 A  
HETATM   10  C   UNL     1     -10.320  11.609  63.978  1.00  0.00    -0.405 A  
HETATM   11  C   UNL     1     -10.491  15.870  66.334  1.00  0.00    -0.311 C  
HETATM   12  C   UNL     1      -9.706  15.939  69.187  1.00  0.00    -0.249 C  
HETATM   13  C   UNL     1      -8.808  16.563  68.124  1.00  0.00    -0.203 C  
HETATM   14  C   UNL     1     -11.580  11.624  63.388  1.00  0.00    -0.340 A  
HETATM   15  C   UNL     1     -12.432  12.875  65.279  1.00  0.00    -0.552 A  
HETATM   16  C   UNL     1     -12.634  12.261  64.034  1.00  0.00    -0.521 A  
ENDROOT
BRANCH   6  17
HETATM   17  C   UNL     1     -11.752  11.216  68.425  1.00  0.00    -0.279 C  
BRANCH  17  18
HETATM   18  N   UNL     1     -10.924  10.864  69.593  1.00  0.00    -0.260 NA 
HETATM   19  C   UNL     1     -11.641  10.064  70.590  1.00  0.00    -0.340 C  
HETATM   20  C   UNL     1     -10.522   9.461  71.412  1.00  0.00    -0.358 C  
HETATM   21  C   UNL     1      -9.467   9.134  70.373  1.00  0.00    -0.269 C  
HETATM   22  C   UNL     1      -9.726  10.100  69.220  1.00  0.00    -0.224 C  
ENDBRANCH  17  18
ENDBRANCH   6  17
TORSDOF 2
ENDMDL
MODEL       13
REMARK 921   NORMALIZED FREE ENERGY PREDICTED BY IDOCK:   -5.84 KCAL/MOL
REMARK 922        TOTAL FREE ENERGY PREDICTED BY IDOCK:   -7.20 KCAL/MOL
REMARK 923 INTER-LIGAND FREE ENERGY PREDICTED BY IDOCK:   -6.74 KCAL/MOL
REMARK 924 INTRA-LIGAND FREE ENERGY PREDICTED BY IDOCK:   -0.46 KCAL/MOL
REMARK 927      BINDING AFFINITY PREDICTED BY RF-SCORE:    0.00 PKD
ROOT
HETATM    1  O   UNL     1     -10.458  17.600  66.692  1.00  0.00    -0.335 OA 
HETATM    2  C   UNL     1      -9.805  16.329  66.742  1.00  0.00    -0.245 C  
HETATM    3  H   UNL     1     -10.370  18.010  67.544  1.00  0.00     0.000 HD 
HETATM    4  C   UNL     1     -10.507  15.462  67.809  1.00  0.00    -0.266 A  
HETATM    5  C   UNL     1      -8.263  16.523  67.053  1.00  0.00    -0.227 C  
HETATM    6  C   UNL     1      -9.950  15.657  65.347  1.00  0.00    -0.311 C  
HETATM    7  C   UNL     1      -8.254  18.597  68.566  1.00  0.00    -0.370 C  
HETATM    8  C   UNL     1      -7.460  17.347  66.017  1.00  0.00    -0.255 C  
HETATM    9  C   UNL     1     -11.592  15.958  68.556  1.00  0.00    -0.351 A  
HETATM   10  C   UNL     1     -12.277  15.152  69.471  1.00  0.00    -0.268 A  
HETATM   11  C   UNL     1      -7.938  17.112  68.438  1.00  0.00    -0.250 C  
HETATM   12  C   UNL     1      -7.705  18.852  66.056  1.00  0.00    -0.239 C  
HETATM   13  C   UNL     1      -7.642  19.450  67.457  1.00  0.00    -0.282 C  
HETATM   14  C   UNL     1     -11.890  13.830  69.663  1.00  0.00    -0.393 A  
HETATM   15  C   UNL     1     -10.124  14.127  68.033  1.00  0.00    -0.233 A  
HETATM   16  C   UNL     1     -10.810  13.318  68.950  1.00  0.00    -0.245 A  
ENDROOT
BRANCH   6  17
HETATM   17  C   UNL     1     -11.382  15.367  64.872  1.00  0.00    -0.363 C  
BRANCH  17  18
HETATM   18  N   UNL     1     -11.597  13.912  64.781  1.00  0.00    -0.357 NA 
HETATM   19  C   UNL     1     -12.531  13.530  63.717  1.00  0.00    -0.227 C  
HETATM   20  C   UNL     1     -12.241  12.059  63.521  1.00  0.00    -0.653 C  
HETATM   21  C   UNL     1     -10.734  11.980  63.664  1.00  0.00    -0.506 C  
HETATM   22  C   UNL     1     -10.351  13.176  64.533  1.00  0.00    -0.368 C  
ENDBRANCH  17  18
ENDBRANCH   6  17
TORSDOF 2
ENDMDL
MODEL       14
REMARK 921   NORMALIZED FREE ENERGY PREDICTED BY IDOCK:   -5.80 KCAL/MOL
REMARK 922        TOTAL FREE ENERGY PREDICTED BY IDOCK:   -7.16 KCAL/MOL
REMARK 923 INTER-LIGAND FREE ENERGY PREDICTED BY IDOCK:   -6.80 KCAL/MOL
REMARK 924 INTRA-LIGAND FREE ENERGY PREDICTED BY IDOCK:   -0.36 KCAL/MOL
REMARK 927      BINDING AFFINITY PREDICTED BY RF-SCORE:    0.00 PKD
ROOT
HETATM    1  O   UNL     1     -12.389  14.446  68.270  1.00  0.00    -0.604 OA 
HETATM    2  C   UNL     1     -11.484  14.292  69.365  1.00  0.00    -0.292 C  
HETATM    3  H   UNL     1     -12.618  15.365  68.203  1.00  0.00     0.000 HD 
HETATM    4  C   UNL     1     -12.201  14.741  70.657  1.00  0.00    -0.385 A  
HETATM    5  C   UNL     1     -10.162  15.125  69.099  1.00  0.00    -0.249 C  
HETATM    6  C   UNL     1     -11.109  12.787  69.474  1.00  0.00    -0.046 C  
HETATM    7  C   UNL     1     -11.030  17.141  67.768  1.00  0.00    -0.180 C  
HETATM    8  C   UNL     1      -9.348  14.722  67.845  1.00  0.00    -0.193 C  
HETATM    9  C   UNL     1     -13.525  15.219  70.629  1.00  0.00    -0.257 A  
HETATM   10  C   UNL     1     -14.204  15.557  71.804  1.00  0.00    -0.563 A  
HETATM   11  C   UNL     1     -10.345  16.653  69.038  1.00  0.00    -0.317 C  
HETATM   12  C   UNL     1      -9.948  15.161  66.513  1.00  0.00    -0.279 C  
HETATM   13  C   UNL     1     -10.383  16.622  66.486  1.00  0.00    -0.300 C  
HETATM   14  C   UNL     1     -13.571  15.428  73.036  1.00  0.00    -0.563 A  
HETATM   15  C   UNL     1     -11.578  14.636  71.913  1.00  0.00    -0.053 A  
HETATM   16  C   UNL     1     -12.257  14.974  73.092  1.00  0.00    -0.473 A  
ENDROOT
BRANCH   6  17
HETATM   17  C   UNL     1     -12.264  11.812  69.753  1.00  0.00    -0.203 C  
BRANCH  17  18
HETATM   18  N   UNL     1     -11.930  10.949  70.900  1.00  0.00    -0.329 NA 
HETATM   19  C   UNL     1     -13.068  10.162  71.384  1.00  0.00    -0.416 C  
HETATM   20  C   UNL     1     -12.407   9.073  72.200  1.00  0.00    -0.442 C  
HETATM   21  C   UNL     1     -11.172   8.733  71.388  1.00  0.00    -0.362 C  
HETATM   22  C   UNL     1     -10.858   9.994  70.587  1.00  0.00    -0.297 C  
ENDBRANCH  17  18
ENDBRANCH   6  17
TORSDOF 2
ENDMDL
MODEL       15
REMARK 921   NORMALIZED FREE ENERGY PREDICTED BY IDOCK:   -5.76 KCAL/MOL
REMARK 922        TOTAL FREE ENERGY PREDICTED BY IDOCK:   -7.12 KCAL/MOL
REMARK 923 INTER-LIGAND FREE ENERGY PREDICTED BY IDOCK:   -6.72 KCAL/MOL
REMARK 924 INTRA-LIGAND FREE ENERGY PREDICTED BY IDOCK:   -0.40 KCAL/MOL
REMARK 927      BINDING AFFINITY PREDICTED BY RF-SCORE:    0.00 PKD
ROOT
HETATM    1  O   UNL     1     -12.366  11.091  68.251  1.00  0.00    -0.717 OA 
HETATM    2  C   UNL     1     -11.220  11.943  68.298  1.00  0.00    -0.261 C  
HETATM    3  H   UNL     1     -12.246  10.472  67.540  1.00  0.00     0.000 HD 
HETATM    4  C   UNL     1     -11.124  12.705  66.958  1.00  0.00    -0.322 A  
HETATM    5  C   UNL     1      -9.918  11.086  68.588  1.00  0.00    -0.205 C  
HETATM    6  C   UNL     1     -11.418  12.956  69.461  1.00  0.00    -0.292 C  
HETATM    7  C   UNL     1     -10.442   8.859  67.425  1.00  0.00    -0.347 C  
HETATM    8  C   UNL     1      -9.899  10.314  69.930  1.00  0.00    -0.153 C  
HETATM    9  C   UNL     1     -12.064  12.498  65.932  1.00  0.00    -0.420 A  
HETATM   10  C   UNL     1     -12.026  13.240  64.746  1.00  0.00    -0.431 A  
HETATM   11  C   UNL     1      -9.532  10.079  67.489  1.00  0.00    -0.169 C  
HETATM   12  C   UNL     1     -10.783   9.072  69.975  1.00  0.00    -0.247 C  
HETATM   13  C   UNL     1     -10.618   8.154  68.768  1.00  0.00    -0.149 C  
HETATM   14  C   UNL     1     -11.041  14.205  64.559  1.00  0.00    -0.340 A  
HETATM   15  C   UNL     1     -10.129  13.675  66.739  1.00  0.00    -0.269 A  
HETATM   16  C   UNL     1     -10.089  14.419  65.551  1.00  0.00    -0.382 A  
ENDROOT
BRANCH   6  17
HETATM   17  C   UNL     1     -12.628  13.896  69.350  1.00  0.00     0.152 C  
BRANCH  17  18
HETATM   18  N   UNL     1     -12.775  14.675  70.593  1.00  0.00    -0.349 NA 
HETATM   19  C   UNL     1     -13.313  13.890  71.708  1.00  0.00    -0.381 C  
HETATM   20  C   UNL     1     -12.947  14.721  72.918  1.00  0.00    -0.583 C  
HETATM   21  C   UNL     1     -11.563  15.239  72.578  1.00  0.00    -0.498 C  
HETATM   22  C   UNL     1     -11.500  15.243  71.052  1.00  0.00    -0.356 C  
ENDBRANCH  17  18
ENDBRANCH   6  17
TORSDOF 2
ENDMDL
MODEL       16
REMARK 921   NORMALIZED FREE ENERGY PREDICTED BY IDOCK:   -5.75 KCAL/MOL
REMARK 922        TOTAL FREE ENERGY PREDICTED BY IDOCK:   -7.10 KCAL/MOL
REMARK 923 INTER-LIGAND FREE ENERGY PREDICTED BY IDOCK:   -6.62 KCAL/MOL
REMARK 924 INTRA-LIGAND FREE ENERGY PREDICTED BY IDOCK:   -0.48 KCAL/MOL
REMARK 927      BINDING AFFINITY PREDICTED BY RF-SCORE:    0.00 PKD
ROOT
HETATM    1  O   UNL     1     -11.951  14.627  67.531  1.00  0.00    -0.481 OA 
HETATM    2  C   UNL     1     -10.722  13.907  67.410  1.00  0.00    -0.272 C  
HETATM    3  H   UNL     1     -12.035  14.918  68.431  1.00  0.00     0.000 HD 
HETATM    4  C   UNL     1     -10.782  12.681  68.347  1.00  0.00    -0.260 A  
HETATM    5  C   UNL     1      -9.500  14.857  67.750  1.00  0.00    -0.203 C  
HETATM    6  C   UNL     1     -10.585  13.430  65.936  1.00  0.00    -0.286 C  
HETATM    7  C   UNL     1     -10.486  16.421  69.531  1.00  0.00    -0.301 C  
HETATM    8  C   UNL     1      -9.331  16.097  66.839  1.00  0.00    -0.245 C  
HETATM    9  C   UNL     1     -11.909  12.429  69.150  1.00  0.00    -0.352 A  
HETATM   10  C   UNL     1     -11.998  11.281  69.944  1.00  0.00    -0.440 A  
HETATM   11  C   UNL     1      -9.441  15.362  69.204  1.00  0.00    -0.242 C  
HETATM   12  C   UNL     1     -10.332  17.221  67.081  1.00  0.00    -0.321 C  
HETATM   13  C   UNL     1     -10.499  17.592  68.551  1.00  0.00    -0.337 C  
HETATM   14  C   UNL     1     -10.957  10.359  69.956  1.00  0.00    -0.370 A  
HETATM   15  C   UNL     1      -9.735  11.742  68.389  1.00  0.00    -0.197 A  
HETATM   16  C   UNL     1      -9.823  10.591  69.185  1.00  0.00    -0.233 A  
ENDROOT
BRANCH   6  17
HETATM   17  C   UNL     1     -11.675  12.477  65.421  1.00  0.00    -0.398 C  
BRANCH  17  18
HETATM   18  N   UNL     1     -11.087  11.492  64.495  1.00  0.00    -0.304 NA 
HETATM   19  C   UNL     1     -10.251  12.102  63.457  1.00  0.00    -0.424 C  
HETATM   20  C   UNL     1      -9.428  10.936  62.954  1.00  0.00    -0.377 C  
HETATM   21  C   UNL     1      -9.120  10.158  64.218  1.00  0.00    -0.288 C  
HETATM   22  C   UNL     1     -10.248  10.505  65.188  1.00  0.00    -0.288 C  
ENDBRANCH  17  18
ENDBRANCH   6  17
TORSDOF 2
ENDMDL
MODEL       17
REMARK 921   NORMALIZED FREE ENERGY PREDICTED BY IDOCK:   -5.72 KCAL/MOL
REMARK 922        TOTAL FREE ENERGY PREDICTED BY IDOCK:   -7.07 KCAL/MOL
REMARK 923 INTER-LIGAND FREE ENERGY PREDICTED BY IDOCK:   -6.43 KCAL/MOL
REMARK 924 INTRA-LIGAND FREE ENERGY PREDICTED BY IDOCK:   -0.64 KCAL/MOL
REMARK 927      BINDING AFFINITY PREDICTED BY RF-SCORE:    0.00 PKD
ROOT
HETATM    1  O   UNL     1     -10.869  13.876  70.175  1.00  0.00    -0.380 OA 
HETATM    2  C   UNL     1     -11.430  15.005  69.501  1.00  0.00    -0.294 C  
HETATM    3  H   UNL     1     -10.438  14.187  70.963  1.00  0.00     0.000 HD 
HETATM    4  C   UNL     1     -10.283  15.965  69.119  1.00  0.00    -0.234 A  
HETATM    5  C   UNL     1     -12.510  15.708  70.425  1.00  0.00    -0.409 C  
HETATM    6  C   UNL     1     -12.135  14.497  68.212  1.00  0.00    -0.234 C  
HETATM    7  C   UNL     1     -11.568  15.320  72.781  1.00  0.00    -0.439 C  
HETATM    8  C   UNL     1     -13.725  14.838  70.831  1.00  0.00    -0.213 C  
HETATM    9  C   UNL     1      -8.946  15.673  69.448  1.00  0.00    -0.265 A  
HETATM   10  C   UNL     1      -7.896  16.501  69.040  1.00  0.00    -0.226 A  
HETATM   11  C   UNL     1     -11.962  16.339  71.719  1.00  0.00    -0.473 C  
HETATM   12  C   UNL     1     -13.439  13.779  71.891  1.00  0.00    -0.514 C  
HETATM   13  C   UNL     1     -12.666  14.307  73.096  1.00  0.00    -0.351 C  
HETATM   14  C   UNL     1      -8.160  17.646  68.295  1.00  0.00    -0.278 A  
HETATM   15  C   UNL     1     -10.526  17.136  68.379  1.00  0.00    -0.376 A  
HETATM   16  C   UNL     1      -9.473  17.968  67.969  1.00  0.00    -0.284 A  
ENDROOT
BRANCH   6  17
HETATM   17  C   UNL     1     -11.242  13.797  67.175  1.00  0.00    -0.311 C  
BRANCH  17  18
HETATM   18  N   UNL     1     -10.756  12.514  67.712  1.00  0.00    -0.214 NA 
HETATM   19  C   UNL     1     -11.816  11.514  67.869  1.00  0.00    -0.184 C  
HETATM   20  C   UNL     1     -11.046  10.216  67.975  1.00  0.00    -0.302 C  
HETATM   21  C   UNL     1      -9.922  10.396  66.975  1.00  0.00    -0.252 C  
HETATM   22  C   UNL     1      -9.724  11.906  66.863  1.00  0.00    -0.200 C  
ENDBRANCH  17  18
ENDBRANCH   6  17
TORSDOF 2
ENDMDL
MODEL       18
REMARK 921   NORMALIZED FREE ENERGY PREDICTED BY IDOCK:   -5.69 KCAL/MOL
REMARK 922        TOTAL FREE ENERGY PREDICTED BY IDOCK:   -7.03 KCAL/MOL
REMARK 923 INTER-LIGAND FREE ENERGY PREDICTED BY IDOCK:   -6.65 KCAL/MOL
REMARK 924 INTRA-LIGAND FREE ENERGY PREDICTED BY IDOCK:   -0.38 KCAL/MOL
REMARK 927      BINDING AFFINITY PREDICTED BY RF-SCORE:    0.00 PKD
ROOT
HETATM    1  O   UNL     1      -9.950  13.483  67.249  1.00  0.00    -0.230 OA 
HETATM    2  C   UNL     1     -11.216  12.981  67.684  1.00  0.00    -0.280 C  
HETATM    3  H   UNL     1      -9.510  12.794  66.766  1.00  0.00     0.000 HD 
HETATM    4  C   UNL     1     -10.969  11.773  68.613  1.00  0.00    -0.269 A  
HETATM    5  C   UNL     1     -12.106  12.593  66.430  1.00  0.00    -0.330 C  
HETATM    6  C   UNL     1     -11.937  14.108  68.475  1.00  0.00    -0.367 C  
HETATM    7  C   UNL     1     -10.358  11.799  64.727  1.00  0.00    -0.333 C  
HETATM    8  C   UNL     1     -12.444  13.748  65.456  1.00  0.00    -0.548 C  
HETATM    9  C   UNL     1      -9.665  11.326  68.899  1.00  0.00    -0.141 A  
HETATM   10  C   UNL     1      -9.432  10.281  69.798  1.00  0.00    -0.128 A  
HETATM   11  C   UNL     1     -11.570  11.431  65.574  1.00  0.00     0.162 C  
HETATM   12  C   UNL     1     -11.296  14.198  64.560  1.00  0.00    -0.355 C  
HETATM   13  C   UNL     1     -10.562  13.050  63.876  1.00  0.00    -0.292 C  
HETATM   14  C   UNL     1     -10.501   9.654  70.431  1.00  0.00    -0.352 A  
HETATM   15  C   UNL     1     -12.034  11.113  69.253  1.00  0.00    -0.421 A  
HETATM   16  C   UNL     1     -11.801  10.064  70.154  1.00  0.00    -0.245 A  
ENDROOT
BRANCH   6  17
HETATM   17  C   UNL     1     -11.233  14.610  69.746  1.00  0.00    -0.259 C  
BRANCH  17  18
HETATM   18  N   UNL     1     -12.204  15.287  70.625  1.00  0.00    -0.334 NA 
HETATM   19  C   UNL     1     -13.336  14.434  71.002  1.00  0.00    -0.300 C  
HETATM   20  C   UNL     1     -13.909  15.143  72.209  1.00  0.00    -0.618 C  
HETATM   21  C   UNL     1     -12.675  15.626  72.946  1.00  0.00    -0.559 C  
HETATM   22  C   UNL     1     -11.594  15.756  71.876  1.00  0.00    -0.456 C  
ENDBRANCH  17  18
ENDBRANCH   6  17
TORSDOF 2
ENDMDL
MODEL       19
REMARK 921   NORMALIZED FREE ENERGY PREDICTED BY IDOCK:   -5.68 KCAL/MOL
REMARK 922        TOTAL FREE ENERGY PREDICTED BY IDOCK:   -7.03 KCAL/MOL
REMARK 923 INTER-LIGAND FREE ENERGY PREDICTED BY IDOCK:   -6.25 KCAL/MOL
REMARK 924 INTRA-LIGAND FREE ENERGY PREDICTED BY IDOCK:   -0.77 KCAL/MOL
REMARK 927      BINDING AFFINITY PREDICTED BY RF-SCORE:    0.00 PKD
ROOT
HETATM    1  O   UNL     1     -10.166  17.465  68.868  1.00  0.00    -0.331 OA 
HETATM    2  C   UNL     1      -9.859  16.696  67.703  1.00  0.00    -0.256 C  
HETATM    3  H   UNL     1      -9.388  17.952  69.114  1.00  0.00     0.000 HD 
HETATM    4  C   UNL     1      -8.722  15.712  68.053  1.00  0.00    -0.167 A  
HETATM    5  C   UNL     1      -9.465  17.659  66.506  1.00  0.00    -0.294 C  
HETATM    6  C   UNL     1     -11.133  15.900  67.301  1.00  0.00    -0.172 C  
HETATM    7  C   UNL     1      -8.315  19.610  67.712  1.00  0.00    -0.346 C  
HETATM    8  C   UNL     1     -10.556  18.658  66.052  1.00  0.00    -0.410 C  
HETATM    9  C   UNL     1      -8.153  15.682  69.340  1.00  0.00    -0.227 A  
HETATM   10  C   UNL     1      -7.175  14.743  69.684  1.00  0.00    -0.136 A  
HETATM   11  C   UNL     1      -8.173  18.471  66.710  1.00  0.00    -0.268 C  
HETATM   12  C   UNL     1     -10.782  19.841  66.988  1.00  0.00    -0.542 C  
HETATM   13  C   UNL     1      -9.496  20.534  67.427  1.00  0.00    -0.551 C  
HETATM   14  C   UNL     1      -6.741  13.813  68.745  1.00  0.00    -0.103 A  
HETATM   15  C   UNL     1      -8.255  14.773  67.117  1.00  0.00    -0.239 A  
HETATM   16  C   UNL     1      -7.274  13.831  67.460  1.00  0.00    -0.173 A  
ENDROOT
BRANCH   6  17
HETATM   17  C   UNL     1     -11.663  14.892  68.333  1.00  0.00    -0.309 C  
BRANCH  17  18
HETATM   18  N   UNL     1     -11.918  13.594  67.683  1.00  0.00    -0.364 NA 
HETATM   19  C   UNL     1     -11.898  13.665  66.219  1.00  0.00    -0.392 C  
HETATM   20  C   UNL     1     -11.720  12.219  65.810  1.00  0.00    -0.445 C  
HETATM   21  C   UNL     1     -10.748  11.683  66.843  1.00  0.00    -0.295 C  
HETATM   22  C   UNL     1     -10.937  12.572  68.071  1.00  0.00    -0.232 C  
ENDBRANCH  17  18
ENDBRANCH   6  17
TORSDOF 2
ENDMDL
MODEL       20
REMARK 921   NORMALIZED FREE ENERGY PREDICTED BY IDOCK:   -5.68 KCAL/MOL
REMARK 922        TOTAL FREE ENERGY PREDICTED BY IDOCK:   -7.02 KCAL/MOL
REMARK 923 INTER-LIGAND FREE ENERGY PREDICTED BY IDOCK:   -6.16 KCAL/MOL
REMARK 924 INTRA-LIGAND FREE ENERGY PREDICTED BY IDOCK:   -0.86 KCAL/MOL
REMARK 927      BINDING AFFINITY PREDICTED BY RF-SCORE:    0.00 PKD
ROOT
HETATM    1  O   UNL     1     -12.054  10.850  68.114  1.00  0.00    -0.785 OA 
HETATM    2  C   UNL     1     -10.867  11.632  67.963  1.00  0.00    -0.215 C  
HETATM    3  H   UNL     1     -12.117  10.262  67.371  1.00  0.00     0.000 HD 
HETATM    4  C   UNL     1     -10.990  12.456  66.662  1.00  0.00    -0.309 A  
HETATM    5  C   UNL     1      -9.593  10.690  67.952  1.00  0.00    -0.174 C  
HETATM    6  C   UNL     1     -10.765  12.594  69.180  1.00  0.00    -0.061 C  
HETATM    7  C   UNL     1     -10.482   8.558  66.833  1.00  0.00    -0.345 C  
HETATM    8  C   UNL     1      -9.360   9.851  69.232  1.00  0.00    -0.215 C  
HETATM    9  C   UNL     1     -12.126  12.355  65.838  1.00  0.00    -0.352 A  
HETATM   10  C   UNL     1     -12.274  13.152  64.698  1.00  0.00    -0.471 A  
HETATM   11  C   UNL     1      -9.499   9.720  66.761  1.00  0.00    -0.209 C  
HETATM   12  C   UNL     1     -10.296   8.660  69.406  1.00  0.00    -0.221 C  
HETATM   13  C   UNL     1     -10.434   7.797  68.156  1.00  0.00    -0.230 C  
HETATM   14  C   UNL     1     -11.285  14.069  64.355  1.00  0.00    -0.318 A  
HETATM   15  C   UNL     1      -9.996  13.377  66.285  1.00  0.00    -0.298 A  
HETATM   16  C   UNL     1     -10.144  14.177  65.143  1.00  0.00    -0.348 A  
ENDROOT
BRANCH   6  17
HETATM   17  C   UNL     1     -11.908  13.606  69.351  1.00  0.00    -0.339 C  
BRANCH  17  18
HETATM   18  N   UNL     1     -11.367  14.977  69.383  1.00  0.00    -0.278 NA 
HETATM   19  C   UNL     1      -9.903  15.020  69.449  1.00  0.00    -0.164 C  
HETATM   20  C   UNL     1      -9.584  16.434  69.016  1.00  0.00    -0.264 C  
HETATM   21  C   UNL     1     -10.587  16.693  67.909  1.00  0.00    -0.342 C  
HETATM   22  C   UNL     1     -11.760  15.761  68.205  1.00  0.00    -0.222 C  
ENDBRANCH  17  18
ENDBRANCH   6  17
TORSDOF 2
ENDMDL
MODEL       21
REMARK 921   NORMALIZED FREE ENERGY PREDICTED BY IDOCK:   -5.66 KCAL/MOL
REMARK 922        TOTAL FREE ENERGY PREDICTED BY IDOCK:   -7.00 KCAL/MOL
REMARK 923 INTER-LIGAND FREE ENERGY PREDICTED BY IDOCK:   -6.63 KCAL/MOL
REMARK 924 INTRA-LIGAND FREE ENERGY PREDICTED BY IDOCK:   -0.37 KCAL/MOL
REMARK 927      BINDING AFFINITY PREDICTED BY RF-SCORE:    0.00 PKD
ROOT
HETATM    1  O   UNL     1     -11.618  15.581  67.667  1.00  0.00    -0.274 OA 
HETATM    2  C   UNL     1     -10.635  14.561  67.858  1.00  0.00    -0.243 C  
HETATM    3  H   UNL     1     -11.337  16.130  66.944  1.00  0.00     0.000 HD 
HETATM    4  C   UNL     1      -9.294  15.237  68.213  1.00  0.00    -0.194 A  
HETATM    5  C   UNL     1     -10.523  13.664  66.555  1.00  0.00    -0.281 C  
HETATM    6  C   UNL     1     -11.095  13.663  69.041  1.00  0.00    -0.295 C  
HETATM    7  C   UNL     1     -11.014  15.343  64.676  1.00  0.00    -0.333 C  
HETATM    8  C   UNL     1     -11.809  12.910  66.138  1.00  0.00    -0.487 C  
HETATM    9  C   UNL     1      -9.180  16.637  68.291  1.00  0.00    -0.217 A  
HETATM   10  C   UNL     1      -7.986  17.252  68.684  1.00  0.00    -0.267 A  
HETATM   11  C   UNL     1     -10.004  14.387  65.299  1.00  0.00    -0.314 C  
HETATM   12  C   UNL     1     -12.892  13.777  65.504  1.00  0.00    -0.464 C  
HETATM   13  C   UNL     1     -12.376  14.706  64.411  1.00  0.00    -0.420 C  
HETATM   14  C   UNL     1      -6.876  16.478  69.005  1.00  0.00    -0.203 A  
HETATM   15  C   UNL     1      -8.153  14.476  68.527  1.00  0.00    -0.148 A  
HETATM   16  C   UNL     1      -6.956  15.091  68.921  1.00  0.00    -0.114 A  
ENDROOT
BRANCH   6  17
HETATM   17  C   UNL     1     -11.245  14.353  70.406  1.00  0.00    -0.010 C  
BRANCH  17  18
HETATM   18  N   UNL     1     -12.669  14.416  70.784  1.00  0.00    -0.346 NA 
HETATM   19  C   UNL     1     -13.054  13.392  71.760  1.00  0.00    -0.388 C  
HETATM   20  C   UNL     1     -14.356  13.924  72.316  1.00  0.00    -0.502 C  
HETATM   21  C   UNL     1     -14.108  15.417  72.413  1.00  0.00    -0.645 C  
HETATM   22  C   UNL     1     -13.036  15.713  71.366  1.00  0.00    -0.487 C  
ENDBRANCH  17  18
ENDBRANCH   6  17
TORSDOF 2
ENDMDL
MODEL       22
REMARK 921   NORMALIZED FREE ENERGY PREDICTED BY IDOCK:   -5.63 KCAL/MOL
REMARK 922        TOTAL FREE ENERGY PREDICTED BY IDOCK:   -6.96 KCAL/MOL
REMARK 923 INTER-LIGAND FREE ENERGY PREDICTED BY IDOCK:   -6.61 KCAL/MOL
REMARK 924 INTRA-LIGAND FREE ENERGY PREDICTED BY IDOCK:   -0.36 KCAL/MOL
REMARK 927      BINDING AFFINITY PREDICTED BY RF-SCORE:    0.00 PKD
ROOT
HETATM    1  O   UNL     1     -12.630  14.405  66.955  1.00  0.00    -0.538 OA 
HETATM    2  C   UNL     1     -11.294  13.994  67.255  1.00  0.00    -0.330 C  
HETATM    3  H   UNL     1     -12.591  15.061  66.269  1.00  0.00     0.000 HD 
HETATM    4  C   UNL     1     -10.508  15.224  67.759  1.00  0.00    -0.253 A  
HETATM    5  C   UNL     1     -10.624  13.347  65.972  1.00  0.00    -0.290 C  
HETATM    6  C   UNL     1     -11.359  12.921  68.377  1.00  0.00    -0.329 C  
HETATM    7  C   UNL     1     -11.700  14.667  64.052  1.00  0.00    -0.060 C  
HETATM    8  C   UNL     1     -11.317  12.081  65.412  1.00  0.00    -0.375 C  
HETATM    9  C   UNL     1     -11.114  16.491  67.851  1.00  0.00    -0.229 A  
HETATM   10  C   UNL     1     -10.430  17.591  68.377  1.00  0.00    -0.372 A  
HETATM   11  C   UNL     1     -10.414  14.302  64.783  1.00  0.00    -0.421 C  
HETATM   12  C   UNL     1     -12.620  12.333  64.661  1.00  0.00    -0.376 C  
HETATM   13  C   UNL     1     -12.531  13.457  63.633  1.00  0.00    -0.316 C  
HETATM   14  C   UNL     1      -9.119  17.450  68.821  1.00  0.00    -0.227 A  
HETATM   15  C   UNL     1      -9.177  15.110  68.199  1.00  0.00    -0.184 A  
HETATM   16  C   UNL     1      -8.489  16.213  68.726  1.00  0.00    -0.236 A  
ENDROOT
BRANCH   6  17
HETATM   17  C   UNL     1     -11.964  13.368  69.717  1.00  0.00    -0.330 C  
BRANCH  17  18
HETATM   18  N   UNL     1     -12.038  12.222  70.643  1.00  0.00    -0.324 NA 
HETATM   19  C   UNL     1     -13.159  12.311  71.584  1.00  0.00    -0.306 C  
HETATM   20  C   UNL     1     -13.300  10.888  72.079  1.00  0.00    -0.394 C  
HETATM   21  C   UNL     1     -13.045  10.061  70.835  1.00  0.00    -0.381 C  
HETATM   22  C   UNL     1     -12.178  10.942  69.938  1.00  0.00    -0.336 C  
ENDBRANCH  17  18
ENDBRANCH   6  17
TORSDOF 2
ENDMDL
MODEL       23
REMARK 921   NORMALIZED FREE ENERGY PREDICTED BY IDOCK:   -5.61 KCAL/MOL
REMARK 922        TOTAL FREE ENERGY PREDICTED BY IDOCK:   -6.94 KCAL/MOL
REMARK 923 INTER-LIGAND FREE ENERGY PREDICTED BY IDOCK:   -6.50 KCAL/MOL
REMARK 924 INTRA-LIGAND FREE ENERGY PREDICTED BY IDOCK:   -0.44 KCAL/MOL
REMARK 927      BINDING AFFINITY PREDICTED BY RF-SCORE:    0.00 PKD
ROOT
HETATM    1  O   UNL     1     -12.451  15.690  68.184  1.00  0.00    -0.154 OA 
HETATM    2  C   UNL     1     -11.164  15.078  68.068  1.00  0.00    -0.316 C  
HETATM    3  H   UNL     1     -13.082  15.013  68.396  1.00  0.00     0.000 HD 
HETATM    4  C   UNL     1     -11.218  14.044  66.923  1.00  0.00    -0.323 A  
HETATM    5  C   UNL     1     -10.752  14.416  69.448  1.00  0.00    -0.184 C  
HETATM    6  C   UNL     1     -10.131  16.188  67.721  1.00  0.00    -0.250 C  
HETATM    7  C   UNL     1     -13.010  13.659  70.404  1.00  0.00    -0.001 C  
HETATM    8  C   UNL     1     -10.631  15.380  70.654  1.00  0.00    -0.165 C  
HETATM    9  C   UNL     1     -12.401  13.821  66.195  1.00  0.00    -0.496 A  
HETATM   10  C   UNL     1     -12.436  12.940  65.110  1.00  0.00    -0.561 A  
HETATM   11  C   UNL     1     -11.633  13.239  69.906  1.00  0.00    -0.260 C  
HETATM   12  C   UNL     1     -11.956  15.866  71.231  1.00  0.00    -0.493 C  
HETATM   13  C   UNL     1     -12.970  14.752  71.470  1.00  0.00    -0.410 C  
HETATM   14  C   UNL     1     -11.285  12.258  64.728  1.00  0.00    -0.364 A  
HETATM   15  C   UNL     1     -10.071  13.331  66.528  1.00  0.00    -0.275 A  
HETATM   16  C   UNL     1     -10.104  12.448  65.440  1.00  0.00    -0.289 A  
ENDROOT
BRANCH   6  17
HETATM   17  C   UNL     1     -10.353  16.939  66.398  1.00  0.00    -0.300 C  
BRANCH  17  18
HETATM   18  N   UNL     1      -9.109  17.618  65.991  1.00  0.00    -0.514 NA 
HETATM   19  C   UNL     1      -8.964  18.956  66.572  1.00  0.00    -0.323 C  
HETATM   20  C   UNL     1      -7.487  19.240  66.404  1.00  0.00    -0.271 C  
HETATM   21  C   UNL     1      -6.840  17.900  66.694  1.00  0.00    -0.238 C  
HETATM   22  C   UNL     1      -7.909  16.860  66.368  1.00  0.00    -0.313 C  
ENDBRANCH  17  18
ENDBRANCH   6  17
TORSDOF 2
ENDMDL
MODEL       24
REMARK 921   NORMALIZED FREE ENERGY PREDICTED BY IDOCK:   -5.61 KCAL/MOL
REMARK 922        TOTAL FREE ENERGY PREDICTED BY IDOCK:   -6.94 KCAL/MOL
REMARK 923 INTER-LIGAND FREE ENERGY PREDICTED BY IDOCK:   -6.46 KCAL/MOL
REMARK 924 INTRA-LIGAND FREE ENERGY PREDICTED BY IDOCK:   -0.48 KCAL/MOL
REMARK 927      BINDING AFFINITY PREDICTED BY RF-SCORE:    0.00 PKD
ROOT
HETATM    1  O   UNL     1      -8.614  16.868  65.838  1.00  0.00    -0.514 OA 
HETATM    2  C   UNL     1      -9.354  16.374  66.957  1.00  0.00    -0.228 C  
HETATM    3  H   UNL     1      -9.197  17.401  65.311  1.00  0.00     0.000 HD 
HETATM    4  C   UNL     1     -10.515  15.504  66.428  1.00  0.00    -0.310 A  
HETATM    5  C   UNL     1      -9.873  17.583  67.842  1.00  0.00    -0.293 C  
HETATM    6  C   UNL     1      -8.400  15.501  67.820  1.00  0.00    -0.155 C  
HETATM    7  C   UNL     1     -10.287  19.418  66.095  1.00  0.00    -0.595 C  
HETATM    8  C   UNL     1      -8.780  18.494  68.453  1.00  0.00    -0.351 C  
HETATM    9  C   UNL     1     -10.716  15.316  65.048  1.00  0.00    -0.461 A  
HETATM   10  C   UNL     1     -11.720  14.470  64.566  1.00  0.00    -0.421 A  
HETATM   11  C   UNL     1     -10.894  18.511  67.158  1.00  0.00    -0.304 C  
HETATM   12  C   UNL     1      -8.102  19.443  67.471  1.00  0.00    -0.315 C  
HETATM   13  C   UNL     1      -9.077  20.211  66.584  1.00  0.00    -0.439 C  
HETATM   14  C   UNL     1     -12.550  13.795  65.455  1.00  0.00    -0.534 A  
HETATM   15  C   UNL     1     -11.377  14.824  67.307  1.00  0.00    -0.366 A  
HETATM   16  C   UNL     1     -12.384  13.976  66.824  1.00  0.00    -0.368 A  
ENDROOT
BRANCH   6  17
HETATM   17  C   UNL     1      -7.805  14.259  67.137  1.00  0.00    -0.056 C  
BRANCH  17  18
HETATM   18  N   UNL     1      -8.434  13.039  67.674  1.00  0.00    -0.173 NA 
HETATM   19  C   UNL     1      -8.976  12.161  66.632  1.00  0.00    -0.198 C  
HETATM   20  C   UNL     1      -9.133  10.838  67.349  1.00  0.00    -0.148 C  
HETATM   21  C   UNL     1      -7.902  10.775  68.233  1.00  0.00    -0.115 C  
HETATM   22  C   UNL     1      -7.500  12.229  68.466  1.00  0.00    -0.113 C  
ENDBRANCH  17  18
ENDBRANCH   6  17
TORSDOF 2
ENDMDL
MODEL       25
REMARK 921   NORMALIZED FREE ENERGY PREDICTED BY IDOCK:   -5.59 KCAL/MOL
REMARK 922        TOTAL FREE ENERGY PREDICTED BY IDOCK:   -6.93 KCAL/MOL
REMARK 923 INTER-LIGAND FREE ENERGY PREDICTED BY IDOCK:   -6.61 KCAL/MOL
REMARK 924 INTRA-LIGAND FREE ENERGY PREDICTED BY IDOCK:   -0.31 KCAL/MOL
REMARK 927      BINDING AFFINITY PREDICTED BY RF-SCORE:    0.00 PKD
ROOT
HETATM    1  O   UNL     1      -9.685  10.985  69.795  1.00  0.00    -0.360 OA 
HETATM    2  C   UNL     1     -10.837  10.154  69.636  1.00  0.00    -0.263 C  
HETATM    3  H   UNL     1      -8.913  10.439  69.707  1.00  0.00     0.000 HD 
HETATM    4  C   UNL     1     -10.827   9.088  70.753  1.00  0.00    -0.310 A  
HETATM    5  C   UNL     1     -10.841   9.501  68.191  1.00  0.00    -0.208 C  
HETATM    6  C   UNL     1     -12.101  11.048  69.781  1.00  0.00    -0.424 C  
HETATM    7  C   UNL     1      -8.338   9.198  67.708  1.00  0.00    -0.117 C  
HETATM    8  C   UNL     1     -10.891  10.490  67.001  1.00  0.00    -0.288 C  
HETATM    9  C   UNL     1      -9.791   9.037  71.704  1.00  0.00    -0.366 A  
HETATM   10  C   UNL     1      -9.815   8.121  72.761  1.00  0.00    -0.353 A  
HETATM   11  C   UNL     1      -9.689   8.520  67.907  1.00  0.00    -0.193 C  
HETATM   12  C   UNL     1      -9.588  11.227  66.715  1.00  0.00    -0.214 C  
HETATM   13  C   UNL     1      -8.363  10.319  66.672  1.00  0.00    -0.125 C  
HETATM   14  C   UNL     1     -10.877   7.231  72.889  1.00  0.00    -0.380 A  
HETATM   15  C   UNL     1     -11.881   8.167  70.894  1.00  0.00    -0.232 A  
HETATM   16  C   UNL     1     -11.906   7.249  71.953  1.00  0.00    -0.333 A  
ENDROOT
BRANCH   6  17
HETATM   17  C   UNL     1     -12.286  11.758  71.132  1.00  0.00    -0.224 C  
BRANCH  17  18
HETATM   18  N   UNL     1     -13.152  12.939  70.965  1.00  0.00    -0.083 NA 
HETATM   19  C   UNL     1     -13.779  13.378  72.215  1.00  0.00    -0.607 C  
HETATM   20  C   UNL     1     -14.209  14.795  71.901  1.00  0.00    -0.632 C  
HETATM   21  C   UNL     1     -13.062  15.328  71.065  1.00  0.00    -0.544 C  
HETATM   22  C   UNL     1     -12.423  14.096  70.429  1.00  0.00    -0.357 C  
ENDBRANCH  17  18
ENDBRANCH   6  17
TORSDOF 2
ENDMDL
MODEL       26
REMARK 921   NORMALIZED FREE ENERGY PREDICTED BY IDOCK:   -5.56 KCAL/MOL
REMARK 922        TOTAL FREE ENERGY PREDICTED BY IDOCK:   -6.89 KCAL/MOL
REMARK 923 INTER-LIGAND FREE ENERGY PREDICTED BY IDOCK:   -6.42 KCAL/MOL
REMARK 924 INTRA-LIGAND FREE ENERGY PREDICTED BY IDOCK:   -0.47 KCAL/MOL
REMARK 927      BINDING AFFINITY PREDICTED BY RF-SCORE:    0.00 PKD
ROOT
HETATM    1  O   UNL     1     -12.099  15.064  67.865  1.00  0.00    -0.520 OA 
HETATM    2  C   UNL     1     -11.137  14.864  68.903  1.00  0.00    -0.257 C  
HETATM    3  H   UNL     1     -12.416  15.957  67.925  1.00  0.00     0.000 HD 
HETATM    4  C   UNL     1     -11.837  15.075  70.263  1.00  0.00    -0.355 A  
HETATM    5  C   UNL     1      -9.912  15.850  68.706  1.00  0.00    -0.220 C  
HETATM    6  C   UNL     1     -10.619  13.401  68.806  1.00  0.00    -0.230 C  
HETATM    7  C   UNL     1     -11.021  17.921  67.673  1.00  0.00    -0.104 C  
HETATM    8  C   UNL     1      -9.118  15.689  67.386  1.00  0.00    -0.203 C  
HETATM    9  C   UNL     1     -13.199  15.420  70.338  1.00  0.00    -0.139 A  
HETATM   10  C   UNL     1     -13.856  15.539  71.567  1.00  0.00    -0.539 A  
HETATM   11  C   UNL     1     -10.240  17.347  68.849  1.00  0.00    -0.352 C  
HETATM   12  C   UNL     1      -9.813  16.230  66.142  1.00  0.00    -0.358 C  
HETATM   13  C   UNL     1     -10.384  17.633  66.316  1.00  0.00    -0.342 C  
HETATM   14  C   UNL     1     -13.162  15.320  72.753  1.00  0.00    -0.583 A  
HETATM   15  C   UNL     1     -11.153  14.874  71.476  1.00  0.00     0.019 A  
HETATM   16  C   UNL     1     -11.810  14.994  72.709  1.00  0.00    -0.391 A  
ENDROOT
BRANCH   6  17
HETATM   17  C   UNL     1     -11.665  12.290  68.992  1.00  0.00    -0.324 C  
BRANCH  17  18
HETATM   18  N   UNL     1     -11.603  11.346  67.861  1.00  0.00    -0.496 NA 
HETATM   19  C   UNL     1     -10.971  11.915  66.667  1.00  0.00    -0.291 C  
HETATM   20  C   UNL     1     -10.614  10.689  65.855  1.00  0.00    -0.178 C  
HETATM   21  C   UNL     1     -10.156   9.697  66.906  1.00  0.00    -0.290 C  
HETATM   22  C   UNL     1     -10.857  10.125  68.193  1.00  0.00    -0.262 C  
ENDBRANCH  17  18
ENDBRANCH   6  17
TORSDOF 2
ENDMDL
MODEL       27
REMARK 921   NORMALIZED FREE ENERGY PREDICTED BY IDOCK:   -5.53 KCAL/MOL
REMARK 922        TOTAL FREE ENERGY PREDICTED BY IDOCK:   -6.86 KCAL/MOL
REMARK 923 INTER-LIGAND FREE ENERGY PREDICTED BY IDOCK:   -6.44 KCAL/MOL
REMARK 924 INTRA-LIGAND FREE ENERGY PREDICTED BY IDOCK:   -0.42 KCAL/MOL
REMARK 927      BINDING AFFINITY PREDICTED BY RF-SCORE:    0.00 PKD
ROOT
HETATM    1  O   UNL     1     -11.896  13.626  67.338  1.00  0.00    -0.359 OA 
HETATM    2  C   UNL     1     -10.750  14.049  68.080  1.00  0.00    -0.246 C  
HETATM    3  H   UNL     1     -11.616  13.416  66.455  1.00  0.00     0.000 HD 
HETATM    4  C   UNL     1     -10.173  15.313  67.406  1.00  0.00    -0.243 A  
HETATM    5  C   UNL     1      -9.686  12.876  68.152  1.00  0.00    -0.227 C  
HETATM    6  C   UNL     1     -11.210  14.393  69.525  1.00  0.00    -0.294 C  
HETATM    7  C   UNL     1     -10.019  11.679  65.906  1.00  0.00    -0.264 C  
HETATM    8  C   UNL     1     -10.157  11.576  68.848  1.00  0.00    -0.144 C  
HETATM    9  C   UNL     1     -10.760  15.856  66.248  1.00  0.00    -0.261 A  
HETATM   10  C   UNL     1     -10.287  17.041  65.676  1.00  0.00    -0.226 A  
HETATM   11  C   UNL     1      -9.068  12.461  66.805  1.00  0.00    -0.212 C  
HETATM   12  C   UNL     1     -11.118  10.716  68.034  1.00  0.00    -0.361 C  
HETATM   13  C   UNL     1     -10.668  10.482  66.596  1.00  0.00    -0.222 C  
HETATM   14  C   UNL     1      -9.211  17.711  66.250  1.00  0.00    -0.212 A  
HETATM   15  C   UNL     1      -9.077  16.000  67.958  1.00  0.00    -0.189 A  
HETATM   16  C   UNL     1      -8.601  17.188  67.386  1.00  0.00    -0.212 A  
ENDROOT
BRANCH   6  17
HETATM   17  C   UNL     1     -12.235  15.529  69.665  1.00  0.00    -0.270 C  
BRANCH  17  18
HETATM   18  N   UNL     1     -12.954  15.404  70.945  1.00  0.00    -0.468 NA 
HETATM   19  C   UNL     1     -13.185  14.012  71.345  1.00  0.00    -0.334 C  
HETATM   20  C   UNL     1     -13.492  14.129  72.822  1.00  0.00    -0.592 C  
HETATM   21  C   UNL     1     -12.532  15.205  73.292  1.00  0.00    -0.598 C  
HETATM   22  C   UNL     1     -12.239  16.050  72.054  1.00  0.00    -0.506 C  
ENDBRANCH  17  18
ENDBRANCH   6  17
TORSDOF 2
ENDMDL
MODEL       28
REMARK 921   NORMALIZED FREE ENERGY PREDICTED BY IDOCK:   -5.51 KCAL/MOL
REMARK 922        TOTAL FREE ENERGY PREDICTED BY IDOCK:   -6.83 KCAL/MOL
REMARK 923 INTER-LIGAND FREE ENERGY PREDICTED BY IDOCK:   -6.36 KCAL/MOL
REMARK 924 INTRA-LIGAND FREE ENERGY PREDICTED BY IDOCK:   -0.47 KCAL/MOL
REMARK 927      BINDING AFFINITY PREDICTED BY RF-SCORE:    0.00 PKD
ROOT
HETATM    1  O   UNL     1      -9.404  14.394  69.126  1.00  0.00    -0.387 OA 
HETATM    2  C   UNL     1      -9.122  14.890  67.815  1.00  0.00    -0.185 C  
HETATM    3  H   UNL     1      -9.320  13.448  69.108  1.00  0.00     0.000 HD 
HETATM    4  C   UNL     1     -10.159  14.296  66.837  1.00  0.00    -0.264 A  
HETATM    5  C   UNL     1      -7.636  14.521  67.403  1.00  0.00    -0.209 C  
HETATM    6  C   UNL     1      -9.261  16.438  67.845  1.00  0.00    -0.202 C  
HETATM    7  C   UNL     1      -7.272  12.268  68.577  1.00  0.00    -0.103 C  
HETATM    8  C   UNL     1      -6.519  15.105  68.302  1.00  0.00    -0.117 C  
HETATM    9  C   UNL     1     -11.160  13.412  67.280  1.00  0.00    -0.300 A  
HETATM   10  C   UNL     1     -12.145  12.931  66.413  1.00  0.00    -0.400 A  
HETATM   11  C   UNL     1      -7.347  13.017  67.252  1.00  0.00    -0.067 C  
HETATM   12  C   UNL     1      -6.359  14.428  69.659  1.00  0.00    -0.140 C  
HETATM   13  C   UNL     1      -6.320  12.905  69.587  1.00  0.00    -0.089 C  
HETATM   14  C   UNL     1     -12.150  13.321  65.077  1.00  0.00    -0.447 A  
HETATM   15  C   UNL     1     -10.175  14.663  65.479  1.00  0.00    -0.395 A  
HETATM   16  C   UNL     1     -11.162  14.181  64.608  1.00  0.00    -0.371 A  
ENDROOT
BRANCH   6  17
HETATM   17  C   UNL     1     -10.646  16.995  68.209  1.00  0.00    -0.372 C  
BRANCH  17  18
HETATM   18  N   UNL     1     -10.770  18.385  67.734  1.00  0.00    -0.394 NA 
HETATM   19  C   UNL     1      -9.866  19.313  68.420  1.00  0.00    -0.414 C  
HETATM   20  C   UNL     1      -9.838  20.508  67.492  1.00  0.00    -0.534 C  
HETATM   21  C   UNL     1      -9.838  19.877  66.114  1.00  0.00    -0.562 C  
HETATM   22  C   UNL     1     -10.497  18.512  66.297  1.00  0.00    -0.406 C  
ENDBRANCH  17  18
ENDBRANCH   6  17
TORSDOF 2
ENDMDL
MODEL       29
REMARK 921   NORMALIZED FREE ENERGY PREDICTED BY IDOCK:   -5.49 KCAL/MOL
REMARK 922        TOTAL FREE ENERGY PREDICTED BY IDOCK:   -6.81 KCAL/MOL
REMARK 923 INTER-LIGAND FREE ENERGY PREDICTED BY IDOCK:   -6.48 KCAL/MOL
REMARK 924 INTRA-LIGAND FREE ENERGY PREDICTED BY IDOCK:   -0.33 KCAL/MOL
REMARK 927      BINDING AFFINITY PREDICTED BY RF-SCORE:    0.00 PKD
ROOT
HETATM    1  O   UNL     1      -9.658  13.416  68.971  1.00  0.00    -0.401 OA 
HETATM    2  C   UNL     1     -10.897  13.217  68.287  1.00  0.00    -0.253 C  
HETATM    3  H   UNL     1      -9.109  13.973  68.432  1.00  0.00     0.000 HD 
HETATM    4  C   UNL     1     -10.605  12.513  66.944  1.00  0.00    -0.255 A  
HETATM    5  C   UNL     1     -11.634  14.606  68.083  1.00  0.00    -0.362 C  
HETATM    6  C   UNL     1     -11.794  12.303  69.169  1.00  0.00    -0.355 C  
HETATM    7  C   UNL     1      -9.676  16.240  67.794  1.00  0.00    -0.233 C  
HETATM    8  C   UNL     1     -12.007  15.371  69.375  1.00  0.00    -0.351 C  
HETATM    9  C   UNL     1      -9.291  12.186  66.561  1.00  0.00    -0.229 A  
HETATM   10  C   UNL     1      -9.027  11.483  65.381  1.00  0.00     0.012 A  
HETATM   11  C   UNL     1     -10.911  15.608  67.164  1.00  0.00    -0.297 C  
HETATM   12  C   UNL     1     -10.840  16.043  70.091  1.00  0.00    -0.349 C  
HETATM   13  C   UNL     1      -9.936  16.855  69.168  1.00  0.00    -0.239 C  
HETATM   14  C   UNL     1     -10.075  11.094  64.552  1.00  0.00    -0.364 A  
HETATM   15  C   UNL     1     -11.645  12.123  66.081  1.00  0.00    -0.418 A  
HETATM   16  C   UNL     1     -11.383  11.419  64.898  1.00  0.00    -0.109 A  
ENDROOT
BRANCH   6  17
HETATM   17  C   UNL     1     -11.255  10.895  69.465  1.00  0.00    -0.277 C  
BRANCH  17  18
HETATM   18  N   UNL     1     -11.593  10.507  70.847  1.00  0.00    -0.332 NA 
HETATM   19  C   UNL     1     -13.007  10.161  71.021  1.00  0.00    -0.385 C  
HETATM   20  C   UNL     1     -13.011   9.388  72.321  1.00  0.00    -0.479 C  
HETATM   21  C   UNL     1     -11.738   8.568  72.241  1.00  0.00    -0.443 C  
HETATM   22  C   UNL     1     -10.815   9.350  71.309  1.00  0.00    -0.361 C  
ENDBRANCH  17  18
ENDBRANCH   6  17
TORSDOF 2
ENDMDL
MODEL       30
REMARK 921   NORMALIZED FREE ENERGY PREDICTED BY IDOCK:   -5.45 KCAL/MOL
REMARK 922        TOTAL FREE ENERGY PREDICTED BY IDOCK:   -6.77 KCAL/MOL
REMARK 923 INTER-LIGAND FREE ENERGY PREDICTED BY IDOCK:   -6.28 KCAL/MOL
REMARK 924 INTRA-LIGAND FREE ENERGY PREDICTED BY IDOCK:   -0.49 KCAL/MOL
REMARK 927      BINDING AFFINITY PREDICTED BY RF-SCORE:    0.00 PKD
ROOT
HETATM    1  O   UNL     1      -8.458  14.451  66.607  1.00  0.00    -0.417 OA 
HETATM    2  C   UNL     1      -9.803  14.383  67.086  1.00  0.00    -0.254 C  
HETATM    3  H   UNL     1      -8.431  15.074  65.891  1.00  0.00     0.000 HD 
HETATM    4  C   UNL     1     -10.705  13.887  65.935  1.00  0.00    -0.286 A  
HETATM    5  C   UNL     1     -10.259  15.801  67.630  1.00  0.00    -0.266 C  
HETATM    6  C   UNL     1      -9.847  13.363  68.259  1.00  0.00    -0.235 C  
HETATM    7  C   UNL     1      -8.987  17.422  66.099  1.00  0.00    -0.174 C  
HETATM    8  C   UNL     1      -9.439  16.368  68.814  1.00  0.00    -0.247 C  
HETATM    9  C   UNL     1     -10.175  13.596  64.665  1.00  0.00    -0.338 A  
HETATM   10  C   UNL     1     -10.974  13.076  63.641  1.00  0.00    -0.225 A  
HETATM   11  C   UNL     1     -10.344  16.917  66.573  1.00  0.00    -0.299 C  
HETATM   12  C   UNL     1      -8.057  16.900  68.451  1.00  0.00    -0.237 C  
HETATM   13  C   UNL     1      -8.053  17.825  67.238  1.00  0.00    -0.223 C  
HETATM   14  C   UNL     1     -12.326  12.838  63.865  1.00  0.00    -0.510 A  
HETATM   15  C   UNL     1     -12.078  13.653  66.132  1.00  0.00    -0.477 A  
HETATM   16  C   UNL     1     -12.881  13.132  65.107  1.00  0.00    -0.367 A  
ENDROOT
BRANCH   6  17
HETATM   17  C   UNL     1      -9.454  11.916  67.923  1.00  0.00    -0.194 C  
BRANCH  17  18
HETATM   18  N   UNL     1     -10.390  10.977  68.568  1.00  0.00    -0.182 NA 
HETATM   19  C   UNL     1      -9.773  10.191  69.640  1.00  0.00    -0.221 C  
HETATM   20  C   UNL     1     -10.967   9.680  70.417  1.00  0.00    -0.356 C  
HETATM   21  C   UNL     1     -11.920  10.858  70.403  1.00  0.00    -0.453 C  
HETATM   22  C   UNL     1     -11.549  11.659  69.157  1.00  0.00    -0.314 C  
ENDBRANCH  17  18
ENDBRANCH   6  17
TORSDOF 2
ENDMDL
MODEL       31
REMARK 921   NORMALIZED FREE ENERGY PREDICTED BY IDOCK:   -5.44 KCAL/MOL
REMARK 922        TOTAL FREE ENERGY PREDICTED BY IDOCK:   -6.76 KCAL/MOL
REMARK 923 INTER-LIGAND FREE ENERGY PREDICTED BY IDOCK:   -6.30 KCAL/MOL
REMARK 924 INTRA-LIGAND FREE ENERGY PREDICTED BY IDOCK:   -0.46 KCAL/MOL
REMARK 927      BINDING AFFINITY PREDICTED BY RF-SCORE:    0.00 PKD
ROOT
HETATM    1  O   UNL     1     -10.059  12.724  67.010  1.00  0.00    -0.234 OA 
HETATM    2  C   UNL     1     -10.391  14.096  67.234  1.00  0.00    -0.267 C  
HETATM    3  H   UNL     1     -10.868  12.236  66.912  1.00  0.00     0.000 HD 
HETATM    4  C   UNL     1     -11.214  14.191  68.537  1.00  0.00    -0.285 A  
HETATM    5  C   UNL     1     -11.182  14.673  65.988  1.00  0.00    -0.342 C  
HETATM    6  C   UNL     1      -9.066  14.893  67.395  1.00  0.00    -0.196 C  
HETATM    7  C   UNL     1     -12.496  12.629  65.162  1.00  0.00    -0.531 C  
HETATM    8  C   UNL     1     -10.425  14.659  64.638  1.00  0.00    -0.207 C  
HETATM    9  C   UNL     1     -11.532  13.043  69.286  1.00  0.00    -0.348 A  
HETATM   10  C   UNL     1     -12.213  13.132  70.504  1.00  0.00    -0.405 A  
HETATM   11  C   UNL     1     -12.562  14.041  65.731  1.00  0.00    -0.512 C  
HETATM   12  C   UNL     1     -10.297  13.289  63.980  1.00  0.00    -0.051 C  
HETATM   13  C   UNL     1     -11.606  12.507  63.927  1.00  0.00    -0.516 C  
HETATM   14  C   UNL     1     -12.595  14.374  71.001  1.00  0.00    -0.419 A  
HETATM   15  C   UNL     1     -11.625  15.434  69.052  1.00  0.00    -0.361 A  
HETATM   16  C   UNL     1     -12.307  15.525  70.274  1.00  0.00    -0.431 A  
ENDROOT
BRANCH   6  17
HETATM   17  C   UNL     1      -8.163  14.489  68.571  1.00  0.00    -0.154 C  
BRANCH  17  18
HETATM   18  N   UNL     1      -7.734  15.690  69.311  1.00  0.00    -0.210 NA 
HETATM   19  C   UNL     1      -6.348  15.614  69.783  1.00  0.00    -0.170 C  
HETATM   20  C   UNL     1      -6.009  17.059  70.077  1.00  0.00    -0.184 C  
HETATM   21  C   UNL     1      -6.688  17.811  68.950  1.00  0.00    -0.237 C  
HETATM   22  C   UNL     1      -7.839  16.912  68.504  1.00  0.00    -0.240 C  
ENDBRANCH  17  18
ENDBRANCH   6  17
TORSDOF 2
ENDMDL
MODEL       32
REMARK 921   NORMALIZED FREE ENERGY PREDICTED BY IDOCK:   -5.39 KCAL/MOL
REMARK 922        TOTAL FREE ENERGY PREDICTED BY IDOCK:   -6.70 KCAL/MOL
REMARK 923 INTER-LIGAND FREE ENERGY PREDICTED BY IDOCK:   -6.22 KCAL/MOL
REMARK 924 INTRA-LIGAND FREE ENERGY PREDICTED BY IDOCK:   -0.48 KCAL/MOL
REMARK 927      BINDING AFFINITY PREDICTED BY RF-SCORE:    0.00 PKD
ROOT
HETATM    1  O   UNL     1      -9.922  17.268  69.032  1.00  0.00    -0.298 OA 
HETATM    2  C   UNL     1      -9.744  16.416  67.898  1.00  0.00    -0.235 C  
HETATM    3  H   UNL     1      -9.119  17.759  69.161  1.00  0.00     0.000 HD 
HETATM    4  C   UNL     1      -8.584  15.442  68.198  1.00  0.00    -0.152 A  
HETATM    5  C   UNL     1      -9.469  17.287  66.602  1.00  0.00    -0.278 C  
HETATM    6  C   UNL     1     -11.058  15.613  67.688  1.00  0.00    -0.305 C  
HETATM    7  C   UNL     1      -8.184  19.300  67.543  1.00  0.00    -0.320 C  
HETATM    8  C   UNL     1     -10.594  18.269  66.194  1.00  0.00    -0.326 C  
HETATM    9  C   UNL     1      -7.884  15.493  69.418  1.00  0.00    -0.231 A  
HETATM   10  C   UNL     1      -6.883  14.565  69.724  1.00  0.00    -0.126 A  
HETATM   11  C   UNL     1      -8.157  18.093  66.615  1.00  0.00    -0.283 C  
HETATM   12  C   UNL     1     -10.712  19.517  67.064  1.00  0.00    -0.592 C  
HETATM   13  C   UNL     1      -9.382  20.220  67.317  1.00  0.00    -0.538 C  
HETATM   14  C   UNL     1      -6.556  13.566  68.814  1.00  0.00    -0.102 A  
HETATM   15  C   UNL     1      -8.224  14.433  67.287  1.00  0.00    -0.223 A  
HETATM   16  C   UNL     1      -7.220  13.502  67.593  1.00  0.00    -0.175 A  
ENDROOT
BRANCH   6  17
HETATM   17  C   UNL     1     -11.486  14.687  68.837  1.00  0.00    -0.298 C  
BRANCH  17  18
HETATM   18  N   UNL     1     -12.033  15.486  69.949  1.00  0.00    -0.345 NA 
HETATM   19  C   UNL     1     -13.391  15.088  70.334  1.00  0.00    -0.020 C  
HETATM   20  C   UNL     1     -13.543  15.689  71.714  1.00  0.00    -0.510 C  
HETATM   21  C   UNL     1     -12.177  15.477  72.337  1.00  0.00    -0.506 C  
HETATM   22  C   UNL     1     -11.208  15.397  71.160  1.00  0.00    -0.361 C  
ENDBRANCH  17  18
ENDBRANCH   6  17
TORSDOF 2
ENDMDL
MODEL       33
REMARK 921   NORMALIZED FREE ENERGY PREDICTED BY IDOCK:   -5.39 KCAL/MOL
REMARK 922        TOTAL FREE ENERGY PREDICTED BY IDOCK:   -6.70 KCAL/MOL
REMARK 923 INTER-LIGAND FREE ENERGY PREDICTED BY IDOCK:   -6.23 KCAL/MOL
REMARK 924 INTRA-LIGAND FREE ENERGY PREDICTED BY IDOCK:   -0.46 KCAL/MOL
REMARK 927      BINDING AFFINITY PREDICTED BY RF-SCORE:    0.00 PKD
ROOT
HETATM    1  O   UNL     1      -9.671  13.023  68.564  1.00  0.00    -0.313 OA 
HETATM    2  C   UNL     1     -10.425  12.318  67.576  1.00  0.00    -0.213 C  
HETATM    3  H   UNL     1      -9.044  13.579  68.116  1.00  0.00     0.000 HD 
HETATM    4  C   UNL     1      -9.454  11.444  66.753  1.00  0.00    -0.197 A  
HETATM    5  C   UNL     1     -11.220  13.343  66.665  1.00  0.00    -0.330 C  
HETATM    6  C   UNL     1     -11.450  11.407  68.310  1.00  0.00    -0.369 C  
HETATM    7  C   UNL     1      -9.647  15.371  66.602  1.00  0.00    -0.276 C  
HETATM    8  C   UNL     1     -12.251  14.240  67.394  1.00  0.00    -0.267 C  
HETATM    9  C   UNL     1      -8.072  11.440  67.018  1.00  0.00    -0.157 A  
HETATM   10  C   UNL     1      -7.198  10.596  66.325  1.00  0.00    -0.137 A  
HETATM   11  C   UNL     1     -10.348  14.277  65.806  1.00  0.00    -0.341 C  
HETATM   12  C   UNL     1     -11.654  15.370  68.226  1.00  0.00    -0.361 C  
HETATM   13  C   UNL     1     -10.589  16.178  67.493  1.00  0.00    -0.314 C  
HETATM   14  C   UNL     1      -7.688   9.737  65.346  1.00  0.00    -0.123 A  
HETATM   15  C   UNL     1      -9.922  10.579  65.747  1.00  0.00    -0.318 A  
HETATM   16  C   UNL     1      -9.047   9.733  65.052  1.00  0.00    -0.280 A  
ENDROOT
BRANCH   6  17
HETATM   17  C   UNL     1     -10.866  10.326  69.234  1.00  0.00    -0.238 C  
BRANCH  17  18
HETATM   18  N   UNL     1     -11.381  10.504  70.604  1.00  0.00    -0.323 NA 
HETATM   19  C   UNL     1     -12.369  11.581  70.716  1.00  0.00    -0.375 C  
HETATM   20  C   UNL     1     -13.059  11.276  72.027  1.00  0.00    -0.431 C  
HETATM   21  C   UNL     1     -13.159   9.763  72.023  1.00  0.00    -0.546 C  
HETATM   22  C   UNL     1     -12.020   9.288  71.124  1.00  0.00    -0.322 C  
ENDBRANCH  17  18
ENDBRANCH   6  17
TORSDOF 2
ENDMDL
MODEL       34
REMARK 921   NORMALIZED FREE ENERGY PREDICTED BY IDOCK:   -5.38 KCAL/MOL
REMARK 922        TOTAL FREE ENERGY PREDICTED BY IDOCK:   -6.68 KCAL/MOL
REMARK 923 INTER-LIGAND FREE ENERGY PREDICTED BY IDOCK:   -5.82 KCAL/MOL
REMARK 924 INTRA-LIGAND FREE ENERGY PREDICTED BY IDOCK:   -0.86 KCAL/MOL
REMARK 927      BINDING AFFINITY PREDICTED BY RF-SCORE:    0.00 PKD
ROOT
HETATM    1  O   UNL     1     -12.013  10.511  67.767  1.00  0.00    -0.611 OA 
HETATM    2  C   UNL     1     -10.592  10.400  67.868  1.00  0.00    -0.232 C  
HETATM    3  H   UNL     1     -12.307  11.143  68.413  1.00  0.00     0.000 HD 
HETATM    4  C   UNL     1     -10.242   9.894  69.284  1.00  0.00    -0.222 A  
HETATM    5  C   UNL     1      -9.914  11.799  67.552  1.00  0.00    -0.204 C  
HETATM    6  C   UNL     1     -10.112   9.365  66.811  1.00  0.00    -0.325 C  
HETATM    7  C   UNL     1     -11.643  13.473  68.444  1.00  0.00    -0.378 C  
HETATM    8  C   UNL     1     -10.173  12.373  66.138  1.00  0.00    -0.262 C  
HETATM    9  C   UNL     1     -11.246   9.634  70.235  1.00  0.00    -0.324 A  
HETATM   10  C   UNL     1     -10.939   9.105  71.494  1.00  0.00    -0.434 A  
HETATM   11  C   UNL     1     -10.226  12.925  68.555  1.00  0.00    -0.210 C  
HETATM   12  C   UNL     1     -11.568  12.948  65.917  1.00  0.00    -0.423 C  
HETATM   13  C   UNL     1     -12.030  13.887  67.026  1.00  0.00    -0.459 C  
HETATM   14  C   UNL     1      -9.619   8.827  71.831  1.00  0.00    -0.372 A  
HETATM   15  C   UNL     1      -8.913   9.620  69.654  1.00  0.00    -0.215 A  
HETATM   16  C   UNL     1      -8.605   9.090  70.915  1.00  0.00    -0.263 A  
ENDROOT
BRANCH   6  17
HETATM   17  C   UNL     1     -10.650   7.934  66.962  1.00  0.00    -0.311 C  
BRANCH  17  18
HETATM   18  N   UNL     1      -9.529   6.983  67.070  1.00  0.00    -0.143 NA 
HETATM   19  C   UNL     1      -8.217   7.615  66.900  1.00  0.00    -0.120 C  
HETATM   20  C   UNL     1      -7.268   6.594  67.490  1.00  0.00    -0.090 C  
HETATM   21  C   UNL     1      -8.027   6.071  68.694  1.00  0.00    -0.104 C  
HETATM   22  C   UNL     1      -9.501   6.296  68.368  1.00  0.00    -0.118 C  
ENDBRANCH  17  18
ENDBRANCH   6  17
TORSDOF 2
ENDMDL
MODEL       35
REMARK 921   NORMALIZED FREE ENERGY PREDICTED BY IDOCK:   -5.36 KCAL/MOL
REMARK 922        TOTAL FREE ENERGY PREDICTED BY IDOCK:   -6.67 KCAL/MOL
REMARK 923 INTER-LIGAND FREE ENERGY PREDICTED BY IDOCK:   -5.80 KCAL/MOL
REMARK 924 INTRA-LIGAND FREE ENERGY PREDICTED BY IDOCK:   -0.87 KCAL/MOL
REMARK 927      BINDING AFFINITY PREDICTED BY RF-SCORE:    0.00 PKD
ROOT
HETATM    1  O   UNL     1      -9.694  14.455  65.042  1.00  0.00    -0.509 OA 
HETATM    2  C   UNL     1     -10.291  14.990  66.225  1.00  0.00    -0.296 C  
HETATM    3  H   UNL     1      -9.477  13.545  65.207  1.00  0.00     0.000 HD 
HETATM    4  C   UNL     1      -9.261  14.905  67.372  1.00  0.00    -0.198 A  
HETATM    5  C   UNL     1     -11.626  14.204  66.564  1.00  0.00    -0.389 C  
HETATM    6  C   UNL     1     -10.647  16.480  65.955  1.00  0.00    -0.259 C  
HETATM    7  C   UNL     1     -11.098  11.829  65.747  1.00  0.00    -0.351 C  
HETATM    8  C   UNL     1     -12.739  14.264  65.490  1.00  0.00    -0.399 C  
HETATM    9  C   UNL     1      -7.982  14.355  67.166  1.00  0.00    -0.147 A  
HETATM   10  C   UNL     1      -7.021  14.343  68.181  1.00  0.00    -0.126 A  
HETATM   11  C   UNL     1     -11.442  12.721  66.933  1.00  0.00    -0.396 C  
HETATM   12  C   UNL     1     -12.493  13.406  64.253  1.00  0.00    -0.321 C  
HETATM   13  C   UNL     1     -12.059  11.979  64.569  1.00  0.00    -0.340 C  
HETATM   14  C   UNL     1      -7.318  14.878  69.431  1.00  0.00    -0.181 A  
HETATM   15  C   UNL     1      -9.544  15.424  68.649  1.00  0.00    -0.204 A  
HETATM   16  C   UNL     1      -8.581  15.412  69.667  1.00  0.00    -0.124 A  
ENDROOT
BRANCH   6  17
HETATM   17  C   UNL     1      -9.473  17.415  65.625  1.00  0.00     0.332 C  
BRANCH  17  18
HETATM   18  N   UNL     1      -9.459  18.554  66.560  1.00  0.00    -0.314 NA 
HETATM   19  C   UNL     1     -10.653  18.623  67.407  1.00  0.00    -0.441 C  
HETATM   20  C   UNL     1     -10.218  19.532  68.536  1.00  0.00    -0.517 C  
HETATM   21  C   UNL     1      -8.783  19.112  68.786  1.00  0.00    -0.365 C  
HETATM   22  C   UNL     1      -8.301  18.522  67.463  1.00  0.00    -0.257 C  
ENDBRANCH  17  18
ENDBRANCH   6  17
TORSDOF 2
ENDMDL
MODEL       36
REMARK 921   NORMALIZED FREE ENERGY PREDICTED BY IDOCK:   -5.34 KCAL/MOL
REMARK 922        TOTAL FREE ENERGY PREDICTED BY IDOCK:   -6.65 KCAL/MOL
REMARK 923 INTER-LIGAND FREE ENERGY PREDICTED BY IDOCK:   -6.15 KCAL/MOL
REMARK 924 INTRA-LIGAND FREE ENERGY PREDICTED BY IDOCK:   -0.49 KCAL/MOL
REMARK 927      BINDING AFFINITY PREDICTED BY RF-SCORE:    0.00 PKD
ROOT
HETATM    1  O   UNL     1      -9.424  13.884  65.680  1.00  0.00    -0.513 OA 
HETATM    2  C   UNL     1     -10.151  13.371  66.798  1.00  0.00    -0.260 C  
HETATM    3  H   UNL     1      -9.342  13.189  65.037  1.00  0.00     0.000 HD 
HETATM    4  C   UNL     1      -9.350  12.198  67.404  1.00  0.00    -0.181 A  
HETATM    5  C   UNL     1     -11.604  12.928  66.345  1.00  0.00    -0.425 C  
HETATM    6  C   UNL     1     -10.284  14.509  67.850  1.00  0.00    -0.231 C  
HETATM    7  C   UNL     1     -11.216  12.115  63.941  1.00  0.00    -0.485 C  
HETATM    8  C   UNL     1     -12.502  14.045  65.760  1.00  0.00    -0.523 C  
HETATM    9  C   UNL     1      -8.125  11.786  66.847  1.00  0.00    -0.160 A  
HETATM   10  C   UNL     1      -7.360  10.773  67.435  1.00  0.00    -0.094 A  
HETATM   11  C   UNL     1     -11.655  11.751  65.354  1.00  0.00    -0.190 C  
HETATM   12  C   UNL     1     -12.145  14.490  64.345  1.00  0.00    -0.492 C  
HETATM   13  C   UNL     1     -11.936  13.335  63.371  1.00  0.00    -0.491 C  
HETATM   14  C   UNL     1      -7.806  10.146  68.594  1.00  0.00    -0.097 A  
HETATM   15  C   UNL     1      -9.787  11.538  68.566  1.00  0.00    -0.198 A  
HETATM   16  C   UNL     1      -9.021  10.522  69.156  1.00  0.00    -0.171 A  
ENDROOT
BRANCH   6  17
HETATM   17  C   UNL     1      -8.972  15.063  68.428  1.00  0.00    -0.179 C  
BRANCH  17  18
HETATM   18  N   UNL     1      -8.963  16.534  68.335  1.00  0.00    -0.211 NA 
HETATM   19  C   UNL     1      -8.400  17.030  67.075  1.00  0.00    -0.203 C  
HETATM   20  C   UNL     1      -8.905  18.455  67.015  1.00  0.00    -0.271 C  
HETATM   21  C   UNL     1     -10.316  18.347  67.557  1.00  0.00    -0.416 C  
HETATM   22  C   UNL     1     -10.308  17.111  68.453  1.00  0.00    -0.362 C  
ENDBRANCH  17  18
ENDBRANCH   6  17
TORSDOF 2
ENDMDL
MODEL       37
REMARK 921   NORMALIZED FREE ENERGY PREDICTED BY IDOCK:   -5.33 KCAL/MOL
REMARK 922        TOTAL FREE ENERGY PREDICTED BY IDOCK:   -6.63 KCAL/MOL
REMARK 923 INTER-LIGAND FREE ENERGY PREDICTED BY IDOCK:   -6.30 KCAL/MOL
REMARK 924 INTRA-LIGAND FREE ENERGY PREDICTED BY IDOCK:   -0.33 KCAL/MOL
REMARK 927      BINDING AFFINITY PREDICTED BY RF-SCORE:    0.00 PKD
ROOT
HETATM    1  O   UNL     1      -9.120  15.053  67.828  1.00  0.00    -0.177 OA 
HETATM    2  C   UNL     1      -9.033  16.136  68.758  1.00  0.00    -0.236 C  
HETATM    3  H   UNL     1      -8.582  15.268  67.075  1.00  0.00     0.000 HD 
HETATM    4  C   UNL     1      -9.580  17.409  68.076  1.00  0.00    -0.276 A  
HETATM    5  C   UNL     1      -7.534  16.317  69.241  1.00  0.00    -0.217 C  
HETATM    6  C   UNL     1      -9.914  15.785  69.990  1.00  0.00    -0.115 C  
HETATM    7  C   UNL     1      -6.189  15.634  67.165  1.00  0.00     0.130 C  
HETATM    8  C   UNL     1      -6.907  15.106  69.974  1.00  0.00    -0.109 C  
HETATM    9  C   UNL     1     -10.045  17.384  66.749  1.00  0.00    -0.313 A  
HETATM   10  C   UNL     1     -10.610  18.516  66.152  1.00  0.00    -0.377 A  
HETATM   11  C   UNL     1      -6.535  16.743  68.150  1.00  0.00    -0.147 C  
HETATM   12  C   UNL     1      -6.524  13.933  69.078  1.00  0.00    -0.103 C  
HETATM   13  C   UNL     1      -5.739  14.338  67.835  1.00  0.00    -0.118 C  
HETATM   14  C   UNL     1     -10.718  19.702  66.870  1.00  0.00    -0.570 A  
HETATM   15  C   UNL     1      -9.685  18.624  68.776  1.00  0.00    -0.407 A  
HETATM   16  C   UNL     1     -10.251  19.760  68.179  1.00  0.00    -0.577 A  
ENDROOT
BRANCH   6  17
HETATM   17  C   UNL     1     -11.415  15.587  69.725  1.00  0.00    -0.331 C  
BRANCH  17  18
HETATM   18  N   UNL     1     -12.097  15.184  70.968  1.00  0.00    -0.304 NA 
HETATM   19  C   UNL     1     -11.990  16.181  72.036  1.00  0.00    -0.526 C  
HETATM   20  C   UNL     1     -13.098  15.782  72.986  1.00  0.00    -0.645 C  
HETATM   21  C   UNL     1     -14.220  15.366  72.056  1.00  0.00    -0.650 C  
HETATM   22  C   UNL     1     -13.530  14.934  70.764  1.00  0.00    -0.236 C  
ENDBRANCH  17  18
ENDBRANCH   6  17
TORSDOF 2
ENDMDL
MODEL       38
REMARK 921   NORMALIZED FREE ENERGY PREDICTED BY IDOCK:   -5.30 KCAL/MOL
REMARK 922        TOTAL FREE ENERGY PREDICTED BY IDOCK:   -6.60 KCAL/MOL
REMARK 923 INTER-LIGAND FREE ENERGY PREDICTED BY IDOCK:   -5.74 KCAL/MOL
REMARK 924 INTRA-LIGAND FREE ENERGY PREDICTED BY IDOCK:   -0.86 KCAL/MOL
REMARK 927      BINDING AFFINITY PREDICTED BY RF-SCORE:    0.00 PKD
ROOT
HETATM    1  O   UNL     1      -9.359  14.220  65.798  1.00  0.00    -0.520 OA 
HETATM    2  C   UNL     1      -9.724  14.981  66.951  1.00  0.00    -0.238 C  
HETATM    3  H   UNL     1      -8.832  13.484  66.084  1.00  0.00     0.000 HD 
HETATM    4  C   UNL     1      -8.433  15.500  67.621  1.00  0.00    -0.177 A  
HETATM    5  C   UNL     1     -10.590  14.091  67.937  1.00  0.00    -0.246 C  
HETATM    6  C   UNL     1     -10.588  16.186  66.481  1.00  0.00    -0.268 C  
HETATM    7  C   UNL     1      -9.610  11.746  67.581  1.00  0.00    -0.184 C  
HETATM    8  C   UNL     1     -11.927  13.556  67.370  1.00  0.00    -0.398 C  
HETATM    9  C   UNL     1      -7.164  15.194  67.096  1.00  0.00    -0.098 A  
HETATM   10  C   UNL     1      -5.996  15.722  67.656  1.00  0.00    -0.172 A  
HETATM   11  C   UNL     1      -9.856  12.889  68.558  1.00  0.00    -0.147 C  
HETATM   12  C   UNL     1     -11.795  12.407  66.375  1.00  0.00    -0.421 C  
HETATM   13  C   UNL     1     -10.867  11.291  66.842  1.00  0.00    -0.333 C  
HETATM   14  C   UNL     1      -6.071  16.567  68.759  1.00  0.00    -0.135 A  
HETATM   15  C   UNL     1      -8.483  16.343  68.746  1.00  0.00    -0.249 A  
HETATM   16  C   UNL     1      -7.312  16.873  69.308  1.00  0.00    -0.150 A  
ENDROOT
BRANCH   6  17
HETATM   17  C   UNL     1      -9.911  17.182  65.526  1.00  0.00     0.200 C  
BRANCH  17  18
HETATM   18  N   UNL     1     -10.005  18.548  66.073  1.00  0.00    -0.534 NA 
HETATM   19  C   UNL     1     -10.783  18.621  67.313  1.00  0.00    -0.394 C  
HETATM   20  C   UNL     1     -10.364  19.952  67.899  1.00  0.00    -0.545 C  
HETATM   21  C   UNL     1      -8.881  20.014  67.592  1.00  0.00    -0.407 C  
HETATM   22  C   UNL     1      -8.687  19.126  66.365  1.00  0.00    -0.328 C  
ENDBRANCH  17  18
ENDBRANCH   6  17
TORSDOF 2
ENDMDL
MODEL       39
REMARK 921   NORMALIZED FREE ENERGY PREDICTED BY IDOCK:   -5.28 KCAL/MOL
REMARK 922        TOTAL FREE ENERGY PREDICTED BY IDOCK:   -6.58 KCAL/MOL
REMARK 923 INTER-LIGAND FREE ENERGY PREDICTED BY IDOCK:   -5.76 KCAL/MOL
REMARK 924 INTRA-LIGAND FREE ENERGY PREDICTED BY IDOCK:   -0.82 KCAL/MOL
REMARK 927      BINDING AFFINITY PREDICTED BY RF-SCORE:    0.00 PKD
ROOT
HETATM    1  O   UNL     1     -12.208  10.482  68.245  1.00  0.00    -0.744 OA 
HETATM    2  C   UNL     1     -11.283  11.432  68.779  1.00  0.00    -0.247 C  
HETATM    3  H   UNL     1     -11.840   9.614  68.362  1.00  0.00     0.000 HD 
HETATM    4  C   UNL     1      -9.960  11.320  67.990  1.00  0.00    -0.191 A  
HETATM    5  C   UNL     1     -11.075  11.175  70.329  1.00  0.00     0.009 C  
HETATM    6  C   UNL     1     -11.885  12.853  68.587  1.00  0.00    -0.347 C  
HETATM    7  C   UNL     1     -11.325   8.627  70.513  1.00  0.00    -0.241 C  
HETATM    8  C   UNL     1     -12.338  11.305  71.214  1.00  0.00    -0.375 C  
HETATM    9  C   UNL     1      -9.808  10.387  66.948  1.00  0.00    -0.236 A  
HETATM   10  C   UNL     1      -8.639  10.332  66.182  1.00  0.00    -0.146 A  
HETATM   11  C   UNL     1     -10.412   9.834  70.693  1.00  0.00    -0.358 C  
HETATM   12  C   UNL     1     -13.326  10.147  71.108  1.00  0.00    -0.372 C  
HETATM   13  C   UNL     1     -12.675   8.772  71.212  1.00  0.00    -0.267 C  
HETATM   14  C   UNL     1      -7.591  11.209  66.445  1.00  0.00    -0.109 A  
HETATM   15  C   UNL     1      -8.881  12.185  68.247  1.00  0.00    -0.182 A  
HETATM   16  C   UNL     1      -7.708  12.130  67.480  1.00  0.00    -0.159 A  
ENDROOT
BRANCH   6  17
HETATM   17  C   UNL     1     -12.144  13.297  67.138  1.00  0.00    -0.298 C  
BRANCH  17  18
HETATM   18  N   UNL     1     -11.380  14.522  66.843  1.00  0.00    -0.337 NA 
HETATM   19  C   UNL     1     -10.719  15.090  68.022  1.00  0.00    -0.262 C  
HETATM   20  C   UNL     1      -9.678  16.007  67.420  1.00  0.00    -0.232 C  
HETATM   21  C   UNL     1      -9.180  15.227  66.219  1.00  0.00    -0.350 C  
HETATM   22  C   UNL     1     -10.333  14.301  65.837  1.00  0.00    -0.314 C  
ENDBRANCH  17  18
ENDBRANCH   6  17
TORSDOF 2
ENDMDL
MODEL       40
REMARK 921   NORMALIZED FREE ENERGY PREDICTED BY IDOCK:   -5.24 KCAL/MOL
REMARK 922        TOTAL FREE ENERGY PREDICTED BY IDOCK:   -6.53 KCAL/MOL
REMARK 923 INTER-LIGAND FREE ENERGY PREDICTED BY IDOCK:   -6.10 KCAL/MOL
REMARK 924 INTRA-LIGAND FREE ENERGY PREDICTED BY IDOCK:   -0.43 KCAL/MOL
REMARK 927      BINDING AFFINITY PREDICTED BY RF-SCORE:    0.00 PKD
ROOT
HETATM    1  O   UNL     1      -9.131  15.224  67.286  1.00  0.00    -0.186 OA 
HETATM    2  C   UNL     1      -9.249  16.123  68.391  1.00  0.00    -0.203 C  
HETATM    3  H   UNL     1      -8.453  15.553  66.709  1.00  0.00     0.000 HD 
HETATM    4  C   UNL     1      -9.660  17.509  67.849  1.00  0.00    -0.277 A  
HETATM    5  C   UNL     1      -7.883  16.179  69.194  1.00  0.00    -0.232 C  
HETATM    6  C   UNL     1     -10.359  15.583  69.336  1.00  0.00    -0.258 C  
HETATM    7  C   UNL     1      -6.134  15.838  67.347  1.00  0.00    -0.117 C  
HETATM    8  C   UNL     1      -7.405  14.844  69.813  1.00  0.00    -0.100 C  
HETATM    9  C   UNL     1      -9.843  17.730  66.471  1.00  0.00    -0.331 A  
HETATM   10  C   UNL     1     -10.287  18.963  65.982  1.00  0.00    -0.485 A  
HETATM   11  C   UNL     1      -6.687  16.766  68.422  1.00  0.00    -0.154 C  
HETATM   12  C   UNL     1      -6.833  13.837  68.820  1.00  0.00    -0.106 C  
HETATM   13  C   UNL     1      -5.815  14.434  67.855  1.00  0.00    -0.132 C  
HETATM   14  C   UNL     1     -10.554  20.007  66.862  1.00  0.00    -0.455 A  
HETATM   15  C   UNL     1      -9.921  18.585  68.717  1.00  0.00    -0.417 A  
HETATM   16  C   UNL     1     -10.365  19.821  68.228  1.00  0.00    -0.536 A  
ENDROOT
BRANCH   6  17
HETATM   17  C   UNL     1     -11.772  15.473  68.740  1.00  0.00    -0.357 C  
BRANCH  17  18
HETATM   18  N   UNL     1     -12.024  14.090  68.296  1.00  0.00    -0.365 NA 
HETATM   19  C   UNL     1     -12.100  13.955  66.838  1.00  0.00    -0.430 C  
HETATM   20  C   UNL     1     -11.900  12.471  66.623  1.00  0.00    -0.422 C  
HETATM   21  C   UNL     1     -10.845  12.110  67.650  1.00  0.00    -0.272 C  
HETATM   22  C   UNL     1     -10.985  13.158  68.753  1.00  0.00    -0.262 C  
ENDBRANCH  17  18
ENDBRANCH   6  17
TORSDOF 2
ENDMDL
MODEL       41
REMARK 921   NORMALIZED FREE ENERGY PREDICTED BY IDOCK:   -5.23 KCAL/MOL
REMARK 922        TOTAL FREE ENERGY PREDICTED BY IDOCK:   -6.52 KCAL/MOL
REMARK 923 INTER-LIGAND FREE ENERGY PREDICTED BY IDOCK:   -5.96 KCAL/MOL
REMARK 924 INTRA-LIGAND FREE ENERGY PREDICTED BY IDOCK:   -0.56 KCAL/MOL
REMARK 927      BINDING AFFINITY PREDICTED BY RF-SCORE:    0.00 PKD
ROOT
HETATM    1  O   UNL     1      -9.797  13.434  67.248  1.00  0.00    -0.226 OA 
HETATM    2  C   UNL     1     -11.038  12.950  67.765  1.00  0.00    -0.259 C  
HETATM    3  H   UNL     1      -9.389  12.733  66.753  1.00  0.00     0.000 HD 
HETATM    4  C   UNL     1     -10.743  11.759  68.702  1.00  0.00    -0.252 A  
HETATM    5  C   UNL     1     -12.002  12.545  66.573  1.00  0.00    -0.367 C  
HETATM    6  C   UNL     1     -11.705  14.098  68.575  1.00  0.00    -0.380 C  
HETATM    7  C   UNL     1     -10.360  11.705  64.787  1.00  0.00    -0.331 C  
HETATM    8  C   UNL     1     -12.390  13.683  65.598  1.00  0.00    -0.518 C  
HETATM    9  C   UNL     1      -9.428  11.308  68.920  1.00  0.00    -0.102 A  
HETATM   10  C   UNL     1      -9.149  10.278  69.824  1.00  0.00    -0.089 A  
HETATM   11  C   UNL     1     -11.523  11.363  65.710  1.00  0.00     0.034 C  
HETATM   12  C   UNL     1     -11.293  14.107  64.628  1.00  0.00    -0.374 C  
HETATM   13  C   UNL     1     -10.607  12.940  63.925  1.00  0.00    -0.367 C  
HETATM   14  C   UNL     1     -10.183   9.671  70.531  1.00  0.00    -0.351 A  
HETATM   15  C   UNL     1     -11.773  11.118  69.416  1.00  0.00    -0.402 A  
HETATM   16  C   UNL     1     -11.495  10.086  70.323  1.00  0.00    -0.372 A  
ENDROOT
BRANCH   6  17
HETATM   17  C   UNL     1     -10.925  14.618  69.793  1.00  0.00    -0.201 C  
BRANCH  17  18
HETATM   18  N   UNL     1     -10.443  15.988  69.534  1.00  0.00    -0.264 NA 
HETATM   19  C   UNL     1      -9.015  16.047  69.210  1.00  0.00    -0.228 C  
HETATM   20  C   UNL     1      -8.870  17.405  68.559  1.00  0.00    -0.277 C  
HETATM   21  C   UNL     1     -10.133  17.530  67.731  1.00  0.00    -0.330 C  
HETATM   22  C   UNL     1     -11.156  16.630  68.422  1.00  0.00    -0.305 C  
ENDBRANCH  17  18
ENDBRANCH   6  17
TORSDOF 2
ENDMDL
MODEL       42
REMARK 921   NORMALIZED FREE ENERGY PREDICTED BY IDOCK:   -5.22 KCAL/MOL
REMARK 922        TOTAL FREE ENERGY PREDICTED BY IDOCK:   -6.51 KCAL/MOL
REMARK 923 INTER-LIGAND FREE ENERGY PREDICTED BY IDOCK:   -5.71 KCAL/MOL
REMARK 924 INTRA-LIGAND FREE ENERGY PREDICTED BY IDOCK:   -0.80 KCAL/MOL
REMARK 927      BINDING AFFINITY PREDICTED BY RF-SCORE:    0.00 PKD
ROOT
HETATM    1  O   UNL     1      -8.523  10.644  67.878  1.00  0.00    -0.118 OA 
HETATM    2  C   UNL     1      -9.900  10.728  67.502  1.00  0.00    -0.172 C  
HETATM    3  H   UNL     1      -8.459  10.831  68.807  1.00  0.00     0.000 HD 
HETATM    4  C   UNL     1     -10.393  12.165  67.777  1.00  0.00    -0.217 A  
HETATM    5  C   UNL     1     -10.746   9.647  68.296  1.00  0.00    -0.262 C  
HETATM    6  C   UNL     1     -10.005  10.422  65.981  1.00  0.00    -0.301 C  
HETATM    7  C   UNL     1      -9.511   9.510  70.542  1.00  0.00    -0.306 C  
HETATM    8  C   UNL     1     -10.353   8.169  68.056  1.00  0.00    -0.267 C  
HETATM    9  C   UNL     1      -9.538  13.139  68.322  1.00  0.00    -0.218 A  
HETATM   10  C   UNL     1      -9.958  14.461  68.503  1.00  0.00    -0.237 A  
HETATM   11  C   UNL     1     -10.810   9.849  69.821  1.00  0.00    -0.300 C  
HETATM   12  C   UNL     1      -9.061   7.723  68.733  1.00  0.00    -0.140 C  
HETATM   13  C   UNL     1      -8.965   8.125  70.201  1.00  0.00    -0.146 C  
HETATM   14  C   UNL     1     -11.249  14.838  68.146  1.00  0.00    -0.307 A  
HETATM   15  C   UNL     1     -11.699  12.566  67.438  1.00  0.00    -0.432 A  
HETATM   16  C   UNL     1     -12.121  13.891  67.619  1.00  0.00    -0.342 A  
ENDROOT
BRANCH   6  17
HETATM   17  C   UNL     1      -9.261  11.380  65.038  1.00  0.00    -0.076 C  
BRANCH  17  18
HETATM   18  N   UNL     1     -10.208  11.986  64.085  1.00  0.00    -0.318 NA 
HETATM   19  C   UNL     1     -11.530  11.352  64.101  1.00  0.00    -0.115 C  
HETATM   20  C   UNL     1     -12.411  12.384  63.432  1.00  0.00    -0.603 C  
HETATM   21  C   UNL     1     -11.876  13.697  63.969  1.00  0.00    -0.444 C  
HETATM   22  C   UNL     1     -10.422  13.416  64.340  1.00  0.00    -0.384 C  
ENDBRANCH  17  18
ENDBRANCH   6  17
TORSDOF 2
ENDMDL
MODEL       43
REMARK 921   NORMALIZED FREE ENERGY PREDICTED BY IDOCK:   -5.20 KCAL/MOL
REMARK 922        TOTAL FREE ENERGY PREDICTED BY IDOCK:   -6.49 KCAL/MOL
REMARK 923 INTER-LIGAND FREE ENERGY PREDICTED BY IDOCK:   -6.07 KCAL/MOL
REMARK 924 INTRA-LIGAND FREE ENERGY PREDICTED BY IDOCK:   -0.42 KCAL/MOL
REMARK 927      BINDING AFFINITY PREDICTED BY RF-SCORE:    0.00 PKD
ROOT
HETATM    1  O   UNL     1     -11.348   9.890  67.447  1.00  0.00    -0.388 OA 
HETATM    2  C   UNL     1     -10.437  10.879  67.935  1.00  0.00    -0.195 C  
HETATM    3  H   UNL     1     -11.262   9.852  66.502  1.00  0.00     0.000 HD 
HETATM    4  C   UNL     1     -10.825  12.243  67.324  1.00  0.00    -0.283 A  
HETATM    5  C   UNL     1      -8.948  10.469  67.578  1.00  0.00    -0.137 C  
HETATM    6  C   UNL     1     -10.578  10.942  69.483  1.00  0.00    -0.217 C  
HETATM    7  C   UNL     1      -9.225   9.247  65.338  1.00  0.00    -0.284 C  
HETATM    8  C   UNL     1      -8.450   9.132  68.179  1.00  0.00    -0.125 C  
HETATM    9  C   UNL     1     -11.908  12.363  66.434  1.00  0.00    -0.421 A  
HETATM   10  C   UNL     1     -12.309  13.607  65.936  1.00  0.00    -0.516 A  
HETATM   11  C   UNL     1      -8.615  10.433  66.076  1.00  0.00    -0.158 C  
HETATM   12  C   UNL     1      -9.004   7.876  67.515  1.00  0.00    -0.131 C  
HETATM   13  C   UNL     1      -8.926   7.900  65.992  1.00  0.00    -0.195 C  
HETATM   14  C   UNL     1     -11.632  14.761  66.315  1.00  0.00    -0.298 A  
HETATM   15  C   UNL     1     -10.146  13.422  67.680  1.00  0.00    -0.229 A  
HETATM   16  C   UNL     1     -10.547  14.669  67.182  1.00  0.00    -0.282 A  
ENDROOT
BRANCH   6  17
HETATM   17  C   UNL     1     -11.958  11.344  70.028  1.00  0.00    -0.363 C  
BRANCH  17  18
HETATM   18  N   UNL     1     -12.260  10.575  71.249  1.00  0.00    -0.370 NA 
HETATM   19  C   UNL     1     -13.620  10.029  71.267  1.00  0.00    -0.165 C  
HETATM   20  C   UNL     1     -13.540   8.952  72.326  1.00  0.00    -0.513 C  
HETATM   21  C   UNL     1     -12.173   8.340  72.096  1.00  0.00    -0.418 C  
HETATM   22  C   UNL     1     -11.346   9.441  71.436  1.00  0.00    -0.381 C  
ENDBRANCH  17  18
ENDBRANCH   6  17
TORSDOF 2
ENDMDL
MODEL       44
REMARK 921   NORMALIZED FREE ENERGY PREDICTED BY IDOCK:   -5.18 KCAL/MOL
REMARK 922        TOTAL FREE ENERGY PREDICTED BY IDOCK:   -6.47 KCAL/MOL
REMARK 923 INTER-LIGAND FREE ENERGY PREDICTED BY IDOCK:   -5.95 KCAL/MOL
REMARK 924 INTRA-LIGAND FREE ENERGY PREDICTED BY IDOCK:   -0.51 KCAL/MOL
REMARK 927      BINDING AFFINITY PREDICTED BY RF-SCORE:    0.00 PKD
ROOT
HETATM    1  O   UNL     1      -9.335  11.119  69.420  1.00  0.00    -0.397 OA 
HETATM    2  C   UNL     1     -10.487  10.408  68.961  1.00  0.00    -0.219 C  
HETATM    3  H   UNL     1      -8.737  11.217  68.689  1.00  0.00     0.000 HD 
HETATM    4  C   UNL     1     -10.036   9.014  68.472  1.00  0.00    -0.193 A  
HETATM    5  C   UNL     1     -11.214  11.232  67.819  1.00  0.00    -0.354 C  
HETATM    6  C   UNL     1     -11.465  10.247  70.159  1.00  0.00    -0.383 C  
HETATM    7  C   UNL     1      -9.259  12.413  66.648  1.00  0.00    -0.218 C  
HETATM    8  C   UNL     1     -11.741  12.631  68.223  1.00  0.00    -0.389 C  
HETATM    9  C   UNL     1      -8.683   8.630  68.509  1.00  0.00    -0.139 A  
HETATM   10  C   UNL     1      -8.279   7.343  68.137  1.00  0.00    -0.124 A  
HETATM   11  C   UNL     1     -10.406  11.418  66.522  1.00  0.00    -0.277 C  
HETATM   12  C   UNL     1     -10.671  13.706  68.380  1.00  0.00    -0.272 C  
HETATM   13  C   UNL     1      -9.680  13.763  67.222  1.00  0.00    -0.242 C  
HETATM   14  C   UNL     1      -9.221   6.411  67.714  1.00  0.00    -0.112 A  
HETATM   15  C   UNL     1     -10.968   8.060  68.025  1.00  0.00     0.113 A  
HETATM   16  C   UNL     1     -10.564   6.770  67.652  1.00  0.00    -0.323 A  
ENDROOT
BRANCH   6  17
HETATM   17  C   UNL     1     -10.944   9.454  71.367  1.00  0.00    -0.373 C  
BRANCH  17  18
HETATM   18  N   UNL     1     -12.067   8.800  72.062  1.00  0.00    -0.355 NA 
HETATM   19  C   UNL     1     -13.298   9.596  72.049  1.00  0.00    -0.457 C  
HETATM   20  C   UNL     1     -14.366   8.577  72.382  1.00  0.00    -0.412 C  
HETATM   21  C   UNL     1     -13.914   7.341  71.630  1.00  0.00    -0.488 C  
HETATM   22  C   UNL     1     -12.402   7.494  71.480  1.00  0.00    -0.339 C  
ENDBRANCH  17  18
ENDBRANCH   6  17
TORSDOF 2
ENDMDL
MODEL       45
REMARK 921   NORMALIZED FREE ENERGY PREDICTED BY IDOCK:   -5.18 KCAL/MOL
REMARK 922        TOTAL FREE ENERGY PREDICTED BY IDOCK:   -6.46 KCAL/MOL
REMARK 923 INTER-LIGAND FREE ENERGY PREDICTED BY IDOCK:   -6.13 KCAL/MOL
REMARK 924 INTRA-LIGAND FREE ENERGY PREDICTED BY IDOCK:   -0.34 KCAL/MOL
REMARK 927      BINDING AFFINITY PREDICTED BY RF-SCORE:    0.00 PKD
ROOT
HETATM    1  O   UNL     1     -11.101   8.088  68.972  1.00  0.00    -0.426 OA 
HETATM    2  C   UNL     1     -10.470   9.212  69.590  1.00  0.00    -0.223 C  
HETATM    3  H   UNL     1     -10.665   7.301  69.275  1.00  0.00     0.000 HD 
HETATM    4  C   UNL     1      -8.989   9.240  69.154  1.00  0.00    -0.144 A  
HETATM    5  C   UNL     1     -10.624   9.123  71.166  1.00  0.00    -0.379 C  
HETATM    6  C   UNL     1     -11.184  10.501  69.093  1.00  0.00    -0.314 C  
HETATM    7  C   UNL     1     -10.579   6.592  71.590  1.00  0.00    -0.250 C  
HETATM    8  C   UNL     1     -12.074   9.129  71.707  1.00  0.00    -0.446 C  
HETATM    9  C   UNL     1      -8.462   8.257  68.296  1.00  0.00    -0.136 A  
HETATM   10  C   UNL     1      -7.142   8.319  67.839  1.00  0.00    -0.083 A  
HETATM   11  C   UNL     1      -9.905   7.936  71.833  1.00  0.00    -0.233 C  
HETATM   12  C   UNL     1     -12.845   7.828  71.512  1.00  0.00    -0.357 C  
HETATM   13  C   UNL     1     -12.068   6.583  71.929  1.00  0.00    -0.388 C  
HETATM   14  C   UNL     1      -6.316   9.367  68.233  1.00  0.00    -0.053 A  
HETATM   15  C   UNL     1      -8.130  10.280  69.551  1.00  0.00    -0.170 A  
HETATM   16  C   UNL     1      -6.806  10.344  69.093  1.00  0.00    -0.066 A  
ENDROOT
BRANCH   6  17
HETATM   17  C   UNL     1     -11.128  10.775  67.582  1.00  0.00    -0.319 C  
BRANCH  17  18
HETATM   18  N   UNL     1     -11.883  12.000  67.265  1.00  0.00    -0.598 NA 
HETATM   19  C   UNL     1     -11.477  13.156  68.070  1.00  0.00    -0.311 C  
HETATM   20  C   UNL     1     -12.021  14.328  67.284  1.00  0.00    -0.439 C  
HETATM   21  C   UNL     1     -11.779  13.922  65.843  1.00  0.00    -0.372 C  
HETATM   22  C   UNL     1     -11.743  12.395  65.857  1.00  0.00    -0.419 C  
ENDBRANCH  17  18
ENDBRANCH   6  17
TORSDOF 2
ENDMDL
MODEL       46
REMARK 921   NORMALIZED FREE ENERGY PREDICTED BY IDOCK:   -5.17 KCAL/MOL
REMARK 922        TOTAL FREE ENERGY PREDICTED BY IDOCK:   -6.46 KCAL/MOL
REMARK 923 INTER-LIGAND FREE ENERGY PREDICTED BY IDOCK:   -6.06 KCAL/MOL
REMARK 924 INTRA-LIGAND FREE ENERGY PREDICTED BY IDOCK:   -0.40 KCAL/MOL
REMARK 927      BINDING AFFINITY PREDICTED BY RF-SCORE:    0.00 PKD
ROOT
HETATM    1  O   UNL     1      -8.401  17.114  66.074  1.00  0.00    -0.483 OA 
HETATM    2  C   UNL     1      -8.995  16.553  67.247  1.00  0.00    -0.199 C  
HETATM    3  H   UNL     1      -9.082  17.558  65.582  1.00  0.00     0.000 HD 
HETATM    4  C   UNL     1     -10.067  15.532  66.809  1.00  0.00    -0.268 A  
HETATM    5  C   UNL     1      -9.605  17.705  68.151  1.00  0.00    -0.297 C  
HETATM    6  C   UNL     1      -7.881  15.827  68.052  1.00  0.00    -0.138 C  
HETATM    7  C   UNL     1     -10.368  19.434  66.414  1.00  0.00    -0.575 C  
HETATM    8  C   UNL     1      -8.600  18.759  68.674  1.00  0.00    -0.358 C  
HETATM    9  C   UNL     1     -10.334  15.290  65.449  1.00  0.00    -0.421 A  
HETATM   10  C   UNL     1     -11.251  14.313  65.047  1.00  0.00    -0.364 A  
HETATM   11  C   UNL     1     -10.780  18.480  67.528  1.00  0.00    -0.419 C  
HETATM   12  C   UNL     1      -8.117  19.767  67.636  1.00  0.00    -0.331 C  
HETATM   13  C   UNL     1      -9.240  20.385  66.810  1.00  0.00    -0.404 C  
HETATM   14  C   UNL     1     -11.926  13.556  66.000  1.00  0.00    -0.449 A  
HETATM   15  C   UNL     1     -10.774  14.765  67.754  1.00  0.00    -0.268 A  
HETATM   16  C   UNL     1     -11.693  13.785  67.352  1.00  0.00    -0.417 A  
ENDROOT
BRANCH   6  17
HETATM   17  C   UNL     1      -7.178  14.657  67.345  1.00  0.00    -0.154 C  
BRANCH  17  18
HETATM   18  N   UNL     1      -6.214  14.021  68.262  1.00  0.00    -0.103 NA 
HETATM   19  C   UNL     1      -5.928  14.829  69.451  1.00  0.00    -0.104 C  
HETATM   20  C   UNL     1      -5.324  13.823  70.407  1.00  0.00    -0.116 C  
HETATM   21  C   UNL     1      -6.150  12.575  70.167  1.00  0.00    -0.099 C  
HETATM   22  C   UNL     1      -6.677  12.712  68.740  1.00  0.00    -0.093 C  
ENDBRANCH  17  18
ENDBRANCH   6  17
TORSDOF 2
ENDMDL
MODEL       47
REMARK 921   NORMALIZED FREE ENERGY PREDICTED BY IDOCK:   -5.17 KCAL/MOL
REMARK 922        TOTAL FREE ENERGY PREDICTED BY IDOCK:   -6.46 KCAL/MOL
REMARK 923 INTER-LIGAND FREE ENERGY PREDICTED BY IDOCK:   -6.00 KCAL/MOL
REMARK 924 INTRA-LIGAND FREE ENERGY PREDICTED BY IDOCK:   -0.46 KCAL/MOL
REMARK 927      BINDING AFFINITY PREDICTED BY RF-SCORE:    0.00 PKD
ROOT
HETATM    1  O   UNL     1     -11.742   7.545  70.066  1.00  0.00    -0.491 OA 
HETATM    2  C   UNL     1     -10.389   7.858  69.728  1.00  0.00    -0.219 C  
HETATM    3  H   UNL     1     -11.796   6.612  70.235  1.00  0.00     0.000 HD 
HETATM    4  C   UNL     1     -10.014   7.079  68.449  1.00  0.00    -0.160 A  
HETATM    5  C   UNL     1      -9.431   7.508  70.941  1.00  0.00    -0.165 C  
HETATM    6  C   UNL     1     -10.302   9.386  69.451  1.00  0.00    -0.222 C  
HETATM    7  C   UNL     1     -10.583   5.470  71.994  1.00  0.00    -0.284 C  
HETATM    8  C   UNL     1      -9.701   8.270  72.261  1.00  0.00    -0.362 C  
HETATM    9  C   UNL     1     -10.935   6.220  67.820  1.00  0.00    -0.427 A  
HETATM   10  C   UNL     1     -10.625   5.570  66.621  1.00  0.00    -0.365 A  
HETATM   11  C   UNL     1      -9.340   6.013  71.300  1.00  0.00    -0.170 C  
HETATM   12  C   UNL     1     -10.929   7.806  73.037  1.00  0.00    -0.442 C  
HETATM   13  C   UNL     1     -11.017   6.293  73.204  1.00  0.00    -0.251 C  
HETATM   14  C   UNL     1      -9.383   5.760  66.025  1.00  0.00    -0.134 A  
HETATM   15  C   UNL     1      -8.759   7.243  67.835  1.00  0.00    -0.123 A  
HETATM   16  C   UNL     1      -8.447   6.591  66.633  1.00  0.00    -0.116 A  
ENDROOT
BRANCH   6  17
HETATM   17  C   UNL     1     -11.154   9.921  68.289  1.00  0.00    -0.150 C  
BRANCH  17  18
HETATM   18  N   UNL     1     -11.957  11.071  68.741  1.00  0.00    -0.511 NA 
HETATM   19  C   UNL     1     -11.737  11.412  70.149  1.00  0.00    -0.328 C  
HETATM   20  C   UNL     1     -12.272  12.824  70.245  1.00  0.00    -0.351 C  
HETATM   21  C   UNL     1     -11.831  13.452  68.938  1.00  0.00    -0.373 C  
HETATM   22  C   UNL     1     -11.681  12.286  67.963  1.00  0.00    -0.356 C  
ENDBRANCH  17  18
ENDBRANCH   6  17
TORSDOF 2
ENDMDL
MODEL       48
REMARK 921   NORMALIZED FREE ENERGY PREDICTED BY IDOCK:   -5.17 KCAL/MOL
REMARK 922        TOTAL FREE ENERGY PREDICTED BY IDOCK:   -6.45 KCAL/MOL
REMARK 923 INTER-LIGAND FREE ENERGY PREDICTED BY IDOCK:   -5.63 KCAL/MOL
REMARK 924 INTRA-LIGAND FREE ENERGY PREDICTED BY IDOCK:   -0.82 KCAL/MOL
REMARK 927      BINDING AFFINITY PREDICTED BY RF-SCORE:    0.00 PKD
ROOT
HETATM    1  O   UNL     1      -9.107  11.514  68.867  1.00  0.00    -0.366 OA 
HETATM    2  C   UNL     1     -10.281  10.711  68.722  1.00  0.00    -0.190 C  
HETATM    3  H   UNL     1      -8.820  11.777  68.001  1.00  0.00     0.000 HD 
HETATM    4  C   UNL     1      -9.915   9.459  67.896  1.00  0.00    -0.220 A  
HETATM    5  C   UNL     1     -11.436  11.556  68.042  1.00  0.00    -0.381 C  
HETATM    6  C   UNL     1     -10.749  10.280  70.141  1.00  0.00    -0.334 C  
HETATM    7  C   UNL     1     -10.137  13.121  66.476  1.00  0.00    -0.280 C  
HETATM    8  C   UNL     1     -11.903  12.813  68.815  1.00  0.00    -0.346 C  
HETATM    9  C   UNL     1      -8.610   9.261  67.409  1.00  0.00    -0.122 A  
HETATM   10  C   UNL     1      -8.256   8.094  66.724  1.00  0.00    -0.107 A  
HETATM   11  C   UNL     1     -11.164  12.000  66.593  1.00  0.00    -0.380 C  
HETATM   12  C   UNL     1     -10.944  13.998  68.766  1.00  0.00    -0.282 C  
HETATM   13  C   UNL     1     -10.441  14.325  67.364  1.00  0.00    -0.264 C  
HETATM   14  C   UNL     1      -9.202   7.098  66.507  1.00  0.00    -0.199 A  
HETATM   15  C   UNL     1     -10.858   8.445  67.650  1.00  0.00    -0.078 A  
HETATM   16  C   UNL     1     -10.505   7.275  66.963  1.00  0.00    -0.398 A  
ENDROOT
BRANCH   6  17
HETATM   17  C   UNL     1      -9.764   9.429  70.958  1.00  0.00    -0.223 C  
BRANCH  17  18
HETATM   18  N   UNL     1     -10.448   8.233  71.483  1.00  0.00    -0.215 NA 
HETATM   19  C   UNL     1     -11.899   8.258  71.276  1.00  0.00    -0.288 C  
HETATM   20  C   UNL     1     -12.293   6.809  71.455  1.00  0.00    -0.407 C  
HETATM   21  C   UNL     1     -11.158   6.055  70.792  1.00  0.00    -0.355 C  
HETATM   22  C   UNL     1      -9.955   6.993  70.869  1.00  0.00    -0.193 C  
ENDBRANCH  17  18
ENDBRANCH   6  17
TORSDOF 2
ENDMDL
MODEL       49
REMARK 921   NORMALIZED FREE ENERGY PREDICTED BY IDOCK:   -5.15 KCAL/MOL
REMARK 922        TOTAL FREE ENERGY PREDICTED BY IDOCK:   -6.43 KCAL/MOL
REMARK 923 INTER-LIGAND FREE ENERGY PREDICTED BY IDOCK:   -5.99 KCAL/MOL
REMARK 924 INTRA-LIGAND FREE ENERGY PREDICTED BY IDOCK:   -0.44 KCAL/MOL
REMARK 927      BINDING AFFINITY PREDICTED BY RF-SCORE:    0.00 PKD
ROOT
HETATM    1  O   UNL     1      -9.816  12.853  68.881  1.00  0.00    -0.419 OA 
HETATM    2  C   UNL     1     -10.797  12.024  68.252  1.00  0.00    -0.229 C  
HETATM    3  H   UNL     1      -9.118  13.010  68.256  1.00  0.00     0.000 HD 
HETATM    4  C   UNL     1     -10.131  10.684  67.872  1.00  0.00    -0.194 A  
HETATM    5  C   UNL     1     -11.405  12.766  66.989  1.00  0.00    -0.364 C  
HETATM    6  C   UNL     1     -11.939  11.767  69.275  1.00  0.00    -0.354 C  
HETATM    7  C   UNL     1      -9.413  14.140  66.134  1.00  0.00    -0.229 C  
HETATM    8  C   UNL     1     -12.131  14.103  67.273  1.00  0.00    -0.407 C  
HETATM    9  C   UNL     1      -8.771  10.443  68.140  1.00  0.00    -0.125 A  
HETATM   10  C   UNL     1      -8.181   9.204  67.865  1.00  0.00    -0.112 A  
HETATM   11  C   UNL     1     -10.415  13.031  65.840  1.00  0.00    -0.293 C  
HETATM   12  C   UNL     1     -11.217  15.284  67.583  1.00  0.00    -0.320 C  
HETATM   13  C   UNL     1     -10.059  15.441  66.603  1.00  0.00    -0.273 C  
HETATM   14  C   UNL     1      -8.940   8.178  67.311  1.00  0.00    -0.149 A  
HETATM   15  C   UNL     1     -10.873   9.637  67.297  1.00  0.00    -0.212 A  
HETATM   16  C   UNL     1     -10.283   8.395  67.021  1.00  0.00    -0.377 A  
ENDROOT
BRANCH   6  17
HETATM   17  C   UNL     1     -11.547  11.035  70.568  1.00  0.00    -0.245 C  
BRANCH  17  18
HETATM   18  N   UNL     1     -12.446   9.887  70.789  1.00  0.00    -0.282 NA 
HETATM   19  C   UNL     1     -11.737   8.609  70.892  1.00  0.00    -0.252 C  
HETATM   20  C   UNL     1     -12.756   7.706  71.552  1.00  0.00    -0.373 C  
HETATM   21  C   UNL     1     -13.421   8.616  72.566  1.00  0.00    -0.336 C  
HETATM   22  C   UNL     1     -13.243  10.029  72.014  1.00  0.00    -0.443 C  
ENDBRANCH  17  18
ENDBRANCH   6  17
TORSDOF 2
ENDMDL
MODEL       50
REMARK 921   NORMALIZED FREE ENERGY PREDICTED BY IDOCK:   -5.11 KCAL/MOL
REMARK 922        TOTAL FREE ENERGY PREDICTED BY IDOCK:   -6.38 KCAL/MOL
REMARK 923 INTER-LIGAND FREE ENERGY PREDICTED BY IDOCK:   -5.70 KCAL/MOL
REMARK 924 INTRA-LIGAND FREE ENERGY PREDICTED BY IDOCK:   -0.68 KCAL/MOL
REMARK 927      BINDING AFFINITY PREDICTED BY RF-SCORE:    0.00 PKD
ROOT
HETATM    1  O   UNL     1      -9.581   7.825  70.777  1.00  0.00    -0.165 OA 
HETATM    2  C   UNL     1     -10.569   6.847  71.110  1.00  0.00    -0.222 C  
HETATM    3  H   UNL     1      -9.499   8.423  71.511  1.00  0.00     0.000 HD 
HETATM    4  C   UNL     1     -11.913   7.570  71.339  1.00  0.00    -0.336 A  
HETATM    5  C   UNL     1     -10.111   6.024  72.385  1.00  0.00    -0.199 C  
HETATM    6  C   UNL     1     -10.702   5.868  69.908  1.00  0.00    -0.406 C  
HETATM    7  C   UNL     1      -8.800   7.769  73.736  1.00  0.00    -0.326 C  
HETATM    8  C   UNL     1      -8.791   5.229  72.241  1.00  0.00    -0.132 C  
HETATM    9  C   UNL     1     -12.019   8.969  71.224  1.00  0.00    -0.374 A  
HETATM   10  C   UNL     1     -13.248   9.622  71.358  1.00  0.00    -0.469 A  
HETATM   11  C   UNL     1     -10.003   6.835  73.690  1.00  0.00    -0.293 C  
HETATM   12  C   UNL     1      -7.520   6.071  72.272  1.00  0.00    -0.095 C  
HETATM   13  C   UNL     1      -7.476   7.079  73.415  1.00  0.00    -0.085 C  
HETATM   14  C   UNL     1     -14.403   8.889  71.613  1.00  0.00    -0.318 A  
HETATM   15  C   UNL     1     -13.092   6.853  71.613  1.00  0.00    -0.338 A  
HETATM   16  C   UNL     1     -14.325   7.506  71.747  1.00  0.00    -0.588 A  
ENDROOT
BRANCH   6  17
HETATM   17  C   UNL     1     -11.158   6.480  68.575  1.00  0.00    -0.265 C  
BRANCH  17  18
HETATM   18  N   UNL     1     -10.063   7.270  67.983  1.00  0.00    -0.165 NA 
HETATM   19  C   UNL     1      -9.395   6.590  66.869  1.00  0.00    -0.146 C  
HETATM   20  C   UNL     1      -8.674   7.718  66.165  1.00  0.00    -0.177 C  
HETATM   21  C   UNL     1      -9.662   8.865  66.246  1.00  0.00    -0.345 C  
HETATM   22  C   UNL     1     -10.523   8.568  67.472  1.00  0.00    -0.258 C  
ENDBRANCH  17  18
ENDBRANCH   6  17
TORSDOF 2
ENDMDL
MODEL       51
REMARK 921   NORMALIZED FREE ENERGY PREDICTED BY IDOCK:   -5.10 KCAL/MOL
REMARK 922        TOTAL FREE ENERGY PREDICTED BY IDOCK:   -6.37 KCAL/MOL
REMARK 923 INTER-LIGAND FREE ENERGY PREDICTED BY IDOCK:   -5.84 KCAL/MOL
REMARK 924 INTRA-LIGAND FREE ENERGY PREDICTED BY IDOCK:   -0.53 KCAL/MOL
REMARK 927      BINDING AFFINITY PREDICTED BY RF-SCORE:    0.00 PKD
ROOT
HETATM    1  O   UNL     1     -10.354  13.435  69.567  1.00  0.00    -0.326 OA 
HETATM    2  C   UNL     1     -11.597  13.326  68.869  1.00  0.00    -0.314 C  
HETATM    3  H   UNL     1      -9.963  14.272  69.346  1.00  0.00     0.000 HD 
HETATM    4  C   UNL     1     -11.311  13.380  67.353  1.00  0.00    -0.338 A  
HETATM    5  C   UNL     1     -12.580  14.481  69.330  1.00  0.00     0.024 C  
HETATM    6  C   UNL     1     -12.235  11.955  69.231  1.00  0.00    -0.169 C  
HETATM    7  C   UNL     1     -10.974  16.420  69.827  1.00  0.00    -0.341 C  
HETATM    8  C   UNL     1     -12.961  14.488  70.831  1.00  0.00    -0.424 C  
HETATM    9  C   UNL     1     -10.001  13.528  66.861  1.00  0.00    -0.256 A  
HETATM   10  C   UNL     1      -9.728  13.503  65.490  1.00  0.00    -0.072 A  
HETATM   11  C   UNL     1     -12.132  15.911  68.977  1.00  0.00    -0.116 C  
HETATM   12  C   UNL     1     -11.868  14.980  71.775  1.00  0.00    -0.455 C  
HETATM   13  C   UNL     1     -11.210  16.281  71.329  1.00  0.00    -0.140 C  
HETATM   14  C   UNL     1     -10.764  13.332  64.576  1.00  0.00    -0.428 A  
HETATM   15  C   UNL     1     -12.342  13.225  66.409  1.00  0.00    -0.347 A  
HETATM   16  C   UNL     1     -12.071  13.200  65.034  1.00  0.00    -0.458 A  
ENDROOT
BRANCH   6  17
HETATM   17  C   UNL     1     -11.433  10.703  68.843  1.00  0.00    -0.265 C  
BRANCH  17  18
HETATM   18  N   UNL     1     -10.719  10.178  70.021  1.00  0.00    -0.288 NA 
HETATM   19  C   UNL     1     -11.588   9.981  71.184  1.00  0.00    -0.378 C  
HETATM   20  C   UNL     1     -10.780   9.048  72.059  1.00  0.00    -0.333 C  
HETATM   21  C   UNL     1     -10.141   8.103  71.061  1.00  0.00    -0.221 C  
HETATM   22  C   UNL     1     -10.071   8.888  69.753  1.00  0.00    -0.199 C  
ENDBRANCH  17  18
ENDBRANCH   6  17
TORSDOF 2
ENDMDL
MODEL       52
REMARK 921   NORMALIZED FREE ENERGY PREDICTED BY IDOCK:   -5.04 KCAL/MOL
REMARK 922        TOTAL FREE ENERGY PREDICTED BY IDOCK:   -6.30 KCAL/MOL
REMARK 923 INTER-LIGAND FREE ENERGY PREDICTED BY IDOCK:   -5.92 KCAL/MOL
REMARK 924 INTRA-LIGAND FREE ENERGY PREDICTED BY IDOCK:   -0.38 KCAL/MOL
REMARK 927      BINDING AFFINITY PREDICTED BY RF-SCORE:    0.00 PKD
ROOT
HETATM    1  O   UNL     1     -11.781   8.183  69.834  1.00  0.00    -0.431 OA 
HETATM    2  C   UNL     1     -10.655   9.044  70.018  1.00  0.00    -0.228 C  
HETATM    3  H   UNL     1     -11.463   7.342  69.530  1.00  0.00     0.000 HD 
HETATM    4  C   UNL     1      -9.949   9.221  68.657  1.00  0.00    -0.193 A  
HETATM    5  C   UNL     1      -9.685   8.442  71.118  1.00  0.00    -0.236 C  
HETATM    6  C   UNL     1     -11.177  10.422  70.517  1.00  0.00    -0.395 C  
HETATM    7  C   UNL     1      -9.964   5.912  70.785  1.00  0.00    -0.241 C  
HETATM    8  C   UNL     1     -10.290   8.264  72.532  1.00  0.00    -0.401 C  
HETATM    9  C   UNL     1     -10.423   8.576  67.499  1.00  0.00    -0.328 A  
HETATM   10  C   UNL     1      -9.832   8.791  66.250  1.00  0.00    -0.342 A  
HETATM   11  C   UNL     1      -9.017   7.105  70.748  1.00  0.00    -0.152 C  
HETATM   12  C   UNL     1     -11.258   7.095  72.680  1.00  0.00    -0.331 C  
HETATM   13  C   UNL     1     -10.739   5.786  72.095  1.00  0.00    -0.282 C  
HETATM   14  C   UNL     1      -8.748   9.655  66.131  1.00  0.00    -0.152 A  
HETATM   15  C   UNL     1      -8.842  10.076  68.513  1.00  0.00    -0.120 A  
HETATM   16  C   UNL     1      -8.248  10.292  67.262  1.00  0.00    -0.121 A  
ENDROOT
BRANCH   6  17
HETATM   17  C   UNL     1     -12.125  11.177  69.572  1.00  0.00    -0.326 C  
BRANCH  17  18
HETATM   18  N   UNL     1     -11.555  12.493  69.234  1.00  0.00    -0.302 NA 
HETATM   19  C   UNL     1     -11.903  12.945  67.883  1.00  0.00    -0.339 C  
HETATM   20  C   UNL     1     -11.622  14.430  67.938  1.00  0.00    -0.374 C  
HETATM   21  C   UNL     1     -12.096  14.822  69.324  1.00  0.00    -0.296 C  
HETATM   22  C   UNL     1     -11.994  13.547  70.158  1.00  0.00    -0.329 C  
ENDBRANCH  17  18
ENDBRANCH   6  17
TORSDOF 2
ENDMDL
MODEL       53
REMARK 921   NORMALIZED FREE ENERGY PREDICTED BY IDOCK:   -5.03 KCAL/MOL
REMARK 922        TOTAL FREE ENERGY PREDICTED BY IDOCK:   -6.30 KCAL/MOL
REMARK 923 INTER-LIGAND FREE ENERGY PREDICTED BY IDOCK:   -5.68 KCAL/MOL
REMARK 924 INTRA-LIGAND FREE ENERGY PREDICTED BY IDOCK:   -0.62 KCAL/MOL
REMARK 927      BINDING AFFINITY PREDICTED BY RF-SCORE:    0.00 PKD
ROOT
HETATM    1  O   UNL     1     -10.378  11.737  66.628  1.00  0.00    -0.209 OA 
HETATM    2  C   UNL     1     -10.411  13.116  67.002  1.00  0.00    -0.249 C  
HETATM    3  H   UNL     1     -11.273  11.446  66.495  1.00  0.00     0.000 HD 
HETATM    4  C   UNL     1     -11.198  13.244  68.324  1.00  0.00    -0.309 A  
HETATM    5  C   UNL     1     -11.056  13.980  65.840  1.00  0.00    -0.301 C  
HETATM    6  C   UNL     1      -8.946  13.592  67.220  1.00  0.00    -0.222 C  
HETATM    7  C   UNL     1     -12.774  12.362  64.829  1.00  0.00    -0.324 C  
HETATM    8  C   UNL     1     -10.315  13.950  64.481  1.00  0.00    -0.260 C  
HETATM    9  C   UNL     1     -11.757  12.116  68.953  1.00  0.00    -0.381 A  
HETATM   10  C   UNL     1     -12.407  12.216  70.188  1.00  0.00    -0.219 A  
HETATM   11  C   UNL     1     -12.539  13.687  65.545  1.00  0.00    -0.541 C  
HETATM   12  C   UNL     1     -10.481  12.663  63.680  1.00  0.00    -0.348 C  
HETATM   13  C   UNL     1     -11.926  12.188  63.571  1.00  0.00    -0.619 C  
HETATM   14  C   UNL     1     -12.516  13.450  70.821  1.00  0.00    -0.418 A  
HETATM   15  C   UNL     1     -11.336  14.483  68.976  1.00  0.00    -0.296 A  
HETATM   16  C   UNL     1     -11.987  14.584  70.213  1.00  0.00    -0.379 A  
ENDROOT
BRANCH   6  17
HETATM   17  C   UNL     1      -8.154  12.881  68.328  1.00  0.00    -0.151 C  
BRANCH  17  18
HETATM   18  N   UNL     1      -7.619  11.603  67.824  1.00  0.00    -0.113 NA 
HETATM   19  C   UNL     1      -6.409  11.762  67.011  1.00  0.00    -0.150 C  
HETATM   20  C   UNL     1      -5.816  10.371  67.008  1.00  0.00    -0.051 C  
HETATM   21  C   UNL     1      -6.068   9.882  68.421  1.00  0.00    -0.046 C  
HETATM   22  C   UNL     1      -7.281  10.672  68.908  1.00  0.00    -0.090 C  
ENDBRANCH  17  18
ENDBRANCH   6  17
TORSDOF 2
ENDMDL
MODEL       54
REMARK 921   NORMALIZED FREE ENERGY PREDICTED BY IDOCK:   -5.02 KCAL/MOL
REMARK 922        TOTAL FREE ENERGY PREDICTED BY IDOCK:   -6.29 KCAL/MOL
REMARK 923 INTER-LIGAND FREE ENERGY PREDICTED BY IDOCK:   -5.70 KCAL/MOL
REMARK 924 INTRA-LIGAND FREE ENERGY PREDICTED BY IDOCK:   -0.59 KCAL/MOL
REMARK 927      BINDING AFFINITY PREDICTED BY RF-SCORE:    0.00 PKD
ROOT
HETATM    1  O   UNL     1     -10.588  11.837  68.231  1.00  0.00    -0.195 OA 
HETATM    2  C   UNL     1      -9.681  11.711  67.133  1.00  0.00    -0.181 C  
HETATM    3  H   UNL     1     -11.241  11.151  68.155  1.00  0.00     0.000 HD 
HETATM    4  C   UNL     1     -10.475  11.897  65.822  1.00  0.00    -0.295 A  
HETATM    5  C   UNL     1      -8.949  10.306  67.191  1.00  0.00    -0.145 C  
HETATM    6  C   UNL     1      -8.613  12.834  67.259  1.00  0.00    -0.197 C  
HETATM    7  C   UNL     1     -10.746   8.781  68.208  1.00  0.00    -0.121 C  
HETATM    8  C   UNL     1      -8.092  10.040  68.452  1.00  0.00    -0.101 C  
HETATM    9  C   UNL     1     -11.862  12.132  65.835  1.00  0.00    -0.342 A  
HETATM   10  C   UNL     1     -12.573  12.374  64.655  1.00  0.00    -0.459 A  
HETATM   11  C   UNL     1      -9.860   9.079  67.004  1.00  0.00    -0.270 C  
HETATM   12  C   UNL     1      -8.882   9.732  69.720  1.00  0.00    -0.241 C  
HETATM   13  C   UNL     1      -9.979   8.691  69.525  1.00  0.00    -0.196 C  
HETATM   14  C   UNL     1     -11.911  12.384  63.432  1.00  0.00    -0.571 A  
HETATM   15  C   UNL     1      -9.831  11.896  64.571  1.00  0.00    -0.203 A  
HETATM   16  C   UNL     1     -10.542  12.138  63.388  1.00  0.00    -0.454 A  
ENDROOT
BRANCH   6  17
HETATM   17  C   UNL     1      -9.130  14.280  67.205  1.00  0.00    -0.228 C  
BRANCH  17  18
HETATM   18  N   UNL     1     -10.047  14.529  68.331  1.00  0.00    -0.234 NA 
HETATM   19  C   UNL     1      -9.500  15.451  69.331  1.00  0.00    -0.267 C  
HETATM   20  C   UNL     1     -10.728  15.895  70.094  1.00  0.00    -0.338 C  
HETATM   21  C   UNL     1     -11.779  16.034  69.010  1.00  0.00    -0.322 C  
HETATM   22  C   UNL     1     -11.331  15.093  67.894  1.00  0.00    -0.338 C  
ENDBRANCH  17  18
ENDBRANCH   6  17
TORSDOF 2
ENDMDL
MODEL       55
REMARK 921   NORMALIZED FREE ENERGY PREDICTED BY IDOCK:   -5.01 KCAL/MOL
REMARK 922        TOTAL FREE ENERGY PREDICTED BY IDOCK:   -6.28 KCAL/MOL
REMARK 923 INTER-LIGAND FREE ENERGY PREDICTED BY IDOCK:   -5.88 KCAL/MOL
REMARK 924 INTRA-LIGAND FREE ENERGY PREDICTED BY IDOCK:   -0.40 KCAL/MOL
REMARK 927      BINDING AFFINITY PREDICTED BY RF-SCORE:    0.00 PKD
ROOT
HETATM    1  O   UNL     1     -12.815   9.882  69.213  1.00  0.00     0.259 OA 
HETATM    2  C   UNL     1     -11.615  10.289  69.875  1.00  0.00    -0.256 C  
HETATM    3  H   UNL     1     -12.746   8.953  69.024  1.00  0.00     0.000 HD 
HETATM    4  C   UNL     1     -10.425  10.042  68.922  1.00  0.00    -0.229 A  
HETATM    5  C   UNL     1     -11.455   9.504  71.242  1.00  0.00    -0.447 C  
HETATM    6  C   UNL     1     -11.727  11.809  70.184  1.00  0.00    -0.354 C  
HETATM    7  C   UNL     1     -12.516   7.229  70.709  1.00  0.00    -0.189 C  
HETATM    8  C   UNL     1     -12.581   9.719  72.283  1.00  0.00    -0.264 C  
HETATM    9  C   UNL     1     -10.617   9.487  67.643  1.00  0.00    -0.329 A  
HETATM   10  C   UNL     1      -9.552   9.330  66.749  1.00  0.00    -0.240 A  
HETATM   11  C   UNL     1     -11.255   7.983  71.111  1.00  0.00    -0.287 C  
HETATM   12  C   UNL     1     -13.894   9.008  71.975  1.00  0.00    -0.501 C  
HETATM   13  C   UNL     1     -13.724   7.542  71.589  1.00  0.00    -0.465 C  
HETATM   14  C   UNL     1      -8.269   9.721  67.116  1.00  0.00    -0.121 A  
HETATM   15  C   UNL     1      -9.116  10.415  69.276  1.00  0.00    -0.188 A  
HETATM   16  C   UNL     1      -8.048  10.257  68.381  1.00  0.00    -0.109 A  
ENDROOT
BRANCH   6  17
HETATM   17  C   UNL     1     -11.870  12.745  68.974  1.00  0.00    -0.297 C  
BRANCH  17  18
HETATM   18  N   UNL     1     -12.265  14.093  69.423  1.00  0.00    -0.325 NA 
HETATM   19  C   UNL     1     -12.857  14.104  70.764  1.00  0.00    -0.310 C  
HETATM   20  C   UNL     1     -12.748  15.557  71.172  1.00  0.00    -0.525 C  
HETATM   21  C   UNL     1     -11.396  15.970  70.624  1.00  0.00    -0.424 C  
HETATM   22  C   UNL     1     -11.132  15.026  69.454  1.00  0.00    -0.278 C  
ENDBRANCH  17  18
ENDBRANCH   6  17
TORSDOF 2
ENDMDL
MODEL       56
REMARK 921   NORMALIZED FREE ENERGY PREDICTED BY IDOCK:   -4.98 KCAL/MOL
REMARK 922        TOTAL FREE ENERGY PREDICTED BY IDOCK:   -6.24 KCAL/MOL
REMARK 923 INTER-LIGAND FREE ENERGY PREDICTED BY IDOCK:   -5.55 KCAL/MOL
REMARK 924 INTRA-LIGAND FREE ENERGY PREDICTED BY IDOCK:   -0.69 KCAL/MOL
REMARK 927      BINDING AFFINITY PREDICTED BY RF-SCORE:    0.00 PKD
ROOT
HETATM    1  O   UNL     1     -11.148   8.571  68.725  1.00  0.00    -0.431 OA 
HETATM    2  C   UNL     1      -9.963   7.873  69.115  1.00  0.00    -0.184 C  
HETATM    3  H   UNL     1     -11.892   8.002  68.885  1.00  0.00     0.000 HD 
HETATM    4  C   UNL     1      -9.839   6.602  68.247  1.00  0.00    -0.137 A  
HETATM    5  C   UNL     1     -10.017   7.533  70.663  1.00  0.00    -0.183 C  
HETATM    6  C   UNL     1      -8.746   8.804  68.853  1.00  0.00    -0.134 C  
HETATM    7  C   UNL     1     -12.525   7.162  71.067  1.00  0.00    -0.359 C  
HETATM    8  C   UNL     1     -10.102   8.746  71.621  1.00  0.00    -0.390 C  
HETATM    9  C   UNL     1     -10.805   6.284  67.275  1.00  0.00    -0.457 A  
HETATM   10  C   UNL     1     -10.659   5.174  66.436  1.00  0.00    -0.336 A  
HETATM   11  C   UNL     1     -11.128   6.554  71.085  1.00  0.00    -0.332 C  
HETATM   12  C   UNL     1     -11.462   9.434  71.677  1.00  0.00    -0.463 C  
HETATM   13  C   UNL     1     -12.633   8.471  71.844  1.00  0.00    -0.400 C  
HETATM   14  C   UNL     1      -9.542   4.353  66.553  1.00  0.00    -0.209 A  
HETATM   15  C   UNL     1      -8.727   5.747  68.358  1.00  0.00    -0.111 A  
HETATM   16  C   UNL     1      -8.580   4.635  67.517  1.00  0.00    -0.103 A  
ENDROOT
BRANCH   6  17
HETATM   17  C   UNL     1      -8.513   9.231  67.395  1.00  0.00    -0.122 C  
BRANCH  17  18
HETATM   18  N   UNL     1      -9.577  10.157  66.966  1.00  0.00    -0.167 NA 
HETATM   19  C   UNL     1      -9.166  11.564  66.994  1.00  0.00    -0.176 C  
HETATM   20  C   UNL     1     -10.198  12.237  66.115  1.00  0.00    -0.263 C  
HETATM   21  C   UNL     1     -10.411  11.233  64.999  1.00  0.00    -0.359 C  
HETATM   22  C   UNL     1     -10.043   9.879  65.602  1.00  0.00    -0.237 C  
ENDBRANCH  17  18
ENDBRANCH   6  17
TORSDOF 2
ENDMDL
MODEL       57
REMARK 921   NORMALIZED FREE ENERGY PREDICTED BY IDOCK:   -4.96 KCAL/MOL
REMARK 922        TOTAL FREE ENERGY PREDICTED BY IDOCK:   -6.22 KCAL/MOL
REMARK 923 INTER-LIGAND FREE ENERGY PREDICTED BY IDOCK:   -5.74 KCAL/MOL
REMARK 924 INTRA-LIGAND FREE ENERGY PREDICTED BY IDOCK:   -0.48 KCAL/MOL
REMARK 927      BINDING AFFINITY PREDICTED BY RF-SCORE:    0.00 PKD
ROOT
HETATM    1  O   UNL     1     -11.106  10.366  67.250  1.00  0.00    -0.278 OA 
HETATM    2  C   UNL     1     -10.383  11.599  67.291  1.00  0.00    -0.204 C  
HETATM    3  H   UNL     1     -10.958   9.965  66.402  1.00  0.00     0.000 HD 
HETATM    4  C   UNL     1     -10.930  12.521  66.180  1.00  0.00    -0.318 A  
HETATM    5  C   UNL     1      -8.831  11.325  67.125  1.00  0.00    -0.153 C  
HETATM    6  C   UNL     1     -10.627  12.256  68.680  1.00  0.00    -0.249 C  
HETATM    7  C   UNL     1      -8.787   9.278  65.576  1.00  0.00    -0.224 C  
HETATM    8  C   UNL     1      -8.179  10.440  68.216  1.00  0.00    -0.114 C  
HETATM    9  C   UNL     1     -11.963  12.099  65.322  1.00  0.00    -0.313 A  
HETATM   10  C   UNL     1     -12.512  12.956  64.363  1.00  0.00    -0.447 A  
HETATM   11  C   UNL     1      -8.405  10.741  65.765  1.00  0.00    -0.158 C  
HETATM   12  C   UNL     1      -8.499   8.952  68.121  1.00  0.00    -0.129 C  
HETATM   13  C   UNL     1      -8.332   8.374  66.720  1.00  0.00    -0.109 C  
HETATM   14  C   UNL     1     -12.037  14.258  64.238  1.00  0.00    -0.467 A  
HETATM   15  C   UNL     1     -10.456  13.836  66.023  1.00  0.00    -0.297 A  
HETATM   16  C   UNL     1     -11.006  14.697  65.062  1.00  0.00    -0.415 A  
ENDROOT
BRANCH   6  17
HETATM   17  C   UNL     1     -12.081  12.617  69.020  1.00  0.00    -0.139 C  
BRANCH  17  18
HETATM   18  N   UNL     1     -12.176  14.047  69.367  1.00  0.00    -0.333 NA 
HETATM   19  C   UNL     1     -12.870  14.290  70.635  1.00  0.00    -0.314 C  
HETATM   20  C   UNL     1     -12.449  15.699  70.989  1.00  0.00    -0.501 C  
HETATM   21  C   UNL     1     -10.992  15.741  70.571  1.00  0.00    -0.361 C  
HETATM   22  C   UNL     1     -10.858  14.685  69.477  1.00  0.00    -0.217 C  
ENDBRANCH  17  18
ENDBRANCH   6  17
TORSDOF 2
ENDMDL
MODEL       58
REMARK 921   NORMALIZED FREE ENERGY PREDICTED BY IDOCK:   -4.93 KCAL/MOL
REMARK 922        TOTAL FREE ENERGY PREDICTED BY IDOCK:   -6.18 KCAL/MOL
REMARK 923 INTER-LIGAND FREE ENERGY PREDICTED BY IDOCK:   -5.52 KCAL/MOL
REMARK 924 INTRA-LIGAND FREE ENERGY PREDICTED BY IDOCK:   -0.66 KCAL/MOL
REMARK 927      BINDING AFFINITY PREDICTED BY RF-SCORE:    0.00 PKD
ROOT
HETATM    1  O   UNL     1      -8.736  13.540  66.752  1.00  0.00    -0.386 OA 
HETATM    2  C   UNL     1     -10.144  13.625  66.984  1.00  0.00    -0.248 C  
HETATM    3  H   UNL     1      -8.519  14.128  66.038  1.00  0.00     0.000 HD 
HETATM    4  C   UNL     1     -10.877  13.175  65.702  1.00  0.00    -0.294 A  
HETATM    5  C   UNL     1     -10.537  15.101  67.407  1.00  0.00    -0.271 C  
HETATM    6  C   UNL     1     -10.499  12.661  68.152  1.00  0.00    -0.239 C  
HETATM    7  C   UNL     1      -8.854  16.527  66.094  1.00  0.00    -0.342 C  
HETATM    8  C   UNL     1      -9.883  15.630  68.707  1.00  0.00    -0.213 C  
HETATM    9  C   UNL     1     -10.166  12.784  64.553  1.00  0.00    -0.333 A  
HETATM   10  C   UNL     1     -10.823  12.306  63.414  1.00  0.00    -0.457 A  
HETATM   11  C   UNL     1     -10.319  16.177  66.328  1.00  0.00    -0.337 C  
HETATM   12  C   UNL     1      -8.411  16.008  68.584  1.00  0.00    -0.203 C  
HETATM   13  C   UNL     1      -8.097  16.879  67.372  1.00  0.00    -0.193 C  
HETATM   14  C   UNL     1     -12.211  12.212  63.398  1.00  0.00    -0.635 A  
HETATM   15  C   UNL     1     -12.281  13.087  65.655  1.00  0.00    -0.521 A  
HETATM   16  C   UNL     1     -12.941  12.608  64.515  1.00  0.00    -0.236 A  
ENDROOT
BRANCH   6  17
HETATM   17  C   UNL     1     -10.207  11.170  67.922  1.00  0.00    -0.180 C  
BRANCH  17  18
HETATM   18  N   UNL     1      -8.751  10.942  67.893  1.00  0.00    -0.128 NA 
HETATM   19  C   UNL     1      -8.137  10.950  69.224  1.00  0.00    -0.055 C  
HETATM   20  C   UNL     1      -6.808  10.264  68.990  1.00  0.00    -0.058 C  
HETATM   21  C   UNL     1      -7.154   9.164  68.007  1.00  0.00    -0.078 C  
HETATM   22  C   UNL     1      -8.398   9.658  67.272  1.00  0.00    -0.114 C  
ENDBRANCH  17  18
ENDBRANCH   6  17
TORSDOF 2
ENDMDL
MODEL       59
REMARK 921   NORMALIZED FREE ENERGY PREDICTED BY IDOCK:   -4.92 KCAL/MOL
REMARK 922        TOTAL FREE ENERGY PREDICTED BY IDOCK:   -6.17 KCAL/MOL
REMARK 923 INTER-LIGAND FREE ENERGY PREDICTED BY IDOCK:   -5.83 KCAL/MOL
REMARK 924 INTRA-LIGAND FREE ENERGY PREDICTED BY IDOCK:   -0.35 KCAL/MOL
REMARK 927      BINDING AFFINITY PREDICTED BY RF-SCORE:    0.00 PKD
ROOT
HETATM    1  O   UNL     1     -11.276   8.667  68.887  1.00  0.00    -0.413 OA 
HETATM    2  C   UNL     1     -10.669   9.908  69.255  1.00  0.00    -0.224 C  
HETATM    3  H   UNL     1     -10.855   7.974  69.381  1.00  0.00     0.000 HD 
HETATM    4  C   UNL     1      -9.171   9.845  68.887  1.00  0.00    -0.160 A  
HETATM    5  C   UNL     1     -10.891  10.183  70.801  1.00  0.00    -0.241 C  
HETATM    6  C   UNL     1     -11.358  11.042  68.444  1.00  0.00    -0.363 C  
HETATM    7  C   UNL     1     -10.871   7.818  71.799  1.00  0.00    -0.277 C  
HETATM    8  C   UNL     1     -12.363  10.303  71.264  1.00  0.00    -0.506 C  
HETATM    9  C   UNL     1      -8.610   8.695  68.302  1.00  0.00    -0.138 A  
HETATM   10  C   UNL     1      -7.271   8.660  67.899  1.00  0.00    -0.088 A  
HETATM   11  C   UNL     1     -10.204   9.187  71.753  1.00  0.00    -0.305 C  
HETATM   12  C   UNL     1     -13.128   8.986  71.341  1.00  0.00    -0.337 C  
HETATM   13  C   UNL     1     -12.373   7.877  72.067  1.00  0.00    -0.346 C  
HETATM   14  C   UNL     1      -6.460   9.776  68.076  1.00  0.00    -0.056 A  
HETATM   15  C   UNL     1      -8.327  10.956  69.070  1.00  0.00    -0.118 A  
HETATM   16  C   UNL     1      -6.984  10.922  68.666  1.00  0.00    -0.073 A  
ENDROOT
BRANCH   6  17
HETATM   17  C   UNL     1     -11.237  10.961  66.915  1.00  0.00    -0.086 C  
BRANCH  17  18
HETATM   18  N   UNL     1     -12.015  12.045  66.290  1.00  0.00    -0.574 NA 
HETATM   19  C   UNL     1     -11.948  13.307  67.033  1.00  0.00    -0.365 C  
HETATM   20  C   UNL     1     -12.401  14.328  66.011  1.00  0.00    -0.416 C  
HETATM   21  C   UNL     1     -11.764  13.838  64.726  1.00  0.00    -0.399 C  
HETATM   22  C   UNL     1     -11.570  12.336  64.921  1.00  0.00    -0.342 C  
ENDBRANCH  17  18
ENDBRANCH   6  17
TORSDOF 2
ENDMDL
MODEL       60
REMARK 921   NORMALIZED FREE ENERGY PREDICTED BY IDOCK:   -4.88 KCAL/MOL
REMARK 922        TOTAL FREE ENERGY PREDICTED BY IDOCK:   -6.13 KCAL/MOL
REMARK 923 INTER-LIGAND FREE ENERGY PREDICTED BY IDOCK:   -5.48 KCAL/MOL
REMARK 924 INTRA-LIGAND FREE ENERGY PREDICTED BY IDOCK:   -0.65 KCAL/MOL
REMARK 927      BINDING AFFINITY PREDICTED BY RF-SCORE:    0.00 PKD
ROOT
HETATM    1  O   UNL     1     -10.578   5.945  70.234  1.00  0.00    -0.239 OA 
HETATM    2  C   UNL     1     -10.423   7.296  70.675  1.00  0.00    -0.214 C  
HETATM    3  H   UNL     1     -11.185   5.941  69.504  1.00  0.00     0.000 HD 
HETATM    4  C   UNL     1     -11.799   7.817  71.143  1.00  0.00    -0.311 A  
HETATM    5  C   UNL     1      -9.817   8.181  69.509  1.00  0.00    -0.181 C  
HETATM    6  C   UNL     1      -9.429   7.302  71.872  1.00  0.00    -0.163 C  
HETATM    7  C   UNL     1     -10.807   7.091  67.406  1.00  0.00    -0.371 C  
HETATM    8  C   UNL     1      -8.417   7.762  68.996  1.00  0.00    -0.132 C  
HETATM    9  C   UNL     1     -12.946   7.005  71.083  1.00  0.00    -0.293 A  
HETATM   10  C   UNL     1     -14.179   7.446  71.574  1.00  0.00    -0.571 A  
HETATM   11  C   UNL     1     -10.715   8.344  68.269  1.00  0.00    -0.084 C  
HETATM   12  C   UNL     1      -8.394   6.513  68.122  1.00  0.00    -0.116 C  
HETATM   13  C   UNL     1      -9.447   6.513  67.019  1.00  0.00    -0.161 C  
HETATM   14  C   UNL     1     -14.294   8.714  72.135  1.00  0.00    -0.518 A  
HETATM   15  C   UNL     1     -11.943   9.101  71.699  1.00  0.00    -0.437 A  
HETATM   16  C   UNL     1     -13.179   9.544  72.192  1.00  0.00    -0.539 A  
ENDROOT
BRANCH   6  17
HETATM   17  C   UNL     1      -9.852   6.506  73.117  1.00  0.00    -0.170 C  
BRANCH  17  18
HETATM   18  N   UNL     1      -9.961   5.074  72.786  1.00  0.00    -0.159 NA 
HETATM   19  C   UNL     1      -8.869   4.268  73.339  1.00  0.00    -0.094 C  
HETATM   20  C   UNL     1      -9.419   2.860  73.275  1.00  0.00    -0.120 C  
HETATM   21  C   UNL     1     -10.877   3.040  73.650  1.00  0.00    -0.310 C  
HETATM   22  C   UNL     1     -11.213   4.481  73.273  1.00  0.00    -0.298 C  
ENDBRANCH  17  18
ENDBRANCH   6  17
TORSDOF 2
ENDMDL
MODEL       61
REMARK 921   NORMALIZED FREE ENERGY PREDICTED BY IDOCK:   -4.87 KCAL/MOL
REMARK 922        TOTAL FREE ENERGY PREDICTED BY IDOCK:   -6.12 KCAL/MOL
REMARK 923 INTER-LIGAND FREE ENERGY PREDICTED BY IDOCK:   -5.69 KCAL/MOL
REMARK 924 INTRA-LIGAND FREE ENERGY PREDICTED BY IDOCK:   -0.42 KCAL/MOL
REMARK 927      BINDING AFFINITY PREDICTED BY RF-SCORE:    0.00 PKD
ROOT
HETATM    1  O   UNL     1      -8.965  12.636  66.081  1.00  0.00    -0.426 OA 
HETATM    2  C   UNL     1     -10.076  11.973  66.690  1.00  0.00    -0.198 C  
HETATM    3  H   UNL     1      -8.355  11.973  65.780  1.00  0.00     0.000 HD 
HETATM    4  C   UNL     1      -9.557  11.162  67.897  1.00  0.00    -0.181 A  
HETATM    5  C   UNL     1     -10.810  11.055  65.627  1.00  0.00    -0.160 C  
HETATM    6  C   UNL     1     -11.074  13.059  67.183  1.00  0.00    -0.304 C  
HETATM    7  C   UNL     1      -8.878  10.287  64.122  1.00  0.00    -0.239 C  
HETATM    8  C   UNL     1     -11.403  11.783  64.396  1.00  0.00    -0.373 C  
HETATM    9  C   UNL     1      -8.191  11.144  68.232  1.00  0.00    -0.134 A  
HETATM   10  C   UNL     1      -7.726  10.471  69.367  1.00  0.00    -0.157 A  
HETATM   11  C   UNL     1      -9.981   9.875  65.089  1.00  0.00    -0.278 C  
HETATM   12  C   UNL     1     -10.381  12.244  63.361  1.00  0.00    -0.395 C  
HETATM   13  C   UNL     1      -9.367  11.171  62.977  1.00  0.00    -0.365 C  
HETATM   14  C   UNL     1      -8.620   9.795  70.192  1.00  0.00    -0.214 A  
HETATM   15  C   UNL     1     -10.439  10.457  68.737  1.00  0.00    -0.219 A  
HETATM   16  C   UNL     1      -9.974   9.782  69.874  1.00  0.00    -0.282 A  
ENDROOT
BRANCH   6  17
HETATM   17  C   UNL     1     -10.549  14.043  68.241  1.00  0.00    -0.249 C  
BRANCH  17  18
HETATM   18  N   UNL     1     -10.932  15.420  67.882  1.00  0.00    -0.300 NA 
HETATM   19  C   UNL     1     -10.176  16.440  68.613  1.00  0.00    -0.258 C  
HETATM   20  C   UNL     1     -10.394  17.686  67.783  1.00  0.00    -0.365 C  
HETATM   21  C   UNL     1     -10.341  17.168  66.359  1.00  0.00    -0.307 C  
HETATM   22  C   UNL     1     -10.745  15.698  66.452  1.00  0.00    -0.291 C  
ENDBRANCH  17  18
ENDBRANCH   6  17
TORSDOF 2
ENDMDL
MODEL       62
REMARK 921   NORMALIZED FREE ENERGY PREDICTED BY IDOCK:   -4.85 KCAL/MOL
REMARK 922        TOTAL FREE ENERGY PREDICTED BY IDOCK:   -6.10 KCAL/MOL
REMARK 923 INTER-LIGAND FREE ENERGY PREDICTED BY IDOCK:   -5.68 KCAL/MOL
REMARK 924 INTRA-LIGAND FREE ENERGY PREDICTED BY IDOCK:   -0.42 KCAL/MOL
REMARK 927      BINDING AFFINITY PREDICTED BY RF-SCORE:    0.00 PKD
ROOT
HETATM    1  O   UNL     1     -11.323   8.458  69.395  1.00  0.00    -0.429 OA 
HETATM    2  C   UNL     1     -10.484   9.212  70.273  1.00  0.00    -0.218 C  
HETATM    3  H   UNL     1     -11.421   7.585  69.758  1.00  0.00     0.000 HD 
HETATM    4  C   UNL     1      -9.104   8.522  70.341  1.00  0.00    -0.164 A  
HETATM    5  C   UNL     1     -11.161   9.331  71.702  1.00  0.00    -0.438 C  
HETATM    6  C   UNL     1     -10.324  10.640  69.679  1.00  0.00    -0.185 C  
HETATM    7  C   UNL     1     -12.421   7.105  71.911  1.00  0.00    -0.341 C  
HETATM    8  C   UNL     1     -12.533  10.045  71.745  1.00  0.00    -0.475 C  
HETATM    9  C   UNL     1      -8.842   7.341  69.622  1.00  0.00    -0.141 A  
HETATM   10  C   UNL     1      -7.573   6.754  69.621  1.00  0.00    -0.101 A  
HETATM   11  C   UNL     1     -11.325   8.004  72.467  1.00  0.00    -0.469 C  
HETATM   12  C   UNL     1     -13.705   9.231  71.207  1.00  0.00    -0.250 C  
HETATM   13  C   UNL     1     -13.767   7.808  71.750  1.00  0.00    -0.410 C  
HETATM   14  C   UNL     1      -6.535   7.334  70.345  1.00  0.00    -0.042 A  
HETATM   15  C   UNL     1      -8.044   9.081  71.077  1.00  0.00    -0.199 A  
HETATM   16  C   UNL     1      -6.771   8.493  71.078  1.00  0.00    -0.054 A  
ENDROOT
BRANCH   6  17
HETATM   17  C   UNL     1      -9.665  10.735  68.294  1.00  0.00    -0.164 C  
BRANCH  17  18
HETATM   18  N   UNL     1     -10.184  11.909  67.569  1.00  0.00    -0.195 NA 
HETATM   19  C   UNL     1     -11.245  11.576  66.614  1.00  0.00    -0.271 C  
HETATM   20  C   UNL     1     -11.905  12.914  66.358  1.00  0.00    -0.478 C  
HETATM   21  C   UNL     1     -11.899  13.570  67.725  1.00  0.00    -0.398 C  
HETATM   22  C   UNL     1     -10.734  12.927  68.474  1.00  0.00    -0.254 C  
ENDBRANCH  17  18
ENDBRANCH   6  17
TORSDOF 2
ENDMDL
MODEL       63
REMARK 921   NORMALIZED FREE ENERGY PREDICTED BY IDOCK:   -4.83 KCAL/MOL
REMARK 922        TOTAL FREE ENERGY PREDICTED BY IDOCK:   -6.07 KCAL/MOL
REMARK 923 INTER-LIGAND FREE ENERGY PREDICTED BY IDOCK:   -5.22 KCAL/MOL
REMARK 924 INTRA-LIGAND FREE ENERGY PREDICTED BY IDOCK:   -0.85 KCAL/MOL
REMARK 927      BINDING AFFINITY PREDICTED BY RF-SCORE:    0.00 PKD
ROOT
HETATM    1  O   UNL     1      -9.991  11.520  68.232  1.00  0.00    -0.188 OA 
HETATM    2  C   UNL     1      -9.340  12.207  67.161  1.00  0.00    -0.193 C  
HETATM    3  H   UNL     1     -10.585  10.881  67.856  1.00  0.00     0.000 HD 
HETATM    4  C   UNL     1     -10.415  12.931  66.322  1.00  0.00    -0.282 A  
HETATM    5  C   UNL     1      -8.497  11.184  66.292  1.00  0.00    -0.168 C  
HETATM    6  C   UNL     1      -8.369  13.253  67.778  1.00  0.00    -0.171 C  
HETATM    7  C   UNL     1      -9.891   9.034  66.450  1.00  0.00    -0.356 C  
HETATM    8  C   UNL     1      -7.364  10.435  67.036  1.00  0.00    -0.097 C  
HETATM    9  C   UNL     1     -11.781  12.841  66.650  1.00  0.00    -0.459 A  
HETATM   10  C   UNL     1     -12.751  13.554  65.938  1.00  0.00    -0.382 A  
HETATM   11  C   UNL     1      -9.319  10.118  65.545  1.00  0.00    -0.260 C  
HETATM   12  C   UNL     1      -7.828   9.326  67.976  1.00  0.00    -0.092 C  
HETATM   13  C   UNL     1      -8.849   8.379  67.354  1.00  0.00    -0.140 C  
HETATM   14  C   UNL     1     -12.376  14.372  64.877  1.00  0.00    -0.414 A  
HETATM   15  C   UNL     1     -10.063  13.752  65.235  1.00  0.00    -0.312 A  
HETATM   16  C   UNL     1     -11.035  14.467  64.521  1.00  0.00    -0.290 A  
ENDROOT
BRANCH   6  17
HETATM   17  C   UNL     1      -9.006  14.350  68.646  1.00  0.00    -0.172 C  
BRANCH  17  18
HETATM   18  N   UNL     1      -8.663  15.679  68.110  1.00  0.00    -0.166 NA 
HETATM   19  C   UNL     1      -7.659  15.631  67.043  1.00  0.00    -0.210 C  
HETATM   20  C   UNL     1      -7.813  16.977  66.369  1.00  0.00    -0.343 C  
HETATM   21  C   UNL     1      -9.312  17.202  66.383  1.00  0.00    -0.286 C  
HETATM   22  C   UNL     1      -9.831  16.380  67.560  1.00  0.00    -0.239 C  
ENDBRANCH  17  18
ENDBRANCH   6  17
TORSDOF 2
ENDMDL
MODEL       64
REMARK 921   NORMALIZED FREE ENERGY PREDICTED BY IDOCK:   -4.82 KCAL/MOL
REMARK 922        TOTAL FREE ENERGY PREDICTED BY IDOCK:   -6.06 KCAL/MOL
REMARK 923 INTER-LIGAND FREE ENERGY PREDICTED BY IDOCK:   -5.25 KCAL/MOL
REMARK 924 INTRA-LIGAND FREE ENERGY PREDICTED BY IDOCK:   -0.81 KCAL/MOL
REMARK 927      BINDING AFFINITY PREDICTED BY RF-SCORE:    0.00 PKD
ROOT
HETATM    1  O   UNL     1      -8.709  11.695  66.744  1.00  0.00    -0.178 OA 
HETATM    2  C   UNL     1      -9.882  10.977  67.132  1.00  0.00    -0.184 C  
HETATM    3  H   UNL     1      -8.607  11.608  65.804  1.00  0.00     0.000 HD 
HETATM    4  C   UNL     1      -9.685   9.489  66.768  1.00  0.00    -0.254 A  
HETATM    5  C   UNL     1     -11.158  11.598  66.425  1.00  0.00    -0.347 C  
HETATM    6  C   UNL     1     -10.048  11.119  68.672  1.00  0.00    -0.208 C  
HETATM    7  C   UNL     1     -10.216  12.401  64.176  1.00  0.00    -0.377 C  
HETATM    8  C   UNL     1     -11.465  13.078  66.759  1.00  0.00    -0.392 C  
HETATM    9  C   UNL     1      -8.506   9.039  66.146  1.00  0.00    -0.135 A  
HETATM   10  C   UNL     1      -8.292   7.683  65.882  1.00  0.00    -0.140 A  
HETATM   11  C   UNL     1     -11.190  11.472  64.891  1.00  0.00    -0.242 C  
HETATM   12  C   UNL     1     -10.544  14.097  66.095  1.00  0.00    -0.293 C  
HETATM   13  C   UNL     1     -10.340  13.862  64.602  1.00  0.00    -0.366 C  
HETATM   14  C   UNL     1      -9.256   6.743  66.231  1.00  0.00    -0.161 A  
HETATM   15  C   UNL     1     -10.653   8.522  67.097  1.00  0.00    -0.314 A  
HETATM   16  C   UNL     1     -10.439   7.162  66.833  1.00  0.00    -0.364 A  
ENDROOT
BRANCH   6  17
HETATM   17  C   UNL     1      -8.912  10.553  69.538  1.00  0.00    -0.032 C  
BRANCH  17  18
HETATM   18  N   UNL     1      -9.464   9.659  70.572  1.00  0.00    -0.238 NA 
HETATM   19  C   UNL     1     -10.920   9.762  70.707  1.00  0.00    -0.336 C  
HETATM   20  C   UNL     1     -11.284   8.490  71.443  1.00  0.00    -0.327 C  
HETATM   21  C   UNL     1     -10.363   7.456  70.825  1.00  0.00    -0.208 C  
HETATM   22  C   UNL     1      -9.162   8.246  70.309  1.00  0.00    -0.155 C  
ENDBRANCH  17  18
ENDBRANCH   6  17
TORSDOF 2
ENDMDL
MODEL       65
REMARK 921   NORMALIZED FREE ENERGY PREDICTED BY IDOCK:   -4.78 KCAL/MOL
REMARK 922        TOTAL FREE ENERGY PREDICTED BY IDOCK:   -6.02 KCAL/MOL
REMARK 923 INTER-LIGAND FREE ENERGY PREDICTED BY IDOCK:   -5.15 KCAL/MOL
REMARK 924 INTRA-LIGAND FREE ENERGY PREDICTED BY IDOCK:   -0.86 KCAL/MOL
REMARK 927      BINDING AFFINITY PREDICTED BY RF-SCORE:    0.00 PKD
ROOT
HETATM    1  O   UNL     1     -11.909   7.185  69.686  1.00  0.00    -0.517 OA 
HETATM    2  C   UNL     1     -10.547   7.616  69.632  1.00  0.00    -0.243 C  
HETATM    3  H   UNL     1     -12.065   6.807  70.544  1.00  0.00     0.000 HD 
HETATM    4  C   UNL     1      -9.638   6.383  69.827  1.00  0.00    -0.163 A  
HETATM    5  C   UNL     1     -10.285   8.728  70.731  1.00  0.00    -0.262 C  
HETATM    6  C   UNL     1     -10.291   8.235  68.229  1.00  0.00    -0.242 C  
HETATM    7  C   UNL     1     -11.860   8.021  72.630  1.00  0.00    -0.380 C  
HETATM    8  C   UNL     1     -11.122  10.024  70.598  1.00  0.00    -0.408 C  
HETATM    9  C   UNL     1     -10.180   5.101  70.031  1.00  0.00    -0.354 A  
HETATM   10  C   UNL     1      -9.362   3.971  70.134  1.00  0.00    -0.240 A  
HETATM   11  C   UNL     1     -10.421   8.258  72.191  1.00  0.00    -0.371 C  
HETATM   12  C   UNL     1     -12.584   9.896  71.010  1.00  0.00    -0.431 C  
HETATM   13  C   UNL     1     -12.788   9.201  72.352  1.00  0.00    -0.438 C  
HETATM   14  C   UNL     1      -7.980   4.099  70.039  1.00  0.00    -0.055 A  
HETATM   15  C   UNL     1      -8.237   6.490  69.751  1.00  0.00    -0.126 A  
HETATM   16  C   UNL     1      -7.416   5.357  69.854  1.00  0.00    -0.069 A  
ENDROOT
BRANCH   6  17
HETATM   17  C   UNL     1     -10.477   7.299  67.024  1.00  0.00    -0.328 C  
BRANCH  17  18
HETATM   18  N   UNL     1      -9.238   7.252  66.227  1.00  0.00    -0.158 NA 
HETATM   19  C   UNL     1      -8.229   8.219  66.669  1.00  0.00    -0.106 C  
HETATM   20  C   UNL     1      -6.954   7.688  66.051  1.00  0.00    -0.065 C  
HETATM   21  C   UNL     1      -7.096   6.186  66.199  1.00  0.00    -0.067 C  
HETATM   22  C   UNL     1      -8.600   5.929  66.263  1.00  0.00    -0.132 C  
ENDBRANCH  17  18
ENDBRANCH   6  17
TORSDOF 2
ENDMDL
MODEL       66
REMARK 921   NORMALIZED FREE ENERGY PREDICTED BY IDOCK:   -4.73 KCAL/MOL
REMARK 922        TOTAL FREE ENERGY PREDICTED BY IDOCK:   -5.96 KCAL/MOL
REMARK 923 INTER-LIGAND FREE ENERGY PREDICTED BY IDOCK:   -5.53 KCAL/MOL
REMARK 924 INTRA-LIGAND FREE ENERGY PREDICTED BY IDOCK:   -0.43 KCAL/MOL
REMARK 927      BINDING AFFINITY PREDICTED BY RF-SCORE:    0.00 PKD
ROOT
HETATM    1  O   UNL     1      -9.635  12.984  65.234  1.00  0.00    -0.488 OA 
HETATM    2  C   UNL     1     -10.426  12.384  66.262  1.00  0.00    -0.245 C  
HETATM    3  H   UNL     1      -9.849  12.560  64.411  1.00  0.00     0.000 HD 
HETATM    4  C   UNL     1     -10.064  10.885  66.343  1.00  0.00    -0.280 A  
HETATM    5  C   UNL     1     -11.967  12.608  65.962  1.00  0.00    -0.478 C  
HETATM    6  C   UNL     1     -10.075  13.078  67.608  1.00  0.00    -0.217 C  
HETATM    7  C   UNL     1     -12.048  12.577  63.397  1.00  0.00    -0.621 C  
HETATM    8  C   UNL     1     -12.438  14.082  65.901  1.00  0.00    -0.513 C  
HETATM    9  C   UNL     1      -9.107  10.317  65.482  1.00  0.00    -0.211 A  
HETATM   10  C   UNL     1      -8.722   8.978  65.601  1.00  0.00    -0.205 A  
HETATM   11  C   UNL     1     -12.500  11.917  64.694  1.00  0.00    -0.030 C  
HETATM   12  C   UNL     1     -12.035  14.840  64.640  1.00  0.00    -0.448 C  
HETATM   13  C   UNL     1     -12.316  14.079  63.348  1.00  0.00     0.183 C  
HETATM   14  C   UNL     1      -9.290   8.173  66.583  1.00  0.00    -0.250 A  
HETATM   15  C   UNL     1     -10.637  10.047  67.317  1.00  0.00    -0.319 A  
HETATM   16  C   UNL     1     -10.252   8.704  67.437  1.00  0.00    -0.329 A  
ENDROOT
BRANCH   6  17
HETATM   17  C   UNL     1      -8.619  12.955  68.083  1.00  0.00    -0.188 C  
BRANCH  17  18
HETATM   18  N   UNL     1      -8.199  14.201  68.748  1.00  0.00    -0.115 NA 
HETATM   19  C   UNL     1      -7.230  14.976  67.968  1.00  0.00    -0.131 C  
HETATM   20  C   UNL     1      -7.309  16.351  68.595  1.00  0.00    -0.186 C  
HETATM   21  C   UNL     1      -8.788  16.516  68.882  1.00  0.00    -0.244 C  
HETATM   22  C   UNL     1      -9.330  15.096  69.025  1.00  0.00    -0.219 C  
ENDBRANCH  17  18
ENDBRANCH   6  17
TORSDOF 2
ENDMDL
MODEL       67
REMARK 921   NORMALIZED FREE ENERGY PREDICTED BY IDOCK:   -4.73 KCAL/MOL
REMARK 922        TOTAL FREE ENERGY PREDICTED BY IDOCK:   -5.96 KCAL/MOL
REMARK 923 INTER-LIGAND FREE ENERGY PREDICTED BY IDOCK:   -5.25 KCAL/MOL
REMARK 924 INTRA-LIGAND FREE ENERGY PREDICTED BY IDOCK:   -0.71 KCAL/MOL
REMARK 927      BINDING AFFINITY PREDICTED BY RF-SCORE:    0.00 PKD
ROOT
HETATM    1  O   UNL     1      -8.952  14.425  69.050  1.00  0.00    -0.345 OA 
HETATM    2  C   UNL     1      -8.743  13.979  67.708  1.00  0.00    -0.185 C  
HETATM    3  H   UNL     1      -8.476  13.844  69.632  1.00  0.00     0.000 HD 
HETATM    4  C   UNL     1      -9.301  12.545  67.579  1.00  0.00    -0.187 A  
HETATM    5  C   UNL     1      -7.201  14.052  67.346  1.00  0.00    -0.117 C  
HETATM    6  C   UNL     1      -9.524  14.929  66.756  1.00  0.00    -0.269 C  
HETATM    7  C   UNL     1      -6.073  13.543  69.594  1.00  0.00    -0.121 C  
HETATM    8  C   UNL     1      -6.557  15.459  67.407  1.00  0.00    -0.150 C  
HETATM    9  C   UNL     1      -9.883  11.886  68.677  1.00  0.00    -0.139 A  
HETATM   10  C   UNL     1     -10.456  10.616  68.547  1.00  0.00    -0.212 A  
HETATM   11  C   UNL     1      -6.288  13.109  68.150  1.00  0.00    -0.106 C  
HETATM   12  C   UNL     1      -6.299  15.994  68.812  1.00  0.00    -0.117 C  
HETATM   13  C   UNL     1      -5.613  14.993  69.735  1.00  0.00    -0.103 C  
HETATM   14  C   UNL     1     -10.455   9.974  67.313  1.00  0.00    -0.313 A  
HETATM   15  C   UNL     1      -9.298  11.869  66.345  1.00  0.00    -0.233 A  
HETATM   16  C   UNL     1      -9.872  10.596  66.214  1.00  0.00    -0.263 A  
ENDROOT
BRANCH   6  17
HETATM   17  C   UNL     1     -11.048  14.982  66.942  1.00  0.00    -0.331 C  
BRANCH  17  18
HETATM   18  N   UNL     1     -11.721  14.536  65.708  1.00  0.00    -0.358 NA 
HETATM   19  C   UNL     1     -10.786  14.159  64.643  1.00  0.00    -0.386 C  
HETATM   20  C   UNL     1     -11.647  13.338  63.709  1.00  0.00    -0.427 C  
HETATM   21  C   UNL     1     -12.527  12.545  64.656  1.00  0.00    -0.539 C  
HETATM   22  C   UNL     1     -12.594  13.378  65.934  1.00  0.00    -0.348 C  
ENDBRANCH  17  18
ENDBRANCH   6  17
TORSDOF 2
ENDMDL
MODEL       68
REMARK 921   NORMALIZED FREE ENERGY PREDICTED BY IDOCK:   -4.66 KCAL/MOL
REMARK 922        TOTAL FREE ENERGY PREDICTED BY IDOCK:   -5.88 KCAL/MOL
REMARK 923 INTER-LIGAND FREE ENERGY PREDICTED BY IDOCK:   -5.03 KCAL/MOL
REMARK 924 INTRA-LIGAND FREE ENERGY PREDICTED BY IDOCK:   -0.85 KCAL/MOL
REMARK 927      BINDING AFFINITY PREDICTED BY RF-SCORE:    0.00 PKD
ROOT
HETATM    1  O   UNL     1      -9.088  12.416  68.881  1.00  0.00    -0.381 OA 
HETATM    2  C   UNL     1     -10.057  11.422  68.542  1.00  0.00    -0.206 C  
HETATM    3  H   UNL     1      -9.002  13.009  68.143  1.00  0.00     0.000 HD 
HETATM    4  C   UNL     1      -9.546  10.644  67.310  1.00  0.00    -0.186 A  
HETATM    5  C   UNL     1     -11.463  12.103  68.273  1.00  0.00    -0.360 C  
HETATM    6  C   UNL     1     -10.196  10.452  69.749  1.00  0.00    -0.228 C  
HETATM    7  C   UNL     1     -10.804  14.371  67.269  1.00  0.00    -0.290 C  
HETATM    8  C   UNL     1     -12.080  12.875  69.464  1.00  0.00    -0.274 C  
HETATM    9  C   UNL     1      -8.318  10.964  66.701  1.00  0.00    -0.143 A  
HETATM   10  C   UNL     1      -7.816  10.215  65.632  1.00  0.00    -0.145 A  
HETATM   11  C   UNL     1     -11.520  13.043  67.055  1.00  0.00    -0.381 C  
HETATM   12  C   UNL     1     -11.434  14.223  69.768  1.00  0.00    -0.317 C  
HETATM   13  C   UNL     1     -11.236  15.102  68.538  1.00  0.00    -0.301 C  
HETATM   14  C   UNL     1      -8.534   9.128  65.144  1.00  0.00    -0.182 A  
HETATM   15  C   UNL     1     -10.261   9.550  66.788  1.00  0.00    -0.313 A  
HETATM   16  C   UNL     1      -9.758   8.799  65.716  1.00  0.00    -0.122 A  
ENDROOT
BRANCH   6  17
HETATM   17  C   UNL     1      -8.933   9.677  70.154  1.00  0.00    -0.236 C  
BRANCH  17  18
HETATM   18  N   UNL     1      -9.193   8.227  70.102  1.00  0.00    -0.154 NA 
HETATM   19  C   UNL     1     -10.601   7.901  69.857  1.00  0.00    -0.242 C  
HETATM   20  C   UNL     1     -10.542   6.460  69.400  1.00  0.00    -0.310 C  
HETATM   21  C   UNL     1      -9.296   6.421  68.537  1.00  0.00    -0.122 C  
HETATM   22  C   UNL     1      -8.415   7.556  69.054  1.00  0.00    -0.133 C  
ENDBRANCH  17  18
ENDBRANCH   6  17
TORSDOF 2
ENDMDL
MODEL       69
REMARK 921   NORMALIZED FREE ENERGY PREDICTED BY IDOCK:   -4.60 KCAL/MOL
REMARK 922        TOTAL FREE ENERGY PREDICTED BY IDOCK:   -5.82 KCAL/MOL
REMARK 923 INTER-LIGAND FREE ENERGY PREDICTED BY IDOCK:   -5.28 KCAL/MOL
REMARK 924 INTRA-LIGAND FREE ENERGY PREDICTED BY IDOCK:   -0.53 KCAL/MOL
REMARK 927      BINDING AFFINITY PREDICTED BY RF-SCORE:    0.00 PKD
ROOT
HETATM    1  O   UNL     1     -11.437   7.714  69.378  1.00  0.00    -0.427 OA 
HETATM    2  C   UNL     1     -10.379   7.890  70.323  1.00  0.00    -0.212 C  
HETATM    3  H   UNL     1     -12.099   7.162  69.775  1.00  0.00     0.000 HD 
HETATM    4  C   UNL     1      -9.776   6.506  70.643  1.00  0.00    -0.194 A  
HETATM    5  C   UNL     1     -10.928   8.614  71.622  1.00  0.00    -0.378 C  
HETATM    6  C   UNL     1      -9.294   8.794  69.671  1.00  0.00    -0.158 C  
HETATM    7  C   UNL     1     -13.335   7.738  71.777  1.00  0.00    -0.362 C  
HETATM    8  C   UNL     1     -11.518  10.030  71.412  1.00  0.00    -0.329 C  
HETATM    9  C   UNL     1     -10.280   5.334  70.048  1.00  0.00    -0.358 A  
HETATM   10  C   UNL     1      -9.689   4.087  70.278  1.00  0.00    -0.263 A  
HETATM   11  C   UNL     1     -11.964   7.816  72.435  1.00  0.00    -0.338 C  
HETATM   12  C   UNL     1     -12.894  10.067  70.754  1.00  0.00    -0.341 C  
HETATM   13  C   UNL     1     -13.898   9.098  71.370  1.00  0.00    -0.288 C  
HETATM   14  C   UNL     1      -8.581   3.983  71.112  1.00  0.00    -0.110 A  
HETATM   15  C   UNL     1      -8.665   6.372  71.495  1.00  0.00    -0.134 A  
HETATM   16  C   UNL     1      -8.072   5.122  71.726  1.00  0.00    -0.116 A  
ENDROOT
BRANCH   6  17
HETATM   17  C   UNL     1      -8.625   8.250  68.399  1.00  0.00    -0.133 C  
BRANCH  17  18
HETATM   18  N   UNL     1      -8.786   9.213  67.295  1.00  0.00    -0.117 NA 
HETATM   19  C   UNL     1      -9.684   8.737  66.238  1.00  0.00    -0.272 C  
HETATM   20  C   UNL     1     -10.043  10.007  65.499  1.00  0.00    -0.325 C  
HETATM   21  C   UNL     1     -10.188  11.026  66.611  1.00  0.00    -0.280 C  
HETATM   22  C   UNL     1      -9.317  10.504  67.751  1.00  0.00    -0.149 C  
ENDBRANCH  17  18
ENDBRANCH   6  17
TORSDOF 2
ENDMDL
MODEL       70
REMARK 921   NORMALIZED FREE ENERGY PREDICTED BY IDOCK:   -4.55 KCAL/MOL
REMARK 922        TOTAL FREE ENERGY PREDICTED BY IDOCK:   -5.76 KCAL/MOL
REMARK 923 INTER-LIGAND FREE ENERGY PREDICTED BY IDOCK:   -5.16 KCAL/MOL
REMARK 924 INTRA-LIGAND FREE ENERGY PREDICTED BY IDOCK:   -0.60 KCAL/MOL
REMARK 927      BINDING AFFINITY PREDICTED BY RF-SCORE:    0.00 PKD
ROOT
HETATM    1  O   UNL     1     -11.343   8.853  68.719  1.00  0.00    -0.318 OA 
HETATM    2  C   UNL     1      -9.952   8.830  69.046  1.00  0.00    -0.191 C  
HETATM    3  H   UNL     1     -11.666   7.960  68.740  1.00  0.00     0.000 HD 
HETATM    4  C   UNL     1      -9.215   7.988  67.982  1.00  0.00    -0.139 A  
HETATM    5  C   UNL     1      -9.746   8.252  70.508  1.00  0.00    -0.185 C  
HETATM    6  C   UNL     1      -9.423  10.292  69.011  1.00  0.00    -0.206 C  
HETATM    7  C   UNL     1     -11.657   6.551  70.710  1.00  0.00    -0.437 C  
HETATM    8  C   UNL     1     -10.415   9.052  71.653  1.00  0.00    -0.426 C  
HETATM    9  C   UNL     1      -9.911   7.382  66.920  1.00  0.00    -0.307 A  
HETATM   10  C   UNL     1      -9.240   6.680  65.913  1.00  0.00    -0.010 A  
HETATM   11  C   UNL     1     -10.151   6.779  70.698  1.00  0.00    -0.204 C  
HETATM   12  C   UNL     1     -11.929   8.896  71.754  1.00  0.00    -0.429 C  
HETATM   13  C   UNL     1     -12.405   7.449  71.693  1.00  0.00    -0.373 C  
HETATM   14  C   UNL     1      -7.854   6.567  65.947  1.00  0.00    -0.106 A  
HETATM   15  C   UNL     1      -7.816   7.846  68.003  1.00  0.00    -0.127 A  
HETATM   16  C   UNL     1      -7.142   7.143  66.994  1.00  0.00    -0.090 A  
ENDROOT
BRANCH   6  17
HETATM   17  C   UNL     1      -9.520  11.022  67.662  1.00  0.00    -0.164 C  
BRANCH  17  18
HETATM   18  N   UNL     1     -10.754  11.827  67.612  1.00  0.00    -0.206 NA 
HETATM   19  C   UNL     1     -11.007  12.574  68.848  1.00  0.00    -0.227 C  
HETATM   20  C   UNL     1     -12.004  13.626  68.411  1.00  0.00    -0.391 C  
HETATM   21  C   UNL     1     -11.508  14.023  67.034  1.00  0.00    -0.370 C  
HETATM   22  C   UNL     1     -10.738  12.809  66.520  1.00  0.00    -0.258 C  
ENDBRANCH  17  18
ENDBRANCH   6  17
TORSDOF 2
ENDMDL
MODEL       71
REMARK 921   NORMALIZED FREE ENERGY PREDICTED BY IDOCK:   -4.54 KCAL/MOL
REMARK 922        TOTAL FREE ENERGY PREDICTED BY IDOCK:   -5.75 KCAL/MOL
REMARK 923 INTER-LIGAND FREE ENERGY PREDICTED BY IDOCK:   -5.27 KCAL/MOL
REMARK 924 INTRA-LIGAND FREE ENERGY PREDICTED BY IDOCK:   -0.48 KCAL/MOL
REMARK 927      BINDING AFFINITY PREDICTED BY RF-SCORE:    0.00 PKD
ROOT
HETATM    1  O   UNL     1      -9.601  13.960  69.277  1.00  0.00    -0.394 OA 
HETATM    2  C   UNL     1      -9.373  14.745  68.105  1.00  0.00    -0.197 C  
HETATM    3  H   UNL     1      -9.237  13.095  69.129  1.00  0.00     0.000 HD 
HETATM    4  C   UNL     1     -10.100  14.073  66.920  1.00  0.00    -0.259 A  
HETATM    5  C   UNL     1      -7.817  14.890  67.843  1.00  0.00    -0.145 C  
HETATM    6  C   UNL     1      -9.971  16.160  68.348  1.00  0.00    -0.230 C  
HETATM    7  C   UNL     1      -6.893  12.656  68.704  1.00  0.00    -0.091 C  
HETATM    8  C   UNL     1      -7.004  15.590  68.959  1.00  0.00    -0.141 C  
HETATM    9  C   UNL     1     -10.823  12.878  67.089  1.00  0.00    -0.278 A  
HETATM   10  C   UNL     1     -11.544  12.306  66.036  1.00  0.00    -0.451 A  
HETATM   11  C   UNL     1      -7.078  13.581  67.508  1.00  0.00    -0.159 C  
HETATM   12  C   UNL     1      -6.762  14.750  70.209  1.00  0.00    -0.054 C  
HETATM   13  C   UNL     1      -6.262  13.339  69.915  1.00  0.00    -0.097 C  
HETATM   14  C   UNL     1     -11.554  12.915  64.785  1.00  0.00    -0.373 A  
HETATM   15  C   UNL     1     -10.112  14.662  65.642  1.00  0.00    -0.389 A  
HETATM   16  C   UNL     1     -10.834  14.088  64.585  1.00  0.00    -0.416 A  
ENDROOT
BRANCH   6  17
HETATM   17  C   UNL     1     -11.485  16.229  68.604  1.00  0.00    -0.288 C  
BRANCH  17  18
HETATM   18  N   UNL     1     -11.836  15.402  69.772  1.00  0.00    -0.325 NA 
HETATM   19  C   UNL     1     -11.470  16.021  71.050  1.00  0.00    -0.417 C  
HETATM   20  C   UNL     1     -12.306  15.254  72.051  1.00  0.00    -0.440 C  
HETATM   21  C   UNL     1     -13.622  15.057  71.326  1.00  0.00    -0.526 C  
HETATM   22  C   UNL     1     -13.273  15.110  69.840  1.00  0.00     0.399 C  
ENDBRANCH  17  18
ENDBRANCH   6  17
TORSDOF 2
ENDMDL
MODEL       72
REMARK 921   NORMALIZED FREE ENERGY PREDICTED BY IDOCK:   -4.53 KCAL/MOL
REMARK 922        TOTAL FREE ENERGY PREDICTED BY IDOCK:   -5.73 KCAL/MOL
REMARK 923 INTER-LIGAND FREE ENERGY PREDICTED BY IDOCK:   -5.40 KCAL/MOL
REMARK 924 INTRA-LIGAND FREE ENERGY PREDICTED BY IDOCK:   -0.34 KCAL/MOL
REMARK 927      BINDING AFFINITY PREDICTED BY RF-SCORE:    0.00 PKD
ROOT
HETATM    1  O   UNL     1      -9.516  13.565  67.929  1.00  0.00    -0.200 OA 
HETATM    2  C   UNL     1     -10.838  13.058  67.731  1.00  0.00    -0.240 C  
HETATM    3  H   UNL     1      -9.442  14.387  67.457  1.00  0.00     0.000 HD 
HETATM    4  C   UNL     1     -11.043  12.809  66.221  1.00  0.00    -0.321 A  
HETATM    5  C   UNL     1     -11.903  14.076  68.316  1.00  0.00    -0.406 C  
HETATM    6  C   UNL     1     -10.959  11.713  68.502  1.00  0.00    -0.264 C  
HETATM    7  C   UNL     1     -10.784  16.351  67.914  1.00  0.00    -0.332 C  
HETATM    8  C   UNL     1     -11.806  14.362  69.834  1.00  0.00    -0.382 C  
HETATM    9  C   UNL     1     -10.026  13.088  65.290  1.00  0.00    -0.186 A  
HETATM   10  C   UNL     1     -10.180  12.795  63.931  1.00  0.00    -0.265 A  
HETATM   11  C   UNL     1     -11.969  15.442  67.609  1.00  0.00     0.151 C  
HETATM   12  C   UNL     1     -10.648  15.263  70.251  1.00  0.00    -0.257 C  
HETATM   13  C   UNL     1     -10.515  16.525  69.407  1.00  0.00    -0.320 C  
HETATM   14  C   UNL     1     -11.360  12.218  63.471  1.00  0.00    -0.549 A  
HETATM   15  C   UNL     1     -12.233  12.241  65.730  1.00  0.00    -0.151 A  
HETATM   16  C   UNL     1     -12.388  11.946  64.368  1.00  0.00    -0.249 A  
ENDROOT
BRANCH   6  17
HETATM   17  C   UNL     1     -10.013  10.585  68.063  1.00  0.00    -0.155 C  
BRANCH  17  18
HETATM   18  N   UNL     1     -10.718   9.291  68.111  1.00  0.00    -0.190 NA 
HETATM   19  C   UNL     1     -10.457   8.446  66.942  1.00  0.00    -0.289 C  
HETATM   20  C   UNL     1     -10.877   7.072  67.414  1.00  0.00    -0.371 C  
HETATM   21  C   UNL     1     -10.400   7.038  68.852  1.00  0.00    -0.198 C  
HETATM   22  C   UNL     1     -10.354   8.499  69.294  1.00  0.00    -0.221 C  
ENDBRANCH  17  18
ENDBRANCH   6  17
TORSDOF 2
ENDMDL
MODEL       73
REMARK 921   NORMALIZED FREE ENERGY PREDICTED BY IDOCK:   -4.52 KCAL/MOL
REMARK 922        TOTAL FREE ENERGY PREDICTED BY IDOCK:   -5.72 KCAL/MOL
REMARK 923 INTER-LIGAND FREE ENERGY PREDICTED BY IDOCK:   -5.31 KCAL/MOL
REMARK 924 INTRA-LIGAND FREE ENERGY PREDICTED BY IDOCK:   -0.41 KCAL/MOL
REMARK 927      BINDING AFFINITY PREDICTED BY RF-SCORE:    0.00 PKD
ROOT
HETATM    1  O   UNL     1     -11.263   8.138  68.804  1.00  0.00    -0.350 OA 
HETATM    2  C   UNL     1     -10.049   8.806  69.154  1.00  0.00    -0.198 C  
HETATM    3  H   UNL     1     -11.245   7.964  67.870  1.00  0.00     0.000 HD 
HETATM    4  C   UNL     1      -9.986  10.141  68.381  1.00  0.00    -0.173 A  
HETATM    5  C   UNL     1      -8.805   7.875  68.836  1.00  0.00    -0.142 C  
HETATM    6  C   UNL     1     -10.078   9.091  70.683  1.00  0.00    -0.284 C  
HETATM    7  C   UNL     1      -9.595   6.573  66.770  1.00  0.00    -0.198 C  
HETATM    8  C   UNL     1      -8.756   6.527  69.595  1.00  0.00    -0.139 C  
HETATM    9  C   UNL     1     -11.010  10.520  67.494  1.00  0.00    -0.365 A  
HETATM   10  C   UNL     1     -10.994  11.760  66.848  1.00  0.00    -0.333 A  
HETATM   11  C   UNL     1      -8.584   7.556  67.347  1.00  0.00    -0.118 C  
HETATM   12  C   UNL     1      -9.734   5.467  69.100  1.00  0.00    -0.208 C  
HETATM   13  C   UNL     1      -9.733   5.289  67.585  1.00  0.00    -0.168 C  
HETATM   14  C   UNL     1      -9.949  12.650  67.072  1.00  0.00    -0.220 A  
HETATM   15  C   UNL     1      -8.931  11.051  68.578  1.00  0.00    -0.163 A  
HETATM   16  C   UNL     1      -8.914  12.294  67.931  1.00  0.00    -0.186 A  
ENDROOT
BRANCH   6  17
HETATM   17  C   UNL     1     -11.211   9.999  71.188  1.00  0.00    -0.267 C  
BRANCH  17  18
HETATM   18  N   UNL     1     -12.246   9.188  71.855  1.00  0.00    -0.366 NA 
HETATM   19  C   UNL     1     -13.574   9.338  71.252  1.00  0.00    -0.225 C  
HETATM   20  C   UNL     1     -14.320   8.127  71.769  1.00  0.00    -0.582 C  
HETATM   21  C   UNL     1     -13.273   7.031  71.728  1.00  0.00    -0.326 C  
HETATM   22  C   UNL     1     -11.932   7.754  71.836  1.00  0.00    -0.301 C  
ENDBRANCH  17  18
ENDBRANCH   6  17
TORSDOF 2
ENDMDL
MODEL       74
REMARK 921   NORMALIZED FREE ENERGY PREDICTED BY IDOCK:   -4.51 KCAL/MOL
REMARK 922        TOTAL FREE ENERGY PREDICTED BY IDOCK:   -5.72 KCAL/MOL
REMARK 923 INTER-LIGAND FREE ENERGY PREDICTED BY IDOCK:   -5.33 KCAL/MOL
REMARK 924 INTRA-LIGAND FREE ENERGY PREDICTED BY IDOCK:   -0.38 KCAL/MOL
REMARK 927      BINDING AFFINITY PREDICTED BY RF-SCORE:    0.00 PKD
ROOT
HETATM    1  O   UNL     1     -10.389   9.660  65.866  1.00  0.00    -0.207 OA 
HETATM    2  C   UNL     1      -9.607  10.653  66.534  1.00  0.00    -0.180 C  
HETATM    3  H   UNL     1     -10.189   9.702  64.939  1.00  0.00     0.000 HD 
HETATM    4  C   UNL     1     -10.003  12.039  65.980  1.00  0.00    -0.258 A  
HETATM    5  C   UNL     1      -8.063  10.353  66.334  1.00  0.00    -0.129 C  
HETATM    6  C   UNL     1      -9.934  10.586  68.052  1.00  0.00    -0.177 C  
HETATM    7  C   UNL     1      -7.995   9.300  63.994  1.00  0.00    -0.137 C  
HETATM    8  C   UNL     1      -7.558   9.000  66.894  1.00  0.00    -0.094 C  
HETATM    9  C   UNL     1     -10.978  12.172  64.974  1.00  0.00    -0.355 A  
HETATM   10  C   UNL     1     -11.394  13.429  64.522  1.00  0.00    -0.391 A  
HETATM   11  C   UNL     1      -7.552  10.454  64.885  1.00  0.00    -0.074 C  
HETATM   12  C   UNL     1      -7.949   7.774  66.076  1.00  0.00    -0.108 C  
HETATM   13  C   UNL     1      -7.693   7.923  64.580  1.00  0.00    -0.120 C  
HETATM   14  C   UNL     1     -10.840  14.584  65.065  1.00  0.00    -0.425 A  
HETATM   15  C   UNL     1      -9.446  13.221  66.502  1.00  0.00    -0.251 A  
HETATM   16  C   UNL     1      -9.862  14.481  66.050  1.00  0.00    -0.342 A  
ENDROOT
BRANCH   6  17
HETATM   17  C   UNL     1     -11.391  10.870  68.452  1.00  0.00    -0.304 C  
BRANCH  17  18
HETATM   18  N   UNL     1     -11.427  11.639  69.709  1.00  0.00    -0.282 NA 
HETATM   19  C   UNL     1     -11.922  13.008  69.535  1.00  0.00    -0.289 C  
HETATM   20  C   UNL     1     -12.296  13.416  70.943  1.00  0.00    -0.436 C  
HETATM   21  C   UNL     1     -12.902  12.152  71.521  1.00  0.00    -0.394 C  
HETATM   22  C   UNL     1     -12.278  11.008  70.726  1.00  0.00    -0.380 C  
ENDBRANCH  17  18
ENDBRANCH   6  17
TORSDOF 2
ENDMDL
MODEL       75
REMARK 921   NORMALIZED FREE ENERGY PREDICTED BY IDOCK:   -4.51 KCAL/MOL
REMARK 922        TOTAL FREE ENERGY PREDICTED BY IDOCK:   -5.72 KCAL/MOL
REMARK 923 INTER-LIGAND FREE ENERGY PREDICTED BY IDOCK:   -5.37 KCAL/MOL
REMARK 924 INTRA-LIGAND FREE ENERGY PREDICTED BY IDOCK:   -0.34 KCAL/MOL
REMARK 927      BINDING AFFINITY PREDICTED BY RF-SCORE:    0.00 PKD
ROOT
HETATM    1  O   UNL     1      -9.194  11.695  69.317  1.00  0.00    -0.368 OA 
HETATM    2  C   UNL     1     -10.119  10.633  69.073  1.00  0.00    -0.213 C  
HETATM    3  H   UNL     1      -9.080  12.178  68.507  1.00  0.00     0.000 HD 
HETATM    4  C   UNL     1      -9.520   9.702  67.997  1.00  0.00    -0.146 A  
HETATM    5  C   UNL     1     -11.523  11.225  68.634  1.00  0.00    -0.362 C  
HETATM    6  C   UNL     1     -10.307   9.842  70.399  1.00  0.00    -0.322 C  
HETATM    7  C   UNL     1     -10.858  13.345  67.348  1.00  0.00    -0.279 C  
HETATM    8  C   UNL     1     -12.225  12.141  69.665  1.00  0.00    -0.183 C  
HETATM    9  C   UNL     1      -8.267   9.970  67.415  1.00  0.00    -0.118 A  
HETATM   10  C   UNL     1      -7.688   9.091  66.494  1.00  0.00    -0.096 A  
HETATM   11  C   UNL     1     -11.530  11.978  67.291  1.00  0.00    -0.403 C  
HETATM   12  C   UNL     1     -11.628  13.537  69.805  1.00  0.00    -0.313 C  
HETATM   13  C   UNL     1     -11.379  14.237  68.473  1.00  0.00    -0.309 C  
HETATM   14  C   UNL     1      -8.351   7.924  66.130  1.00  0.00    -0.127 A  
HETATM   15  C   UNL     1     -10.179   8.524  67.601  1.00  0.00    -0.297 A  
HETATM   16  C   UNL     1      -9.599   7.642  66.678  1.00  0.00    -0.271 A  
ENDROOT
BRANCH   6  17
HETATM   17  C   UNL     1      -9.051   9.173  70.980  1.00  0.00    -0.237 C  
BRANCH  17  18
HETATM   18  N   UNL     1      -9.336   8.654  72.330  1.00  0.00    -0.326 NA 
HETATM   19  C   UNL     1     -10.644   8.000  72.434  1.00  0.00    -0.307 C  
HETATM   20  C   UNL     1     -10.516   7.183  73.701  1.00  0.00    -0.412 C  
HETATM   21  C   UNL     1      -9.093   6.665  73.637  1.00  0.00    -0.155 C  
HETATM   22  C   UNL     1      -8.337   7.674  72.775  1.00  0.00    -0.127 C  
ENDBRANCH  17  18
ENDBRANCH   6  17
TORSDOF 2
ENDMDL
MODEL       76
REMARK 921   NORMALIZED FREE ENERGY PREDICTED BY IDOCK:   -4.50 KCAL/MOL
REMARK 922        TOTAL FREE ENERGY PREDICTED BY IDOCK:   -5.71 KCAL/MOL
REMARK 923 INTER-LIGAND FREE ENERGY PREDICTED BY IDOCK:   -5.28 KCAL/MOL
REMARK 924 INTRA-LIGAND FREE ENERGY PREDICTED BY IDOCK:   -0.43 KCAL/MOL
REMARK 927      BINDING AFFINITY PREDICTED BY RF-SCORE:    0.00 PKD
ROOT
HETATM    1  O   UNL     1      -9.364  12.824  65.165  1.00  0.00    -0.389 OA 
HETATM    2  C   UNL     1      -9.832  12.749  66.513  1.00  0.00    -0.258 C  
HETATM    3  H   UNL     1     -10.031  12.453  64.599  1.00  0.00     0.000 HD 
HETATM    4  C   UNL     1     -10.045  11.262  66.872  1.00  0.00    -0.246 A  
HETATM    5  C   UNL     1     -11.162  13.596  66.675  1.00  0.00    -0.324 C  
HETATM    6  C   UNL     1      -8.740  13.356  67.438  1.00  0.00    -0.209 C  
HETATM    7  C   UNL     1     -12.278  13.330  64.378  1.00  0.00    -0.449 C  
HETATM    8  C   UNL     1     -11.041  15.110  66.375  1.00  0.00    -0.312 C  
HETATM    9  C   UNL     1      -9.799  10.242  65.935  1.00  0.00    -0.298 A  
HETATM   10  C   UNL     1      -9.919   8.891  66.278  1.00  0.00    -0.337 A  
HETATM   11  C   UNL     1     -12.374  13.080  65.878  1.00  0.00    -0.432 C  
HETATM   12  C   UNL     1     -10.935  15.473  64.898  1.00  0.00    -0.452 C  
HETATM   13  C   UNL     1     -11.971  14.782  64.018  1.00  0.00    -0.153 C  
HETATM   14  C   UNL     1     -10.294   8.530  67.568  1.00  0.00    -0.334 A  
HETATM   15  C   UNL     1     -10.439  10.872  68.165  1.00  0.00    -0.211 A  
HETATM   16  C   UNL     1     -10.560   9.518  68.510  1.00  0.00    -0.247 A  
ENDROOT
BRANCH   6  17
HETATM   17  C   UNL     1      -7.373  12.655  67.436  1.00  0.00    -0.140 C  
BRANCH  17  18
HETATM   18  N   UNL     1      -7.040  12.195  68.796  1.00  0.00    -0.107 NA 
HETATM   19  C   UNL     1      -7.080  10.737  68.940  1.00  0.00    -0.082 C  
HETATM   20  C   UNL     1      -6.290  10.498  70.208  1.00  0.00    -0.137 C  
HETATM   21  C   UNL     1      -5.162  11.506  70.109  1.00  0.00    -0.084 C  
HETATM   22  C   UNL     1      -5.702  12.625  69.220  1.00  0.00    -0.081 C  
ENDBRANCH  17  18
ENDBRANCH   6  17
TORSDOF 2
ENDMDL
MODEL       77
REMARK 921   NORMALIZED FREE ENERGY PREDICTED BY IDOCK:   -4.50 KCAL/MOL
REMARK 922        TOTAL FREE ENERGY PREDICTED BY IDOCK:   -5.70 KCAL/MOL
REMARK 923 INTER-LIGAND FREE ENERGY PREDICTED BY IDOCK:   -5.17 KCAL/MOL
REMARK 924 INTRA-LIGAND FREE ENERGY PREDICTED BY IDOCK:   -0.53 KCAL/MOL
REMARK 927      BINDING AFFINITY PREDICTED BY RF-SCORE:    0.00 PKD
ROOT
HETATM    1  O   UNL     1      -9.932   7.182  70.138  1.00  0.00    -0.185 OA 
HETATM    2  C   UNL     1     -10.267   8.475  70.647  1.00  0.00    -0.197 C  
HETATM    3  H   UNL     1     -10.495   7.003  69.394  1.00  0.00     0.000 HD 
HETATM    4  C   UNL     1     -11.741   8.451  71.108  1.00  0.00    -0.315 A  
HETATM    5  C   UNL     1     -10.009   9.579  69.539  1.00  0.00    -0.205 C  
HETATM    6  C   UNL     1      -9.346   8.768  71.865  1.00  0.00    -0.343 C  
HETATM    7  C   UNL     1     -10.539   8.323  67.364  1.00  0.00    -0.324 C  
HETATM    8  C   UNL     1      -8.549   9.710  69.040  1.00  0.00    -0.133 C  
HETATM    9  C   UNL     1     -12.526   7.290  70.982  1.00  0.00    -0.323 A  
HETATM   10  C   UNL     1     -13.838   7.240  71.465  1.00  0.00    -0.463 A  
HETATM   11  C   UNL     1     -10.901   9.480  68.288  1.00  0.00    -0.194 C  
HETATM   12  C   UNL     1      -8.081   8.598  68.107  1.00  0.00    -0.115 C  
HETATM   13  C   UNL     1      -9.061   8.285  66.981  1.00  0.00    -0.172 C  
HETATM   14  C   UNL     1     -14.397   8.354  72.083  1.00  0.00    -0.520 A  
HETATM   15  C   UNL     1     -12.333   9.569  71.722  1.00  0.00    -0.474 A  
HETATM   16  C   UNL     1     -13.648   9.521  72.206  1.00  0.00    -0.494 A  
ENDROOT
BRANCH   6  17
HETATM   17  C   UNL     1      -9.466   7.809  73.060  1.00  0.00    -0.251 C  
BRANCH  17  18
HETATM   18  N   UNL     1      -8.298   6.911  73.103  1.00  0.00    -0.113 NA 
HETATM   19  C   UNL     1      -8.647   5.499  72.916  1.00  0.00    -0.119 C  
HETATM   20  C   UNL     1      -7.323   4.868  72.545  1.00  0.00    -0.088 C  
HETATM   21  C   UNL     1      -6.679   5.911  71.654  1.00  0.00    -0.059 C  
HETATM   22  C   UNL     1      -7.301   7.239  72.077  1.00  0.00    -0.079 C  
ENDBRANCH  17  18
ENDBRANCH   6  17
TORSDOF 2
ENDMDL
MODEL       78
REMARK 921   NORMALIZED FREE ENERGY PREDICTED BY IDOCK:   -4.49 KCAL/MOL
REMARK 922        TOTAL FREE ENERGY PREDICTED BY IDOCK:   -5.70 KCAL/MOL
REMARK 923 INTER-LIGAND FREE ENERGY PREDICTED BY IDOCK:   -5.32 KCAL/MOL
REMARK 924 INTRA-LIGAND FREE ENERGY PREDICTED BY IDOCK:   -0.38 KCAL/MOL
REMARK 927      BINDING AFFINITY PREDICTED BY RF-SCORE:    0.00 PKD
ROOT
HETATM    1  O   UNL     1      -8.157  10.458  67.379  1.00  0.00    -0.107 OA 
HETATM    2  C   UNL     1      -9.575  10.635  67.443  1.00  0.00    -0.158 C  
HETATM    3  H   UNL     1      -7.969   9.535  67.495  1.00  0.00     0.000 HD 
HETATM    4  C   UNL     1     -10.060  10.178  68.836  1.00  0.00    -0.211 A  
HETATM    5  C   UNL     1     -10.276   9.825  66.274  1.00  0.00    -0.282 C  
HETATM    6  C   UNL     1      -9.882  12.147  67.255  1.00  0.00    -0.202 C  
HETATM    7  C   UNL     1      -8.739   7.787  66.005  1.00  0.00    -0.184 C  
HETATM    8  C   UNL     1      -9.884  10.238  64.835  1.00  0.00    -0.404 C  
HETATM    9  C   UNL     1      -9.160   9.676  69.795  1.00  0.00    -0.232 A  
HETATM   10  C   UNL     1      -9.583   9.330  71.082  1.00  0.00    -0.305 A  
HETATM   11  C   UNL     1     -10.133   8.294  66.354  1.00  0.00    -0.222 C  
HETATM   12  C   UNL     1      -8.501   9.781  64.383  1.00  0.00    -0.185 C  
HETATM   13  C   UNL     1      -8.212   8.312  64.671  1.00  0.00    -0.145 C  
HETATM   14  C   UNL     1     -10.920   9.477  71.440  1.00  0.00    -0.415 A  
HETATM   15  C   UNL     1     -11.409  10.302  69.217  1.00  0.00    -0.253 A  
HETATM   16  C   UNL     1     -11.834   9.956  70.507  1.00  0.00    -0.350 A  
ENDROOT
BRANCH   6  17
HETATM   17  C   UNL     1      -9.299  13.101  68.309  1.00  0.00    -0.201 C  
BRANCH  17  18
HETATM   18  N   UNL     1     -10.061  14.363  68.323  1.00  0.00    -0.232 NA 
HETATM   19  C   UNL     1     -11.443  14.198  68.783  1.00  0.00    -0.299 C  
HETATM   20  C   UNL     1     -11.852  15.610  69.143  1.00  0.00    -0.378 C  
HETATM   21  C   UNL     1     -10.601  16.181  69.780  1.00  0.00    -0.312 C  
HETATM   22  C   UNL     1      -9.446  15.378  69.187  1.00  0.00    -0.242 C  
ENDBRANCH  17  18
ENDBRANCH   6  17
TORSDOF 2
ENDMDL
MODEL       79
REMARK 921   NORMALIZED FREE ENERGY PREDICTED BY IDOCK:   -4.49 KCAL/MOL
REMARK 922        TOTAL FREE ENERGY PREDICTED BY IDOCK:   -5.70 KCAL/MOL
REMARK 923 INTER-LIGAND FREE ENERGY PREDICTED BY IDOCK:   -5.26 KCAL/MOL
REMARK 924 INTRA-LIGAND FREE ENERGY PREDICTED BY IDOCK:   -0.44 KCAL/MOL
REMARK 927      BINDING AFFINITY PREDICTED BY RF-SCORE:    0.00 PKD
ROOT
HETATM    1  O   UNL     1      -8.560   7.008  69.370  1.00  0.00    -0.132 OA 
HETATM    2  C   UNL     1      -9.823   6.621  69.917  1.00  0.00    -0.167 C  
HETATM    3  H   UNL     1      -8.037   6.224  69.252  1.00  0.00     0.000 HD 
HETATM    4  C   UNL     1      -9.576   5.953  71.287  1.00  0.00    -0.195 A  
HETATM    5  C   UNL     1     -10.577   5.656  68.912  1.00  0.00    -0.303 C  
HETATM    6  C   UNL     1     -10.679   7.905  70.110  1.00  0.00    -0.244 C  
HETATM    7  C   UNL     1      -8.645   4.381  67.803  1.00  0.00    -0.109 C  
HETATM    8  C   UNL     1     -10.907   6.249  67.520  1.00  0.00    -0.436 C  
HETATM    9  C   UNL     1      -8.275   5.795  71.799  1.00  0.00    -0.119 A  
HETATM   10  C   UNL     1      -8.051   5.258  73.071  1.00  0.00    -0.105 A  
HETATM   11  C   UNL     1      -9.897   4.296  68.666  1.00  0.00    -0.118 C  
HETATM   12  C   UNL     1      -9.719   6.382  66.573  1.00  0.00    -0.177 C  
HETATM   13  C   UNL     1      -8.858   5.126  66.487  1.00  0.00    -0.117 C  
HETATM   14  C   UNL     1      -9.126   4.862  73.860  1.00  0.00    -0.112 A  
HETATM   15  C   UNL     1     -10.646   5.530  72.097  1.00  0.00    -0.280 A  
HETATM   16  C   UNL     1     -10.422   4.992  73.372  1.00  0.00    -0.269 A  
ENDROOT
BRANCH   6  17
HETATM   17  C   UNL     1     -10.118   8.963  71.073  1.00  0.00    -0.255 C  
BRANCH  17  18
HETATM   18  N   UNL     1     -11.218   9.590  71.829  1.00  0.00    -0.310 NA 
HETATM   19  C   UNL     1     -11.964  10.582  71.048  1.00  0.00    -0.364 C  
HETATM   20  C   UNL     1     -13.252  10.728  71.827  1.00  0.00    -0.523 C  
HETATM   21  C   UNL     1     -13.552   9.311  72.273  1.00  0.00    -0.544 C  
HETATM   22  C   UNL     1     -12.197   8.607  72.310  1.00  0.00    -0.378 C  
ENDBRANCH  17  18
ENDBRANCH   6  17
TORSDOF 2
ENDMDL
MODEL       80
REMARK 921   NORMALIZED FREE ENERGY PREDICTED BY IDOCK:   -4.48 KCAL/MOL
REMARK 922        TOTAL FREE ENERGY PREDICTED BY IDOCK:   -5.68 KCAL/MOL
REMARK 923 INTER-LIGAND FREE ENERGY PREDICTED BY IDOCK:   -5.03 KCAL/MOL
REMARK 924 INTRA-LIGAND FREE ENERGY PREDICTED BY IDOCK:   -0.65 KCAL/MOL
REMARK 927      BINDING AFFINITY PREDICTED BY RF-SCORE:    0.00 PKD
ROOT
HETATM    1  O   UNL     1      -9.006  10.533  69.525  1.00  0.00    -0.349 OA 
HETATM    2  C   UNL     1      -9.848   9.473  69.066  1.00  0.00    -0.176 C  
HETATM    3  H   UNL     1      -8.223  10.147  69.899  1.00  0.00     0.000 HD 
HETATM    4  C   UNL     1     -10.230   8.595  70.278  1.00  0.00    -0.213 A  
HETATM    5  C   UNL     1      -9.106   8.640  67.939  1.00  0.00    -0.145 C  
HETATM    6  C   UNL     1     -11.131  10.104  68.455  1.00  0.00    -0.266 C  
HETATM    7  C   UNL     1      -6.648   8.784  68.663  1.00  0.00    -0.055 C  
HETATM    8  C   UNL     1      -8.716   9.424  66.663  1.00  0.00    -0.143 C  
HETATM    9  C   UNL     1      -9.754   8.886  71.570  1.00  0.00    -0.372 A  
HETATM   10  C   UNL     1     -10.156   8.138  72.681  1.00  0.00    -0.379 A  
HETATM   11  C   UNL     1      -7.848   7.882  68.399  1.00  0.00    -0.120 C  
HETATM   12  C   UNL     1      -7.524  10.363  66.817  1.00  0.00    -0.110 C  
HETATM   13  C   UNL     1      -6.322   9.724  67.504  1.00  0.00    -0.064 C  
HETATM   14  C   UNL     1     -11.044   7.079  72.525  1.00  0.00    -0.310 A  
HETATM   15  C   UNL     1     -11.114   7.509  70.143  1.00  0.00    -0.246 A  
HETATM   16  C   UNL     1     -11.518   6.759  71.257  1.00  0.00    -0.347 A  
ENDROOT
BRANCH   6  17
HETATM   17  C   UNL     1     -12.001  10.941  69.406  1.00  0.00    -0.322 C  
BRANCH  17  18
HETATM   18  N   UNL     1     -11.396  12.271  69.603  1.00  0.00    -0.189 NA 
HETATM   19  C   UNL     1     -11.427  13.105  68.398  1.00  0.00    -0.315 C  
HETATM   20  C   UNL     1     -11.199  14.498  68.942  1.00  0.00    -0.283 C  
HETATM   21  C   UNL     1     -11.992  14.500  70.234  1.00  0.00    -0.379 C  
HETATM   22  C   UNL     1     -12.061  13.037  70.665  1.00  0.00    -0.248 C  
ENDBRANCH  17  18
ENDBRANCH   6  17
TORSDOF 2
ENDMDL
MODEL       81
REMARK 921   NORMALIZED FREE ENERGY PREDICTED BY IDOCK:   -4.48 KCAL/MOL
REMARK 922        TOTAL FREE ENERGY PREDICTED BY IDOCK:   -5.68 KCAL/MOL
REMARK 923 INTER-LIGAND FREE ENERGY PREDICTED BY IDOCK:   -5.39 KCAL/MOL
REMARK 924 INTRA-LIGAND FREE ENERGY PREDICTED BY IDOCK:   -0.29 KCAL/MOL
REMARK 927      BINDING AFFINITY PREDICTED BY RF-SCORE:    0.00 PKD
ROOT
HETATM    1  O   UNL     1     -10.008  13.948  69.658  1.00  0.00    -0.177 OA 
HETATM    2  C   UNL     1     -11.162  13.356  69.057  1.00  0.00    -0.275 C  
HETATM    3  H   UNL     1     -10.042  14.885  69.504  1.00  0.00     0.000 HD 
HETATM    4  C   UNL     1     -11.116  13.633  67.538  1.00  0.00    -0.296 A  
HETATM    5  C   UNL     1     -12.478  13.932  69.726  1.00  0.00    -0.240 C  
HETATM    6  C   UNL     1     -11.105  11.823  69.309  1.00  0.00    -0.278 C  
HETATM    7  C   UNL     1     -11.804  16.339  70.310  1.00  0.00     0.000 C  
HETATM    8  C   UNL     1     -12.637  13.671  71.244  1.00  0.00    -0.435 C  
HETATM    9  C   UNL     1     -10.065  14.370  66.962  1.00  0.00    -0.256 A  
HETATM   10  C   UNL     1      -9.980  14.560  65.578  1.00  0.00    -0.373 A  
HETATM   11  C   UNL     1     -12.729  15.435  69.505  1.00  0.00     0.133 C  
HETATM   12  C   UNL     1     -11.751  14.524  72.145  1.00  0.00     0.071 C  
HETATM   13  C   UNL     1     -11.770  16.009  71.800  1.00  0.00    -0.593 C  
HETATM   14  C   UNL     1     -10.948  14.017  64.739  1.00  0.00    -0.410 A  
HETATM   15  C   UNL     1     -12.091  13.108  66.671  1.00  0.00    -0.409 A  
HETATM   16  C   UNL     1     -12.006  13.297  65.284  1.00  0.00    -0.422 A  
ENDROOT
BRANCH   6  17
HETATM   17  C   UNL     1      -9.900  11.076  68.716  1.00  0.00    -0.198 C  
BRANCH  17  18
HETATM   18  N   UNL     1     -10.279  10.443  67.440  1.00  0.00    -0.202 NA 
HETATM   19  C   UNL     1      -9.426  10.847  66.318  1.00  0.00    -0.194 C  
HETATM   20  C   UNL     1      -9.691   9.773  65.285  1.00  0.00    -0.371 C  
HETATM   21  C   UNL     1      -9.794   8.510  66.117  1.00  0.00    -0.227 C  
HETATM   22  C   UNL     1     -10.227   8.977  67.505  1.00  0.00    -0.241 C  
ENDBRANCH  17  18
ENDBRANCH   6  17
TORSDOF 2
ENDMDL
MODEL       82
REMARK 921   NORMALIZED FREE ENERGY PREDICTED BY IDOCK:   -4.47 KCAL/MOL
REMARK 922        TOTAL FREE ENERGY PREDICTED BY IDOCK:   -5.67 KCAL/MOL
REMARK 923 INTER-LIGAND FREE ENERGY PREDICTED BY IDOCK:   -5.24 KCAL/MOL
REMARK 924 INTRA-LIGAND FREE ENERGY PREDICTED BY IDOCK:   -0.43 KCAL/MOL
REMARK 927      BINDING AFFINITY PREDICTED BY RF-SCORE:    0.00 PKD
ROOT
HETATM    1  O   UNL     1      -9.310  13.158  68.995  1.00  0.00    -0.366 OA 
HETATM    2  C   UNL     1      -9.206  13.114  67.570  1.00  0.00    -0.206 C  
HETATM    3  H   UNL     1      -8.630  12.602  69.357  1.00  0.00     0.000 HD 
HETATM    4  C   UNL     1      -9.429  11.657  67.109  1.00  0.00    -0.183 A  
HETATM    5  C   UNL     1      -7.795  13.673  67.111  1.00  0.00    -0.028 C  
HETATM    6  C   UNL     1     -10.318  14.024  66.976  1.00  0.00    -0.267 C  
HETATM    7  C   UNL     1      -6.256  12.960  69.037  1.00  0.00    -0.095 C  
HETATM    8  C   UNL     1      -7.492  15.143  67.491  1.00  0.00    -0.223 C  
HETATM    9  C   UNL     1      -9.672  10.627  68.037  1.00  0.00    -0.170 A  
HETATM   10  C   UNL     1      -9.948   9.321  67.621  1.00  0.00    -0.245 A  
HETATM   11  C   UNL     1      -6.578  12.840  67.553  1.00  0.00    -0.158 C  
HETATM   12  C   UNL     1      -7.158  15.378  68.960  1.00  0.00    -0.144 C  
HETATM   13  C   UNL     1      -6.129  14.402  69.521  1.00  0.00    -0.114 C  
HETATM   14  C   UNL     1      -9.983   9.013  66.264  1.00  0.00    -0.352 A  
HETATM   15  C   UNL     1      -9.454  11.318  65.744  1.00  0.00    -0.252 A  
HETATM   16  C   UNL     1      -9.730  10.009  65.326  1.00  0.00    -0.373 A  
ENDROOT
BRANCH   6  17
HETATM   17  C   UNL     1     -11.768  13.630  67.297  1.00  0.00    -0.380 C  
BRANCH  17  18
HETATM   18  N   UNL     1     -12.261  14.415  68.444  1.00  0.00    -0.224 NA 
HETATM   19  C   UNL     1     -12.141  13.709  69.723  1.00  0.00    -0.334 C  
HETATM   20  C   UNL     1     -12.258  14.823  70.739  1.00  0.00    -0.380 C  
HETATM   21  C   UNL     1     -11.487  15.960  70.098  1.00  0.00    -0.366 C  
HETATM   22  C   UNL     1     -11.549  15.690  68.596  1.00  0.00    -0.382 C  
ENDBRANCH  17  18
ENDBRANCH   6  17
TORSDOF 2
ENDMDL
MODEL       83
REMARK 921   NORMALIZED FREE ENERGY PREDICTED BY IDOCK:   -4.47 KCAL/MOL
REMARK 922        TOTAL FREE ENERGY PREDICTED BY IDOCK:   -5.67 KCAL/MOL
REMARK 923 INTER-LIGAND FREE ENERGY PREDICTED BY IDOCK:   -5.32 KCAL/MOL
REMARK 924 INTRA-LIGAND FREE ENERGY PREDICTED BY IDOCK:   -0.35 KCAL/MOL
REMARK 927      BINDING AFFINITY PREDICTED BY RF-SCORE:    0.00 PKD
ROOT
HETATM    1  O   UNL     1      -9.149  13.747  68.832  1.00  0.00    -0.382 OA 
HETATM    2  C   UNL     1      -8.792  13.851  67.451  1.00  0.00    -0.207 C  
HETATM    3  H   UNL     1      -9.607  12.924  68.957  1.00  0.00     0.000 HD 
HETATM    4  C   UNL     1     -10.087  13.846  66.611  1.00  0.00    -0.273 A  
HETATM    5  C   UNL     1      -7.819  12.665  67.052  1.00  0.00    -0.043 C  
HETATM    6  C   UNL     1      -8.043  15.198  67.247  1.00  0.00    -0.228 C  
HETATM    7  C   UNL     1      -8.635  10.744  68.546  1.00  0.00    -0.148 C  
HETATM    8  C   UNL     1      -6.472  12.607  67.812  1.00  0.00    -0.128 C  
HETATM    9  C   UNL     1     -11.352  13.737  67.219  1.00  0.00    -0.343 A  
HETATM   10  C   UNL     1     -12.530  13.807  66.469  1.00  0.00    -0.356 A  
HETATM   11  C   UNL     1      -8.433  11.255  67.125  1.00  0.00    -0.149 C  
HETATM   12  C   UNL     1      -6.561  12.111  69.251  1.00  0.00    -0.104 C  
HETATM   13  C   UNL     1      -7.381  10.835  69.414  1.00  0.00    -0.128 C  
HETATM   14  C   UNL     1     -12.471  13.983  65.090  1.00  0.00    -0.472 A  
HETATM   15  C   UNL     1     -10.052  14.007  65.214  1.00  0.00    -0.345 A  
HETATM   16  C   UNL     1     -11.233  14.077  64.461  1.00  0.00    -0.358 A  
ENDROOT
BRANCH   6  17
HETATM   17  C   UNL     1      -8.835  16.476  67.566  1.00  0.00    -0.191 C  
BRANCH  17  18
HETATM   18  N   UNL     1      -7.998  17.663  67.312  1.00  0.00    -0.204 NA 
HETATM   19  C   UNL     1      -7.201  17.558  66.086  1.00  0.00    -0.308 C  
HETATM   20  C   UNL     1      -6.817  18.994  65.806  1.00  0.00    -0.311 C  
HETATM   21  C   UNL     1      -8.068  19.767  66.174  1.00  0.00    -0.357 C  
HETATM   22  C   UNL     1      -8.792  18.893  67.196  1.00  0.00    -0.284 C  
ENDBRANCH  17  18
ENDBRANCH   6  17
TORSDOF 2
ENDMDL
MODEL       84
REMARK 921   NORMALIZED FREE ENERGY PREDICTED BY IDOCK:   -4.47 KCAL/MOL
REMARK 922        TOTAL FREE ENERGY PREDICTED BY IDOCK:   -5.67 KCAL/MOL
REMARK 923 INTER-LIGAND FREE ENERGY PREDICTED BY IDOCK:   -5.19 KCAL/MOL
REMARK 924 INTRA-LIGAND FREE ENERGY PREDICTED BY IDOCK:   -0.47 KCAL/MOL
REMARK 927      BINDING AFFINITY PREDICTED BY RF-SCORE:    0.00 PKD
ROOT
HETATM    1  O   UNL     1      -9.382  10.836  69.791  1.00  0.00    -0.387 OA 
HETATM    2  C   UNL     1      -9.288  10.094  68.573  1.00  0.00    -0.151 C  
HETATM    3  H   UNL     1      -8.872  10.384  70.453  1.00  0.00     0.000 HD 
HETATM    4  C   UNL     1      -9.880   8.688  68.812  1.00  0.00    -0.180 A  
HETATM    5  C   UNL     1      -7.779  10.030  68.092  1.00  0.00    -0.085 C  
HETATM    6  C   UNL     1     -10.124  10.833  67.491  1.00  0.00    -0.218 C  
HETATM    7  C   UNL     1      -6.485   9.998  70.309  1.00  0.00    -0.117 C  
HETATM    8  C   UNL     1      -7.106  11.390  67.787  1.00  0.00    -0.081 C  
HETATM    9  C   UNL     1     -10.385   8.312  70.071  1.00  0.00    -0.212 A  
HETATM   10  C   UNL     1     -10.989   7.067  70.273  1.00  0.00    -0.304 A  
HETATM   11  C   UNL     1      -6.822   9.259  69.020  1.00  0.00    -0.055 C  
HETATM   12  C   UNL     1      -6.729  12.217  69.011  1.00  0.00    -0.103 C  
HETATM   13  C   UNL     1      -5.990  11.424  70.085  1.00  0.00    -0.152 C  
HETATM   14  C   UNL     1     -11.098   6.165  69.219  1.00  0.00    -0.463 A  
HETATM   15  C   UNL     1      -9.987   7.753  67.767  1.00  0.00    -0.220 A  
HETATM   16  C   UNL     1     -10.592   6.504  67.968  1.00  0.00    -0.310 A  
ENDROOT
BRANCH   6  17
HETATM   17  C   UNL     1     -11.628  10.980  67.770  1.00  0.00    -0.194 C  
BRANCH  17  18
HETATM   18  N   UNL     1     -12.080  12.332  67.392  1.00  0.00    -0.503 NA 
HETATM   19  C   UNL     1     -11.295  13.400  68.017  1.00  0.00    -0.286 C  
HETATM   20  C   UNL     1     -11.618  14.605  67.160  1.00  0.00    -0.394 C  
HETATM   21  C   UNL     1     -11.669  14.031  65.758  1.00  0.00    -0.368 C  
HETATM   22  C   UNL     1     -12.021  12.556  65.942  1.00  0.00    -0.409 C  
ENDBRANCH  17  18
ENDBRANCH   6  17
TORSDOF 2
ENDMDL
MODEL       85
REMARK 921   NORMALIZED FREE ENERGY PREDICTED BY IDOCK:   -4.43 KCAL/MOL
REMARK 922        TOTAL FREE ENERGY PREDICTED BY IDOCK:   -5.62 KCAL/MOL
REMARK 923 INTER-LIGAND FREE ENERGY PREDICTED BY IDOCK:   -5.28 KCAL/MOL
REMARK 924 INTRA-LIGAND FREE ENERGY PREDICTED BY IDOCK:   -0.34 KCAL/MOL
REMARK 927      BINDING AFFINITY PREDICTED BY RF-SCORE:    0.00 PKD
ROOT
HETATM    1  O   UNL     1      -8.769  10.394  69.708  1.00  0.00    -0.367 OA 
HETATM    2  C   UNL     1      -9.766   9.799  68.874  1.00  0.00    -0.171 C  
HETATM    3  H   UNL     1      -7.954   9.926  69.574  1.00  0.00     0.000 HD 
HETATM    4  C   UNL     1      -9.939   8.324  69.299  1.00  0.00    -0.192 A  
HETATM    5  C   UNL     1      -9.349   9.933  67.350  1.00  0.00    -0.158 C  
HETATM    6  C   UNL     1     -11.101  10.565  69.094  1.00  0.00    -0.302 C  
HETATM    7  C   UNL     1      -6.788   9.790  67.455  1.00  0.00    -0.082 C  
HETATM    8  C   UNL     1      -9.189  11.377  66.816  1.00  0.00    -0.185 C  
HETATM    9  C   UNL     1      -9.174   7.770  70.342  1.00  0.00    -0.156 A  
HETATM   10  C   UNL     1      -9.379   6.458  70.780  1.00  0.00    -0.165 A  
HETATM   11  C   UNL     1      -8.079   9.164  66.943  1.00  0.00    -0.112 C  
HETATM   12  C   UNL     1      -7.926  12.101  67.272  1.00  0.00    -0.176 C  
HETATM   13  C   UNL     1      -6.654  11.274  67.121  1.00  0.00    -0.106 C  
HETATM   14  C   UNL     1     -10.355   5.667  70.181  1.00  0.00    -0.341 A  
HETATM   15  C   UNL     1     -10.908   7.500  68.699  1.00  0.00    -0.044 A  
HETATM   16  C   UNL     1     -11.115   6.184  69.137  1.00  0.00    -0.448 A  
ENDROOT
BRANCH   6  17
HETATM   17  C   UNL     1     -11.681  10.535  70.516  1.00  0.00    -0.350 C  
BRANCH  17  18
HETATM   18  N   UNL     1     -12.620  11.656  70.701  1.00  0.00    -0.270 NA 
HETATM   19  C   UNL     1     -13.107  11.782  72.077  1.00  0.00    -0.331 C  
HETATM   20  C   UNL     1     -13.645  13.196  72.120  1.00  0.00    -0.637 C  
HETATM   21  C   UNL     1     -12.641  13.974  71.292  1.00  0.00    -0.444 C  
HETATM   22  C   UNL     1     -12.024  12.950  70.343  1.00  0.00    -0.249 C  
ENDBRANCH  17  18
ENDBRANCH   6  17
TORSDOF 2
ENDMDL
MODEL       86
REMARK 921   NORMALIZED FREE ENERGY PREDICTED BY IDOCK:   -4.41 KCAL/MOL
REMARK 922        TOTAL FREE ENERGY PREDICTED BY IDOCK:   -5.60 KCAL/MOL
REMARK 923 INTER-LIGAND FREE ENERGY PREDICTED BY IDOCK:   -4.78 KCAL/MOL
REMARK 924 INTRA-LIGAND FREE ENERGY PREDICTED BY IDOCK:   -0.82 KCAL/MOL
REMARK 927      BINDING AFFINITY PREDICTED BY RF-SCORE:    0.00 PKD
ROOT
HETATM    1  O   UNL     1      -9.975   8.619  71.857  1.00  0.00    -0.265 OA 
HETATM    2  C   UNL     1      -9.738   8.396  70.465  1.00  0.00    -0.173 C  
HETATM    3  H   UNL     1     -10.912   8.580  72.007  1.00  0.00     0.000 HD 
HETATM    4  C   UNL     1     -10.439   9.517  69.666  1.00  0.00    -0.239 A  
HETATM    5  C   UNL     1     -10.257   6.957  70.050  1.00  0.00    -0.211 C  
HETATM    6  C   UNL     1      -8.204   8.462  70.219  1.00  0.00    -0.121 C  
HETATM    7  C   UNL     1     -12.280   6.624  71.594  1.00  0.00    -0.401 C  
HETATM    8  C   UNL     1      -9.585   5.761  70.768  1.00  0.00    -0.210 C  
HETATM    9  C   UNL     1     -11.172  10.527  70.315  1.00  0.00    -0.391 A  
HETATM   10  C   UNL     1     -11.745  11.585  69.601  1.00  0.00    -0.419 A  
HETATM   11  C   UNL     1     -11.778   6.745  70.161  1.00  0.00    -0.370 C  
HETATM   12  C   UNL     1     -10.016   5.549  72.216  1.00  0.00    -0.211 C  
HETATM   13  C   UNL     1     -11.527   5.583  72.420  1.00  0.00    -0.266 C  
HETATM   14  C   UNL     1     -11.601  11.654  68.219  1.00  0.00    -0.378 A  
HETATM   15  C   UNL     1     -10.321   9.599  68.267  1.00  0.00    -0.240 A  
HETATM   16  C   UNL     1     -10.896  10.659  67.551  1.00  0.00    -0.351 A  
ENDROOT
BRANCH   6  17
HETATM   17  C   UNL     1      -7.515   9.796  70.547  1.00  0.00    -0.101 C  
BRANCH  17  18
HETATM   18  N   UNL     1      -6.856  10.332  69.342  1.00  0.00    -0.066 NA 
HETATM   19  C   UNL     1      -6.890   9.407  68.205  1.00  0.00    -0.063 C  
HETATM   20  C   UNL     1      -6.596  10.308  67.025  1.00  0.00    -0.074 C  
HETATM   21  C   UNL     1      -7.353  11.577  67.361  1.00  0.00    -0.123 C  
HETATM   22  C   UNL     1      -7.464  11.588  68.884  1.00  0.00    -0.106 C  
ENDBRANCH  17  18
ENDBRANCH   6  17
TORSDOF 2
ENDMDL
MODEL       87
REMARK 921   NORMALIZED FREE ENERGY PREDICTED BY IDOCK:   -4.39 KCAL/MOL
REMARK 922        TOTAL FREE ENERGY PREDICTED BY IDOCK:   -5.58 KCAL/MOL
REMARK 923 INTER-LIGAND FREE ENERGY PREDICTED BY IDOCK:   -5.17 KCAL/MOL
REMARK 924 INTRA-LIGAND FREE ENERGY PREDICTED BY IDOCK:   -0.41 KCAL/MOL
REMARK 927      BINDING AFFINITY PREDICTED BY RF-SCORE:    0.00 PKD
ROOT
HETATM    1  O   UNL     1      -9.082  11.672  68.977  1.00  0.00    -0.389 OA 
HETATM    2  C   UNL     1      -9.630  11.172  67.755  1.00  0.00    -0.172 C  
HETATM    3  H   UNL     1      -9.724  12.249  69.374  1.00  0.00     0.000 HD 
HETATM    4  C   UNL     1      -9.901  12.368  66.817  1.00  0.00    -0.228 A  
HETATM    5  C   UNL     1     -10.945  10.338  68.051  1.00  0.00    -0.345 C  
HETATM    6  C   UNL     1      -8.579  10.228  67.105  1.00  0.00    -0.126 C  
HETATM    7  C   UNL     1     -11.932  11.552  70.086  1.00  0.00    -0.452 C  
HETATM    8  C   UNL     1     -10.770   9.092  68.952  1.00  0.00    -0.149 C  
HETATM    9  C   UNL     1      -9.625  13.688  67.219  1.00  0.00    -0.238 A  
HETATM   10  C   UNL     1      -9.799  14.768  66.347  1.00  0.00    -0.297 A  
HETATM   11  C   UNL     1     -12.122  11.145  68.630  1.00  0.00    -0.180 C  
HETATM   12  C   UNL     1     -10.569   9.387  70.435  1.00  0.00    -0.316 C  
HETATM   13  C   UNL     1     -11.568  10.388  71.005  1.00  0.00    -0.384 C  
HETATM   14  C   UNL     1     -10.257  14.551  65.051  1.00  0.00    -0.398 A  
HETATM   15  C   UNL     1     -10.378  12.176  65.508  1.00  0.00    -0.296 A  
HETATM   16  C   UNL     1     -10.553  13.258  64.633  1.00  0.00    -0.421 A  
ENDROOT
BRANCH   6  17
HETATM   17  C   UNL     1      -7.231  10.862  66.726  1.00  0.00    -0.134 C  
BRANCH  17  18
HETATM   18  N   UNL     1      -6.652  10.157  65.568  1.00  0.00    -0.111 NA 
HETATM   19  C   UNL     1      -7.525  10.163  64.390  1.00  0.00    -0.123 C  
HETATM   20  C   UNL     1      -6.577   9.819  63.262  1.00  0.00    -0.118 C  
HETATM   21  C   UNL     1      -5.314  10.573  63.629  1.00  0.00    -0.161 C  
HETATM   22  C   UNL     1      -5.369  10.734  65.146  1.00  0.00    -0.134 C  
ENDBRANCH  17  18
ENDBRANCH   6  17
TORSDOF 2
ENDMDL
MODEL       88
REMARK 921   NORMALIZED FREE ENERGY PREDICTED BY IDOCK:   -4.37 KCAL/MOL
REMARK 922        TOTAL FREE ENERGY PREDICTED BY IDOCK:   -5.56 KCAL/MOL
REMARK 923 INTER-LIGAND FREE ENERGY PREDICTED BY IDOCK:   -4.81 KCAL/MOL
REMARK 924 INTRA-LIGAND FREE ENERGY PREDICTED BY IDOCK:   -0.75 KCAL/MOL
REMARK 927      BINDING AFFINITY PREDICTED BY RF-SCORE:    0.00 PKD
ROOT
HETATM    1  O   UNL     1      -8.239   9.362  65.844  1.00  0.00    -0.112 OA 
HETATM    2  C   UNL     1      -9.291  10.039  66.536  1.00  0.00    -0.162 C  
HETATM    3  H   UNL     1      -7.574   9.123  66.479  1.00  0.00     0.000 HD 
HETATM    4  C   UNL     1      -8.708  11.315  67.180  1.00  0.00    -0.151 A  
HETATM    5  C   UNL     1      -9.943   9.074  67.612  1.00  0.00    -0.252 C  
HETATM    6  C   UNL     1     -10.379  10.431  65.496  1.00  0.00    -0.265 C  
HETATM    7  C   UNL     1      -7.949   7.638  68.356  1.00  0.00    -0.123 C  
HETATM    8  C   UNL     1     -10.592   7.782  67.059  1.00  0.00    -0.396 C  
HETATM    9  C   UNL     1      -7.345  11.642  67.049  1.00  0.00    -0.143 A  
HETATM   10  C   UNL     1      -6.828  12.834  67.568  1.00  0.00    -0.153 A  
HETATM   11  C   UNL     1      -9.015   8.648  68.765  1.00  0.00    -0.138 C  
HETATM   12  C   UNL     1      -9.611   6.701  66.616  1.00  0.00    -0.207 C  
HETATM   13  C   UNL     1      -8.509   6.416  67.632  1.00  0.00    -0.117 C  
HETATM   14  C   UNL     1      -7.662  13.725  68.234  1.00  0.00    -0.138 A  
HETATM   15  C   UNL     1      -9.528  12.225  67.872  1.00  0.00    -0.200 A  
HETATM   16  C   UNL     1      -9.010  13.419  68.392  1.00  0.00    -0.136 A  
ENDROOT
BRANCH   6  17
HETATM   17  C   UNL     1      -9.941  11.385  64.374  1.00  0.00    -0.274 C  
BRANCH  17  18
HETATM   18  N   UNL     1     -10.867  12.529  64.296  1.00  0.00    -0.337 NA 
HETATM   19  C   UNL     1     -12.146  12.285  64.971  1.00  0.00    -0.327 C  
HETATM   20  C   UNL     1     -12.704  13.679  65.156  1.00  0.00    -0.443 C  
HETATM   21  C   UNL     1     -11.478  14.500  65.506  1.00  0.00    -0.343 C  
HETATM   22  C   UNL     1     -10.302  13.748  64.889  1.00  0.00    -0.398 C  
ENDBRANCH  17  18
ENDBRANCH   6  17
TORSDOF 2
ENDMDL
MODEL       89
REMARK 921   NORMALIZED FREE ENERGY PREDICTED BY IDOCK:   -4.32 KCAL/MOL
REMARK 922        TOTAL FREE ENERGY PREDICTED BY IDOCK:   -5.50 KCAL/MOL
REMARK 923 INTER-LIGAND FREE ENERGY PREDICTED BY IDOCK:   -5.11 KCAL/MOL
REMARK 924 INTRA-LIGAND FREE ENERGY PREDICTED BY IDOCK:   -0.39 KCAL/MOL
REMARK 927      BINDING AFFINITY PREDICTED BY RF-SCORE:    0.00 PKD
ROOT
HETATM    1  O   UNL     1      -8.478  10.335  67.963  1.00  0.00    -0.116 OA 
HETATM    2  C   UNL     1      -9.515   9.353  67.898  1.00  0.00    -0.132 C  
HETATM    3  H   UNL     1      -7.710   9.927  68.345  1.00  0.00     0.000 HD 
HETATM    4  C   UNL     1      -9.837   8.887  69.334  1.00  0.00    -0.183 A  
HETATM    5  C   UNL     1      -9.066   8.149  66.969  1.00  0.00    -0.170 C  
HETATM    6  C   UNL     1     -10.773  10.021  67.273  1.00  0.00    -0.309 C  
HETATM    7  C   UNL     1      -6.533   8.048  67.371  1.00  0.00    -0.057 C  
HETATM    8  C   UNL     1      -8.759   8.509  65.495  1.00  0.00    -0.208 C  
HETATM    9  C   UNL     1      -9.144   9.407  70.443  1.00  0.00    -0.302 A  
HETATM   10  C   UNL     1      -9.482   9.044  71.751  1.00  0.00    -0.245 A  
HETATM   11  C   UNL     1      -7.870   7.328  67.485  1.00  0.00    -0.112 C  
HETATM   12  C   UNL     1      -7.439   9.238  65.266  1.00  0.00    -0.098 C  
HETATM   13  C   UNL     1      -6.250   8.596  65.974  1.00  0.00    -0.052 C  
HETATM   14  C   UNL     1     -10.520   8.147  71.980  1.00  0.00    -0.329 A  
HETATM   15  C   UNL     1     -10.872   7.970  69.590  1.00  0.00    -0.172 A  
HETATM   16  C   UNL     1     -11.211   7.605  70.901  1.00  0.00    -0.282 A  
ENDROOT
BRANCH   6  17
HETATM   17  C   UNL     1     -11.374  11.206  68.045  1.00  0.00    -0.312 C  
BRANCH  17  18
HETATM   18  N   UNL     1     -11.995  12.156  67.104  1.00  0.00    -0.584 NA 
HETATM   19  C   UNL     1     -11.931  13.547  67.561  1.00  0.00    -0.346 C  
HETATM   20  C   UNL     1     -12.188  14.333  66.294  1.00  0.00    -0.433 C  
HETATM   21  C   UNL     1     -11.437  13.545  65.238  1.00  0.00    -0.315 C  
HETATM   22  C   UNL     1     -11.371  12.117  65.776  1.00  0.00    -0.354 C  
ENDBRANCH  17  18
ENDBRANCH   6  17
TORSDOF 2
ENDMDL
MODEL       90
REMARK 921   NORMALIZED FREE ENERGY PREDICTED BY IDOCK:   -4.29 KCAL/MOL
REMARK 922        TOTAL FREE ENERGY PREDICTED BY IDOCK:   -5.47 KCAL/MOL
REMARK 923 INTER-LIGAND FREE ENERGY PREDICTED BY IDOCK:   -5.11 KCAL/MOL
REMARK 924 INTRA-LIGAND FREE ENERGY PREDICTED BY IDOCK:   -0.36 KCAL/MOL
REMARK 927      BINDING AFFINITY PREDICTED BY RF-SCORE:    0.00 PKD
ROOT
HETATM    1  O   UNL     1     -10.217  13.468  69.549  1.00  0.00    -0.286 OA 
HETATM    2  C   UNL     1     -11.062  14.009  68.531  1.00  0.00    -0.257 C  
HETATM    3  H   UNL     1      -9.966  14.175  70.131  1.00  0.00     0.000 HD 
HETATM    4  C   UNL     1     -10.259  15.066  67.742  1.00  0.00    -0.236 A  
HETATM    5  C   UNL     1     -12.373  14.620  69.180  1.00  0.00    -0.130 C  
HETATM    6  C   UNL     1     -11.473  12.850  67.578  1.00  0.00    -0.386 C  
HETATM    7  C   UNL     1     -11.525  15.484  71.444  1.00  0.00    -0.478 C  
HETATM    8  C   UNL     1     -13.269  13.627  69.960  1.00  0.00     0.816 C  
HETATM    9  C   UNL     1      -8.926  15.370  68.077  1.00  0.00    -0.171 A  
HETATM   10  C   UNL     1      -8.171  16.272  67.320  1.00  0.00    -0.197 A  
HETATM   11  C   UNL     1     -12.149  15.835  70.099  1.00  0.00    -0.355 C  
HETATM   12  C   UNL     1     -12.734  13.205  71.324  1.00  0.00    -0.396 C  
HETATM   13  C   UNL     1     -12.259  14.370  72.187  1.00  0.00    -0.238 C  
HETATM   14  C   UNL     1      -8.735  16.896  66.212  1.00  0.00    -0.321 A  
HETATM   15  C   UNL     1     -10.812  15.722  66.627  1.00  0.00    -0.241 A  
HETATM   16  C   UNL     1     -10.056  16.627  65.868  1.00  0.00    -0.341 A  
ENDROOT
BRANCH   6  17
HETATM   17  C   UNL     1     -10.332  12.139  66.834  1.00  0.00    -0.212 C  
BRANCH  17  18
HETATM   18  N   UNL     1     -10.770  11.769  65.476  1.00  0.00    -0.272 NA 
HETATM   19  C   UNL     1     -10.950  12.924  64.592  1.00  0.00    -0.332 C  
HETATM   20  C   UNL     1     -10.938  12.303  63.213  1.00  0.00    -0.373 C  
HETATM   21  C   UNL     1      -9.872  11.231  63.325  1.00  0.00    -0.418 C  
HETATM   22  C   UNL     1      -9.821  10.869  64.808  1.00  0.00    -0.288 C  
ENDBRANCH  17  18
ENDBRANCH   6  17
TORSDOF 2
ENDMDL
MODEL       91
REMARK 921   NORMALIZED FREE ENERGY PREDICTED BY IDOCK:   -4.28 KCAL/MOL
REMARK 922        TOTAL FREE ENERGY PREDICTED BY IDOCK:   -5.46 KCAL/MOL
REMARK 923 INTER-LIGAND FREE ENERGY PREDICTED BY IDOCK:   -4.63 KCAL/MOL
REMARK 924 INTRA-LIGAND FREE ENERGY PREDICTED BY IDOCK:   -0.83 KCAL/MOL
REMARK 927      BINDING AFFINITY PREDICTED BY RF-SCORE:    0.00 PKD
ROOT
HETATM    1  O   UNL     1      -8.015   9.168  71.646  1.00  0.00    -0.342 OA 
HETATM    2  C   UNL     1      -8.484   7.848  71.363  1.00  0.00    -0.119 C  
HETATM    3  H   UNL     1      -8.329   9.415  72.507  1.00  0.00     0.000 HD 
HETATM    4  C   UNL     1     -10.028   7.868  71.366  1.00  0.00    -0.208 A  
HETATM    5  C   UNL     1      -7.901   6.826  72.426  1.00  0.00    -0.094 C  
HETATM    6  C   UNL     1      -7.970   7.444  69.952  1.00  0.00    -0.121 C  
HETATM    7  C   UNL     1      -7.756   8.254  74.554  1.00  0.00    -0.298 C  
HETATM    8  C   UNL     1      -6.359   6.703  72.474  1.00  0.00    -0.054 C  
HETATM    9  C   UNL     1     -10.743   9.051  71.630  1.00  0.00    -0.441 A  
HETATM   10  C   UNL     1     -12.139   9.091  71.560  1.00  0.00    -0.410 A  
HETATM   11  C   UNL     1      -8.375   7.039  73.876  1.00  0.00    -0.164 C  
HETATM   12  C   UNL     1      -5.635   7.873  73.132  1.00  0.00    -0.045 C  
HETATM   13  C   UNL     1      -6.232   8.290  74.472  1.00  0.00    -0.135 C  
HETATM   14  C   UNL     1     -12.854   7.945  71.228  1.00  0.00    -0.244 A  
HETATM   15  C   UNL     1     -10.774   6.718  71.048  1.00  0.00    -0.265 A  
HETATM   16  C   UNL     1     -12.174   6.758  70.978  1.00  0.00    -0.405 A  
ENDROOT
BRANCH   6  17
HETATM   17  C   UNL     1      -8.447   8.312  68.777  1.00  0.00    -0.125 C  
BRANCH  17  18
HETATM   18  N   UNL     1      -9.001   7.456  67.712  1.00  0.00    -0.127 NA 
HETATM   19  C   UNL     1      -8.863   6.024  67.990  1.00  0.00    -0.110 C  
HETATM   20  C   UNL     1      -9.865   5.395  67.047  1.00  0.00    -0.181 C  
HETATM   21  C   UNL     1     -11.034   6.359  67.090  1.00  0.00    -0.476 C  
HETATM   22  C   UNL     1     -10.429   7.706  67.480  1.00  0.00    -0.266 C  
ENDBRANCH  17  18
ENDBRANCH   6  17
TORSDOF 2
ENDMDL
MODEL       92
REMARK 921   NORMALIZED FREE ENERGY PREDICTED BY IDOCK:   -4.26 KCAL/MOL
REMARK 922        TOTAL FREE ENERGY PREDICTED BY IDOCK:   -5.44 KCAL/MOL
REMARK 923 INTER-LIGAND FREE ENERGY PREDICTED BY IDOCK:   -4.62 KCAL/MOL
REMARK 924 INTRA-LIGAND FREE ENERGY PREDICTED BY IDOCK:   -0.82 KCAL/MOL
REMARK 927      BINDING AFFINITY PREDICTED BY RF-SCORE:    0.00 PKD
ROOT
HETATM    1  O   UNL     1      -8.382   7.832  68.725  1.00  0.00    -0.126 OA 
HETATM    2  C   UNL     1      -9.297   8.494  67.849  1.00  0.00    -0.135 C  
HETATM    3  H   UNL     1      -8.878   7.239  69.276  1.00  0.00     0.000 HD 
HETATM    4  C   UNL     1     -10.297   9.299  68.708  1.00  0.00    -0.231 A  
HETATM    5  C   UNL     1     -10.027   7.434  66.924  1.00  0.00    -0.307 C  
HETATM    6  C   UNL     1      -8.486   9.466  66.947  1.00  0.00    -0.128 C  
HETATM    7  C   UNL     1     -10.184   5.375  68.448  1.00  0.00    -0.229 C  
HETATM    8  C   UNL     1      -9.111   6.602  65.993  1.00  0.00    -0.104 C  
HETATM    9  C   UNL     1     -10.225   9.290  70.113  1.00  0.00    -0.251 A  
HETATM   10  C   UNL     1     -11.082  10.075  70.893  1.00  0.00    -0.385 A  
HETATM   11  C   UNL     1     -10.941   6.435  67.657  1.00  0.00    -0.441 C  
HETATM   12  C   UNL     1      -8.302   5.510  66.686  1.00  0.00    -0.109 C  
HETATM   13  C   UNL     1      -9.125   4.640  67.630  1.00  0.00    -0.133 C  
HETATM   14  C   UNL     1     -12.034  10.885  70.282  1.00  0.00    -0.448 A  
HETATM   15  C   UNL     1     -11.279  10.113  68.115  1.00  0.00    -0.245 A  
HETATM   16  C   UNL     1     -12.138  10.900  68.895  1.00  0.00    -0.186 A  
ENDROOT
BRANCH   6  17
HETATM   17  C   UNL     1      -7.717  10.587  67.666  1.00  0.00    -0.097 C  
BRANCH  17  18
HETATM   18  N   UNL     1      -8.179  11.902  67.185  1.00  0.00    -0.165 NA 
HETATM   19  C   UNL     1      -9.163  11.809  66.103  1.00  0.00    -0.210 C  
HETATM   20  C   UNL     1      -9.800  13.182  66.104  1.00  0.00    -0.284 C  
HETATM   21  C   UNL     1      -9.899  13.517  67.580  1.00  0.00    -0.227 C  
HETATM   22  C   UNL     1      -8.795  12.702  68.251  1.00  0.00    -0.172 C  
ENDBRANCH  17  18
ENDBRANCH   6  17
TORSDOF 2
ENDMDL
MODEL       93
REMARK 921   NORMALIZED FREE ENERGY PREDICTED BY IDOCK:   -4.25 KCAL/MOL
REMARK 922        TOTAL FREE ENERGY PREDICTED BY IDOCK:   -5.42 KCAL/MOL
REMARK 923 INTER-LIGAND FREE ENERGY PREDICTED BY IDOCK:   -4.95 KCAL/MOL
REMARK 924 INTRA-LIGAND FREE ENERGY PREDICTED BY IDOCK:   -0.47 KCAL/MOL
REMARK 927      BINDING AFFINITY PREDICTED BY RF-SCORE:    0.00 PKD
ROOT
HETATM    1  O   UNL     1      -9.143  14.215  69.348  1.00  0.00    -0.329 OA 
HETATM    2  C   UNL     1      -9.349  14.608  67.989  1.00  0.00    -0.198 C  
HETATM    3  H   UNL     1      -9.371  14.950  69.905  1.00  0.00     0.000 HD 
HETATM    4  C   UNL     1      -8.418  15.801  67.680  1.00  0.00    -0.171 A  
HETATM    5  C   UNL     1     -10.875  14.969  67.753  1.00  0.00    -0.284 C  
HETATM    6  C   UNL     1      -8.976  13.406  67.077  1.00  0.00    -0.228 C  
HETATM    7  C   UNL     1     -11.576  15.945  70.021  1.00  0.00    -0.346 C  
HETATM    8  C   UNL     1     -11.888  13.824  67.998  1.00  0.00    -0.408 C  
HETATM    9  C   UNL     1      -7.563  16.333  68.663  1.00  0.00    -0.188 A  
HETATM   10  C   UNL     1      -6.664  17.364  68.368  1.00  0.00    -0.187 A  
HETATM   11  C   UNL     1     -11.391  16.194  68.530  1.00  0.00    -0.359 C  
HETATM   12  C   UNL     1     -12.146  13.489  69.463  1.00  0.00    -0.352 C  
HETATM   13  C   UNL     1     -12.418  14.710  70.336  1.00  0.00    -0.410 C  
HETATM   14  C   UNL     1      -6.604  17.889  67.081  1.00  0.00    -0.196 A  
HETATM   15  C   UNL     1      -8.349  16.359  66.391  1.00  0.00    -0.363 A  
HETATM   16  C   UNL     1      -7.449  17.393  66.094  1.00  0.00    -0.331 A  
ENDROOT
BRANCH   6  17
HETATM   17  C   UNL     1      -7.521  12.917  67.150  1.00  0.00    -0.006 C  
BRANCH  17  18
HETATM   18  N   UNL     1      -7.490  11.456  67.345  1.00  0.00    -0.112 NA 
HETATM   19  C   UNL     1      -8.797  10.891  67.689  1.00  0.00    -0.133 C  
HETATM   20  C   UNL     1      -8.621   9.418  67.389  1.00  0.00    -0.125 C  
HETATM   21  C   UNL     1      -7.785   9.420  66.124  1.00  0.00    -0.100 C  
HETATM   22  C   UNL     1      -7.021  10.742  66.150  1.00  0.00    -0.124 C  
ENDBRANCH  17  18
ENDBRANCH   6  17
TORSDOF 2
ENDMDL
MODEL       94
REMARK 921   NORMALIZED FREE ENERGY PREDICTED BY IDOCK:   -4.25 KCAL/MOL
REMARK 922        TOTAL FREE ENERGY PREDICTED BY IDOCK:   -5.42 KCAL/MOL
REMARK 923 INTER-LIGAND FREE ENERGY PREDICTED BY IDOCK:   -5.07 KCAL/MOL
REMARK 924 INTRA-LIGAND FREE ENERGY PREDICTED BY IDOCK:   -0.35 KCAL/MOL
REMARK 927      BINDING AFFINITY PREDICTED BY RF-SCORE:    0.00 PKD
ROOT
HETATM    1  O   UNL     1     -10.496   7.808  66.350  1.00  0.00    -0.480 OA 
HETATM    2  C   UNL     1      -9.612   8.668  67.073  1.00  0.00    -0.182 C  
HETATM    3  H   UNL     1     -10.009   7.035  66.090  1.00  0.00     0.000 HD 
HETATM    4  C   UNL     1      -8.455   9.076  66.135  1.00  0.00    -0.135 A  
HETATM    5  C   UNL     1      -9.089   7.935  68.378  1.00  0.00    -0.135 C  
HETATM    6  C   UNL     1     -10.410   9.933  67.498  1.00  0.00    -0.289 C  
HETATM    7  C   UNL     1      -8.986   5.480  67.639  1.00  0.00    -0.108 C  
HETATM    8  C   UNL     1     -10.173   7.521  69.403  1.00  0.00    -0.204 C  
HETATM    9  C   UNL     1      -8.386   8.602  64.812  1.00  0.00    -0.167 A  
HETATM   10  C   UNL     1      -7.381   9.028  63.936  1.00  0.00    -0.097 A  
HETATM   11  C   UNL     1      -8.211   6.695  68.133  1.00  0.00    -0.114 C  
HETATM   12  C   UNL     1     -11.013   6.311  69.005  1.00  0.00    -0.437 C  
HETATM   13  C   UNL     1     -10.190   5.127  68.509  1.00  0.00    -0.182 C  
HETATM   14  C   UNL     1      -6.419   9.935  64.367  1.00  0.00    -0.125 A  
HETATM   15  C   UNL     1      -7.462   9.980  66.552  1.00  0.00    -0.105 A  
HETATM   16  C   UNL     1      -6.454  10.407  65.675  1.00  0.00    -0.125 A  
ENDROOT
BRANCH   6  17
HETATM   17  C   UNL     1     -10.985  10.793  66.362  1.00  0.00    -0.038 C  
BRANCH  17  18
HETATM   18  N   UNL     1     -11.822  11.871  66.920  1.00  0.00    -0.610 NA 
HETATM   19  C   UNL     1     -11.268  12.456  68.145  1.00  0.00    -0.265 C  
HETATM   20  C   UNL     1     -12.006  13.772  68.257  1.00  0.00    -0.392 C  
HETATM   21  C   UNL     1     -12.089  14.246  66.819  1.00  0.00    -0.446 C  
HETATM   22  C   UNL     1     -12.015  12.976  65.974  1.00  0.00    -0.440 C  
ENDBRANCH  17  18
ENDBRANCH   6  17
TORSDOF 2
ENDMDL
MODEL       95
REMARK 921   NORMALIZED FREE ENERGY PREDICTED BY IDOCK:   -4.24 KCAL/MOL
REMARK 922        TOTAL FREE ENERGY PREDICTED BY IDOCK:   -5.42 KCAL/MOL
REMARK 923 INTER-LIGAND FREE ENERGY PREDICTED BY IDOCK:   -4.74 KCAL/MOL
REMARK 924 INTRA-LIGAND FREE ENERGY PREDICTED BY IDOCK:   -0.68 KCAL/MOL
REMARK 927      BINDING AFFINITY PREDICTED BY RF-SCORE:    0.00 PKD
ROOT
HETATM    1  O   UNL     1      -9.422   6.778  70.181  1.00  0.00    -0.158 OA 
HETATM    2  C   UNL     1     -10.541   7.403  69.549  1.00  0.00    -0.237 C  
HETATM    3  H   UNL     1      -9.013   7.415  70.755  1.00  0.00     0.000 HD 
HETATM    4  C   UNL     1     -10.026   8.595  68.714  1.00  0.00    -0.194 A  
HETATM    5  C   UNL     1     -11.599   7.855  70.641  1.00  0.00    -0.215 C  
HETATM    6  C   UNL     1     -11.211   6.360  68.610  1.00  0.00    -0.338 C  
HETATM    7  C   UNL     1     -10.112   8.457  72.645  1.00  0.00    -0.322 C  
HETATM    8  C   UNL     1     -12.206   6.723  71.505  1.00  0.00    -0.413 C  
HETATM    9  C   UNL     1      -8.658   8.921  68.673  1.00  0.00    -0.133 A  
HETATM   10  C   UNL     1      -8.178   9.953  67.860  1.00  0.00    -0.113 A  
HETATM   11  C   UNL     1     -11.119   8.949  71.612  1.00  0.00    -0.420 C  
HETATM   12  C   UNL     1     -11.278   6.154  72.573  1.00  0.00    -0.327 C  
HETATM   13  C   UNL     1     -10.575   7.219  73.409  1.00  0.00    -0.435 C  
HETATM   14  C   UNL     1      -9.058  10.687  67.071  1.00  0.00    -0.155 A  
HETATM   15  C   UNL     1     -10.898   9.362  67.920  1.00  0.00    -0.215 A  
HETATM   16  C   UNL     1     -10.418  10.396  67.104  1.00  0.00    -0.311 A  
ENDROOT
BRANCH   6  17
HETATM   17  C   UNL     1     -10.343   5.812  67.467  1.00  0.00    -0.220 C  
BRANCH  17  18
HETATM   18  N   UNL     1      -9.235   5.009  68.015  1.00  0.00    -0.115 NA 
HETATM   19  C   UNL     1      -9.417   3.567  67.828  1.00  0.00    -0.178 C  
HETATM   20  C   UNL     1      -8.022   3.018  68.030  1.00  0.00    -0.068 C  
HETATM   21  C   UNL     1      -7.141   4.054  67.361  1.00  0.00    -0.066 C  
HETATM   22  C   UNL     1      -7.941   5.354  67.411  1.00  0.00    -0.101 C  
ENDBRANCH  17  18
ENDBRANCH   6  17
TORSDOF 2
ENDMDL
MODEL       96
REMARK 921   NORMALIZED FREE ENERGY PREDICTED BY IDOCK:   -4.24 KCAL/MOL
REMARK 922        TOTAL FREE ENERGY PREDICTED BY IDOCK:   -5.41 KCAL/MOL
REMARK 923 INTER-LIGAND FREE ENERGY PREDICTED BY IDOCK:   -4.96 KCAL/MOL
REMARK 924 INTRA-LIGAND FREE ENERGY PREDICTED BY IDOCK:   -0.45 KCAL/MOL
REMARK 927      BINDING AFFINITY PREDICTED BY RF-SCORE:    0.00 PKD
ROOT
HETATM    1  O   UNL     1      -8.519   7.284  68.705  1.00  0.00    -0.128 OA 
HETATM    2  C   UNL     1      -9.917   6.982  68.721  1.00  0.00    -0.160 C  
HETATM    3  H   UNL     1      -8.081   6.685  69.298  1.00  0.00     0.000 HD 
HETATM    4  C   UNL     1     -10.445   7.197  70.156  1.00  0.00    -0.231 A  
HETATM    5  C   UNL     1     -10.158   5.500  68.214  1.00  0.00    -0.226 C  
HETATM    6  C   UNL     1     -10.633   7.963  67.750  1.00  0.00    -0.244 C  
HETATM    7  C   UNL     1      -8.056   4.277  69.037  1.00  0.00    -0.073 C  
HETATM    8  C   UNL     1      -9.697   5.195  66.767  1.00  0.00    -0.178 C  
HETATM    9  C   UNL     1      -9.590   7.609  71.195  1.00  0.00    -0.168 A  
HETATM   10  C   UNL     1     -10.078   7.875  72.479  1.00  0.00    -0.325 A  
HETATM   11  C   UNL     1      -9.574   4.392  69.110  1.00  0.00    -0.252 C  
HETATM   12  C   UNL     1      -8.190   5.062  66.581  1.00  0.00    -0.108 C  
HETATM   13  C   UNL     1      -7.518   4.162  67.613  1.00  0.00    -0.069 C  
HETATM   14  C   UNL     1     -11.434   7.732  72.754  1.00  0.00    -0.415 A  
HETATM   15  C   UNL     1     -11.809   7.043  70.463  1.00  0.00    -0.337 A  
HETATM   16  C   UNL     1     -12.299   7.310  71.749  1.00  0.00    -0.375 A  
ENDROOT
BRANCH   6  17
HETATM   17  C   UNL     1     -10.529   9.459  68.088  1.00  0.00    -0.220 C  
BRANCH  17  18
HETATM   18  N   UNL     1     -10.049  10.208  66.913  1.00  0.00    -0.213 NA 
HETATM   19  C   UNL     1      -9.832   9.361  65.736  1.00  0.00    -0.275 C  
HETATM   20  C   UNL     1      -9.802  10.359  64.599  1.00  0.00    -0.405 C  
HETATM   21  C   UNL     1     -10.878  11.355  64.984  1.00  0.00    -0.311 C  
HETATM   22  C   UNL     1     -10.980  11.267  66.505  1.00  0.00    -0.245 C  
ENDBRANCH  17  18
ENDBRANCH   6  17
TORSDOF 2
ENDMDL
MODEL       97
REMARK 921   NORMALIZED FREE ENERGY PREDICTED BY IDOCK:   -4.23 KCAL/MOL
REMARK 922        TOTAL FREE ENERGY PREDICTED BY IDOCK:   -5.41 KCAL/MOL
REMARK 923 INTER-LIGAND FREE ENERGY PREDICTED BY IDOCK:   -5.10 KCAL/MOL
REMARK 924 INTRA-LIGAND FREE ENERGY PREDICTED BY IDOCK:   -0.30 KCAL/MOL
REMARK 927      BINDING AFFINITY PREDICTED BY RF-SCORE:    0.00 PKD
ROOT
HETATM    1  O   UNL     1      -9.790  12.778  68.997  1.00  0.00    -0.406 OA 
HETATM    2  C   UNL     1     -10.061  11.750  68.041  1.00  0.00    -0.192 C  
HETATM    3  H   UNL     1      -9.134  13.358  68.629  1.00  0.00     0.000 HD 
HETATM    4  C   UNL     1      -8.756  10.962  67.790  1.00  0.00    -0.129 A  
HETATM    5  C   UNL     1     -10.638  12.386  66.709  1.00  0.00    -0.250 C  
HETATM    6  C   UNL     1     -11.134  10.801  68.645  1.00  0.00    -0.312 C  
HETATM    7  C   UNL     1      -9.436  14.651  66.603  1.00  0.00    -0.297 C  
HETATM    8  C   UNL     1     -11.968  13.164  66.849  1.00  0.00    -0.421 C  
HETATM    9  C   UNL     1      -7.559  11.305  68.444  1.00  0.00    -0.120 A  
HETATM   10  C   UNL     1      -6.393  10.550  68.276  1.00  0.00    -0.054 A  
HETATM   11  C   UNL     1      -9.667  13.299  65.939  1.00  0.00    -0.188 C  
HETATM   12  C   UNL     1     -11.851  14.535  67.507  1.00  0.00    -0.404 C  
HETATM   13  C   UNL     1     -10.725  15.395  66.943  1.00  0.00    -0.314 C  
HETATM   14  C   UNL     1      -6.399   9.434  67.446  1.00  0.00    -0.062 A  
HETATM   15  C   UNL     1      -8.733   9.839  66.943  1.00  0.00    -0.143 A  
HETATM   16  C   UNL     1      -7.565   9.081  66.774  1.00  0.00    -0.090 A  
ENDROOT
BRANCH   6  17
HETATM   17  C   UNL     1     -10.751  10.070  69.941  1.00  0.00    -0.286 C  
BRANCH  17  18
HETATM   18  N   UNL     1     -11.952   9.482  70.562  1.00  0.00    -0.191 NA 
HETATM   19  C   UNL     1     -11.646   8.406  71.509  1.00  0.00    -0.284 C  
HETATM   20  C   UNL     1     -12.919   8.295  72.320  1.00  0.00    -0.289 C  
HETATM   21  C   UNL     1     -13.354   9.738  72.484  1.00  0.00    -0.242 C  
HETATM   22  C   UNL     1     -12.747  10.477  71.294  1.00  0.00    -0.428 C  
ENDBRANCH  17  18
ENDBRANCH   6  17
TORSDOF 2
ENDMDL
MODEL       98
REMARK 921   NORMALIZED FREE ENERGY PREDICTED BY IDOCK:   -4.22 KCAL/MOL
REMARK 922        TOTAL FREE ENERGY PREDICTED BY IDOCK:   -5.39 KCAL/MOL
REMARK 923 INTER-LIGAND FREE ENERGY PREDICTED BY IDOCK:   -4.88 KCAL/MOL
REMARK 924 INTRA-LIGAND FREE ENERGY PREDICTED BY IDOCK:   -0.51 KCAL/MOL
REMARK 927      BINDING AFFINITY PREDICTED BY RF-SCORE:    0.00 PKD
ROOT
HETATM    1  O   UNL     1      -9.023   7.787  69.560  1.00  0.00    -0.142 OA 
HETATM    2  C   UNL     1     -10.321   8.246  69.176  1.00  0.00    -0.217 C  
HETATM    3  H   UNL     1      -8.742   8.291  70.315  1.00  0.00     0.000 HD 
HETATM    4  C   UNL     1     -10.216   9.739  68.793  1.00  0.00    -0.210 A  
HETATM    5  C   UNL     1     -11.352   8.007  70.356  1.00  0.00    -0.190 C  
HETATM    6  C   UNL     1     -10.779   7.422  67.940  1.00  0.00    -0.217 C  
HETATM    7  C   UNL     1      -9.893   8.314  72.446  1.00  0.00    -0.375 C  
HETATM    8  C   UNL     1     -11.559   6.535  70.788  1.00  0.00    -0.437 C  
HETATM    9  C   UNL     1      -8.990  10.426  68.864  1.00  0.00    -0.170 A  
HETATM   10  C   UNL     1      -8.875  11.757  68.448  1.00  0.00    -0.161 A  
HETATM   11  C   UNL     1     -11.086   8.814  71.640  1.00  0.00    -0.398 C  
HETATM   12  C   UNL     1     -10.418   5.931  71.601  1.00  0.00    -0.285 C  
HETATM   13  C   UNL     1      -9.942   6.818  72.747  1.00  0.00    -0.190 C  
HETATM   14  C   UNL     1      -9.986  12.432  67.953  1.00  0.00    -0.204 A  
HETATM   15  C   UNL     1     -11.328  10.447  68.304  1.00  0.00    -0.292 A  
HETATM   16  C   UNL     1     -11.214  11.781  67.887  1.00  0.00    -0.331 A  
ENDROOT
BRANCH   6  17
HETATM   17  C   UNL     1      -9.910   7.539  66.679  1.00  0.00    -0.204 C  
BRANCH  17  18
HETATM   18  N   UNL     1      -9.476   6.200  66.240  1.00  0.00    -0.145 NA 
HETATM   19  C   UNL     1      -8.139   5.840  66.720  1.00  0.00    -0.102 C  
HETATM   20  C   UNL     1      -8.112   4.336  66.554  1.00  0.00    -0.102 C  
HETATM   21  C   UNL     1      -9.513   3.918  66.955  1.00  0.00    -0.225 C  
HETATM   22  C   UNL     1     -10.387   5.141  66.692  1.00  0.00    -0.281 C  
ENDBRANCH  17  18
ENDBRANCH   6  17
TORSDOF 2
ENDMDL
MODEL       99
REMARK 921   NORMALIZED FREE ENERGY PREDICTED BY IDOCK:   -4.18 KCAL/MOL
REMARK 922        TOTAL FREE ENERGY PREDICTED BY IDOCK:   -5.35 KCAL/MOL
REMARK 923 INTER-LIGAND FREE ENERGY PREDICTED BY IDOCK:   -4.87 KCAL/MOL
REMARK 924 INTRA-LIGAND FREE ENERGY PREDICTED BY IDOCK:   -0.48 KCAL/MOL
REMARK 927      BINDING AFFINITY PREDICTED BY RF-SCORE:    0.00 PKD
ROOT
HETATM    1  O   UNL     1      -8.656   7.758  68.761  1.00  0.00    -0.128 OA 
HETATM    2  C   UNL     1      -9.786   7.344  67.990  1.00  0.00    -0.148 C  
HETATM    3  H   UNL     1      -7.958   7.990  68.160  1.00  0.00     0.000 HD 
HETATM    4  C   UNL     1      -9.384   6.105  67.161  1.00  0.00    -0.124 A  
HETATM    5  C   UNL     1     -10.284   8.537  67.072  1.00  0.00    -0.371 C  
HETATM    6  C   UNL     1     -10.929   6.965  68.974  1.00  0.00    -0.225 C  
HETATM    7  C   UNL     1      -8.100   9.768  66.521  1.00  0.00    -0.116 C  
HETATM    8  C   UNL     1     -10.749   9.815  67.813  1.00  0.00    -0.329 C  
HETATM    9  C   UNL     1      -8.083   5.573  67.229  1.00  0.00    -0.101 A  
HETATM   10  C   UNL     1      -7.735   4.407  66.538  1.00  0.00    -0.094 A  
HETATM   11  C   UNL     1      -9.294   8.990  65.983  1.00  0.00    -0.305 C  
HETATM   12  C   UNL     1      -9.629  10.670  68.396  1.00  0.00    -0.170 C  
HETATM   13  C   UNL     1      -8.488  10.940  67.421  1.00  0.00    -0.120 C  
HETATM   14  C   UNL     1      -8.681   3.749  65.759  1.00  0.00    -0.116 A  
HETATM   15  C   UNL     1     -10.318   5.431  66.355  1.00  0.00    -0.298 A  
HETATM   16  C   UNL     1      -9.970   4.263  65.661  1.00  0.00    -0.233 A  
ENDROOT
BRANCH   6  17
HETATM   17  C   UNL     1     -10.642   5.806  69.942  1.00  0.00    -0.318 C  
BRANCH  17  18
HETATM   18  N   UNL     1     -11.047   6.180  71.309  1.00  0.00    -0.284 NA 
HETATM   19  C   UNL     1      -9.928   6.636  72.139  1.00  0.00    -0.160 C  
HETATM   20  C   UNL     1     -10.619   7.368  73.268  1.00  0.00    -0.442 C  
HETATM   21  C   UNL     1     -11.761   8.082  72.572  1.00  0.00    -0.446 C  
HETATM   22  C   UNL     1     -12.048   7.253  71.322  1.00  0.00    -0.338 C  
ENDBRANCH  17  18
ENDBRANCH   6  17
TORSDOF 2
ENDMDL
MODEL      100
REMARK 921   NORMALIZED FREE ENERGY PREDICTED BY IDOCK:   -4.17 KCAL/MOL
REMARK 922        TOTAL FREE ENERGY PREDICTED BY IDOCK:   -5.34 KCAL/MOL
REMARK 923 INTER-LIGAND FREE ENERGY PREDICTED BY IDOCK:   -5.01 KCAL/MOL
REMARK 924 INTRA-LIGAND FREE ENERGY PREDICTED BY IDOCK:   -0.33 KCAL/MOL
REMARK 927      BINDING AFFINITY PREDICTED BY RF-SCORE:    0.00 PKD
ROOT
HETATM    1  O   UNL     1     -11.521   8.770  69.339  1.00  0.00    -0.385 OA 
HETATM    2  C   UNL     1     -10.535   7.949  69.968  1.00  0.00    -0.231 C  
HETATM    3  H   UNL     1     -12.317   8.259  69.250  1.00  0.00     0.000 HD 
HETATM    4  C   UNL     1     -10.268   6.727  69.063  1.00  0.00    -0.191 A  
HETATM    5  C   UNL     1     -11.026   7.522  71.414  1.00  0.00    -0.254 C  
HETATM    6  C   UNL     1      -9.232   8.785  70.113  1.00  0.00    -0.179 C  
HETATM    7  C   UNL     1     -13.569   7.345  71.111  1.00  0.00    -0.247 C  
HETATM    8  C   UNL     1     -11.283   8.677  72.411  1.00  0.00    -0.339 C  
HETATM    9  C   UNL     1     -10.956   6.554  67.848  1.00  0.00    -0.382 A  
HETATM   10  C   UNL     1     -10.665   5.488  66.989  1.00  0.00    -0.286 A  
HETATM   11  C   UNL     1     -12.273   6.618  71.447  1.00  0.00    -0.378 C  
HETATM   12  C   UNL     1     -12.559   9.476  72.164  1.00  0.00    -0.411 C  
HETATM   13  C   UNL     1     -13.794   8.610  71.937  1.00  0.00    -0.481 C  
HETATM   14  C   UNL     1      -9.678   4.568  67.329  1.00  0.00    -0.221 A  
HETATM   15  C   UNL     1      -9.286   5.774  69.393  1.00  0.00    -0.151 A  
HETATM   16  C   UNL     1      -8.994   4.706  68.533  1.00  0.00    -0.139 A  
ENDROOT
BRANCH   6  17
HETATM   17  C   UNL     1      -8.587   9.278  68.808  1.00  0.00    -0.131 C  
BRANCH  17  18
HETATM   18  N   UNL     1      -8.240  10.706  68.927  1.00  0.00    -0.137 NA 
HETATM   19  C   UNL     1      -7.010  10.941  69.690  1.00  0.00    -0.128 C  
HETATM   20  C   UNL     1      -6.628  12.350  69.294  1.00  0.00    -0.093 C  
HETATM   21  C   UNL     1      -6.966  12.399  67.817  1.00  0.00    -0.118 C  
HETATM   22  C   UNL     1      -8.056  11.348  67.620  1.00  0.00    -0.124 C  
ENDBRANCH  17  18
ENDBRANCH   6  17
TORSDOF 2
ENDMDL
MODEL      101
REMARK 921   NORMALIZED FREE ENERGY PREDICTED BY IDOCK:   -4.17 KCAL/MOL
REMARK 922        TOTAL FREE ENERGY PREDICTED BY IDOCK:   -5.33 KCAL/MOL
REMARK 923 INTER-LIGAND FREE ENERGY PREDICTED BY IDOCK:   -4.81 KCAL/MOL
REMARK 924 INTRA-LIGAND FREE ENERGY PREDICTED BY IDOCK:   -0.52 KCAL/MOL
REMARK 927      BINDING AFFINITY PREDICTED BY RF-SCORE:    0.00 PKD
ROOT
HETATM    1  O   UNL     1     -11.945   9.761  68.364  1.00  0.00    -0.128 OA 
HETATM    2  C   UNL     1     -10.627   9.720  68.914  1.00  0.00    -0.218 C  
HETATM    3  H   UNL     1     -12.361   8.923  68.531  1.00  0.00     0.000 HD 
HETATM    4  C   UNL     1      -9.837   8.599  68.204  1.00  0.00    -0.192 A  
HETATM    5  C   UNL     1     -10.699   9.495  70.482  1.00  0.00    -0.359 C  
HETATM    6  C   UNL     1      -9.946  11.091  68.640  1.00  0.00    -0.205 C  
HETATM    7  C   UNL     1     -12.789   8.027  70.741  1.00  0.00     0.249 C  
HETATM    8  C   UNL     1     -11.438  10.588  71.291  1.00  0.00     0.026 C  
HETATM    9  C   UNL     1     -10.432   7.807  67.205  1.00  0.00    -0.413 A  
HETATM   10  C   UNL     1      -9.700   6.841  66.507  1.00  0.00    -0.183 A  
HETATM   11  C   UNL     1     -11.281   8.141  70.928  1.00  0.00    -0.286 C  
HETATM   12  C   UNL     1     -12.958  10.568  71.171  1.00  0.00    -0.506 C  
HETATM   13  C   UNL     1     -13.572   9.184  71.358  1.00  0.00    -0.348 C  
HETATM   14  C   UNL     1      -8.354   6.642  66.796  1.00  0.00    -0.115 A  
HETATM   15  C   UNL     1      -8.479   8.369  68.489  1.00  0.00    -0.132 A  
HETATM   16  C   UNL     1      -7.744   7.401  67.790  1.00  0.00    -0.112 A  
ENDROOT
BRANCH   6  17
HETATM   17  C   UNL     1      -9.767  11.483  67.165  1.00  0.00    -0.183 C  
BRANCH  17  18
HETATM   18  N   UNL     1     -10.370  12.806  66.919  1.00  0.00    -0.237 NA 
HETATM   19  C   UNL     1     -11.685  12.732  66.275  1.00  0.00    -0.402 C  
HETATM   20  C   UNL     1     -12.273  14.099  66.543  1.00  0.00    -0.463 C  
HETATM   21  C   UNL     1     -11.819  14.401  67.958  1.00  0.00    -0.361 C  
HETATM   22  C   UNL     1     -10.548  13.578  68.155  1.00  0.00    -0.245 C  
ENDBRANCH  17  18
ENDBRANCH   6  17
TORSDOF 2
ENDMDL
MODEL      102
REMARK 921   NORMALIZED FREE ENERGY PREDICTED BY IDOCK:   -4.15 KCAL/MOL
REMARK 922        TOTAL FREE ENERGY PREDICTED BY IDOCK:   -5.32 KCAL/MOL
REMARK 923 INTER-LIGAND FREE ENERGY PREDICTED BY IDOCK:   -4.45 KCAL/MOL
REMARK 924 INTRA-LIGAND FREE ENERGY PREDICTED BY IDOCK:   -0.87 KCAL/MOL
REMARK 927      BINDING AFFINITY PREDICTED BY RF-SCORE:    0.00 PKD
ROOT
HETATM    1  O   UNL     1      -9.070  10.796  66.336  1.00  0.00    -0.163 OA 
HETATM    2  C   UNL     1      -9.305  10.592  67.731  1.00  0.00    -0.146 C  
HETATM    3  H   UNL     1      -9.905  10.751  65.886  1.00  0.00     0.000 HD 
HETATM    4  C   UNL     1      -9.920   9.189  67.921  1.00  0.00    -0.228 A  
HETATM    5  C   UNL     1     -10.246  11.736  68.296  1.00  0.00    -0.209 C  
HETATM    6  C   UNL     1      -7.937  10.665  68.467  1.00  0.00    -0.122 C  
HETATM    7  C   UNL     1     -11.755  12.262  66.288  1.00  0.00    -0.431 C  
HETATM    8  C   UNL     1      -9.698  13.180  68.188  1.00  0.00    -0.228 C  
HETATM    9  C   UNL     1     -10.174   8.348  66.823  1.00  0.00    -0.376 A  
HETATM   10  C   UNL     1     -10.663   7.048  66.995  1.00  0.00    -0.423 A  
HETATM   11  C   UNL     1     -11.675  11.758  67.724  1.00  0.00    -0.337 C  
HETATM   12  C   UNL     1      -9.729  13.782  66.787  1.00  0.00    -0.277 C  
HETATM   13  C   UNL     1     -11.064  13.606  66.071  1.00  0.00    -0.297 C  
HETATM   14  C   UNL     1     -10.912   6.562  68.275  1.00  0.00    -0.362 A  
HETATM   15  C   UNL     1     -10.196   8.680  69.204  1.00  0.00    -0.215 A  
HETATM   16  C   UNL     1     -10.686   7.378  69.378  1.00  0.00    -0.220 A  
ENDROOT
BRANCH   6  17
HETATM   17  C   UNL     1      -6.888   9.616  68.067  1.00  0.00    -0.073 C  
BRANCH  17  18
HETATM   18  N   UNL     1      -6.446   8.867  69.257  1.00  0.00    -0.042 NA 
HETATM   19  C   UNL     1      -6.997   9.393  70.510  1.00  0.00    -0.105 C  
HETATM   20  C   UNL     1      -6.799   8.247  71.477  1.00  0.00    -0.066 C  
HETATM   21  C   UNL     1      -7.104   7.024  70.634  1.00  0.00    -0.067 C  
HETATM   22  C   UNL     1      -6.817   7.448  69.195  1.00  0.00    -0.060 C  
ENDBRANCH  17  18
ENDBRANCH   6  17
TORSDOF 2
ENDMDL
MODEL      103
REMARK 921   NORMALIZED FREE ENERGY PREDICTED BY IDOCK:   -4.10 KCAL/MOL
REMARK 922        TOTAL FREE ENERGY PREDICTED BY IDOCK:   -5.26 KCAL/MOL
REMARK 923 INTER-LIGAND FREE ENERGY PREDICTED BY IDOCK:   -4.45 KCAL/MOL
REMARK 924 INTRA-LIGAND FREE ENERGY PREDICTED BY IDOCK:   -0.81 KCAL/MOL
REMARK 927      BINDING AFFINITY PREDICTED BY RF-SCORE:    0.00 PKD
ROOT
HETATM    1  O   UNL     1      -8.103   9.513  68.093  1.00  0.00    -0.101 OA 
HETATM    2  C   UNL     1      -9.350   9.168  68.701  1.00  0.00    -0.135 C  
HETATM    3  H   UNL     1      -8.101   9.168  67.208  1.00  0.00     0.000 HD 
HETATM    4  C   UNL     1      -9.462   7.629  68.745  1.00  0.00    -0.152 A  
HETATM    5  C   UNL     1     -10.546   9.829  67.898  1.00  0.00    -0.310 C  
HETATM    6  C   UNL     1      -9.352   9.732  70.151  1.00  0.00    -0.261 C  
HETATM    7  C   UNL     1      -9.672   9.821  65.485  1.00  0.00    -0.382 C  
HETATM    8  C   UNL     1     -10.545  11.376  67.832  1.00  0.00    -0.224 C  
HETATM    9  C   UNL     1      -8.444   6.808  68.226  1.00  0.00    -0.125 A  
HETATM   10  C   UNL     1      -8.507   5.414  68.329  1.00  0.00    -0.097 A  
HETATM   11  C   UNL     1     -10.734   9.322  66.457  1.00  0.00     0.010 C  
HETATM   12  C   UNL     1      -9.514  11.984  66.887  1.00  0.00    -0.206 C  
HETATM   13  C   UNL     1      -9.488  11.337  65.506  1.00  0.00    -0.255 C  
HETATM   14  C   UNL     1      -9.594   4.809  68.952  1.00  0.00    -0.229 A  
HETATM   15  C   UNL     1     -10.558   6.993  69.355  1.00  0.00    -0.248 A  
HETATM   16  C   UNL     1     -10.622   5.597  69.459  1.00  0.00    -0.384 A  
ENDROOT
BRANCH   6  17
HETATM   17  C   UNL     1      -8.268   9.192  71.097  1.00  0.00    -0.087 C  
BRANCH  17  18
HETATM   18  N   UNL     1      -8.895   8.543  72.262  1.00  0.00    -0.291 NA 
HETATM   19  C   UNL     1     -10.353   8.695  72.294  1.00  0.00    -0.306 C  
HETATM   20  C   UNL     1     -10.787   7.611  73.257  1.00  0.00    -0.379 C  
HETATM   21  C   UNL     1      -9.865   6.456  72.918  1.00  0.00    -0.176 C  
HETATM   22  C   UNL     1      -8.619   7.101  72.315  1.00  0.00    -0.116 C  
ENDBRANCH  17  18
ENDBRANCH   6  17
TORSDOF 2
ENDMDL
MODEL      104
REMARK 921   NORMALIZED FREE ENERGY PREDICTED BY IDOCK:   -4.10 KCAL/MOL
REMARK 922        TOTAL FREE ENERGY PREDICTED BY IDOCK:   -5.26 KCAL/MOL
REMARK 923 INTER-LIGAND FREE ENERGY PREDICTED BY IDOCK:   -4.48 KCAL/MOL
REMARK 924 INTRA-LIGAND FREE ENERGY PREDICTED BY IDOCK:   -0.77 KCAL/MOL
REMARK 927      BINDING AFFINITY PREDICTED BY RF-SCORE:    0.00 PKD
ROOT
HETATM    1  O   UNL     1      -9.379  10.723  69.711  1.00  0.00    -0.387 OA 
HETATM    2  C   UNL     1      -9.703   9.343  69.526  1.00  0.00    -0.183 C  
HETATM    3  H   UNL     1      -8.504  10.869  69.372  1.00  0.00     0.000 HD 
HETATM    4  C   UNL     1      -8.691   8.494  70.325  1.00  0.00    -0.144 A  
HETATM    5  C   UNL     1      -9.693   8.985  67.982  1.00  0.00    -0.179 C  
HETATM    6  C   UNL     1     -11.136   9.106  70.082  1.00  0.00    -0.248 C  
HETATM    7  C   UNL     1      -7.860  10.528  67.062  1.00  0.00    -0.114 C  
HETATM    8  C   UNL     1     -10.704   9.756  67.100  1.00  0.00    -0.273 C  
HETATM    9  C   UNL     1      -7.655   9.095  71.063  1.00  0.00    -0.124 A  
HETATM   10  C   UNL     1      -6.781   8.335  71.848  1.00  0.00    -0.076 A  
HETATM   11  C   UNL     1      -8.323   9.094  67.288  1.00  0.00    -0.121 C  
HETATM   12  C   UNL     1     -10.338  11.208  66.812  1.00  0.00    -0.284 C  
HETATM   13  C   UNL     1      -8.895  11.401  66.357  1.00  0.00    -0.193 C  
HETATM   14  C   UNL     1      -6.922   6.952  71.909  1.00  0.00    -0.069 A  
HETATM   15  C   UNL     1      -8.803   7.093  70.390  1.00  0.00    -0.151 A  
HETATM   16  C   UNL     1      -7.928   6.330  71.176  1.00  0.00    -0.116 A  
ENDROOT
BRANCH   6  17
HETATM   17  C   UNL     1     -11.344   9.383  71.579  1.00  0.00    -0.394 C  
BRANCH  17  18
HETATM   18  N   UNL     1     -11.781   8.152  72.263  1.00  0.00    -0.354 NA 
HETATM   19  C   UNL     1     -11.970   7.020  71.351  1.00  0.00    -0.340 C  
HETATM   20  C   UNL     1     -11.954   5.827  72.282  1.00  0.00    -0.147 C  
HETATM   21  C   UNL     1     -10.881   6.188  73.290  1.00  0.00    -0.268 C  
HETATM   22  C   UNL     1     -10.826   7.714  73.289  1.00  0.00    -0.321 C  
ENDBRANCH  17  18
ENDBRANCH   6  17
TORSDOF 2
ENDMDL
MODEL      105
REMARK 921   NORMALIZED FREE ENERGY PREDICTED BY IDOCK:   -4.04 KCAL/MOL
REMARK 922        TOTAL FREE ENERGY PREDICTED BY IDOCK:   -5.20 KCAL/MOL
REMARK 923 INTER-LIGAND FREE ENERGY PREDICTED BY IDOCK:   -4.88 KCAL/MOL
REMARK 924 INTRA-LIGAND FREE ENERGY PREDICTED BY IDOCK:   -0.31 KCAL/MOL
REMARK 927      BINDING AFFINITY PREDICTED BY RF-SCORE:    0.00 PKD
ROOT
HETATM    1  O   UNL     1      -9.184  12.438  68.531  1.00  0.00    -0.321 OA 
HETATM    2  C   UNL     1      -9.746  11.630  67.494  1.00  0.00    -0.177 C  
HETATM    3  H   UNL     1      -8.738  13.171  68.124  1.00  0.00     0.000 HD 
HETATM    4  C   UNL     1      -8.596  11.109  66.605  1.00  0.00    -0.165 A  
HETATM    5  C   UNL     1     -10.805  12.470  66.666  1.00  0.00    -0.277 C  
HETATM    6  C   UNL     1     -10.476  10.429  68.160  1.00  0.00    -0.221 C  
HETATM    7  C   UNL     1      -9.828  14.842  66.751  1.00  0.00    -0.254 C  
HETATM    8  C   UNL     1     -12.020  13.005  67.462  1.00  0.00    -0.360 C  
HETATM    9  C   UNL     1      -7.257  11.453  66.866  1.00  0.00    -0.144 A  
HETATM   10  C   UNL     1      -6.207  10.924  66.109  1.00  0.00    -0.130 A  
HETATM   11  C   UNL     1     -10.231  13.661  65.877  1.00  0.00    -0.318 C  
HETATM   12  C   UNL     1     -11.726  14.190  68.376  1.00  0.00    -0.380 C  
HETATM   13  C   UNL     1     -10.929  15.303  67.703  1.00  0.00    -0.311 C  
HETATM   14  C   UNL     1      -6.473  10.039  65.069  1.00  0.00    -0.117 A  
HETATM   15  C   UNL     1      -8.841  10.225  65.539  1.00  0.00    -0.191 A  
HETATM   16  C   UNL     1      -7.789   9.694  64.779  1.00  0.00    -0.128 A  
ENDROOT
BRANCH   6  17
HETATM   17  C   UNL     1      -9.606   9.479  68.999  1.00  0.00    -0.166 C  
BRANCH  17  18
HETATM   18  N   UNL     1     -10.428   8.372  69.520  1.00  0.00    -0.223 NA 
HETATM   19  C   UNL     1     -10.723   7.347  68.514  1.00  0.00    -0.098 C  
HETATM   20  C   UNL     1     -11.144   6.160  69.351  1.00  0.00    -0.479 C  
HETATM   21  C   UNL     1     -10.200   6.219  70.536  1.00  0.00    -0.240 C  
HETATM   22  C   UNL     1      -9.789   7.685  70.649  1.00  0.00    -0.182 C  
ENDBRANCH  17  18
ENDBRANCH   6  17
TORSDOF 2
ENDMDL
MODEL      106
REMARK 921   NORMALIZED FREE ENERGY PREDICTED BY IDOCK:   -4.02 KCAL/MOL
REMARK 922        TOTAL FREE ENERGY PREDICTED BY IDOCK:   -5.17 KCAL/MOL
REMARK 923 INTER-LIGAND FREE ENERGY PREDICTED BY IDOCK:   -4.86 KCAL/MOL
REMARK 924 INTRA-LIGAND FREE ENERGY PREDICTED BY IDOCK:   -0.30 KCAL/MOL
REMARK 927      BINDING AFFINITY PREDICTED BY RF-SCORE:    0.00 PKD
ROOT
HETATM    1  O   UNL     1      -9.452   7.879  65.474  1.00  0.00    -0.391 OA 
HETATM    2  C   UNL     1      -9.068   8.939  66.353  1.00  0.00    -0.174 C  
HETATM    3  H   UNL     1      -8.819   7.177  65.565  1.00  0.00     0.000 HD 
HETATM    4  C   UNL     1      -7.671   9.442  65.929  1.00  0.00    -0.099 A  
HETATM    5  C   UNL     1      -9.087   8.432  67.855  1.00  0.00    -0.137 C  
HETATM    6  C   UNL     1     -10.104  10.089  66.204  1.00  0.00    -0.317 C  
HETATM    7  C   UNL     1      -8.406   5.968  67.622  1.00  0.00    -0.108 C  
HETATM    8  C   UNL     1     -10.455   7.943  68.389  1.00  0.00    -0.207 C  
HETATM    9  C   UNL     1      -6.984   8.862  64.847  1.00  0.00    -0.073 A  
HETATM   10  C   UNL     1      -5.752   9.363  64.412  1.00  0.00    -0.070 A  
HETATM   11  C   UNL     1      -8.059   7.337  68.195  1.00  0.00    -0.124 C  
HETATM   12  C   UNL     1     -10.902   6.579  67.874  1.00  0.00    -0.383 C  
HETATM   13  C   UNL     1      -9.822   5.505  67.958  1.00  0.00    -0.173 C  
HETATM   14  C   UNL     1      -5.177  10.455  65.054  1.00  0.00    -0.122 A  
HETATM   15  C   UNL     1      -7.062  10.534  66.573  1.00  0.00    -0.120 A  
HETATM   16  C   UNL     1      -5.827  11.037  66.138  1.00  0.00    -0.142 A  
ENDROOT
BRANCH   6  17
HETATM   17  C   UNL     1     -10.220  10.729  64.812  1.00  0.00    -0.334 C  
BRANCH  17  18
HETATM   18  N   UNL     1     -11.296  11.737  64.810  1.00  0.00    -0.284 NA 
HETATM   19  C   UNL     1     -10.848  13.062  65.250  1.00  0.00    -0.291 C  
HETATM   20  C   UNL     1     -11.939  13.977  64.740  1.00  0.00    -0.432 C  
HETATM   21  C   UNL     1     -12.281  13.388  63.386  1.00  0.00    -0.419 C  
HETATM   22  C   UNL     1     -11.894  11.914  63.480  1.00  0.00    -0.460 C  
ENDBRANCH  17  18
ENDBRANCH   6  17
TORSDOF 2
ENDMDL
MODEL      107
REMARK 921   NORMALIZED FREE ENERGY PREDICTED BY IDOCK:   -4.01 KCAL/MOL
REMARK 922        TOTAL FREE ENERGY PREDICTED BY IDOCK:   -5.15 KCAL/MOL
REMARK 923 INTER-LIGAND FREE ENERGY PREDICTED BY IDOCK:   -4.75 KCAL/MOL
REMARK 924 INTRA-LIGAND FREE ENERGY PREDICTED BY IDOCK:   -0.40 KCAL/MOL
REMARK 927      BINDING AFFINITY PREDICTED BY RF-SCORE:    0.00 PKD
ROOT
HETATM    1  O   UNL     1     -10.779   5.719  71.052  1.00  0.00    -0.247 OA 
HETATM    2  C   UNL     1      -9.459   6.219  71.281  1.00  0.00    -0.159 C  
HETATM    3  H   UNL     1     -10.706   4.820  70.753  1.00  0.00     0.000 HD 
HETATM    4  C   UNL     1      -8.684   6.178  69.945  1.00  0.00    -0.136 A  
HETATM    5  C   UNL     1      -8.744   5.366  72.409  1.00  0.00    -0.125 C  
HETATM    6  C   UNL     1      -9.578   7.690  71.769  1.00  0.00    -0.183 C  
HETATM    7  C   UNL     1      -9.730   3.023  72.051  1.00  0.00    -0.230 C  
HETATM    8  C   UNL     1      -9.424   5.376  73.800  1.00  0.00    -0.138 C  
HETATM    9  C   UNL     1      -9.283   5.693  68.768  1.00  0.00    -0.133 A  
HETATM   10  C   UNL     1      -8.611   5.724  67.542  1.00  0.00    -0.105 A  
HETATM   11  C   UNL     1      -8.478   3.892  72.054  1.00  0.00    -0.106 C  
HETATM   12  C   UNL     1     -10.693   4.538  73.907  1.00  0.00    -0.349 C  
HETATM   13  C   UNL     1     -10.553   3.132  73.332  1.00  0.00    -0.276 C  
HETATM   14  C   UNL     1      -7.320   6.237  67.466  1.00  0.00    -0.080 A  
HETATM   15  C   UNL     1      -7.373   6.677  69.847  1.00  0.00    -0.086 A  
HETATM   16  C   UNL     1      -6.698   6.708  68.618  1.00  0.00    -0.064 A  
ENDROOT
BRANCH   6  17
HETATM   17  C   UNL     1     -10.233   8.683  70.797  1.00  0.00    -0.204 C  
BRANCH  17  18
HETATM   18  N   UNL     1     -11.151   9.575  71.530  1.00  0.00    -0.370 NA 
HETATM   19  C   UNL     1     -11.849  10.527  70.662  1.00  0.00    -0.360 C  
HETATM   20  C   UNL     1     -13.011  10.980  71.519  1.00  0.00    -0.553 C  
HETATM   21  C   UNL     1     -13.435   9.710  72.229  1.00  0.00    -0.488 C  
HETATM   22  C   UNL     1     -12.185   8.833  72.263  1.00  0.00    -0.358 C  
ENDBRANCH  17  18
ENDBRANCH   6  17
TORSDOF 2
ENDMDL
MODEL      108
REMARK 921   NORMALIZED FREE ENERGY PREDICTED BY IDOCK:   -4.00 KCAL/MOL
REMARK 922        TOTAL FREE ENERGY PREDICTED BY IDOCK:   -5.15 KCAL/MOL
REMARK 923 INTER-LIGAND FREE ENERGY PREDICTED BY IDOCK:   -4.37 KCAL/MOL
REMARK 924 INTRA-LIGAND FREE ENERGY PREDICTED BY IDOCK:   -0.78 KCAL/MOL
REMARK 927      BINDING AFFINITY PREDICTED BY RF-SCORE:    0.00 PKD
ROOT
HETATM    1  O   UNL     1     -11.384   8.480  68.864  1.00  0.00    -0.259 OA 
HETATM    2  C   UNL     1     -10.169   7.879  69.316  1.00  0.00    -0.216 C  
HETATM    3  H   UNL     1     -12.090   7.860  69.004  1.00  0.00     0.000 HD 
HETATM    4  C   UNL     1      -9.914   6.606  68.480  1.00  0.00    -0.152 A  
HETATM    5  C   UNL     1     -10.264   7.563  70.867  1.00  0.00    -0.193 C  
HETATM    6  C   UNL     1      -9.013   8.894  69.086  1.00  0.00    -0.140 C  
HETATM    7  C   UNL     1     -12.752   7.012  71.174  1.00  0.00    -0.361 C  
HETATM    8  C   UNL     1     -10.479   8.783  71.796  1.00  0.00    -0.417 C  
HETATM    9  C   UNL     1     -10.811   6.200  67.475  1.00  0.00    -0.422 A  
HETATM   10  C   UNL     1     -10.547   5.090  66.666  1.00  0.00    -0.256 A  
HETATM   11  C   UNL     1     -11.316   6.511  71.263  1.00  0.00    -0.355 C  
HETATM   12  C   UNL     1     -11.887   9.368  71.781  1.00  0.00    -0.452 C  
HETATM   13  C   UNL     1     -12.990   8.323  71.920  1.00  0.00    -0.371 C  
HETATM   14  C   UNL     1      -9.379   4.357  66.847  1.00  0.00    -0.167 A  
HETATM   15  C   UNL     1      -8.747   5.839  68.655  1.00  0.00    -0.108 A  
HETATM   16  C   UNL     1      -8.482   4.727  67.844  1.00  0.00    -0.103 A  
ENDROOT
BRANCH   6  17
HETATM   17  C   UNL     1      -8.750   9.313  67.631  1.00  0.00    -0.116 C  
BRANCH  17  18
HETATM   18  N   UNL     1      -7.376   8.947  67.243  1.00  0.00    -0.080 NA 
HETATM   19  C   UNL     1      -6.580   8.422  68.356  1.00  0.00    -0.060 C  
HETATM   20  C   UNL     1      -5.439   7.717  67.656  1.00  0.00    -0.031 C  
HETATM   21  C   UNL     1      -6.111   7.074  66.459  1.00  0.00    -0.035 C  
HETATM   22  C   UNL     1      -7.346   7.930  66.184  1.00  0.00    -0.074 C  
ENDBRANCH  17  18
ENDBRANCH   6  17
TORSDOF 2
ENDMDL
MODEL      109
REMARK 921   NORMALIZED FREE ENERGY PREDICTED BY IDOCK:   -4.00 KCAL/MOL
REMARK 922        TOTAL FREE ENERGY PREDICTED BY IDOCK:   -5.15 KCAL/MOL
REMARK 923 INTER-LIGAND FREE ENERGY PREDICTED BY IDOCK:   -4.82 KCAL/MOL
REMARK 924 INTRA-LIGAND FREE ENERGY PREDICTED BY IDOCK:   -0.33 KCAL/MOL
REMARK 927      BINDING AFFINITY PREDICTED BY RF-SCORE:    0.00 PKD
ROOT
HETATM    1  O   UNL     1      -9.347  13.920  65.512  1.00  0.00    -0.497 OA 
HETATM    2  C   UNL     1      -9.409  13.825  66.937  1.00  0.00    -0.261 C  
HETATM    3  H   UNL     1      -9.496  13.054  65.151  1.00  0.00     0.000 HD 
HETATM    4  C   UNL     1      -8.293  12.868  67.410  1.00  0.00    -0.190 A  
HETATM    5  C   UNL     1     -10.847  13.330  67.386  1.00  0.00    -0.279 C  
HETATM    6  C   UNL     1      -9.164  15.242  67.527  1.00  0.00    -0.202 C  
HETATM    7  C   UNL     1     -11.531  11.778  65.459  1.00  0.00    -0.241 C  
HETATM    8  C   UNL     1     -12.032  14.245  66.992  1.00  0.00    -0.463 C  
HETATM    9  C   UNL     1      -7.430  12.242  66.492  1.00  0.00     0.402 A  
HETATM   10  C   UNL     1      -6.371  11.433  66.920  1.00  0.00    -0.137 A  
HETATM   11  C   UNL     1     -11.221  11.903  66.946  1.00  0.00    -0.382 C  
HETATM   12  C   UNL     1     -12.425  14.199  65.520  1.00  0.00    -0.495 C  
HETATM   13  C   UNL     1     -12.565  12.786  64.963  1.00  0.00    -0.538 C  
HETATM   14  C   UNL     1      -6.155  11.229  68.278  1.00  0.00    -0.045 A  
HETATM   15  C   UNL     1      -8.064  12.632  68.778  1.00  0.00     0.096 A  
HETATM   16  C   UNL     1      -7.004  11.822  69.208  1.00  0.00    -0.065 A  
ENDROOT
BRANCH   6  17
HETATM   17  C   UNL     1      -7.805  15.888  67.215  1.00  0.00    -0.187 C  
BRANCH  17  18
HETATM   18  N   UNL     1      -7.923  17.357  67.265  1.00  0.00    -0.196 NA 
HETATM   19  C   UNL     1      -8.566  17.845  68.489  1.00  0.00    -0.293 C  
HETATM   20  C   UNL     1      -8.167  19.304  68.524  1.00  0.00    -0.401 C  
HETATM   21  C   UNL     1      -6.732  19.283  68.036  1.00  0.00    -0.267 C  
HETATM   22  C   UNL     1      -6.619  18.026  67.177  1.00  0.00    -0.180 C  
ENDBRANCH  17  18
ENDBRANCH   6  17
TORSDOF 2
ENDMDL
MODEL      110
REMARK 921   NORMALIZED FREE ENERGY PREDICTED BY IDOCK:   -3.99 KCAL/MOL
REMARK 922        TOTAL FREE ENERGY PREDICTED BY IDOCK:   -5.14 KCAL/MOL
REMARK 923 INTER-LIGAND FREE ENERGY PREDICTED BY IDOCK:   -4.77 KCAL/MOL
REMARK 924 INTRA-LIGAND FREE ENERGY PREDICTED BY IDOCK:   -0.37 KCAL/MOL
REMARK 927      BINDING AFFINITY PREDICTED BY RF-SCORE:    0.00 PKD
ROOT
HETATM    1  O   UNL     1      -7.745  14.138  66.584  1.00  0.00    -0.181 OA 
HETATM    2  C   UNL     1      -8.905  14.331  67.395  1.00  0.00    -0.205 C  
HETATM    3  H   UNL     1      -7.763  14.780  65.885  1.00  0.00     0.000 HD 
HETATM    4  C   UNL     1     -10.156  14.106  66.518  1.00  0.00    -0.283 A  
HETATM    5  C   UNL     1      -8.883  15.780  68.038  1.00  0.00    -0.176 C  
HETATM    6  C   UNL     1      -8.875  13.279  68.540  1.00  0.00    -0.055 C  
HETATM    7  C   UNL     1      -7.714  17.177  66.230  1.00  0.00    -0.350 C  
HETATM    8  C   UNL     1      -7.686  16.090  68.969  1.00  0.00    -0.216 C  
HETATM    9  C   UNL     1     -10.042  13.782  65.154  1.00  0.00    -0.314 A  
HETATM   10  C   UNL     1     -11.169  13.504  64.373  1.00  0.00    -0.399 A  
HETATM   11  C   UNL     1      -8.985  16.947  67.040  1.00  0.00    -0.232 C  
HETATM   12  C   UNL     1      -6.358  16.335  68.259  1.00  0.00    -0.126 C  
HETATM   13  C   UNL     1      -6.457  17.305  67.087  1.00  0.00    -0.201 C  
HETATM   14  C   UNL     1     -12.439  13.548  64.941  1.00  0.00    -0.429 A  
HETATM   15  C   UNL     1     -11.451  14.160  67.065  1.00  0.00    -0.370 A  
HETATM   16  C   UNL     1     -12.581  13.882  66.284  1.00  0.00    -0.376 A  
ENDROOT
BRANCH   6  17
HETATM   17  C   UNL     1      -8.910  11.803  68.114  1.00  0.00    -0.169 C  
BRANCH  17  18
HETATM   18  N   UNL     1      -9.779  11.036  69.024  1.00  0.00    -0.174 NA 
HETATM   19  C   UNL     1     -10.871  10.342  68.335  1.00  0.00    -0.245 C  
HETATM   20  C   UNL     1     -11.310   9.308  69.348  1.00  0.00     0.129 C  
HETATM   21  C   UNL     1     -10.003   8.847  69.962  1.00  0.00    -0.204 C  
HETATM   22  C   UNL     1      -9.039  10.016  69.778  1.00  0.00    -0.193 C  
ENDBRANCH  17  18
ENDBRANCH   6  17
TORSDOF 2
ENDMDL
MODEL      111
REMARK 921   NORMALIZED FREE ENERGY PREDICTED BY IDOCK:   -3.97 KCAL/MOL
REMARK 922        TOTAL FREE ENERGY PREDICTED BY IDOCK:   -5.12 KCAL/MOL
REMARK 923 INTER-LIGAND FREE ENERGY PREDICTED BY IDOCK:   -4.55 KCAL/MOL
REMARK 924 INTRA-LIGAND FREE ENERGY PREDICTED BY IDOCK:   -0.57 KCAL/MOL
REMARK 927      BINDING AFFINITY PREDICTED BY RF-SCORE:    0.00 PKD
ROOT
HETATM    1  O   UNL     1      -9.623  14.712  67.150  1.00  0.00    -0.222 OA 
HETATM    2  C   UNL     1     -10.993  15.107  67.255  1.00  0.00    -0.327 C  
HETATM    3  H   UNL     1      -9.536  13.847  67.531  1.00  0.00     0.000 HD 
HETATM    4  C   UNL     1     -11.373  15.159  68.751  1.00  0.00    -0.313 A  
HETATM    5  C   UNL     1     -11.911  14.101  66.443  1.00  0.00    -0.457 C  
HETATM    6  C   UNL     1     -11.137  16.524  66.631  1.00  0.00     0.202 C  
HETATM    7  C   UNL     1     -10.669  11.870  66.708  1.00  0.00    -0.282 C  
HETATM    8  C   UNL     1     -11.635  14.007  64.923  1.00  0.00    -0.369 C  
HETATM    9  C   UNL     1     -10.439  14.835  69.752  1.00  0.00    -0.087 A  
HETATM   10  C   UNL     1     -10.755  14.952  71.110  1.00  0.00     0.299 A  
HETATM   11  C   UNL     1     -11.945  12.658  66.979  1.00  0.00    -0.330 C  
HETATM   12  C   UNL     1     -10.375  13.239  64.539  1.00  0.00    -0.394 C  
HETATM   13  C   UNL     1     -10.234  11.894  65.245  1.00  0.00    -0.309 C  
HETATM   14  C   UNL     1     -12.017  15.393  71.497  1.00  0.00    -0.443 A  
HETATM   15  C   UNL     1     -12.646  15.587  69.167  1.00  0.00     0.251 A  
HETATM   16  C   UNL     1     -12.964  15.704  70.527  1.00  0.00    -0.260 A  
ENDROOT
BRANCH   6  17
HETATM   17  C   UNL     1     -10.330  17.650  67.298  1.00  0.00    -0.354 C  
BRANCH  17  18
HETATM   18  N   UNL     1      -8.892  17.328  67.263  1.00  0.00    -0.219 NA 
HETATM   19  C   UNL     1      -8.135  18.163  66.325  1.00  0.00    -0.221 C  
HETATM   20  C   UNL     1      -6.706  17.982  66.787  1.00  0.00    -0.222 C  
HETATM   21  C   UNL     1      -6.829  17.957  68.298  1.00  0.00    -0.212 C  
HETATM   22  C   UNL     1      -8.252  17.479  68.576  1.00  0.00    -0.278 C  
ENDBRANCH  17  18
ENDBRANCH   6  17
TORSDOF 2
ENDMDL
MODEL      112
REMARK 921   NORMALIZED FREE ENERGY PREDICTED BY IDOCK:   -3.97 KCAL/MOL
REMARK 922        TOTAL FREE ENERGY PREDICTED BY IDOCK:   -5.11 KCAL/MOL
REMARK 923 INTER-LIGAND FREE ENERGY PREDICTED BY IDOCK:   -4.67 KCAL/MOL
REMARK 924 INTRA-LIGAND FREE ENERGY PREDICTED BY IDOCK:   -0.44 KCAL/MOL
REMARK 927      BINDING AFFINITY PREDICTED BY RF-SCORE:    0.00 PKD
ROOT
HETATM    1  O   UNL     1     -11.168   6.969  68.891  1.00  0.00    -0.467 OA 
HETATM    2  C   UNL     1      -9.899   7.572  69.156  1.00  0.00    -0.170 C  
HETATM    3  H   UNL     1     -11.343   7.047  67.961  1.00  0.00     0.000 HD 
HETATM    4  C   UNL     1      -9.978   9.064  68.766  1.00  0.00    -0.194 A  
HETATM    5  C   UNL     1      -8.759   6.809  68.360  1.00  0.00    -0.123 C  
HETATM    6  C   UNL     1      -9.612   7.445  70.679  1.00  0.00    -0.171 C  
HETATM    7  C   UNL     1      -9.971   6.061  66.225  1.00  0.00    -0.085 C  
HETATM    8  C   UNL     1      -8.573   5.312  68.710  1.00  0.00    -0.091 C  
HETATM    9  C   UNL     1     -11.156   9.619  68.235  1.00  0.00    -0.102 A  
HETATM   10  C   UNL     1     -11.256  10.985  67.950  1.00  0.00    -0.375 A  
HETATM   11  C   UNL     1      -8.851   6.900  66.826  1.00  0.00    -0.129 C  
HETATM   12  C   UNL     1      -9.646   4.380  68.158  1.00  0.00    -0.200 C  
HETATM   13  C   UNL     1      -9.957   4.604  66.682  1.00  0.00    -0.260 C  
HETATM   14  C   UNL     1     -10.175  11.828  68.188  1.00  0.00    -0.210 A  
HETATM   15  C   UNL     1      -8.893   9.933  68.982  1.00  0.00    -0.156 A  
HETATM   16  C   UNL     1      -8.992  11.303  68.697  1.00  0.00    -0.148 A  
ENDROOT
BRANCH   6  17
HETATM   17  C   UNL     1     -10.605   8.142  71.622  1.00  0.00    -0.232 C  
BRANCH  17  18
HETATM   18  N   UNL     1     -11.077   7.192  72.646  1.00  0.00    -0.276 NA 
HETATM   19  C   UNL     1     -11.312   5.844  72.121  1.00  0.00    -0.288 C  
HETATM   20  C   UNL     1     -11.328   4.990  73.369  1.00  0.00    -0.345 C  
HETATM   21  C   UNL     1     -10.235   5.602  74.223  1.00  0.00    -0.293 C  
HETATM   22  C   UNL     1     -10.129   7.053  73.759  1.00  0.00    -0.352 C  
ENDBRANCH  17  18
ENDBRANCH   6  17
TORSDOF 2
ENDMDL
MODEL      113
REMARK 921   NORMALIZED FREE ENERGY PREDICTED BY IDOCK:   -3.97 KCAL/MOL
REMARK 922        TOTAL FREE ENERGY PREDICTED BY IDOCK:   -5.11 KCAL/MOL
REMARK 923 INTER-LIGAND FREE ENERGY PREDICTED BY IDOCK:   -4.66 KCAL/MOL
REMARK 924 INTRA-LIGAND FREE ENERGY PREDICTED BY IDOCK:   -0.45 KCAL/MOL
REMARK 927      BINDING AFFINITY PREDICTED BY RF-SCORE:    0.00 PKD
ROOT
HETATM    1  O   UNL     1      -9.034  11.597  69.189  1.00  0.00    -0.373 OA 
HETATM    2  C   UNL     1      -8.673  11.178  67.871  1.00  0.00    -0.136 C  
HETATM    3  H   UNL     1      -8.613  11.013  69.809  1.00  0.00     0.000 HD 
HETATM    4  C   UNL     1      -9.187   9.738  67.659  1.00  0.00    -0.143 A  
HETATM    5  C   UNL     1      -7.102  11.283  67.679  1.00  0.00    -0.090 C  
HETATM    6  C   UNL     1      -9.362  12.133  66.855  1.00  0.00    -0.203 C  
HETATM    7  C   UNL     1      -6.215  10.752  70.028  1.00  0.00    -0.119 C  
HETATM    8  C   UNL     1      -6.494  12.698  67.832  1.00  0.00    -0.113 C  
HETATM    9  C   UNL     1      -9.873   9.050  68.677  1.00  0.00    -0.177 A  
HETATM   10  C   UNL     1     -10.405   7.774  68.464  1.00  0.00    -0.226 A  
HETATM   11  C   UNL     1      -6.265  10.340  68.562  1.00  0.00    -0.047 C  
HETATM   12  C   UNL     1      -6.399  13.212  69.265  1.00  0.00    -0.106 C  
HETATM   13  C   UNL     1      -5.799  12.206  70.242  1.00  0.00    -0.161 C  
HETATM   14  C   UNL     1     -10.260   7.154  67.227  1.00  0.00    -0.315 A  
HETATM   15  C   UNL     1      -9.039   9.084  66.422  1.00  0.00    -0.213 A  
HETATM   16  C   UNL     1      -9.572   7.805  66.208  1.00  0.00    -0.179 A  
ENDROOT
BRANCH   6  17
HETATM   17  C   UNL     1     -10.899  12.158  66.875  1.00  0.00    -0.250 C  
BRANCH  17  18
HETATM   18  N   UNL     1     -11.426  11.686  65.581  1.00  0.00    -0.207 NA 
HETATM   19  C   UNL     1     -12.564  12.473  65.098  1.00  0.00    -0.281 C  
HETATM   20  C   UNL     1     -12.622  12.122  63.628  1.00  0.00    -0.616 C  
HETATM   21  C   UNL     1     -11.160  12.048  63.232  1.00  0.00    -0.400 C  
HETATM   22  C   UNL     1     -10.412  11.713  64.520  1.00  0.00    -0.308 C  
ENDBRANCH  17  18
ENDBRANCH   6  17
TORSDOF 2
ENDMDL
MODEL      114
REMARK 921   NORMALIZED FREE ENERGY PREDICTED BY IDOCK:   -3.90 KCAL/MOL
REMARK 922        TOTAL FREE ENERGY PREDICTED BY IDOCK:   -5.03 KCAL/MOL
REMARK 923 INTER-LIGAND FREE ENERGY PREDICTED BY IDOCK:   -4.51 KCAL/MOL
REMARK 924 INTRA-LIGAND FREE ENERGY PREDICTED BY IDOCK:   -0.52 KCAL/MOL
REMARK 927      BINDING AFFINITY PREDICTED BY RF-SCORE:    0.00 PKD
ROOT
HETATM    1  O   UNL     1      -7.578  13.268  67.106  1.00  0.00    -0.342 OA 
HETATM    2  C   UNL     1      -8.770  12.495  67.262  1.00  0.00    -0.193 C  
HETATM    3  H   UNL     1      -7.166  13.349  67.958  1.00  0.00     0.000 HD 
HETATM    4  C   UNL     1      -9.715  13.245  68.226  1.00  0.00    -0.225 A  
HETATM    5  C   UNL     1      -8.411  11.044  67.791  1.00  0.00    -0.118 C  
HETATM    6  C   UNL     1      -9.446  12.362  65.868  1.00  0.00    -0.134 C  
HETATM    7  C   UNL     1      -6.358  11.479  69.268  1.00  0.00    -0.091 C  
HETATM    8  C   UNL     1      -7.498  10.195  66.874  1.00  0.00    -0.096 C  
HETATM    9  C   UNL     1      -9.345  14.474  68.803  1.00  0.00    -0.177 A  
HETATM   10  C   UNL     1     -10.226  15.193  69.617  1.00  0.00    -0.219 A  
HETATM   11  C   UNL     1      -7.799  10.989  69.203  1.00  0.00    -0.092 C  
HETATM   12  C   UNL     1      -6.029  10.604  66.862  1.00  0.00    -0.063 C  
HETATM   13  C   UNL     1      -5.436  10.810  68.251  1.00  0.00    -0.039 C  
HETATM   14  C   UNL     1     -11.499  14.696  69.876  1.00  0.00    -0.320 A  
HETATM   15  C   UNL     1     -11.002  12.755  68.516  1.00  0.00    -0.288 A  
HETATM   16  C   UNL     1     -11.886  13.475  69.332  1.00  0.00    -0.389 A  
ENDROOT
BRANCH   6  17
HETATM   17  C   UNL     1      -9.888  13.671  65.194  1.00  0.00    -0.085 C  
BRANCH  17  18
HETATM   18  N   UNL     1     -11.065  13.426  64.342  1.00  0.00    -0.378 NA 
HETATM   19  C   UNL     1     -11.048  12.109  63.698  1.00  0.00    -0.457 C  
HETATM   20  C   UNL     1     -12.491  11.914  63.285  1.00  0.00    -0.506 C  
HETATM   21  C   UNL     1     -13.267  12.497  64.450  1.00  0.00     0.153 C  
HETATM   22  C   UNL     1     -12.326  13.516  65.089  1.00  0.00    -0.449 C  
ENDBRANCH  17  18
ENDBRANCH   6  17
TORSDOF 2
ENDMDL
MODEL      115
REMARK 921   NORMALIZED FREE ENERGY PREDICTED BY IDOCK:   -3.86 KCAL/MOL
REMARK 922        TOTAL FREE ENERGY PREDICTED BY IDOCK:   -4.99 KCAL/MOL
REMARK 923 INTER-LIGAND FREE ENERGY PREDICTED BY IDOCK:   -4.17 KCAL/MOL
REMARK 924 INTRA-LIGAND FREE ENERGY PREDICTED BY IDOCK:   -0.81 KCAL/MOL
REMARK 927      BINDING AFFINITY PREDICTED BY RF-SCORE:    0.00 PKD
ROOT
HETATM    1  O   UNL     1      -8.956  12.274  68.690  1.00  0.00    -0.355 OA 
HETATM    2  C   UNL     1      -9.883  12.960  67.845  1.00  0.00    -0.227 C  
HETATM    3  H   UNL     1      -9.449  11.700  69.264  1.00  0.00     0.000 HD 
HETATM    4  C   UNL     1     -10.824  13.800  68.735  1.00  0.00    -0.281 A  
HETATM    5  C   UNL     1     -10.679  11.917  66.955  1.00  0.00    -0.280 C  
HETATM    6  C   UNL     1      -9.076  13.900  66.906  1.00  0.00    -0.257 C  
HETATM    7  C   UNL     1     -10.843   9.873  68.499  1.00  0.00    -0.257 C  
HETATM    8  C   UNL     1      -9.826  11.051  65.997  1.00  0.00    -0.273 C  
HETATM    9  C   UNL     1     -10.699  13.798  70.136  1.00  0.00     0.747 A  
HETATM   10  C   UNL     1     -11.500  14.614  70.942  1.00  0.00    -0.213 A  
HETATM   11  C   UNL     1     -11.595  10.952  67.730  1.00  0.00    -0.231 C  
HETATM   12  C   UNL     1      -9.026   9.939  66.666  1.00  0.00    -0.157 C  
HETATM   13  C   UNL     1      -9.839   9.100  67.647  1.00  0.00    -0.217 C  
HETATM   14  C   UNL     1     -12.449  15.450  70.362  1.00  0.00    -0.447 A  
HETATM   15  C   UNL     1     -11.802  14.642  68.173  1.00  0.00    -0.332 A  
HETATM   16  C   UNL     1     -12.605  15.460  68.979  1.00  0.00     0.281 A  
ENDROOT
BRANCH   6  17
HETATM   17  C   UNL     1      -8.246  15.000  67.587  1.00  0.00    -0.168 C  
BRANCH  17  18
HETATM   18  N   UNL     1      -8.688  16.326  67.119  1.00  0.00    -0.184 NA 
HETATM   19  C   UNL     1      -9.733  16.259  66.093  1.00  0.00    -0.329 C  
HETATM   20  C   UNL     1     -10.322  17.652  66.115  1.00  0.00    -0.334 C  
HETATM   21  C   UNL     1     -10.328  18.003  67.590  1.00  0.00    -0.397 C  
HETATM   22  C   UNL     1      -9.218  17.156  68.208  1.00  0.00    -0.262 C  
ENDBRANCH  17  18
ENDBRANCH   6  17
TORSDOF 2
ENDMDL
MODEL      116
REMARK 921   NORMALIZED FREE ENERGY PREDICTED BY IDOCK:   -3.85 KCAL/MOL
REMARK 922        TOTAL FREE ENERGY PREDICTED BY IDOCK:   -4.98 KCAL/MOL
REMARK 923 INTER-LIGAND FREE ENERGY PREDICTED BY IDOCK:   -4.40 KCAL/MOL
REMARK 924 INTRA-LIGAND FREE ENERGY PREDICTED BY IDOCK:   -0.58 KCAL/MOL
REMARK 927      BINDING AFFINITY PREDICTED BY RF-SCORE:    0.00 PKD
ROOT
HETATM    1  O   UNL     1     -10.807   7.101  69.592  1.00  0.00    -0.237 OA 
HETATM    2  C   UNL     1      -9.727   7.257  70.516  1.00  0.00    -0.176 C  
HETATM    3  H   UNL     1     -11.595   7.442  69.999  1.00  0.00     0.000 HD 
HETATM    4  C   UNL     1     -10.051   6.438  71.785  1.00  0.00    -0.206 A  
HETATM    5  C   UNL     1      -9.506   8.793  70.839  1.00  0.00    -0.269 C  
HETATM    6  C   UNL     1      -8.438   6.698  69.850  1.00  0.00    -0.139 C  
HETATM    7  C   UNL     1     -11.887   9.743  70.696  1.00  0.00    -0.360 C  
HETATM    8  C   UNL     1      -9.137   9.693  69.635  1.00  0.00    -0.224 C  
HETATM    9  C   UNL     1     -11.250   5.712  71.900  1.00  0.00    -0.246 A  
HETATM   10  C   UNL     1     -11.514   4.910  73.015  1.00  0.00    -0.327 A  
HETATM   11  C   UNL     1     -10.668   9.487  71.574  1.00  0.00    -0.269 C  
HETATM   12  C   UNL     1     -10.288  10.011  68.686  1.00  0.00    -0.211 C  
HETATM   13  C   UNL     1     -11.560  10.468  69.392  1.00  0.00    -0.318 C  
HETATM   14  C   UNL     1     -10.583   4.820  74.046  1.00  0.00    -0.351 A  
HETATM   15  C   UNL     1      -9.133   6.344  72.847  1.00  0.00    -0.132 A  
HETATM   16  C   UNL     1      -9.396   5.541  73.966  1.00  0.00    -0.134 A  
ENDROOT
BRANCH   6  17
HETATM   17  C   UNL     1      -8.451   5.207  69.477  1.00  0.00    -0.093 C  
BRANCH  17  18
HETATM   18  N   UNL     1      -8.540   5.056  68.014  1.00  0.00    -0.103 NA 
HETATM   19  C   UNL     1      -9.874   4.660  67.553  1.00  0.00    -0.153 C  
HETATM   20  C   UNL     1      -9.844   5.011  66.082  1.00  0.00    -0.214 C  
HETATM   21  C   UNL     1      -9.074   6.317  66.052  1.00  0.00    -0.126 C  
HETATM   22  C   UNL     1      -8.196   6.293  67.301  1.00  0.00    -0.109 C  
ENDBRANCH  17  18
ENDBRANCH   6  17
TORSDOF 2
ENDMDL
MODEL      117
REMARK 921   NORMALIZED FREE ENERGY PREDICTED BY IDOCK:   -3.84 KCAL/MOL
REMARK 922        TOTAL FREE ENERGY PREDICTED BY IDOCK:   -4.97 KCAL/MOL
REMARK 923 INTER-LIGAND FREE ENERGY PREDICTED BY IDOCK:   -4.67 KCAL/MOL
REMARK 924 INTRA-LIGAND FREE ENERGY PREDICTED BY IDOCK:   -0.30 KCAL/MOL
REMARK 927      BINDING AFFINITY PREDICTED BY RF-SCORE:    0.00 PKD
ROOT
HETATM    1  O   UNL     1     -10.135   8.904  65.776  1.00  0.00    -0.427 OA 
HETATM    2  C   UNL     1      -9.277   9.865  66.394  1.00  0.00    -0.158 C  
HETATM    3  H   UNL     1     -10.258   9.157  64.869  1.00  0.00     0.000 HD 
HETATM    4  C   UNL     1      -9.967  11.245  66.332  1.00  0.00    -0.252 A  
HETATM    5  C   UNL     1      -7.864   9.873  65.676  1.00  0.00    -0.127 C  
HETATM    6  C   UNL     1      -9.077   9.450  67.879  1.00  0.00    -0.136 C  
HETATM    7  C   UNL     1      -8.470   9.322  63.243  1.00  0.00    -0.204 C  
HETATM    8  C   UNL     1      -7.073   8.543  65.719  1.00  0.00    -0.075 C  
HETATM    9  C   UNL     1     -11.227  11.405  65.726  1.00  0.00    -0.157 A  
HETATM   10  C   UNL     1     -11.888  12.638  65.732  1.00  0.00    -0.497 A  
HETATM   11  C   UNL     1      -7.872  10.339  64.208  1.00  0.00    -0.117 C  
HETATM   12  C   UNL     1      -7.591   7.451  64.790  1.00  0.00    -0.103 C  
HETATM   13  C   UNL     1      -7.858   7.928  63.366  1.00  0.00    -0.139 C  
HETATM   14  C   UNL     1     -11.301  13.742  66.342  1.00  0.00    -0.327 A  
HETATM   15  C   UNL     1      -9.386  12.380  66.927  1.00  0.00    -0.213 A  
HETATM   16  C   UNL     1     -10.048  13.616  66.934  1.00  0.00    -0.260 A  
ENDROOT
BRANCH   6  17
HETATM   17  C   UNL     1     -10.340   9.402  68.753  1.00  0.00    -0.209 C  
BRANCH  17  18
HETATM   18  N   UNL     1     -10.146   8.458  69.868  1.00  0.00    -0.191 NA 
HETATM   19  C   UNL     1     -10.056   9.116  71.175  1.00  0.00    -0.314 C  
HETATM   20  C   UNL     1     -10.321   7.985  72.144  1.00  0.00    -0.318 C  
HETATM   21  C   UNL     1     -11.404   7.181  71.453  1.00  0.00    -0.288 C  
HETATM   22  C   UNL     1     -11.231   7.473  69.964  1.00  0.00    -0.157 C  
ENDBRANCH  17  18
ENDBRANCH   6  17
TORSDOF 2
ENDMDL
MODEL      118
REMARK 921   NORMALIZED FREE ENERGY PREDICTED BY IDOCK:   -3.82 KCAL/MOL
REMARK 922        TOTAL FREE ENERGY PREDICTED BY IDOCK:   -4.95 KCAL/MOL
REMARK 923 INTER-LIGAND FREE ENERGY PREDICTED BY IDOCK:   -4.09 KCAL/MOL
REMARK 924 INTRA-LIGAND FREE ENERGY PREDICTED BY IDOCK:   -0.86 KCAL/MOL
REMARK 927      BINDING AFFINITY PREDICTED BY RF-SCORE:    0.00 PKD
ROOT
HETATM    1  O   UNL     1      -9.074   8.958  64.137  1.00  0.00    -0.412 OA 
HETATM    2  C   UNL     1      -8.434   9.459  65.313  1.00  0.00    -0.149 C  
HETATM    3  H   UNL     1      -8.839   9.522  63.410  1.00  0.00     0.000 HD 
HETATM    4  C   UNL     1      -8.954  10.888  65.579  1.00  0.00    -0.213 A  
HETATM    5  C   UNL     1      -6.860   9.422  65.132  1.00  0.00    -0.084 C  
HETATM    6  C   UNL     1      -8.819   8.534  66.503  1.00  0.00    -0.165 C  
HETATM    7  C   UNL     1      -6.575   9.860  62.619  1.00  0.00    -0.114 C  
HETATM    8  C   UNL     1      -6.236   8.024  64.899  1.00  0.00    -0.048 C  
HETATM    9  C   UNL     1      -9.892  11.495  64.724  1.00  0.00    -0.286 A  
HETATM   10  C   UNL     1     -10.421  12.760  65.001  1.00  0.00    -0.334 A  
HETATM   11  C   UNL     1      -6.299  10.347  64.036  1.00  0.00    -0.040 C  
HETATM   12  C   UNL     1      -6.456   7.439  63.508  1.00  0.00    -0.053 C  
HETATM   13  C   UNL     1      -6.151   8.414  62.375  1.00  0.00    -0.088 C  
HETATM   14  C   UNL     1     -10.019  13.450  66.141  1.00  0.00    -0.299 A  
HETATM   15  C   UNL     1      -8.551  11.612  66.716  1.00  0.00    -0.180 A  
HETATM   16  C   UNL     1      -9.081  12.880  66.995  1.00  0.00    -0.228 A  
ENDROOT
BRANCH   6  17
HETATM   17  C   UNL     1     -10.315   8.452  66.849  1.00  0.00    -0.307 C  
BRANCH  17  18
HETATM   18  N   UNL     1     -10.528   8.841  68.254  1.00  0.00    -0.210 NA 
HETATM   19  C   UNL     1      -9.279   9.024  69.000  1.00  0.00    -0.140 C  
HETATM   20  C   UNL     1      -9.716   9.833  70.202  1.00  0.00    -0.299 C  
HETATM   21  C   UNL     1     -10.735  10.794  69.621  1.00  0.00    -0.261 C  
HETATM   22  C   UNL     1     -11.282  10.096  68.378  1.00  0.00    -0.177 C  
ENDBRANCH  17  18
ENDBRANCH   6  17
TORSDOF 2
ENDMDL
MODEL      119
REMARK 921   NORMALIZED FREE ENERGY PREDICTED BY IDOCK:   -3.82 KCAL/MOL
REMARK 922        TOTAL FREE ENERGY PREDICTED BY IDOCK:   -4.94 KCAL/MOL
REMARK 923 INTER-LIGAND FREE ENERGY PREDICTED BY IDOCK:   -4.56 KCAL/MOL
REMARK 924 INTRA-LIGAND FREE ENERGY PREDICTED BY IDOCK:   -0.39 KCAL/MOL
REMARK 927      BINDING AFFINITY PREDICTED BY RF-SCORE:    0.00 PKD
ROOT
HETATM    1  O   UNL     1      -7.928   7.281  70.288  1.00  0.00    -0.111 OA 
HETATM    2  C   UNL     1      -8.961   7.916  69.532  1.00  0.00    -0.142 C  
HETATM    3  H   UNL     1      -7.229   7.041  69.691  1.00  0.00     0.000 HD 
HETATM    4  C   UNL     1      -9.493   6.908  68.490  1.00  0.00    -0.133 A  
HETATM    5  C   UNL     1      -8.402   9.235  68.852  1.00  0.00    -0.120 C  
HETATM    6  C   UNL     1     -10.105   8.308  70.510  1.00  0.00    -0.210 C  
HETATM    7  C   UNL     1      -5.955   8.625  68.374  1.00  0.00    -0.042 C  
HETATM    8  C   UNL     1      -7.881  10.327  69.817  1.00  0.00    -0.151 C  
HETATM    9  C   UNL     1      -8.958   5.611  68.390  1.00  0.00    -0.114 A  
HETATM   10  C   UNL     1      -9.486   4.670  67.500  1.00  0.00    -0.182 A  
HETATM   11  C   UNL     1      -7.307   9.018  67.791  1.00  0.00    -0.084 C  
HETATM   12  C   UNL     1      -6.531  10.033  70.461  1.00  0.00    -0.121 C  
HETATM   13  C   UNL     1      -5.466   9.565  69.474  1.00  0.00    -0.034 C  
HETATM   14  C   UNL     1     -10.561   5.008  66.684  1.00  0.00    -0.256 A  
HETATM   15  C   UNL     1     -10.569   7.232  67.644  1.00  0.00    -0.316 A  
HETATM   16  C   UNL     1     -11.099   6.290  66.751  1.00  0.00    -0.241 A  
ENDROOT
BRANCH   6  17
HETATM   17  C   UNL     1     -10.791   7.153  71.257  1.00  0.00    -0.233 C  
BRANCH  17  18
HETATM   18  N   UNL     1     -11.943   7.663  72.022  1.00  0.00    -0.293 NA 
HETATM   19  C   UNL     1     -12.078   9.122  71.961  1.00  0.00    -0.361 C  
HETATM   20  C   UNL     1     -13.510   9.350  72.395  1.00  0.00    -0.506 C  
HETATM   21  C   UNL     1     -14.257   8.204  71.741  1.00  0.00    -0.548 C  
HETATM   22  C   UNL     1     -13.217   7.101  71.556  1.00  0.00    -0.360 C  
ENDBRANCH  17  18
ENDBRANCH   6  17
TORSDOF 2
ENDMDL
MODEL      120
REMARK 921   NORMALIZED FREE ENERGY PREDICTED BY IDOCK:   -3.81 KCAL/MOL
REMARK 922        TOTAL FREE ENERGY PREDICTED BY IDOCK:   -4.94 KCAL/MOL
REMARK 923 INTER-LIGAND FREE ENERGY PREDICTED BY IDOCK:   -4.52 KCAL/MOL
REMARK 924 INTRA-LIGAND FREE ENERGY PREDICTED BY IDOCK:   -0.42 KCAL/MOL
REMARK 927      BINDING AFFINITY PREDICTED BY RF-SCORE:    0.00 PKD
ROOT
HETATM    1  O   UNL     1      -9.406  12.239  68.984  1.00  0.00    -0.385 OA 
HETATM    2  C   UNL     1     -10.101  12.419  67.748  1.00  0.00    -0.203 C  
HETATM    3  H   UNL     1      -9.696  12.913  69.586  1.00  0.00     0.000 HD 
HETATM    4  C   UNL     1      -9.738  13.809  67.182  1.00  0.00    -0.244 A  
HETATM    5  C   UNL     1     -11.662  12.258  67.974  1.00  0.00    -0.417 C  
HETATM    6  C   UNL     1      -9.626  11.315  66.761  1.00  0.00    -0.214 C  
HETATM    7  C   UNL     1     -11.980  13.171  70.352  1.00  0.00    -0.343 C  
HETATM    8  C   UNL     1     -12.133  10.881  68.503  1.00  0.00     0.004 C  
HETATM    9  C   UNL     1      -8.866  14.672  67.871  1.00  0.00    -0.170 A  
HETATM   10  C   UNL     1      -8.476  15.901  67.328  1.00  0.00    -0.207 A  
HETATM   11  C   UNL     1     -12.312  13.326  68.873  1.00  0.00     0.046 C  
HETATM   12  C   UNL     1     -11.845  10.620  69.978  1.00  0.00    -0.403 C  
HETATM   13  C   UNL     1     -12.246  11.770  70.896  1.00  0.00    -0.378 C  
HETATM   14  C   UNL     1      -8.954  16.297  66.083  1.00  0.00    -0.374 A  
HETATM   15  C   UNL     1     -10.221  14.238  65.933  1.00  0.00    -0.338 A  
HETATM   16  C   UNL     1      -9.831  15.470  65.388  1.00  0.00    -0.291 A  
ENDROOT
BRANCH   6  17
HETATM   17  C   UNL     1      -8.133  11.317  66.399  1.00  0.00    -0.138 C  
BRANCH  17  18
HETATM   18  N   UNL     1      -7.496  10.079  66.882  1.00  0.00    -0.094 NA 
HETATM   19  C   UNL     1      -7.025  10.172  68.267  1.00  0.00    -0.070 C  
HETATM   20  C   UNL     1      -6.853   8.723  68.667  1.00  0.00    -0.063 C  
HETATM   21  C   UNL     1      -8.036   8.039  68.010  1.00  0.00    -0.128 C  
HETATM   22  C   UNL     1      -8.401   8.924  66.820  1.00  0.00    -0.111 C  
ENDBRANCH  17  18
ENDBRANCH   6  17
TORSDOF 2
ENDMDL
MODEL      121
REMARK 921   NORMALIZED FREE ENERGY PREDICTED BY IDOCK:   -3.76 KCAL/MOL
REMARK 922        TOTAL FREE ENERGY PREDICTED BY IDOCK:   -4.87 KCAL/MOL
REMARK 923 INTER-LIGAND FREE ENERGY PREDICTED BY IDOCK:   -4.38 KCAL/MOL
REMARK 924 INTRA-LIGAND FREE ENERGY PREDICTED BY IDOCK:   -0.50 KCAL/MOL
REMARK 927      BINDING AFFINITY PREDICTED BY RF-SCORE:    0.00 PKD
ROOT
HETATM    1  O   UNL     1      -9.407   8.113  69.965  1.00  0.00    -0.158 OA 
HETATM    2  C   UNL     1      -9.483   6.700  70.166  1.00  0.00    -0.158 C  
HETATM    3  H   UNL     1      -8.615   8.299  69.475  1.00  0.00     0.000 HD 
HETATM    4  C   UNL     1      -8.252   6.258  70.987  1.00  0.00    -0.123 A  
HETATM    5  C   UNL     1      -9.565   5.956  68.769  1.00  0.00    -0.152 C  
HETATM    6  C   UNL     1     -10.780   6.396  70.969  1.00  0.00    -0.301 C  
HETATM    7  C   UNL     1      -8.160   7.470  67.245  1.00  0.00    -0.115 C  
HETATM    8  C   UNL     1     -10.789   6.302  67.887  1.00  0.00    -0.417 C  
HETATM    9  C   UNL     1      -7.277   7.185  71.398  1.00  0.00    -0.077 A  
HETATM   10  C   UNL     1      -6.199   6.803  72.203  1.00  0.00    -0.042 A  
HETATM   11  C   UNL     1      -8.319   6.092  67.875  1.00  0.00    -0.116 C  
HETATM   12  C   UNL     1     -10.735   7.667  67.209  1.00  0.00    -0.344 C  
HETATM   13  C   UNL     1      -9.409   7.956  66.512  1.00  0.00    -0.255 C  
HETATM   14  C   UNL     1      -6.070   5.480  72.614  1.00  0.00    -0.039 A  
HETATM   15  C   UNL     1      -8.091   4.923  71.401  1.00  0.00    -0.110 A  
HETATM   16  C   UNL     1      -7.011   4.539  72.209  1.00  0.00    -0.060 A  
ENDROOT
BRANCH   6  17
HETATM   17  C   UNL     1     -10.880   7.020  72.370  1.00  0.00    -0.240 C  
BRANCH  17  18
HETATM   18  N   UNL     1     -12.146   7.764  72.500  1.00  0.00    -0.252 NA 
HETATM   19  C   UNL     1     -12.030   9.175  72.120  1.00  0.00    -0.294 C  
HETATM   20  C   UNL     1     -13.468   9.586  71.894  1.00  0.00    -0.502 C  
HETATM   21  C   UNL     1     -14.075   8.371  71.222  1.00  0.00    -0.276 C  
HETATM   22  C   UNL     1     -13.219   7.191  71.676  1.00  0.00    -0.346 C  
ENDBRANCH  17  18
ENDBRANCH   6  17
TORSDOF 2
ENDMDL
MODEL      122
REMARK 921   NORMALIZED FREE ENERGY PREDICTED BY IDOCK:   -3.75 KCAL/MOL
REMARK 922        TOTAL FREE ENERGY PREDICTED BY IDOCK:   -4.86 KCAL/MOL
REMARK 923 INTER-LIGAND FREE ENERGY PREDICTED BY IDOCK:   -4.40 KCAL/MOL
REMARK 924 INTRA-LIGAND FREE ENERGY PREDICTED BY IDOCK:   -0.46 KCAL/MOL
REMARK 927      BINDING AFFINITY PREDICTED BY RF-SCORE:    0.00 PKD
ROOT
HETATM    1  O   UNL     1      -9.237  10.017  67.733  1.00  0.00    -0.134 OA 
HETATM    2  C   UNL     1      -9.590  11.332  68.167  1.00  0.00    -0.186 C  
HETATM    3  H   UNL     1      -8.798  10.091  66.894  1.00  0.00     0.000 HD 
HETATM    4  C   UNL     1     -10.555  11.946  67.129  1.00  0.00    -0.264 A  
HETATM    5  C   UNL     1      -8.284  12.210  68.356  1.00  0.00    -0.145 C  
HETATM    6  C   UNL     1     -10.310  11.210  69.540  1.00  0.00    -0.018 C  
HETATM    7  C   UNL     1      -6.721  11.288  66.541  1.00  0.00    -0.105 C  
HETATM    8  C   UNL     1      -7.269  11.699  69.408  1.00  0.00     0.038 C  
HETATM    9  C   UNL     1     -10.939  11.233  65.978  1.00  0.00    -0.237 A  
HETATM   10  C   UNL     1     -11.870  11.755  65.074  1.00  0.00    -0.104 A  
HETATM   11  C   UNL     1      -7.487  12.494  67.070  1.00  0.00    -0.009 C  
HETATM   12  C   UNL     1      -6.448  10.487  68.980  1.00  0.00    -0.054 C  
HETATM   13  C   UNL     1      -5.837  10.616  67.589  1.00  0.00    -0.044 C  
HETATM   14  C   UNL     1     -12.436  13.005  65.299  1.00  0.00    -0.555 A  
HETATM   15  C   UNL     1     -11.130  13.215  67.327  1.00  0.00    -0.305 A  
HETATM   16  C   UNL     1     -12.063  13.738  66.420  1.00  0.00    -0.483 A  
ENDROOT
BRANCH   6  17
HETATM   17  C   UNL     1     -11.619  10.404  69.557  1.00  0.00    -0.219 C  
BRANCH  17  18
HETATM   18  N   UNL     1     -11.457   9.200  70.391  1.00  0.00    -0.235 NA 
HETATM   19  C   UNL     1     -10.203   9.186  71.151  1.00  0.00    -0.314 C  
HETATM   20  C   UNL     1     -10.466   8.153  72.224  1.00  0.00    -0.371 C  
HETATM   21  C   UNL     1     -11.912   8.405  72.602  1.00  0.00    -0.346 C  
HETATM   22  C   UNL     1     -12.543   9.045  71.367  1.00  0.00    -0.311 C  
ENDBRANCH  17  18
ENDBRANCH   6  17
TORSDOF 2
ENDMDL
MODEL      123
REMARK 921   NORMALIZED FREE ENERGY PREDICTED BY IDOCK:   -3.74 KCAL/MOL
REMARK 922        TOTAL FREE ENERGY PREDICTED BY IDOCK:   -4.85 KCAL/MOL
REMARK 923 INTER-LIGAND FREE ENERGY PREDICTED BY IDOCK:   -4.38 KCAL/MOL
REMARK 924 INTRA-LIGAND FREE ENERGY PREDICTED BY IDOCK:   -0.47 KCAL/MOL
REMARK 927      BINDING AFFINITY PREDICTED BY RF-SCORE:    0.00 PKD
ROOT
HETATM    1  O   UNL     1      -7.584  15.807  66.207  1.00  0.00    -0.134 OA 
HETATM    2  C   UNL     1      -7.857  16.010  67.595  1.00  0.00    -0.142 C  
HETATM    3  H   UNL     1      -7.869  14.932  65.974  1.00  0.00     0.000 HD 
HETATM    4  C   UNL     1      -7.053  14.971  68.406  1.00  0.00    -0.108 A  
HETATM    5  C   UNL     1      -9.416  15.898  67.864  1.00  0.00    -0.213 C  
HETATM    6  C   UNL     1      -7.390  17.444  67.975  1.00  0.00    -0.195 C  
HETATM    7  C   UNL     1     -10.158  14.154  66.133  1.00  0.00    -0.324 C  
HETATM    8  C   UNL     1     -10.307  16.925  67.125  1.00  0.00    -0.304 C  
HETATM    9  C   UNL     1      -6.232  14.023  67.769  1.00  0.00    -0.152 A  
HETATM   10  C   UNL     1      -5.445  13.129  68.502  1.00  0.00    -0.068 A  
HETATM   11  C   UNL     1     -10.031  14.510  67.609  1.00  0.00    -0.224 C  
HETATM   12  C   UNL     1     -10.499  16.664  65.634  1.00  0.00    -0.313 C  
HETATM   13  C   UNL     1     -10.868  15.222  65.304  1.00  0.00    -0.417 C  
HETATM   14  C   UNL     1      -5.464  13.160  69.892  1.00  0.00    -0.102 A  
HETATM   15  C   UNL     1      -7.068  14.973  69.813  1.00  0.00    -0.170 A  
HETATM   16  C   UNL     1      -6.279  14.077  70.549  1.00  0.00    -0.114 A  
ENDROOT
BRANCH   6  17
HETATM   17  C   UNL     1      -5.893  17.744  67.800  1.00  0.00    -0.146 C  
BRANCH  17  18
HETATM   18  N   UNL     1      -5.715  19.022  67.088  1.00  0.00    -0.166 NA 
HETATM   19  C   UNL     1      -6.616  19.176  65.942  1.00  0.00    -0.239 C  
HETATM   20  C   UNL     1      -6.582  20.665  65.679  1.00  0.00    -0.236 C  
HETATM   21  C   UNL     1      -6.555  21.263  67.072  1.00  0.00    -0.375 C  
HETATM   22  C   UNL     1      -5.938  20.183  67.959  1.00  0.00    -0.235 C  
ENDBRANCH  17  18
ENDBRANCH   6  17
TORSDOF 2
ENDMDL
MODEL      124
REMARK 921   NORMALIZED FREE ENERGY PREDICTED BY IDOCK:   -3.72 KCAL/MOL
REMARK 922        TOTAL FREE ENERGY PREDICTED BY IDOCK:   -4.84 KCAL/MOL
REMARK 923 INTER-LIGAND FREE ENERGY PREDICTED BY IDOCK:   -4.41 KCAL/MOL
REMARK 924 INTRA-LIGAND FREE ENERGY PREDICTED BY IDOCK:   -0.43 KCAL/MOL
REMARK 927      BINDING AFFINITY PREDICTED BY RF-SCORE:    0.00 PKD
ROOT
HETATM    1  O   UNL     1      -9.428  12.045  67.072  1.00  0.00    -0.189 OA 
HETATM    2  C   UNL     1     -10.103  10.866  66.627  1.00  0.00    -0.219 C  
HETATM    3  H   UNL     1      -8.848  12.333  66.378  1.00  0.00     0.000 HD 
HETATM    4  C   UNL     1      -9.046   9.775  66.350  1.00  0.00    -0.187 A  
HETATM    5  C   UNL     1     -10.973  11.191  65.342  1.00  0.00    -0.151 C  
HETATM    6  C   UNL     1     -11.053  10.394  67.764  1.00  0.00    -0.365 C  
HETATM    7  C   UNL     1      -9.587  13.006  64.172  1.00  0.00     0.679 C  
HETATM    8  C   UNL     1     -12.090  12.247  65.529  1.00  0.00    -0.326 C  
HETATM    9  C   UNL     1      -7.673  10.026  66.530  1.00  0.00    -0.105 A  
HETATM   10  C   UNL     1      -6.718   9.020  66.351  1.00  0.00    -0.075 A  
HETATM   11  C   UNL     1     -10.175  11.603  64.092  1.00  0.00    -0.372 C  
HETATM   12  C   UNL     1     -11.608  13.690  65.625  1.00  0.00    -0.342 C  
HETATM   13  C   UNL     1     -10.609  14.079  64.540  1.00  0.00    -0.332 C  
HETATM   14  C   UNL     1      -7.115   7.738  65.984  1.00  0.00    -0.065 A  
HETATM   15  C   UNL     1      -9.421   8.476  65.963  1.00  0.00    -0.256 A  
HETATM   16  C   UNL     1      -8.465   7.466  65.784  1.00  0.00    -0.149 A  
ENDROOT
BRANCH   6  17
HETATM   17  C   UNL     1     -10.388  10.012  69.096  1.00  0.00    -0.216 C  
BRANCH  17  18
HETATM   18  N   UNL     1     -10.952  10.822  70.191  1.00  0.00    -0.228 NA 
HETATM   19  C   UNL     1     -11.561  12.073  69.730  1.00  0.00    -0.276 C  
HETATM   20  C   UNL     1     -12.435  12.477  70.897  1.00  0.00    -0.361 C  
HETATM   21  C   UNL     1     -13.001  11.156  71.380  1.00  0.00    -0.506 C  
HETATM   22  C   UNL     1     -11.985  10.101  70.945  1.00  0.00    -0.365 C  
ENDBRANCH  17  18
ENDBRANCH   6  17
TORSDOF 2
ENDMDL
MODEL      125
REMARK 921   NORMALIZED FREE ENERGY PREDICTED BY IDOCK:   -3.71 KCAL/MOL
REMARK 922        TOTAL FREE ENERGY PREDICTED BY IDOCK:   -4.83 KCAL/MOL
REMARK 923 INTER-LIGAND FREE ENERGY PREDICTED BY IDOCK:   -4.30 KCAL/MOL
REMARK 924 INTRA-LIGAND FREE ENERGY PREDICTED BY IDOCK:   -0.52 KCAL/MOL
REMARK 927      BINDING AFFINITY PREDICTED BY RF-SCORE:    0.00 PKD
ROOT
HETATM    1  O   UNL     1     -10.422   8.416  68.220  1.00  0.00    -0.250 OA 
HETATM    2  C   UNL     1      -9.690   8.830  69.376  1.00  0.00    -0.172 C  
HETATM    3  H   UNL     1     -11.306   8.754  68.294  1.00  0.00     0.000 HD 
HETATM    4  C   UNL     1     -10.371   8.229  70.625  1.00  0.00    -0.220 A  
HETATM    5  C   UNL     1      -9.623  10.412  69.439  1.00  0.00    -0.213 C  
HETATM    6  C   UNL     1      -8.242   8.275  69.256  1.00  0.00    -0.118 C  
HETATM    7  C   UNL     1     -11.864  11.108  68.399  1.00  0.00    -0.302 C  
HETATM    8  C   UNL     1      -8.921  11.109  68.248  1.00  0.00    -0.166 C  
HETATM    9  C   UNL     1     -11.526   7.432  70.515  1.00  0.00    -0.281 A  
HETATM   10  C   UNL     1     -12.104   6.825  71.635  1.00  0.00    -0.404 A  
HETATM   11  C   UNL     1     -10.975  11.123  69.636  1.00  0.00    -0.254 C  
HETATM   12  C   UNL     1      -9.725  11.148  66.953  1.00  0.00    -0.216 C  
HETATM   13  C   UNL     1     -11.167  11.612  67.138  1.00  0.00    -0.371 C  
HETATM   14  C   UNL     1     -11.540   7.005  72.894  1.00  0.00    -0.074 A  
HETATM   15  C   UNL     1      -9.829   8.409  71.911  1.00  0.00    -0.328 A  
HETATM   16  C   UNL     1     -10.407   7.801  73.034  1.00  0.00    -0.410 A  
ENDROOT
BRANCH   6  17
HETATM   17  C   UNL     1      -8.097   6.747  69.200  1.00  0.00    -0.120 C  
BRANCH  17  18
HETATM   18  N   UNL     1      -7.358   6.355  67.986  1.00  0.00    -0.087 NA 
HETATM   19  C   UNL     1      -8.121   5.466  67.105  1.00  0.00    -0.101 C  
HETATM   20  C   UNL     1      -7.387   5.581  65.787  1.00  0.00    -0.073 C  
HETATM   21  C   UNL     1      -7.019   7.050  65.722  1.00  0.00    -0.060 C  
HETATM   22  C   UNL     1      -6.960   7.513  67.176  1.00  0.00    -0.083 C  
ENDBRANCH  17  18
ENDBRANCH   6  17
TORSDOF 2
ENDMDL
MODEL      126
REMARK 921   NORMALIZED FREE ENERGY PREDICTED BY IDOCK:   -3.70 KCAL/MOL
REMARK 922        TOTAL FREE ENERGY PREDICTED BY IDOCK:   -4.81 KCAL/MOL
REMARK 923 INTER-LIGAND FREE ENERGY PREDICTED BY IDOCK:   -4.33 KCAL/MOL
REMARK 924 INTRA-LIGAND FREE ENERGY PREDICTED BY IDOCK:   -0.47 KCAL/MOL
REMARK 927      BINDING AFFINITY PREDICTED BY RF-SCORE:    0.00 PKD
ROOT
HETATM    1  O   UNL     1      -8.908   7.991  69.072  1.00  0.00    -0.143 OA 
HETATM    2  C   UNL     1      -9.914   7.678  70.038  1.00  0.00    -0.190 C  
HETATM    3  H   UNL     1      -8.229   7.329  69.128  1.00  0.00     0.000 HD 
HETATM    4  C   UNL     1      -9.270   7.717  71.441  1.00  0.00    -0.152 A  
HETATM    5  C   UNL     1     -10.556   6.265  69.717  1.00  0.00    -0.323 C  
HETATM    6  C   UNL     1     -11.026   8.762  69.945  1.00  0.00    -0.184 C  
HETATM    7  C   UNL     1      -8.582   4.969  68.711  1.00  0.00    -0.090 C  
HETATM    8  C   UNL     1     -11.263   6.137  68.346  1.00  0.00    -0.215 C  
HETATM    9  C   UNL     1      -7.904   8.009  71.610  1.00  0.00    -0.116 A  
HETATM   10  C   UNL     1      -7.333   8.118  72.882  1.00  0.00    -0.154 A  
HETATM   11  C   UNL     1      -9.601   5.063  69.839  1.00  0.00    -0.246 C  
HETATM   12  C   UNL     1     -10.332   6.039  67.142  1.00  0.00    -0.284 C  
HETATM   13  C   UNL     1      -9.204   5.028  67.317  1.00  0.00    -0.127 C  
HETATM   14  C   UNL     1      -8.116   7.933  74.017  1.00  0.00    -0.277 A  
HETATM   15  C   UNL     1     -10.038   7.517  72.603  1.00  0.00    -0.274 A  
HETATM   16  C   UNL     1      -9.466   7.626  73.879  1.00  0.00    -0.230 A  
ENDROOT
BRANCH   6  17
HETATM   17  C   UNL     1     -10.599  10.207  70.245  1.00  0.00    -0.264 C  
BRANCH  17  18
HETATM   18  N   UNL     1     -10.829  11.055  69.061  1.00  0.00    -0.214 NA 
HETATM   19  C   UNL     1      -9.668  11.876  68.702  1.00  0.00    -0.108 C  
HETATM   20  C   UNL     1      -9.961  12.274  67.273  1.00  0.00    -0.210 C  
HETATM   21  C   UNL     1     -10.576  11.020  66.682  1.00  0.00    -0.315 C  
HETATM   22  C   UNL     1     -11.177  10.270  67.870  1.00  0.00    -0.220 C  
ENDBRANCH  17  18
ENDBRANCH   6  17
TORSDOF 2
ENDMDL
MODEL      127
REMARK 921   NORMALIZED FREE ENERGY PREDICTED BY IDOCK:   -3.67 KCAL/MOL
REMARK 922        TOTAL FREE ENERGY PREDICTED BY IDOCK:   -4.78 KCAL/MOL
REMARK 923 INTER-LIGAND FREE ENERGY PREDICTED BY IDOCK:   -4.22 KCAL/MOL
REMARK 924 INTRA-LIGAND FREE ENERGY PREDICTED BY IDOCK:   -0.56 KCAL/MOL
REMARK 927      BINDING AFFINITY PREDICTED BY RF-SCORE:    0.00 PKD
ROOT
HETATM    1  O   UNL     1      -7.824  10.785  66.008  1.00  0.00    -0.156 OA 
HETATM    2  C   UNL     1      -8.511   9.567  66.306  1.00  0.00    -0.115 C  
HETATM    3  H   UNL     1      -6.909  10.670  66.234  1.00  0.00     0.000 HD 
HETATM    4  C   UNL     1      -8.382   9.292  67.820  1.00  0.00    -0.116 A  
HETATM    5  C   UNL     1      -7.919   8.383  65.434  1.00  0.00    -0.122 C  
HETATM    6  C   UNL     1     -10.010   9.755  65.937  1.00  0.00    -0.345 C  
HETATM    7  C   UNL     1      -5.445   9.031  65.215  1.00  0.00    -0.038 C  
HETATM    8  C   UNL     1      -8.038   8.546  63.899  1.00  0.00    -0.155 C  
HETATM    9  C   UNL     1      -7.667  10.164  68.662  1.00  0.00    -0.092 A  
HETATM   10  C   UNL     1      -7.610   9.960  70.045  1.00  0.00    -0.179 A  
HETATM   11  C   UNL     1      -6.454   8.013  65.731  1.00  0.00    -0.042 C  
HETATM   12  C   UNL     1      -7.071   9.548  63.277  1.00  0.00    -0.103 C  
HETATM   13  C   UNL     1      -5.628   9.381  63.740  1.00  0.00    -0.071 C  
HETATM   14  C   UNL     1      -8.264   8.874  70.617  1.00  0.00    -0.183 A  
HETATM   15  C   UNL     1      -9.021   8.192  68.420  1.00  0.00    -0.136 A  
HETATM   16  C   UNL     1      -8.964   7.986  69.806  1.00  0.00    -0.145 A  
ENDROOT
BRANCH   6  17
HETATM   17  C   UNL     1     -10.769  10.854  66.697  1.00  0.00    -0.230 C  
BRANCH  17  18
HETATM   18  N   UNL     1     -10.860  12.069  65.866  1.00  0.00    -0.278 NA 
HETATM   19  C   UNL     1     -11.186  11.788  64.465  1.00  0.00    -0.305 C  
HETATM   20  C   UNL     1     -11.665  13.129  63.952  1.00  0.00    -0.515 C  
HETATM   21  C   UNL     1     -12.460  13.682  65.118  1.00  0.00    -0.488 C  
HETATM   22  C   UNL     1     -11.877  13.007  66.358  1.00  0.00    -0.405 C  
ENDBRANCH  17  18
ENDBRANCH   6  17
TORSDOF 2
ENDMDL
MODEL      128
REMARK 921   NORMALIZED FREE ENERGY PREDICTED BY IDOCK:   -3.67 KCAL/MOL
REMARK 922        TOTAL FREE ENERGY PREDICTED BY IDOCK:   -4.77 KCAL/MOL
REMARK 923 INTER-LIGAND FREE ENERGY PREDICTED BY IDOCK:   -4.35 KCAL/MOL
REMARK 924 INTRA-LIGAND FREE ENERGY PREDICTED BY IDOCK:   -0.42 KCAL/MOL
REMARK 927      BINDING AFFINITY PREDICTED BY RF-SCORE:    0.00 PKD
ROOT
HETATM    1  O   UNL     1      -8.624  14.206  69.015  1.00  0.00    -0.350 OA 
HETATM    2  C   UNL     1      -7.931  13.798  67.833  1.00  0.00    -0.157 C  
HETATM    3  H   UNL     1      -7.978  14.393  69.686  1.00  0.00     0.000 HD 
HETATM    4  C   UNL     1      -7.131  12.517  68.154  1.00  0.00    -0.103 A  
HETATM    5  C   UNL     1      -6.994  14.971  67.321  1.00  0.00    -0.087 C  
HETATM    6  C   UNL     1      -8.988  13.491  66.735  1.00  0.00    -0.188 C  
HETATM    7  C   UNL     1      -6.281  16.112  69.507  1.00  0.00    -0.181 C  
HETATM    8  C   UNL     1      -7.708  16.289  66.934  1.00  0.00    -0.278 C  
HETATM    9  C   UNL     1      -7.150  11.947  69.440  1.00  0.00     0.055 A  
HETATM   10  C   UNL     1      -6.488  10.747  69.717  1.00  0.00    -0.118 A  
HETATM   11  C   UNL     1      -5.838  15.351  68.263  1.00  0.00    -0.119 C  
HETATM   12  C   UNL     1      -8.198  17.130  68.108  1.00  0.00    -0.224 C  
HETATM   13  C   UNL     1      -7.154  17.328  69.202  1.00  0.00    -0.204 C  
HETATM   14  C   UNL     1      -5.787  10.089  68.712  1.00  0.00    -0.034 A  
HETATM   15  C   UNL     1      -6.402  11.842  67.158  1.00  0.00    -0.151 A  
HETATM   16  C   UNL     1      -5.738  10.639  67.434  1.00  0.00    -0.044 A  
ENDROOT
BRANCH   6  17
HETATM   17  C   UNL     1      -9.984  12.361  67.040  1.00  0.00    -0.212 C  
BRANCH  17  18
HETATM   18  N   UNL     1     -11.224  12.560  66.269  1.00  0.00    -0.299 NA 
HETATM   19  C   UNL     1     -11.923  13.804  66.608  1.00  0.00    -0.431 C  
HETATM   20  C   UNL     1     -12.847  14.007  65.427  1.00  0.00    -0.442 C  
HETATM   21  C   UNL     1     -12.001  13.574  64.246  1.00  0.00    -0.479 C  
HETATM   22  C   UNL     1     -10.982  12.593  64.820  1.00  0.00    -0.302 C  
ENDBRANCH  17  18
ENDBRANCH   6  17
TORSDOF 2
ENDMDL
MODEL      129
REMARK 921   NORMALIZED FREE ENERGY PREDICTED BY IDOCK:   -3.67 KCAL/MOL
REMARK 922        TOTAL FREE ENERGY PREDICTED BY IDOCK:   -4.77 KCAL/MOL
REMARK 923 INTER-LIGAND FREE ENERGY PREDICTED BY IDOCK:   -4.44 KCAL/MOL
REMARK 924 INTRA-LIGAND FREE ENERGY PREDICTED BY IDOCK:   -0.33 KCAL/MOL
REMARK 927      BINDING AFFINITY PREDICTED BY RF-SCORE:    0.00 PKD
ROOT
HETATM    1  O   UNL     1      -7.336  17.007  66.592  1.00  0.00    -0.204 OA 
HETATM    2  C   UNL     1      -7.925  16.503  67.793  1.00  0.00    -0.160 C  
HETATM    3  H   UNL     1      -7.930  17.647  66.219  1.00  0.00     0.000 HD 
HETATM    4  C   UNL     1      -9.262  15.820  67.431  1.00  0.00    -0.208 A  
HETATM    5  C   UNL     1      -8.122  17.680  68.837  1.00  0.00    -0.162 C  
HETATM    6  C   UNL     1      -6.953  15.454  68.404  1.00  0.00    -0.111 C  
HETATM    7  C   UNL     1      -8.600  19.697  67.323  1.00  0.00    -0.356 C  
HETATM    8  C   UNL     1      -6.832  18.403  69.295  1.00  0.00    -0.221 C  
HETATM    9  C   UNL     1      -9.725  15.778  66.103  1.00  0.00    -0.351 A  
HETATM   10  C   UNL     1     -10.897  15.097  65.760  1.00  0.00    -0.358 A  
HETATM   11  C   UNL     1      -9.121  18.774  68.418  1.00  0.00    -0.372 C  
HETATM   12  C   UNL     1      -6.222  19.353  68.269  1.00  0.00    -0.254 C  
HETATM   13  C   UNL     1      -7.232  20.301  67.632  1.00  0.00    -0.336 C  
HETATM   14  C   UNL     1     -11.637  14.444  66.740  1.00  0.00    -0.399 A  
HETATM   15  C   UNL     1     -10.036  15.166  68.407  1.00  0.00    -0.222 A  
HETATM   16  C   UNL     1     -11.211  14.483  68.064  1.00  0.00    -0.308 A  
ENDROOT
BRANCH   6  17
HETATM   17  C   UNL     1      -6.650  14.218  67.542  1.00  0.00    -0.075 C  
BRANCH  17  18
HETATM   18  N   UNL     1      -6.009  13.176  68.364  1.00  0.00    -0.076 NA 
HETATM   19  C   UNL     1      -6.966  12.381  69.139  1.00  0.00    -0.034 C  
HETATM   20  C   UNL     1      -6.166  11.150  69.507  1.00  0.00    -0.091 C  
HETATM   21  C   UNL     1      -5.353  10.878  68.257  1.00  0.00    -0.039 C  
HETATM   22  C   UNL     1      -5.227  12.230  67.558  1.00  0.00    -0.105 C  
ENDBRANCH  17  18
ENDBRANCH   6  17
TORSDOF 2
ENDMDL
MODEL      130
REMARK 921   NORMALIZED FREE ENERGY PREDICTED BY IDOCK:   -3.66 KCAL/MOL
REMARK 922        TOTAL FREE ENERGY PREDICTED BY IDOCK:   -4.77 KCAL/MOL
REMARK 923 INTER-LIGAND FREE ENERGY PREDICTED BY IDOCK:   -4.34 KCAL/MOL
REMARK 924 INTRA-LIGAND FREE ENERGY PREDICTED BY IDOCK:   -0.43 KCAL/MOL
REMARK 927      BINDING AFFINITY PREDICTED BY RF-SCORE:    0.00 PKD
ROOT
HETATM    1  O   UNL     1     -10.370   8.302  67.846  1.00  0.00    -0.209 OA 
HETATM    2  C   UNL     1      -9.531   9.301  68.431  1.00  0.00    -0.138 C  
HETATM    3  H   UNL     1     -10.333   8.401  66.902  1.00  0.00     0.000 HD 
HETATM    4  C   UNL     1     -10.077  10.689  68.034  1.00  0.00    -0.181 A  
HETATM    5  C   UNL     1      -8.032   9.094  67.960  1.00  0.00    -0.101 C  
HETATM    6  C   UNL     1      -9.594   9.139  69.977  1.00  0.00    -0.218 C  
HETATM    7  C   UNL     1      -8.314   8.166  65.584  1.00  0.00    -0.148 C  
HETATM    8  C   UNL     1      -7.379   7.745  68.347  1.00  0.00    -0.095 C  
HETATM    9  C   UNL     1     -11.213  10.820  67.214  1.00  0.00    -0.272 A  
HETATM   10  C   UNL     1     -11.755  12.074  66.912  1.00  0.00    -0.342 A  
HETATM   11  C   UNL     1      -7.779   9.296  66.455  1.00  0.00    -0.093 C  
HETATM   12  C   UNL     1      -7.848   6.541  67.536  1.00  0.00    -0.113 C  
HETATM   13  C   UNL     1      -7.856   6.779  66.030  1.00  0.00    -0.104 C  
HETATM   14  C   UNL     1     -11.169  13.228  67.421  1.00  0.00    -0.316 A  
HETATM   15  C   UNL     1      -9.493  11.872  68.524  1.00  0.00    -0.151 A  
HETATM   16  C   UNL     1     -10.035  13.129  68.221  1.00  0.00    -0.236 A  
ENDROOT
BRANCH   6  17
HETATM   17  C   UNL     1     -10.973   9.324  70.629  1.00  0.00    -0.276 C  
BRANCH  17  18
HETATM   18  N   UNL     1     -11.070   8.497  71.845  1.00  0.00    -0.301 NA 
HETATM   19  C   UNL     1     -11.633   7.167  71.597  1.00  0.00    -0.276 C  
HETATM   20  C   UNL     1     -11.214   6.386  72.824  1.00  0.00    -0.261 C  
HETATM   21  C   UNL     1      -9.811   6.892  73.095  1.00  0.00    -0.213 C  
HETATM   22  C   UNL     1      -9.765   8.291  72.487  1.00  0.00    -0.298 C  
ENDBRANCH  17  18
ENDBRANCH   6  17
TORSDOF 2
ENDMDL
MODEL      131
REMARK 921   NORMALIZED FREE ENERGY PREDICTED BY IDOCK:   -3.65 KCAL/MOL
REMARK 922        TOTAL FREE ENERGY PREDICTED BY IDOCK:   -4.76 KCAL/MOL
REMARK 923 INTER-LIGAND FREE ENERGY PREDICTED BY IDOCK:   -4.26 KCAL/MOL
REMARK 924 INTRA-LIGAND FREE ENERGY PREDICTED BY IDOCK:   -0.50 KCAL/MOL
REMARK 927      BINDING AFFINITY PREDICTED BY RF-SCORE:    0.00 PKD
ROOT
HETATM    1  O   UNL     1     -11.317   7.573  67.218  1.00  0.00    -0.435 OA 
HETATM    2  C   UNL     1      -9.963   7.153  67.400  1.00  0.00    -0.172 C  
HETATM    3  H   UNL     1     -11.537   8.173  67.921  1.00  0.00     0.000 HD 
HETATM    4  C   UNL     1      -9.856   6.423  68.756  1.00  0.00    -0.152 A  
HETATM    5  C   UNL     1      -8.992   8.404  67.320  1.00  0.00    -0.142 C  
HETATM    6  C   UNL     1      -9.603   6.171  66.249  1.00  0.00    -0.123 C  
HETATM    7  C   UNL     1     -10.426  10.290  68.307  1.00  0.00    -0.230 C  
HETATM    8  C   UNL     1      -8.996   9.181  65.981  1.00  0.00    -0.221 C  
HETATM    9  C   UNL     1     -10.976   6.272  69.594  1.00  0.00    -0.440 A  
HETATM   10  C   UNL     1     -10.902   5.548  70.788  1.00  0.00    -0.249 A  
HETATM   11  C   UNL     1      -9.164   9.446  68.440  1.00  0.00    -0.127 C  
HETATM   12  C   UNL     1     -10.220  10.058  65.744  1.00  0.00    -0.270 C  
HETATM   13  C   UNL     1     -10.587  10.939  66.934  1.00  0.00    -0.312 C  
HETATM   14  C   UNL     1      -9.701   4.960  71.174  1.00  0.00    -0.245 A  
HETATM   15  C   UNL     1      -8.649   5.835  69.176  1.00  0.00    -0.110 A  
HETATM   16  C   UNL     1      -8.574   5.108  70.373  1.00  0.00    -0.122 A  
ENDROOT
BRANCH   6  17
HETATM   17  C   UNL     1     -10.429   4.877  66.171  1.00  0.00    -0.302 C  
BRANCH  17  18
HETATM   18  N   UNL     1      -9.579   3.764  65.711  1.00  0.00    -0.176 NA 
HETATM   19  C   UNL     1      -9.725   3.478  64.281  1.00  0.00    -0.171 C  
HETATM   20  C   UNL     1      -8.485   2.670  63.967  1.00  0.00    -0.086 C  
HETATM   21  C   UNL     1      -7.410   3.351  64.791  1.00  0.00    -0.071 C  
HETATM   22  C   UNL     1      -8.152   4.015  65.949  1.00  0.00    -0.101 C  
ENDBRANCH  17  18
ENDBRANCH   6  17
TORSDOF 2
ENDMDL
MODEL      132
REMARK 921   NORMALIZED FREE ENERGY PREDICTED BY IDOCK:   -3.62 KCAL/MOL
REMARK 922        TOTAL FREE ENERGY PREDICTED BY IDOCK:   -4.73 KCAL/MOL
REMARK 923 INTER-LIGAND FREE ENERGY PREDICTED BY IDOCK:   -4.25 KCAL/MOL
REMARK 924 INTRA-LIGAND FREE ENERGY PREDICTED BY IDOCK:   -0.48 KCAL/MOL
REMARK 927      BINDING AFFINITY PREDICTED BY RF-SCORE:    0.00 PKD
ROOT
HETATM    1  O   UNL     1      -8.450   7.967  68.767  1.00  0.00    -0.126 OA 
HETATM    2  C   UNL     1      -9.460   7.045  68.350  1.00  0.00    -0.133 C  
HETATM    3  H   UNL     1      -7.688   7.839  68.216  1.00  0.00     0.000 HD 
HETATM    4  C   UNL     1      -8.918   5.611  68.541  1.00  0.00    -0.115 A  
HETATM    5  C   UNL     1      -9.869   7.330  66.845  1.00  0.00    -0.279 C  
HETATM    6  C   UNL     1     -10.708   7.254  69.253  1.00  0.00    -0.212 C  
HETATM    7  C   UNL     1      -7.668   8.157  65.814  1.00  0.00    -0.092 C  
HETATM    8  C   UNL     1     -10.462   8.731  66.558  1.00  0.00    -0.152 C  
HETATM    9  C   UNL     1      -7.622   5.380  69.038  1.00  0.00    -0.085 A  
HETATM   10  C   UNL     1      -7.154   4.085  69.283  1.00  0.00    -0.047 A  
HETATM   11  C   UNL     1      -8.760   7.094  65.804  1.00  0.00    -0.125 C  
HETATM   12  C   UNL     1      -9.452   9.874  66.549  1.00  0.00    -0.230 C  
HETATM   13  C   UNL     1      -8.203   9.584  65.723  1.00  0.00    -0.116 C  
HETATM   14  C   UNL     1      -7.973   2.989  69.031  1.00  0.00    -0.065 A  
HETATM   15  C   UNL     1      -9.721   4.486  68.279  1.00  0.00    -0.186 A  
HETATM   16  C   UNL     1      -9.253   3.187  68.524  1.00  0.00    -0.230 A  
ENDROOT
BRANCH   6  17
HETATM   17  C   UNL     1     -10.515   7.004  70.757  1.00  0.00    -0.212 C  
BRANCH  17  18
HETATM   18  N   UNL     1     -11.167   8.075  71.533  1.00  0.00    -0.248 NA 
HETATM   19  C   UNL     1     -11.172   9.369  70.843  1.00  0.00    -0.325 C  
HETATM   20  C   UNL     1     -12.244  10.142  71.578  1.00  0.00    -0.473 C  
HETATM   21  C   UNL     1     -13.309   9.095  71.841  1.00  0.00    -0.490 C  
HETATM   22  C   UNL     1     -12.565   7.761  71.854  1.00  0.00    -0.311 C  
ENDBRANCH  17  18
ENDBRANCH   6  17
TORSDOF 2
ENDMDL
MODEL      133
REMARK 921   NORMALIZED FREE ENERGY PREDICTED BY IDOCK:   -3.62 KCAL/MOL
REMARK 922        TOTAL FREE ENERGY PREDICTED BY IDOCK:   -4.73 KCAL/MOL
REMARK 923 INTER-LIGAND FREE ENERGY PREDICTED BY IDOCK:   -4.14 KCAL/MOL
REMARK 924 INTRA-LIGAND FREE ENERGY PREDICTED BY IDOCK:   -0.59 KCAL/MOL
REMARK 927      BINDING AFFINITY PREDICTED BY RF-SCORE:    0.00 PKD
ROOT
HETATM    1  O   UNL     1     -10.209   7.544  70.008  1.00  0.00    -0.206 OA 
HETATM    2  C   UNL     1      -9.619   8.446  70.948  1.00  0.00    -0.175 C  
HETATM    3  H   UNL     1     -10.362   6.717  70.449  1.00  0.00     0.000 HD 
HETATM    4  C   UNL     1      -8.273   7.851  71.415  1.00  0.00    -0.115 A  
HETATM    5  C   UNL     1     -10.612   8.694  72.159  1.00  0.00    -0.411 C  
HETATM    6  C   UNL     1      -9.368   9.800  70.225  1.00  0.00    -0.236 C  
HETATM    7  C   UNL     1     -11.821   6.439  72.363  1.00  0.00    -0.255 C  
HETATM    8  C   UNL     1     -11.978   9.327  71.797  1.00  0.00    -0.455 C  
HETATM    9  C   UNL     1      -7.816   6.610  70.933  1.00  0.00    -0.105 A  
HETATM   10  C   UNL     1      -6.565   6.103  71.296  1.00  0.00    -0.051 A  
HETATM   11  C   UNL     1     -10.910   7.461  73.031  1.00  0.00    -0.423 C  
HETATM   12  C   UNL     1     -12.968   8.388  71.117  1.00  0.00    -0.065 C  
HETATM   13  C   UNL     1     -13.113   7.038  71.812  1.00  0.00    -0.343 C  
HETATM   14  C   UNL     1      -5.741   6.824  72.154  1.00  0.00    -0.038 A  
HETATM   15  C   UNL     1      -7.430   8.555  72.294  1.00  0.00    -0.100 A  
HETATM   16  C   UNL     1      -6.175   8.046  72.658  1.00  0.00    -0.066 A  
ENDROOT
BRANCH   6  17
HETATM   17  C   UNL     1      -8.409   9.768  69.025  1.00  0.00    -0.127 C  
BRANCH  17  18
HETATM   18  N   UNL     1      -9.165   9.528  67.783  1.00  0.00    -0.125 NA 
HETATM   19  C   UNL     1      -9.490  10.760  67.057  1.00  0.00    -0.164 C  
HETATM   20  C   UNL     1      -9.825  10.259  65.669  1.00  0.00    -0.332 C  
HETATM   21  C   UNL     1      -8.813   9.152  65.446  1.00  0.00    -0.236 C  
HETATM   22  C   UNL     1      -8.439   8.664  66.844  1.00  0.00    -0.112 C  
ENDBRANCH  17  18
ENDBRANCH   6  17
TORSDOF 2
ENDMDL
MODEL      134
REMARK 921   NORMALIZED FREE ENERGY PREDICTED BY IDOCK:   -3.58 KCAL/MOL
REMARK 922        TOTAL FREE ENERGY PREDICTED BY IDOCK:   -4.68 KCAL/MOL
REMARK 923 INTER-LIGAND FREE ENERGY PREDICTED BY IDOCK:   -4.23 KCAL/MOL
REMARK 924 INTRA-LIGAND FREE ENERGY PREDICTED BY IDOCK:   -0.44 KCAL/MOL
REMARK 927      BINDING AFFINITY PREDICTED BY RF-SCORE:    0.00 PKD
ROOT
HETATM    1  O   UNL     1      -8.805  10.156  70.335  1.00  0.00    -0.304 OA 
HETATM    2  C   UNL     1      -9.397   9.597  69.160  1.00  0.00    -0.172 C  
HETATM    3  H   UNL     1      -9.497  10.545  70.857  1.00  0.00     0.000 HD 
HETATM    4  C   UNL     1     -10.070  10.736  68.364  1.00  0.00    -0.183 A  
HETATM    5  C   UNL     1     -10.429   8.461  69.560  1.00  0.00    -0.225 C  
HETATM    6  C   UNL     1      -8.265   8.961  68.305  1.00  0.00    -0.121 C  
HETATM    7  C   UNL     1     -11.357   9.311  71.797  1.00  0.00    -0.437 C  
HETATM    8  C   UNL     1      -9.843   7.253  70.330  1.00  0.00    -0.179 C  
HETATM    9  C   UNL     1     -10.048  12.064  68.828  1.00  0.00    -0.113 A  
HETATM   10  C   UNL     1     -10.590  13.110  68.075  1.00  0.00    -0.246 A  
HETATM   11  C   UNL     1     -11.661   8.938  70.352  1.00  0.00    -0.123 C  
HETATM   12  C   UNL     1      -9.499   7.519  71.791  1.00  0.00    -0.170 C  
HETATM   13  C   UNL     1     -10.606   8.226  72.565  1.00  0.00    -0.407 C  
HETATM   14  C   UNL     1     -11.172  12.850  66.838  1.00  0.00    -0.331 A  
HETATM   15  C   UNL     1     -10.677  10.496  67.118  1.00  0.00    -0.323 A  
HETATM   16  C   UNL     1     -11.222  11.544  66.362  1.00  0.00    -0.307 A  
ENDROOT
BRANCH   6  17
HETATM   17  C   UNL     1      -7.170   9.914  67.802  1.00  0.00    -0.088 C  
BRANCH  17  18
HETATM   18  N   UNL     1      -6.644   9.439  66.510  1.00  0.00    -0.067 NA 
HETATM   19  C   UNL     1      -7.662   8.802  65.670  1.00  0.00    -0.091 C  
HETATM   20  C   UNL     1      -7.033   8.826  64.294  1.00  0.00    -0.088 C  
HETATM   21  C   UNL     1      -6.339  10.174  64.253  1.00  0.00    -0.126 C  
HETATM   22  C   UNL     1      -6.055  10.523  65.713  1.00  0.00    -0.133 C  
ENDBRANCH  17  18
ENDBRANCH   6  17
TORSDOF 2
ENDMDL
MODEL      135
REMARK 921   NORMALIZED FREE ENERGY PREDICTED BY IDOCK:   -3.58 KCAL/MOL
REMARK 922        TOTAL FREE ENERGY PREDICTED BY IDOCK:   -4.68 KCAL/MOL
REMARK 923 INTER-LIGAND FREE ENERGY PREDICTED BY IDOCK:   -4.35 KCAL/MOL
REMARK 924 INTRA-LIGAND FREE ENERGY PREDICTED BY IDOCK:   -0.33 KCAL/MOL
REMARK 927      BINDING AFFINITY PREDICTED BY RF-SCORE:    0.00 PKD
ROOT
HETATM    1  O   UNL     1     -10.656  10.569  67.663  1.00  0.00    -0.212 OA 
HETATM    2  C   UNL     1      -9.228  10.587  67.598  1.00  0.00    -0.145 C  
HETATM    3  H   UNL     1     -10.953   9.707  67.395  1.00  0.00     0.000 HD 
HETATM    4  C   UNL     1      -8.804  10.326  66.136  1.00  0.00    -0.166 A  
HETATM    5  C   UNL     1      -8.625   9.511  68.593  1.00  0.00    -0.119 C  
HETATM    6  C   UNL     1      -8.743  11.998  68.037  1.00  0.00    -0.175 C  
HETATM    7  C   UNL     1     -10.392   7.650  68.543  1.00  0.00    -0.225 C  
HETATM    8  C   UNL     1      -8.961   9.710  70.092  1.00  0.00    -0.273 C  
HETATM    9  C   UNL     1      -9.760  10.106  65.127  1.00  0.00    -0.370 A  
HETATM   10  C   UNL     1      -9.384   9.943  63.789  1.00  0.00    -0.250 A  
HETATM   11  C   UNL     1      -8.949   8.044  68.255  1.00  0.00    -0.132 C  
HETATM   12  C   UNL     1     -10.388   9.346  70.490  1.00  0.00    -0.341 C  
HETATM   13  C   UNL     1     -10.850   7.993  69.959  1.00  0.00    -0.235 C  
HETATM   14  C   UNL     1      -8.041   9.992  63.431  1.00  0.00    -0.158 A  
HETATM   15  C   UNL     1      -7.452  10.356  65.752  1.00  0.00    -0.147 A  
HETATM   16  C   UNL     1      -7.074  10.192  64.411  1.00  0.00    -0.111 A  
ENDROOT
BRANCH   6  17
HETATM   17  C   UNL     1      -9.211  13.181  67.176  1.00  0.00    -0.227 C  
BRANCH  17  18
HETATM   18  N   UNL     1      -8.304  14.328  67.361  1.00  0.00    -0.187 NA 
HETATM   19  C   UNL     1      -8.671  15.493  66.550  1.00  0.00    -0.305 C  
HETATM   20  C   UNL     1      -7.927  16.625  67.224  1.00  0.00    -0.193 C  
HETATM   21  C   UNL     1      -8.057  16.296  68.699  1.00  0.00    -0.213 C  
HETATM   22  C   UNL     1      -8.253  14.783  68.756  1.00  0.00    -0.163 C  
ENDBRANCH  17  18
ENDBRANCH   6  17
TORSDOF 2
ENDMDL
MODEL      136
REMARK 921   NORMALIZED FREE ENERGY PREDICTED BY IDOCK:   -3.56 KCAL/MOL
REMARK 922        TOTAL FREE ENERGY PREDICTED BY IDOCK:   -4.65 KCAL/MOL
REMARK 923 INTER-LIGAND FREE ENERGY PREDICTED BY IDOCK:   -4.08 KCAL/MOL
REMARK 924 INTRA-LIGAND FREE ENERGY PREDICTED BY IDOCK:   -0.57 KCAL/MOL
REMARK 927      BINDING AFFINITY PREDICTED BY RF-SCORE:    0.00 PKD
ROOT
HETATM    1  O   UNL     1     -10.406   9.922  67.335  1.00  0.00    -0.213 OA 
HETATM    2  C   UNL     1      -9.035  10.051  67.717  1.00  0.00    -0.131 C  
HETATM    3  H   UNL     1     -10.584   9.001  67.181  1.00  0.00     0.000 HD 
HETATM    4  C   UNL     1      -8.155   9.541  66.555  1.00  0.00    -0.112 A  
HETATM    5  C   UNL     1      -8.767   9.252  69.060  1.00  0.00    -0.135 C  
HETATM    6  C   UNL     1      -8.744  11.558  67.969  1.00  0.00    -0.151 C  
HETATM    7  C   UNL     1     -10.388   7.271  68.865  1.00  0.00    -0.207 C  
HETATM    8  C   UNL     1      -9.574   9.715  70.297  1.00  0.00    -0.307 C  
HETATM    9  C   UNL     1      -8.728   9.042  65.370  1.00  0.00    -0.221 A  
HETATM   10  C   UNL     1      -7.936   8.648  64.286  1.00  0.00    -0.148 A  
HETATM   11  C   UNL     1      -8.937   7.724  68.964  1.00  0.00    -0.145 C  
HETATM   12  C   UNL     1     -11.046   9.316  70.299  1.00  0.00    -0.289 C  
HETATM   13  C   UNL     1     -11.286   7.849  69.957  1.00  0.00    -0.105 C  
HETATM   14  C   UNL     1      -6.550   8.742  64.364  1.00  0.00    -0.071 A  
HETATM   15  C   UNL     1      -6.752   9.612  66.616  1.00  0.00    -0.079 A  
HETATM   16  C   UNL     1      -5.957   9.217  65.530  1.00  0.00    -0.059 A  
ENDROOT
BRANCH   6  17
HETATM   17  C   UNL     1      -8.930  12.500  66.770  1.00  0.00    -0.198 C  
BRANCH  17  18
HETATM   18  N   UNL     1     -10.054  13.419  67.021  1.00  0.00    -0.244 NA 
HETATM   19  C   UNL     1     -11.227  13.141  66.186  1.00  0.00    -0.295 C  
HETATM   20  C   UNL     1     -12.341  13.860  66.914  1.00  0.00    -0.331 C  
HETATM   21  C   UNL     1     -12.018  13.613  68.375  1.00  0.00    -0.391 C  
HETATM   22  C   UNL     1     -10.510  13.377  68.417  1.00  0.00    -0.250 C  
ENDBRANCH  17  18
ENDBRANCH   6  17
TORSDOF 2
ENDMDL
MODEL      137
REMARK 921   NORMALIZED FREE ENERGY PREDICTED BY IDOCK:   -3.50 KCAL/MOL
REMARK 922        TOTAL FREE ENERGY PREDICTED BY IDOCK:   -4.58 KCAL/MOL
REMARK 923 INTER-LIGAND FREE ENERGY PREDICTED BY IDOCK:   -4.19 KCAL/MOL
REMARK 924 INTRA-LIGAND FREE ENERGY PREDICTED BY IDOCK:   -0.40 KCAL/MOL
REMARK 927      BINDING AFFINITY PREDICTED BY RF-SCORE:    0.00 PKD
ROOT
HETATM    1  O   UNL     1      -7.662   8.490  69.752  1.00  0.00    -0.087 OA 
HETATM    2  C   UNL     1      -8.762   7.827  69.124  1.00  0.00    -0.139 C  
HETATM    3  H   UNL     1      -6.860   8.174  69.352  1.00  0.00     0.000 HD 
HETATM    4  C   UNL     1      -8.622   6.309  69.372  1.00  0.00    -0.125 A  
HETATM    5  C   UNL     1      -8.796   8.177  67.579  1.00  0.00    -0.137 C  
HETATM    6  C   UNL     1     -10.074   8.343  69.780  1.00  0.00    -0.197 C  
HETATM    7  C   UNL     1      -6.307   8.439  67.009  1.00  0.00    -0.057 C  
HETATM    8  C   UNL     1      -8.974   9.674  67.226  1.00  0.00    -0.146 C  
HETATM    9  C   UNL     1      -7.538   5.785  70.099  1.00  0.00    -0.086 A  
HETATM   10  C   UNL     1      -7.445   4.419  70.389  1.00  0.00    -0.049 A  
HETATM   11  C   UNL     1      -7.596   7.666  66.760  1.00  0.00    -0.098 C  
HETATM   12  C   UNL     1      -7.740  10.543  67.443  1.00  0.00    -0.102 C  
HETATM   13  C   UNL     1      -6.460   9.951  66.860  1.00  0.00    -0.066 C  
HETATM   14  C   UNL     1      -8.436   3.545  69.954  1.00  0.00    -0.089 A  
HETATM   15  C   UNL     1      -9.603   5.403  68.929  1.00  0.00    -0.188 A  
HETATM   16  C   UNL     1      -9.512   4.035  69.219  1.00  0.00    -0.260 A  
ENDROOT
BRANCH   6  17
HETATM   17  C   UNL     1     -10.237   8.079  71.285  1.00  0.00    -0.192 C  
BRANCH  17  18
HETATM   18  N   UNL     1     -11.222   9.015  71.857  1.00  0.00    -0.373 NA 
HETATM   19  C   UNL     1     -11.555  10.124  70.958  1.00  0.00    -0.376 C  
HETATM   20  C   UNL     1     -12.853  10.649  71.532  1.00  0.00    -0.567 C  
HETATM   21  C   UNL     1     -13.583   9.388  71.949  1.00  0.00    -0.482 C  
HETATM   22  C   UNL     1     -12.488   8.355  72.201  1.00  0.00    -0.370 C  
ENDBRANCH  17  18
ENDBRANCH   6  17
TORSDOF 2
ENDMDL
MODEL      138
REMARK 921   NORMALIZED FREE ENERGY PREDICTED BY IDOCK:   -3.39 KCAL/MOL
REMARK 922        TOTAL FREE ENERGY PREDICTED BY IDOCK:   -4.46 KCAL/MOL
REMARK 923 INTER-LIGAND FREE ENERGY PREDICTED BY IDOCK:   -4.00 KCAL/MOL
REMARK 924 INTRA-LIGAND FREE ENERGY PREDICTED BY IDOCK:   -0.46 KCAL/MOL
REMARK 927      BINDING AFFINITY PREDICTED BY RF-SCORE:    0.00 PKD
ROOT
HETATM    1  O   UNL     1      -8.824  14.064  69.297  1.00  0.00    -0.351 OA 
HETATM    2  C   UNL     1      -8.396  13.653  67.997  1.00  0.00    -0.170 C  
HETATM    3  H   UNL     1      -8.455  13.463  69.934  1.00  0.00     0.000 HD 
HETATM    4  C   UNL     1      -8.931  12.229  67.736  1.00  0.00    -0.177 A  
HETATM    5  C   UNL     1      -6.815  13.721  67.900  1.00  0.00    -0.159 C  
HETATM    6  C   UNL     1      -9.001  14.637  66.956  1.00  0.00    -0.258 C  
HETATM    7  C   UNL     1      -6.081  13.140  70.290  1.00  0.00    -0.079 C  
HETATM    8  C   UNL     1      -6.182  15.119  68.108  1.00  0.00    -0.140 C  
HETATM    9  C   UNL     1      -9.693  11.546  68.702  1.00  0.00    -0.172 A  
HETATM   10  C   UNL     1     -10.242  10.286  68.441  1.00  0.00    -0.189 A  
HETATM   11  C   UNL     1      -6.054  12.747  68.818  1.00  0.00    -0.071 C  
HETATM   12  C   UNL     1      -6.161  15.612  69.551  1.00  0.00    -0.139 C  
HETATM   13  C   UNL     1      -5.644  14.580  70.547  1.00  0.00    -0.147 C  
HETATM   14  C   UNL     1     -10.039   9.678  67.207  1.00  0.00    -0.267 A  
HETATM   15  C   UNL     1      -8.726  11.586  66.501  1.00  0.00    -0.183 A  
HETATM   16  C   UNL     1      -9.276  10.324  66.239  1.00  0.00    -0.191 A  
ENDROOT
BRANCH   6  17
HETATM   17  C   UNL     1     -10.535  14.700  66.885  1.00  0.00    -0.270 C  
BRANCH  17  18
HETATM   18  N   UNL     1     -10.971  16.089  66.655  1.00  0.00    -0.171 NA 
HETATM   19  C   UNL     1     -10.397  17.041  67.610  1.00  0.00    -0.332 C  
HETATM   20  C   UNL     1     -10.598  18.374  66.924  1.00  0.00    -0.381 C  
HETATM   21  C   UNL     1     -10.318  18.061  65.467  1.00  0.00     0.104 C  
HETATM   22  C   UNL     1     -10.618  16.571  65.313  1.00  0.00    -0.253 C  
ENDBRANCH  17  18
ENDBRANCH   6  17
TORSDOF 2
ENDMDL
MODEL      139
REMARK 921   NORMALIZED FREE ENERGY PREDICTED BY IDOCK:   -3.35 KCAL/MOL
REMARK 922        TOTAL FREE ENERGY PREDICTED BY IDOCK:   -4.42 KCAL/MOL
REMARK 923 INTER-LIGAND FREE ENERGY PREDICTED BY IDOCK:   -3.74 KCAL/MOL
REMARK 924 INTRA-LIGAND FREE ENERGY PREDICTED BY IDOCK:   -0.68 KCAL/MOL
REMARK 927      BINDING AFFINITY PREDICTED BY RF-SCORE:    0.00 PKD
ROOT
HETATM    1  O   UNL     1      -9.956   5.896  68.051  1.00  0.00    -0.122 OA 
HETATM    2  C   UNL     1      -8.680   6.511  67.857  1.00  0.00    -0.116 C  
HETATM    3  H   UNL     1     -10.361   5.781  67.199  1.00  0.00     0.000 HD 
HETATM    4  C   UNL     1      -8.899   7.889  67.197  1.00  0.00    -0.137 A  
HETATM    5  C   UNL     1      -7.753   5.571  66.979  1.00  0.00    -0.100 C  
HETATM    6  C   UNL     1      -8.019   6.699  69.252  1.00  0.00    -0.111 C  
HETATM    7  C   UNL     1      -9.437   4.421  65.420  1.00  0.00    -0.175 C  
HETATM    8  C   UNL     1      -7.441   4.177  67.575  1.00  0.00    -0.069 C  
HETATM    9  C   UNL     1     -10.189   8.348  66.875  1.00  0.00    -0.383 A  
HETATM   10  C   UNL     1     -10.398   9.626  66.346  1.00  0.00    -0.246 A  
HETATM   11  C   UNL     1      -8.228   5.341  65.532  1.00  0.00    -0.124 C  
HETATM   12  C   UNL     1      -8.589   3.175  67.517  1.00  0.00    -0.121 C  
HETATM   13  C   UNL     1      -9.265   3.092  66.152  1.00  0.00    -0.135 C  
HETATM   14  C   UNL     1      -9.318  10.474  66.123  1.00  0.00    -0.210 A  
HETATM   15  C   UNL     1      -7.822   8.759  66.948  1.00  0.00    -0.101 A  
HETATM   16  C   UNL     1      -8.030  10.040  66.418  1.00  0.00    -0.116 A  
ENDROOT
BRANCH   6  17
HETATM   17  C   UNL     1      -8.765   7.601  70.247  1.00  0.00    -0.144 C  
BRANCH  17  18
HETATM   18  N   UNL     1     -10.065   6.999  70.595  1.00  0.00    -0.191 NA 
HETATM   19  C   UNL     1     -10.044   6.273  71.869  1.00  0.00    -0.181 C  
HETATM   20  C   UNL     1     -11.511   6.159  72.220  1.00  0.00    -0.360 C  
HETATM   21  C   UNL     1     -12.075   7.500  71.791  1.00  0.00    -0.340 C  
HETATM   22  C   UNL     1     -11.136   7.998  70.696  1.00  0.00    -0.262 C  
ENDBRANCH  17  18
ENDBRANCH   6  17
TORSDOF 2
ENDMDL
MODEL      140
REMARK 921   NORMALIZED FREE ENERGY PREDICTED BY IDOCK:   -3.34 KCAL/MOL
REMARK 922        TOTAL FREE ENERGY PREDICTED BY IDOCK:   -4.40 KCAL/MOL
REMARK 923 INTER-LIGAND FREE ENERGY PREDICTED BY IDOCK:   -4.10 KCAL/MOL
REMARK 924 INTRA-LIGAND FREE ENERGY PREDICTED BY IDOCK:   -0.30 KCAL/MOL
REMARK 927      BINDING AFFINITY PREDICTED BY RF-SCORE:    0.00 PKD
ROOT
HETATM    1  O   UNL     1      -8.504   5.887  69.180  1.00  0.00    -0.111 OA 
HETATM    2  C   UNL     1      -9.468   4.845  69.347  1.00  0.00    -0.152 C  
HETATM    3  H   UNL     1      -7.671   5.486  68.964  1.00  0.00     0.000 HD 
HETATM    4  C   UNL     1      -9.011   3.939  70.511  1.00  0.00    -0.160 A  
HETATM    5  C   UNL     1      -9.633   4.036  67.993  1.00  0.00    -0.195 C  
HETATM    6  C   UNL     1     -10.832   5.502  69.702  1.00  0.00    -0.279 C  
HETATM    7  C   UNL     1      -7.274   4.143  66.987  1.00  0.00    -0.068 C  
HETATM    8  C   UNL     1     -10.127   4.850  66.772  1.00  0.00    -0.269 C  
HETATM    9  C   UNL     1      -7.815   4.193  71.207  1.00  0.00    -0.071 A  
HETATM   10  C   UNL     1      -7.435   3.420  72.309  1.00  0.00    -0.056 A  
HETATM   11  C   UNL     1      -8.387   3.257  67.534  1.00  0.00    -0.094 C  
HETATM   12  C   UNL     1      -9.089   5.776  66.147  1.00  0.00    -0.161 C  
HETATM   13  C   UNL     1      -7.739   5.110  65.901  1.00  0.00    -0.091 C  
HETATM   14  C   UNL     1      -8.242   2.371  72.738  1.00  0.00    -0.059 A  
HETATM   15  C   UNL     1      -9.803   2.864  70.953  1.00  0.00    -0.036 A  
HETATM   16  C   UNL     1      -9.422   2.088  72.058  1.00  0.00    -0.174 A  
ENDROOT
BRANCH   6  17
HETATM   17  C   UNL     1     -10.880   6.320  71.002  1.00  0.00    -0.271 C  
BRANCH  17  18
HETATM   18  N   UNL     1     -11.921   7.359  70.904  1.00  0.00    -0.299 NA 
HETATM   19  C   UNL     1     -13.140   7.028  71.648  1.00  0.00    -0.330 C  
HETATM   20  C   UNL     1     -13.831   8.368  71.783  1.00  0.00    -0.458 C  
HETATM   21  C   UNL     1     -12.683   9.326  72.034  1.00  0.00    -0.479 C  
HETATM   22  C   UNL     1     -11.461   8.661  71.405  1.00  0.00    -0.289 C  
ENDBRANCH  17  18
ENDBRANCH   6  17
TORSDOF 2
ENDMDL
MODEL      141
REMARK 921   NORMALIZED FREE ENERGY PREDICTED BY IDOCK:   -3.32 KCAL/MOL
REMARK 922        TOTAL FREE ENERGY PREDICTED BY IDOCK:   -4.38 KCAL/MOL
REMARK 923 INTER-LIGAND FREE ENERGY PREDICTED BY IDOCK:   -3.59 KCAL/MOL
REMARK 924 INTRA-LIGAND FREE ENERGY PREDICTED BY IDOCK:   -0.79 KCAL/MOL
REMARK 927      BINDING AFFINITY PREDICTED BY RF-SCORE:    0.00 PKD
ROOT
HETATM    1  O   UNL     1      -9.151   7.001  71.656  1.00  0.00    -0.139 OA 
HETATM    2  C   UNL     1      -9.483   6.522  70.350  1.00  0.00    -0.162 C  
HETATM    3  H   UNL     1      -9.022   7.940  71.602  1.00  0.00     0.000 HD 
HETATM    4  C   UNL     1      -8.302   6.829  69.404  1.00  0.00    -0.132 A  
HETATM    5  C   UNL     1     -10.832   7.192  69.854  1.00  0.00    -0.276 C  
HETATM    6  C   UNL     1      -9.694   4.984  70.438  1.00  0.00    -0.280 C  
HETATM    7  C   UNL     1     -10.733   9.518  70.932  1.00  0.00    -0.403 C  
HETATM    8  C   UNL     1     -12.086   6.909  70.716  1.00  0.00    -0.400 C  
HETATM    9  C   UNL     1      -7.148   7.489  69.866  1.00  0.00    -0.064 A  
HETATM   10  C   UNL     1      -6.046   7.703  69.032  1.00  0.00    -0.035 A  
HETATM   11  C   UNL     1     -10.773   8.715  69.638  1.00  0.00    -0.204 C  
HETATM   12  C   UNL     1     -12.146   7.663  72.040  1.00  0.00    -0.336 C  
HETATM   13  C   UNL     1     -11.843   9.153  71.915  1.00  0.00    -0.439 C  
HETATM   14  C   UNL     1      -6.075   7.264  67.712  1.00  0.00    -0.035 A  
HETATM   15  C   UNL     1      -8.313   6.409  68.061  1.00  0.00    -0.115 A  
HETATM   16  C   UNL     1      -7.209   6.623  67.224  1.00  0.00    -0.085 A  
ENDROOT
BRANCH   6  17
HETATM   17  C   UNL     1      -8.483   4.152  70.888  1.00  0.00    -0.079 C  
BRANCH  17  18
HETATM   18  N   UNL     1      -8.269   3.031  69.955  1.00  0.00    -0.044 NA 
HETATM   19  C   UNL     1      -9.388   2.825  69.031  1.00  0.00    -0.142 C  
HETATM   20  C   UNL     1      -8.773   1.985  67.933  1.00  0.00    -0.126 C  
HETATM   21  C   UNL     1      -7.386   2.578  67.778  1.00  0.00    -0.052 C  
HETATM   22  C   UNL     1      -7.067   3.211  69.131  1.00  0.00    -0.045 C  
ENDBRANCH  17  18
ENDBRANCH   6  17
TORSDOF 2
ENDMDL
MODEL      142
REMARK 921   NORMALIZED FREE ENERGY PREDICTED BY IDOCK:   -3.30 KCAL/MOL
REMARK 922        TOTAL FREE ENERGY PREDICTED BY IDOCK:   -4.36 KCAL/MOL
REMARK 923 INTER-LIGAND FREE ENERGY PREDICTED BY IDOCK:   -3.72 KCAL/MOL
REMARK 924 INTRA-LIGAND FREE ENERGY PREDICTED BY IDOCK:   -0.64 KCAL/MOL
REMARK 927      BINDING AFFINITY PREDICTED BY RF-SCORE:    0.00 PKD
ROOT
HETATM    1  O   UNL     1     -10.204   7.339  72.422  1.00  0.00    -0.186 OA 
HETATM    2  C   UNL     1      -9.940   7.213  71.022  1.00  0.00    -0.188 C  
HETATM    3  H   UNL     1     -10.280   8.263  72.626  1.00  0.00     0.000 HD 
HETATM    4  C   UNL     1      -8.604   7.923  70.713  1.00  0.00    -0.132 A  
HETATM    5  C   UNL     1     -11.143   7.819  70.186  1.00  0.00    -0.216 C  
HETATM    6  C   UNL     1      -9.816   5.700  70.688  1.00  0.00    -0.244 C  
HETATM    7  C   UNL     1     -11.957   9.737  71.686  1.00  0.00    -0.454 C  
HETATM    8  C   UNL     1     -12.522   7.147  70.397  1.00  0.00     0.069 C  
HETATM    9  C   UNL     1      -7.867   8.565  71.725  1.00  0.00    -0.161 A  
HETATM   10  C   UNL     1      -6.621   9.144  71.464  1.00  0.00    -0.034 A  
HETATM   11  C   UNL     1     -11.358   9.336  70.343  1.00  0.00    -0.283 C  
HETATM   12  C   UNL     1     -13.211   7.480  71.716  1.00  0.00    -0.364 C  
HETATM   13  C   UNL     1     -13.228   8.970  72.044  1.00  0.00    -0.486 C  
HETATM   14  C   UNL     1      -6.085   9.099  70.181  1.00  0.00    -0.035 A  
HETATM   15  C   UNL     1      -8.049   7.904  69.421  1.00  0.00    -0.125 A  
HETATM   16  C   UNL     1      -6.800   8.485  69.158  1.00  0.00    -0.058 A  
ENDROOT
BRANCH   6  17
HETATM   17  C   UNL     1      -8.684   4.934  71.393  1.00  0.00    -0.129 C  
BRANCH  17  18
HETATM   18  N   UNL     1      -9.069   4.636  72.784  1.00  0.00    -0.122 NA 
HETATM   19  C   UNL     1     -10.341   3.915  72.891  1.00  0.00    -0.168 C  
HETATM   20  C   UNL     1     -10.290   3.339  74.289  1.00  0.00    -0.234 C  
HETATM   21  C   UNL     1      -8.840   2.925  74.441  1.00  0.00    -0.086 C  
HETATM   22  C   UNL     1      -8.063   3.824  73.481  1.00  0.00    -0.087 C  
ENDBRANCH  17  18
ENDBRANCH   6  17
TORSDOF 2
ENDMDL
MODEL      143
REMARK 921   NORMALIZED FREE ENERGY PREDICTED BY IDOCK:   -3.22 KCAL/MOL
REMARK 922        TOTAL FREE ENERGY PREDICTED BY IDOCK:   -4.28 KCAL/MOL
REMARK 923 INTER-LIGAND FREE ENERGY PREDICTED BY IDOCK:   -3.42 KCAL/MOL
REMARK 924 INTRA-LIGAND FREE ENERGY PREDICTED BY IDOCK:   -0.86 KCAL/MOL
REMARK 927      BINDING AFFINITY PREDICTED BY RF-SCORE:    0.00 PKD
ROOT
HETATM    1  O   UNL     1      -8.232   6.818  68.848  1.00  0.00    -0.118 OA 
HETATM    2  C   UNL     1      -9.201   5.845  69.243  1.00  0.00    -0.122 C  
HETATM    3  H   UNL     1      -8.314   6.953  67.911  1.00  0.00     0.000 HD 
HETATM    4  C   UNL     1      -8.896   4.525  68.501  1.00  0.00    -0.128 A  
HETATM    5  C   UNL     1     -10.662   6.376  68.935  1.00  0.00    -0.339 C  
HETATM    6  C   UNL     1      -9.066   5.623  70.776  1.00  0.00    -0.164 C  
HETATM    7  C   UNL     1     -10.309   7.790  66.822  1.00  0.00    -0.348 C  
HETATM    8  C   UNL     1     -11.079   7.677  69.665  1.00  0.00    -0.074 C  
HETATM    9  C   UNL     1      -7.822   4.426  67.598  1.00  0.00    -0.085 A  
HETATM   10  C   UNL     1      -7.497   3.214  66.980  1.00  0.00    -0.074 A  
HETATM   11  C   UNL     1     -10.991   6.578  67.444  1.00  0.00    -0.458 C  
HETATM   12  C   UNL     1     -10.449   8.955  69.122  1.00  0.00    -0.236 C  
HETATM   13  C   UNL     1     -10.527   9.083  67.604  1.00  0.00    -0.324 C  
HETATM   14  C   UNL     1      -8.243   2.072  67.250  1.00  0.00    -0.076 A  
HETATM   15  C   UNL     1      -9.646   3.360  68.745  1.00  0.00    -0.120 A  
HETATM   16  C   UNL     1      -9.322   2.145  68.126  1.00  0.00    -0.257 A  
ENDROOT
BRANCH   6  17
HETATM   17  C   UNL     1      -7.714   5.087  71.274  1.00  0.00    -0.092 C  
BRANCH  17  18
HETATM   18  N   UNL     1      -7.923   3.883  72.098  1.00  0.00    -0.078 NA 
HETATM   19  C   UNL     1      -9.336   3.612  72.379  1.00  0.00    -0.119 C  
HETATM   20  C   UNL     1      -9.326   2.160  72.806  1.00  0.00    -0.118 C  
HETATM   21  C   UNL     1      -8.308   1.532  71.874  1.00  0.00    -0.048 C  
HETATM   22  C   UNL     1      -7.378   2.673  71.469  1.00  0.00    -0.040 C  
ENDBRANCH  17  18
ENDBRANCH   6  17
TORSDOF 2
ENDMDL
MODEL      144
REMARK 921   NORMALIZED FREE ENERGY PREDICTED BY IDOCK:   -3.20 KCAL/MOL
REMARK 922        TOTAL FREE ENERGY PREDICTED BY IDOCK:   -4.26 KCAL/MOL
REMARK 923 INTER-LIGAND FREE ENERGY PREDICTED BY IDOCK:   -3.80 KCAL/MOL
REMARK 924 INTRA-LIGAND FREE ENERGY PREDICTED BY IDOCK:   -0.45 KCAL/MOL
REMARK 927      BINDING AFFINITY PREDICTED BY RF-SCORE:    0.00 PKD
ROOT
HETATM    1  O   UNL     1      -8.247  10.932  69.430  1.00  0.00    -0.347 OA 
HETATM    2  C   UNL     1      -7.587  11.394  68.248  1.00  0.00    -0.113 C  
HETATM    3  H   UNL     1      -8.017  10.020  69.559  1.00  0.00     0.000 HD 
HETATM    4  C   UNL     1      -8.091  10.558  67.052  1.00  0.00    -0.118 A  
HETATM    5  C   UNL     1      -6.016  11.288  68.427  1.00  0.00    -0.045 C  
HETATM    6  C   UNL     1      -7.965  12.887  68.037  1.00  0.00    -0.158 C  
HETATM    7  C   UNL     1      -5.760   9.219  69.924  1.00  0.00    -0.031 C  
HETATM    8  C   UNL     1      -5.407  12.124  69.579  1.00  0.00    -0.070 C  
HETATM    9  C   UNL     1      -9.035   9.529  67.225  1.00  0.00    -0.143 A  
HETATM   10  C   UNL     1      -9.550   8.820  66.135  1.00  0.00    -0.323 A  
HETATM   11  C   UNL     1      -5.462   9.859  68.574  1.00  0.00    -0.039 C  
HETATM   12  C   UNL     1      -5.650  11.572  70.980  1.00  0.00    -0.011 C  
HETATM   13  C   UNL     1      -5.352  10.082  71.115  1.00  0.00    -0.079 C  
HETATM   14  C   UNL     1      -9.128   9.121  64.844  1.00  0.00    -0.190 A  
HETATM   15  C   UNL     1      -7.668  10.834  65.739  1.00  0.00    -0.094 A  
HETATM   16  C   UNL     1      -8.183  10.123  64.645  1.00  0.00    -0.165 A  
ENDROOT
BRANCH   6  17
HETATM   17  C   UNL     1      -9.456  13.193  67.824  1.00  0.00    -0.209 C  
BRANCH  17  18
HETATM   18  N   UNL     1      -9.695  13.585  66.423  1.00  0.00    -0.288 NA 
HETATM   19  C   UNL     1     -10.886  12.959  65.843  1.00  0.00    -0.272 C  
HETATM   20  C   UNL     1     -11.173  13.827  64.637  1.00  0.00    -0.383 C  
HETATM   21  C   UNL     1     -10.866  15.226  65.135  1.00  0.00    -0.441 C  
HETATM   22  C   UNL     1      -9.861  15.036  66.269  1.00  0.00    -0.285 C  
ENDBRANCH  17  18
ENDBRANCH   6  17
TORSDOF 2
ENDMDL
MODEL      145
REMARK 921   NORMALIZED FREE ENERGY PREDICTED BY IDOCK:   -3.20 KCAL/MOL
REMARK 922        TOTAL FREE ENERGY PREDICTED BY IDOCK:   -4.25 KCAL/MOL
REMARK 923 INTER-LIGAND FREE ENERGY PREDICTED BY IDOCK:   -3.81 KCAL/MOL
REMARK 924 INTRA-LIGAND FREE ENERGY PREDICTED BY IDOCK:   -0.44 KCAL/MOL
REMARK 927      BINDING AFFINITY PREDICTED BY RF-SCORE:    0.00 PKD
ROOT
HETATM    1  O   UNL     1      -9.848   8.051  69.666  1.00  0.00    -0.179 OA 
HETATM    2  C   UNL     1      -9.051   6.880  69.852  1.00  0.00    -0.144 C  
HETATM    3  H   UNL     1     -10.762   7.796  69.705  1.00  0.00     0.000 HD 
HETATM    4  C   UNL     1      -9.362   5.891  68.708  1.00  0.00    -0.133 A  
HETATM    5  C   UNL     1      -9.339   6.248  71.278  1.00  0.00    -0.164 C  
HETATM    6  C   UNL     1      -7.555   7.298  69.787  1.00  0.00    -0.098 C  
HETATM    7  C   UNL     1     -11.820   6.798  71.643  1.00  0.00    -0.370 C  
HETATM    8  C   UNL     1      -9.020   7.149  72.496  1.00  0.00    -0.147 C  
HETATM    9  C   UNL     1     -10.306   6.201  67.711  1.00  0.00    -0.247 A  
HETATM   10  C   UNL     1     -10.537   5.342  66.632  1.00  0.00    -0.359 A  
HETATM   11  C   UNL     1     -10.766   5.709  71.485  1.00  0.00    -0.306 C  
HETATM   12  C   UNL     1     -10.014   8.279  72.744  1.00  0.00    -0.333 C  
HETATM   13  C   UNL     1     -11.473   7.835  72.709  1.00  0.00    -0.415 C  
HETATM   14  C   UNL     1      -9.830   4.148  66.527  1.00  0.00    -0.214 A  
HETATM   15  C   UNL     1      -8.672   4.671  68.588  1.00  0.00    -0.115 A  
HETATM   16  C   UNL     1      -8.903   3.809  67.507  1.00  0.00    -0.140 A  
ENDROOT
BRANCH   6  17
HETATM   17  C   UNL     1      -7.075   7.919  68.466  1.00  0.00    -0.076 C  
BRANCH  17  18
HETATM   18  N   UNL     1      -6.263   9.119  68.739  1.00  0.00    -0.044 NA 
HETATM   19  C   UNL     1      -6.403  10.157  67.713  1.00  0.00    -0.058 C  
HETATM   20  C   UNL     1      -5.884  11.396  68.410  1.00  0.00    -0.045 C  
HETATM   21  C   UNL     1      -6.413  11.246  69.823  1.00  0.00    -0.140 C  
HETATM   22  C   UNL     1      -6.605   9.744  70.023  1.00  0.00    -0.081 C  
ENDBRANCH  17  18
ENDBRANCH   6  17
TORSDOF 2
ENDMDL
MODEL      146
REMARK 921   NORMALIZED FREE ENERGY PREDICTED BY IDOCK:   -3.18 KCAL/MOL
REMARK 922        TOTAL FREE ENERGY PREDICTED BY IDOCK:   -4.23 KCAL/MOL
REMARK 923 INTER-LIGAND FREE ENERGY PREDICTED BY IDOCK:   -3.88 KCAL/MOL
REMARK 924 INTRA-LIGAND FREE ENERGY PREDICTED BY IDOCK:   -0.35 KCAL/MOL
REMARK 927      BINDING AFFINITY PREDICTED BY RF-SCORE:    0.00 PKD
ROOT
HETATM    1  O   UNL     1      -7.998   6.236  68.120  1.00  0.00    -0.106 OA 
HETATM    2  C   UNL     1      -9.368   6.060  68.491  1.00  0.00    -0.117 C  
HETATM    3  H   UNL     1      -7.538   5.424  68.296  1.00  0.00     0.000 HD 
HETATM    4  C   UNL     1      -9.427   5.747  70.001  1.00  0.00    -0.193 A  
HETATM    5  C   UNL     1     -10.022   4.908  67.619  1.00  0.00    -0.192 C  
HETATM    6  C   UNL     1     -10.121   7.389  68.204  1.00  0.00    -0.210 C  
HETATM    7  C   UNL     1      -8.053   3.306  67.239  1.00  0.00    -0.082 C  
HETATM    8  C   UNL     1     -10.047   5.147  66.089  1.00  0.00    -0.235 C  
HETATM    9  C   UNL     1      -8.256   5.662  70.777  1.00  0.00    -0.118 A  
HETATM   10  C   UNL     1      -8.309   5.452  72.158  1.00  0.00    -0.126 A  
HETATM   11  C   UNL     1      -9.440   3.500  67.840  1.00  0.00    -0.220 C  
HETATM   12  C   UNL     1      -8.705   4.981  65.385  1.00  0.00    -0.146 C  
HETATM   13  C   UNL     1      -7.962   3.705  65.768  1.00  0.00    -0.093 C  
HETATM   14  C   UNL     1      -9.537   5.319  72.797  1.00  0.00    -0.167 A  
HETATM   15  C   UNL     1     -10.657   5.592  70.667  1.00  0.00    -0.347 A  
HETATM   16  C   UNL     1     -10.711   5.382  72.053  1.00  0.00    -0.281 A  
ENDROOT
BRANCH   6  17
HETATM   17  C   UNL     1      -9.640   8.628  68.976  1.00  0.00    -0.163 C  
BRANCH  17  18
HETATM   18  N   UNL     1      -9.620   9.801  68.083  1.00  0.00    -0.142 NA 
HETATM   19  C   UNL     1     -10.764   9.851  67.167  1.00  0.00    -0.207 C  
HETATM   20  C   UNL     1     -10.775  11.294  66.714  1.00  0.00    -0.323 C  
HETATM   21  C   UNL     1     -10.412  12.056  67.973  1.00  0.00    -0.224 C  
HETATM   22  C   UNL     1      -9.617  11.069  68.824  1.00  0.00    -0.187 C  
ENDBRANCH  17  18
ENDBRANCH   6  17
TORSDOF 2
ENDMDL
MODEL      147
REMARK 921   NORMALIZED FREE ENERGY PREDICTED BY IDOCK:   -3.17 KCAL/MOL
REMARK 922        TOTAL FREE ENERGY PREDICTED BY IDOCK:   -4.22 KCAL/MOL
REMARK 923 INTER-LIGAND FREE ENERGY PREDICTED BY IDOCK:   -3.81 KCAL/MOL
REMARK 924 INTRA-LIGAND FREE ENERGY PREDICTED BY IDOCK:   -0.41 KCAL/MOL
REMARK 927      BINDING AFFINITY PREDICTED BY RF-SCORE:    0.00 PKD
ROOT
HETATM    1  O   UNL     1      -8.972   5.757  71.025  1.00  0.00    -0.139 OA 
HETATM    2  C   UNL     1      -9.403   7.107  70.841  1.00  0.00    -0.160 C  
HETATM    3  H   UNL     1      -8.529   5.700  71.863  1.00  0.00     0.000 HD 
HETATM    4  C   UNL     1      -8.156   8.019  70.830  1.00  0.00    -0.102 A  
HETATM    5  C   UNL     1     -10.425   7.512  71.983  1.00  0.00    -0.245 C  
HETATM    6  C   UNL     1     -10.128   7.200  69.469  1.00  0.00    -0.182 C  
HETATM    7  C   UNL     1      -9.576   6.166  73.997  1.00  0.00    -0.184 C  
HETATM    8  C   UNL     1     -11.729   6.680  72.051  1.00  0.00    -0.354 C  
HETATM    9  C   UNL     1      -6.863   7.490  70.998  1.00  0.00    -0.050 A  
HETATM   10  C   UNL     1      -5.727   8.301  70.915  1.00  0.00    -0.032 A  
HETATM   11  C   UNL     1      -9.844   7.545  73.408  1.00  0.00    -0.365 C  
HETATM   12  C   UNL     1     -11.574   5.275  72.624  1.00  0.00    -0.226 C  
HETATM   13  C   UNL     1     -10.777   5.225  73.924  1.00  0.00    -0.320 C  
HETATM   14  C   UNL     1      -5.858   9.663  70.666  1.00  0.00    -0.066 A  
HETATM   15  C   UNL     1      -8.265   9.402  70.595  1.00  0.00    -0.207 A  
HETATM   16  C   UNL     1      -7.126  10.216  70.512  1.00  0.00    -0.016 A  
ENDROOT
BRANCH   6  17
HETATM   17  C   UNL     1      -9.289   6.861  68.227  1.00  0.00    -0.125 C  
BRANCH  17  18
HETATM   18  N   UNL     1      -9.060   8.078  67.426  1.00  0.00    -0.133 NA 
HETATM   19  C   UNL     1      -8.941   7.811  65.990  1.00  0.00    -0.145 C  
HETATM   20  C   UNL     1      -9.174   9.172  65.370  1.00  0.00    -0.266 C  
HETATM   21  C   UNL     1     -10.270   9.763  66.235  1.00  0.00    -0.282 C  
HETATM   22  C   UNL     1     -10.137   9.063  67.586  1.00  0.00    -0.216 C  
ENDBRANCH  17  18
ENDBRANCH   6  17
TORSDOF 2
ENDMDL
MODEL      148
REMARK 921   NORMALIZED FREE ENERGY PREDICTED BY IDOCK:   -3.13 KCAL/MOL
REMARK 922        TOTAL FREE ENERGY PREDICTED BY IDOCK:   -4.17 KCAL/MOL
REMARK 923 INTER-LIGAND FREE ENERGY PREDICTED BY IDOCK:   -3.78 KCAL/MOL
REMARK 924 INTRA-LIGAND FREE ENERGY PREDICTED BY IDOCK:   -0.39 KCAL/MOL
REMARK 927      BINDING AFFINITY PREDICTED BY RF-SCORE:    0.00 PKD
ROOT
HETATM    1  O   UNL     1      -8.429   9.804  70.343  1.00  0.00    -0.238 OA 
HETATM    2  C   UNL     1      -8.531   8.571  69.628  1.00  0.00    -0.130 C  
HETATM    3  H   UNL     1      -7.515  10.061  70.360  1.00  0.00     0.000 HD 
HETATM    4  C   UNL     1      -7.707   7.502  70.378  1.00  0.00    -0.091 A  
HETATM    5  C   UNL     1      -8.033   8.767  68.135  1.00  0.00    -0.106 C  
HETATM    6  C   UNL     1     -10.028   8.150  69.601  1.00  0.00    -0.193 C  
HETATM    7  C   UNL     1      -6.194  10.540  68.387  1.00  0.00    -0.050 C  
HETATM    8  C   UNL     1      -8.823   9.791  67.285  1.00  0.00    -0.139 C  
HETATM    9  C   UNL     1      -7.002   7.817  71.555  1.00  0.00    -0.058 A  
HETATM   10  C   UNL     1      -6.316   6.836  72.278  1.00  0.00    -0.049 A  
HETATM   11  C   UNL     1      -6.541   9.114  67.977  1.00  0.00    -0.060 C  
HETATM   12  C   UNL     1      -8.552  11.255  67.616  1.00  0.00    -0.124 C  
HETATM   13  C   UNL     1      -7.070  11.598  67.721  1.00  0.00    -0.092 C  
HETATM   14  C   UNL     1      -6.314   5.517  71.838  1.00  0.00    -0.043 A  
HETATM   15  C   UNL     1      -7.677   6.165  69.944  1.00  0.00    -0.100 A  
HETATM   16  C   UNL     1      -6.988   5.181  70.668  1.00  0.00    -0.052 A  
ENDROOT
BRANCH   6  17
HETATM   17  C   UNL     1     -10.691   7.894  70.963  1.00  0.00    -0.220 C  
BRANCH  17  18
HETATM   18  N   UNL     1     -12.010   8.549  71.013  1.00  0.00    -0.267 NA 
HETATM   19  C   UNL     1     -12.824   8.126  72.156  1.00  0.00    -0.281 C  
HETATM   20  C   UNL     1     -13.868   9.217  72.252  1.00  0.00    -0.527 C  
HETATM   21  C   UNL     1     -13.085  10.476  71.938  1.00  0.00    -0.567 C  
HETATM   22  C   UNL     1     -11.905  10.012  71.087  1.00  0.00    -0.393 C  
ENDBRANCH  17  18
ENDBRANCH   6  17
TORSDOF 2
ENDMDL
MODEL      149
REMARK 921   NORMALIZED FREE ENERGY PREDICTED BY IDOCK:   -3.07 KCAL/MOL
REMARK 922        TOTAL FREE ENERGY PREDICTED BY IDOCK:   -4.10 KCAL/MOL
REMARK 923 INTER-LIGAND FREE ENERGY PREDICTED BY IDOCK:   -3.41 KCAL/MOL
REMARK 924 INTRA-LIGAND FREE ENERGY PREDICTED BY IDOCK:   -0.69 KCAL/MOL
REMARK 927      BINDING AFFINITY PREDICTED BY RF-SCORE:    0.00 PKD
ROOT
HETATM    1  O   UNL     1      -9.022   6.642  71.572  1.00  0.00    -0.139 OA 
HETATM    2  C   UNL     1      -9.542   6.075  70.367  1.00  0.00    -0.164 C  
HETATM    3  H   UNL     1      -8.859   7.565  71.418  1.00  0.00     0.000 HD 
HETATM    4  C   UNL     1      -8.482   6.236  69.256  1.00  0.00    -0.124 A  
HETATM    5  C   UNL     1     -10.913   6.774  69.986  1.00  0.00    -0.344 C  
HETATM    6  C   UNL     1      -9.808   4.564  70.619  1.00  0.00    -0.292 C  
HETATM    7  C   UNL     1     -10.571   9.174  70.830  1.00  0.00    -0.341 C  
HETATM    8  C   UNL     1     -12.055   6.635  71.022  1.00  0.00    -0.384 C  
HETATM    9  C   UNL     1      -7.250   6.867  69.507  1.00  0.00    -0.081 A  
HETATM   10  C   UNL     1      -6.258   6.949  68.525  1.00  0.00    -0.031 A  
HETATM   11  C   UNL     1     -10.816   8.269  69.629  1.00  0.00    -0.154 C  
HETATM   12  C   UNL     1     -11.908   7.499  72.270  1.00  0.00    -0.331 C  
HETATM   13  C   UNL     1     -11.559   8.954  71.974  1.00  0.00    -0.435 C  
HETATM   14  C   UNL     1      -6.478   6.403  67.264  1.00  0.00    -0.052 A  
HETATM   15  C   UNL     1      -8.687   5.707  67.969  1.00  0.00    -0.099 A  
HETATM   16  C   UNL     1      -7.694   5.788  66.983  1.00  0.00    -0.101 A  
ENDROOT
BRANCH   6  17
HETATM   17  C   UNL     1      -8.586   3.706  70.985  1.00  0.00    -0.072 C  
BRANCH  17  18
HETATM   18  N   UNL     1      -8.080   4.093  72.315  1.00  0.00    -0.089 NA 
HETATM   19  C   UNL     1      -8.583   3.241  73.396  1.00  0.00    -0.078 C  
HETATM   20  C   UNL     1      -7.614   3.515  74.525  1.00  0.00    -0.058 C  
HETATM   21  C   UNL     1      -6.278   3.623  73.817  1.00  0.00    -0.023 C  
HETATM   22  C   UNL     1      -6.614   4.049  72.390  1.00  0.00    -0.022 C  
ENDBRANCH  17  18
ENDBRANCH   6  17
TORSDOF 2
ENDMDL
MODEL      150
REMARK 921   NORMALIZED FREE ENERGY PREDICTED BY IDOCK:   -3.02 KCAL/MOL
REMARK 922        TOTAL FREE ENERGY PREDICTED BY IDOCK:   -4.06 KCAL/MOL
REMARK 923 INTER-LIGAND FREE ENERGY PREDICTED BY IDOCK:   -3.69 KCAL/MOL
REMARK 924 INTRA-LIGAND FREE ENERGY PREDICTED BY IDOCK:   -0.36 KCAL/MOL
REMARK 927      BINDING AFFINITY PREDICTED BY RF-SCORE:    0.00 PKD
ROOT
HETATM    1  O   UNL     1     -10.030   8.883  65.721  1.00  0.00    -0.459 OA 
HETATM    2  C   UNL     1      -9.007   9.709  66.282  1.00  0.00    -0.155 C  
HETATM    3  H   UNL     1     -10.460   9.374  65.031  1.00  0.00     0.000 HD 
HETATM    4  C   UNL     1      -9.671  10.968  66.881  1.00  0.00    -0.215 A  
HETATM    5  C   UNL     1      -7.933  10.073  65.174  1.00  0.00    -0.145 C  
HETATM    6  C   UNL     1      -8.303   8.905  67.412  1.00  0.00    -0.108 C  
HETATM    7  C   UNL     1      -9.351  10.189  63.038  1.00  0.00    -0.330 C  
HETATM    8  C   UNL     1      -7.181   8.877  64.541  1.00  0.00    -0.097 C  
HETATM    9  C   UNL     1     -11.063  11.163  66.809  1.00  0.00    -0.280 A  
HETATM   10  C   UNL     1     -11.677  12.265  67.414  1.00  0.00    -0.405 A  
HETATM   11  C   UNL     1      -8.451  10.940  64.012  1.00  0.00     0.111 C  
HETATM   12  C   UNL     1      -7.993   8.053  63.548  1.00  0.00    -0.131 C  
HETATM   13  C   UNL     1      -8.739   8.892  62.515  1.00  0.00    -0.162 C  
HETATM   14  C   UNL     1     -10.911  13.200  68.103  1.00  0.00    -0.275 A  
HETATM   15  C   UNL     1      -8.916  11.936  67.568  1.00  0.00    -0.171 A  
HETATM   16  C   UNL     1      -9.531  13.040  68.175  1.00  0.00    -0.218 A  
ENDROOT
BRANCH   6  17
HETATM   17  C   UNL     1      -9.183   8.474  68.596  1.00  0.00    -0.142 C  
BRANCH  17  18
HETATM   18  N   UNL     1      -8.580   7.313  69.275  1.00  0.00    -0.136 NA 
HETATM   19  C   UNL     1      -7.126   7.234  69.105  1.00  0.00    -0.080 C  
HETATM   20  C   UNL     1      -6.704   6.295  70.214  1.00  0.00    -0.053 C  
HETATM   21  C   UNL     1      -7.600   6.697  71.368  1.00  0.00    -0.093 C  
HETATM   22  C   UNL     1      -8.837   7.314  70.720  1.00  0.00    -0.150 C  
ENDBRANCH  17  18
ENDBRANCH   6  17
TORSDOF 2
ENDMDL
MODEL      151
REMARK 921   NORMALIZED FREE ENERGY PREDICTED BY IDOCK:   -3.00 KCAL/MOL
REMARK 922        TOTAL FREE ENERGY PREDICTED BY IDOCK:   -4.03 KCAL/MOL
REMARK 923 INTER-LIGAND FREE ENERGY PREDICTED BY IDOCK:   -3.56 KCAL/MOL
REMARK 924 INTRA-LIGAND FREE ENERGY PREDICTED BY IDOCK:   -0.47 KCAL/MOL
REMARK 927      BINDING AFFINITY PREDICTED BY RF-SCORE:    0.00 PKD
ROOT
HETATM    1  O   UNL     1      -8.178   6.473  68.834  1.00  0.00    -0.116 OA 
HETATM    2  C   UNL     1      -9.095   5.448  69.227  1.00  0.00    -0.108 C  
HETATM    3  H   UNL     1      -8.336   6.676  67.920  1.00  0.00     0.000 HD 
HETATM    4  C   UNL     1      -8.824   4.196  68.365  1.00  0.00    -0.136 A  
HETATM    5  C   UNL     1     -10.586   5.965  69.074  1.00  0.00    -0.360 C  
HETATM    6  C   UNL     1      -8.835   5.116  70.724  1.00  0.00    -0.154 C  
HETATM    7  C   UNL     1     -10.426   7.542  67.054  1.00  0.00    -0.409 C  
HETATM    8  C   UNL     1     -10.968   7.197  69.931  1.00  0.00    -0.278 C  
HETATM    9  C   UNL     1      -7.822   4.192  67.377  1.00  0.00    -0.091 A  
HETATM   10  C   UNL     1      -7.524   3.038  66.645  1.00  0.00    -0.075 A  
HETATM   11  C   UNL     1     -11.034   6.270  67.633  1.00  0.00    -0.438 C  
HETATM   12  C   UNL     1     -10.407   8.527  69.441  1.00  0.00    -0.218 C  
HETATM   13  C   UNL     1     -10.606   8.767  67.948  1.00  0.00    -0.236 C  
HETATM   14  C   UNL     1      -8.225   1.860  66.883  1.00  0.00    -0.077 A  
HETATM   15  C   UNL     1      -9.531   2.998  68.576  1.00  0.00    -0.204 A  
HETATM   16  C   UNL     1      -9.232   1.841  67.842  1.00  0.00    -0.212 A  
ENDROOT
BRANCH   6  17
HETATM   17  C   UNL     1      -7.439   4.578  71.074  1.00  0.00    -0.055 C  
BRANCH  17  18
HETATM   18  N   UNL     1      -6.877   5.336  72.206  1.00  0.00    -0.074 NA 
HETATM   19  C   UNL     1      -7.234   6.757  72.186  1.00  0.00    -0.080 C  
HETATM   20  C   UNL     1      -6.960   7.198  73.607  1.00  0.00    -0.070 C  
HETATM   21  C   UNL     1      -7.428   6.015  74.433  1.00  0.00    -0.090 C  
HETATM   22  C   UNL     1      -7.315   4.808  73.505  1.00  0.00    -0.082 C  
ENDBRANCH  17  18
ENDBRANCH   6  17
TORSDOF 2
ENDMDL
MODEL      152
REMARK 921   NORMALIZED FREE ENERGY PREDICTED BY IDOCK:   -3.00 KCAL/MOL
REMARK 922        TOTAL FREE ENERGY PREDICTED BY IDOCK:   -4.03 KCAL/MOL
REMARK 923 INTER-LIGAND FREE ENERGY PREDICTED BY IDOCK:   -3.43 KCAL/MOL
REMARK 924 INTRA-LIGAND FREE ENERGY PREDICTED BY IDOCK:   -0.60 KCAL/MOL
REMARK 927      BINDING AFFINITY PREDICTED BY RF-SCORE:    0.00 PKD
ROOT
HETATM    1  O   UNL     1      -8.426   9.589  71.242  1.00  0.00    -0.300 OA 
HETATM    2  C   UNL     1      -8.135   8.536  70.320  1.00  0.00    -0.106 C  
HETATM    3  H   UNL     1      -8.185   9.293  72.113  1.00  0.00     0.000 HD 
HETATM    4  C   UNL     1      -8.984   7.305  70.702  1.00  0.00    -0.156 A  
HETATM    5  C   UNL     1      -6.582   8.215  70.334  1.00  0.00    -0.036 C  
HETATM    6  C   UNL     1      -8.529   9.020  68.896  1.00  0.00    -0.130 C  
HETATM    7  C   UNL     1      -5.937   8.681  72.774  1.00  0.00    -0.080 C  
HETATM    8  C   UNL     1      -5.646   9.378  69.925  1.00  0.00    -0.032 C  
HETATM    9  C   UNL     1      -9.855   7.332  71.807  1.00  0.00    -0.175 A  
HETATM   10  C   UNL     1     -10.681   6.246  72.113  1.00  0.00    -0.269 A  
HETATM   11  C   UNL     1      -6.037   7.649  71.658  1.00  0.00    -0.035 C  
HETATM   12  C   UNL     1      -5.476  10.473  70.973  1.00  0.00    -0.093 C  
HETATM   13  C   UNL     1      -5.179   9.945  72.373  1.00  0.00     0.011 C  
HETATM   14  C   UNL     1     -10.652   5.103  71.320  1.00  0.00    -0.203 A  
HETATM   15  C   UNL     1      -8.961   6.132  69.925  1.00  0.00    -0.139 A  
HETATM   16  C   UNL     1      -9.789   5.042  70.231  1.00  0.00    -0.304 A  
ENDROOT
BRANCH   6  17
HETATM   17  C   UNL     1     -10.011   9.365  68.676  1.00  0.00    -0.173 C  
BRANCH  17  18
HETATM   18  N   UNL     1     -10.216  10.818  68.816  1.00  0.00    -0.184 NA 
HETATM   19  C   UNL     1      -9.099  11.612  68.296  1.00  0.00    -0.187 C  
HETATM   20  C   UNL     1      -9.709  12.986  68.126  1.00  0.00    -0.228 C  
HETATM   21  C   UNL     1     -11.104  12.686  67.614  1.00  0.00    -0.303 C  
HETATM   22  C   UNL     1     -11.424  11.282  68.124  1.00  0.00    -0.306 C  
ENDBRANCH  17  18
ENDBRANCH   6  17
TORSDOF 2
ENDMDL
MODEL      153
REMARK 921   NORMALIZED FREE ENERGY PREDICTED BY IDOCK:   -2.95 KCAL/MOL
REMARK 922        TOTAL FREE ENERGY PREDICTED BY IDOCK:   -3.97 KCAL/MOL
REMARK 923 INTER-LIGAND FREE ENERGY PREDICTED BY IDOCK:   -3.62 KCAL/MOL
REMARK 924 INTRA-LIGAND FREE ENERGY PREDICTED BY IDOCK:   -0.34 KCAL/MOL
REMARK 927      BINDING AFFINITY PREDICTED BY RF-SCORE:    0.00 PKD
ROOT
HETATM    1  O   UNL     1     -11.049   5.860  70.774  1.00  0.00    -0.293 OA 
HETATM    2  C   UNL     1      -9.750   6.446  70.663  1.00  0.00    -0.179 C  
HETATM    3  H   UNL     1     -10.942   4.922  70.883  1.00  0.00     0.000 HD 
HETATM    4  C   UNL     1      -9.055   5.857  69.417  1.00  0.00    -0.134 A  
HETATM    5  C   UNL     1      -8.920   6.182  71.988  1.00  0.00    -0.139 C  
HETATM    6  C   UNL     1      -9.927   7.981  70.485  1.00  0.00    -0.193 C  
HETATM    7  C   UNL     1      -9.786   3.886  72.742  1.00  0.00    -0.190 C  
HETATM    8  C   UNL     1      -9.517   6.770  73.290  1.00  0.00    -0.172 C  
HETATM    9  C   UNL     1      -9.692   4.897  68.610  1.00  0.00    -0.225 A  
HETATM   10  C   UNL     1      -9.097   4.415  67.439  1.00  0.00    -0.148 A  
HETATM   11  C   UNL     1      -8.589   4.706  72.276  1.00  0.00    -0.122 C  
HETATM   12  C   UNL     1     -10.726   6.024  73.844  1.00  0.00    -0.151 C  
HETATM   13  C   UNL     1     -10.537   4.512  73.915  1.00  0.00    -0.335 C  
HETATM   14  C   UNL     1      -7.845   4.882  67.051  1.00  0.00    -0.095 A  
HETATM   15  C   UNL     1      -7.783   6.302  69.012  1.00  0.00    -0.100 A  
HETATM   16  C   UNL     1      -7.185   5.820  67.838  1.00  0.00    -0.072 A  
ENDROOT
BRANCH   6  17
HETATM   17  C   UNL     1     -10.696   8.441  69.236  1.00  0.00    -0.126 C  
BRANCH  17  18
HETATM   18  N   UNL     1      -9.785   9.143  68.314  1.00  0.00    -0.151 NA 
HETATM   19  C   UNL     1     -10.357   9.348  66.980  1.00  0.00    -0.252 C  
HETATM   20  C   UNL     1      -9.483  10.438  66.399  1.00  0.00    -0.209 C  
HETATM   21  C   UNL     1      -9.238  11.354  67.582  1.00  0.00    -0.158 C  
HETATM   22  C   UNL     1      -9.394  10.467  68.815  1.00  0.00    -0.180 C  
ENDBRANCH  17  18
ENDBRANCH   6  17
TORSDOF 2
ENDMDL
MODEL      154
REMARK 921   NORMALIZED FREE ENERGY PREDICTED BY IDOCK:   -2.92 KCAL/MOL
REMARK 922        TOTAL FREE ENERGY PREDICTED BY IDOCK:   -3.94 KCAL/MOL
REMARK 923 INTER-LIGAND FREE ENERGY PREDICTED BY IDOCK:   -3.47 KCAL/MOL
REMARK 924 INTRA-LIGAND FREE ENERGY PREDICTED BY IDOCK:   -0.47 KCAL/MOL
REMARK 927      BINDING AFFINITY PREDICTED BY RF-SCORE:    0.00 PKD
ROOT
HETATM    1  O   UNL     1     -10.131   4.164  70.749  1.00  0.00    -0.164 OA 
HETATM    2  C   UNL     1      -8.971   4.882  70.320  1.00  0.00    -0.108 C  
HETATM    3  H   UNL     1      -9.928   3.236  70.727  1.00  0.00     0.000 HD 
HETATM    4  C   UNL     1      -8.643   4.458  68.873  1.00  0.00    -0.104 A  
HETATM    5  C   UNL     1      -7.764   4.605  71.310  1.00  0.00    -0.081 C  
HETATM    6  C   UNL     1      -9.304   6.401  70.355  1.00  0.00    -0.169 C  
HETATM    7  C   UNL     1      -8.194   2.186  72.053  1.00  0.00    -0.053 C  
HETATM    8  C   UNL     1      -7.981   5.034  72.781  1.00  0.00    -0.101 C  
HETATM    9  C   UNL     1      -9.423   3.501  68.197  1.00  0.00    -0.215 A  
HETATM   10  C   UNL     1      -9.174   3.168  66.862  1.00  0.00    -0.187 A  
HETATM   11  C   UNL     1      -7.256   3.152  71.340  1.00  0.00    -0.033 C  
HETATM   12  C   UNL     1      -8.910   4.134  73.589  1.00  0.00    -0.093 C  
HETATM   13  C   UNL     1      -8.601   2.647  73.451  1.00  0.00    -0.075 C  
HETATM   14  C   UNL     1      -8.135   3.783  66.171  1.00  0.00    -0.100 A  
HETATM   15  C   UNL     1      -7.588   5.054  68.158  1.00  0.00    -0.079 A  
HETATM   16  C   UNL     1      -7.338   4.721  66.819  1.00  0.00    -0.082 A  
ENDROOT
BRANCH   6  17
HETATM   17  C   UNL     1     -10.445   6.873  69.440  1.00  0.00    -0.217 C  
BRANCH  17  18
HETATM   18  N   UNL     1     -11.403   7.687  70.209  1.00  0.00    -0.230 NA 
HETATM   19  C   UNL     1     -11.488   7.301  71.621  1.00  0.00    -0.265 C  
HETATM   20  C   UNL     1     -12.134   8.508  72.265  1.00  0.00    -0.455 C  
HETATM   21  C   UNL     1     -11.493   9.674  71.539  1.00  0.00    -0.439 C  
HETATM   22  C   UNL     1     -11.070   9.117  70.181  1.00  0.00    -0.222 C  
ENDBRANCH  17  18
ENDBRANCH   6  17
TORSDOF 2
ENDMDL
MODEL      155
REMARK 921   NORMALIZED FREE ENERGY PREDICTED BY IDOCK:   -2.87 KCAL/MOL
REMARK 922        TOTAL FREE ENERGY PREDICTED BY IDOCK:   -3.88 KCAL/MOL
REMARK 923 INTER-LIGAND FREE ENERGY PREDICTED BY IDOCK:   -3.22 KCAL/MOL
REMARK 924 INTRA-LIGAND FREE ENERGY PREDICTED BY IDOCK:   -0.66 KCAL/MOL
REMARK 927      BINDING AFFINITY PREDICTED BY RF-SCORE:    0.00 PKD
ROOT
HETATM    1  O   UNL     1      -8.185   5.738  66.242  1.00  0.00    -0.105 OA 
HETATM    2  C   UNL     1      -9.385   5.262  66.856  1.00  0.00    -0.127 C  
HETATM    3  H   UNL     1      -7.504   5.093  66.385  1.00  0.00     0.000 HD 
HETATM    4  C   UNL     1      -9.128   5.108  68.371  1.00  0.00    -0.131 A  
HETATM    5  C   UNL     1      -9.832   3.896  66.187  1.00  0.00    -0.131 C  
HETATM    6  C   UNL     1     -10.501   6.319  66.622  1.00  0.00    -0.255 C  
HETATM    7  C   UNL     1      -7.588   2.813  65.571  1.00  0.00    -0.076 C  
HETATM    8  C   UNL     1     -10.153   3.956  64.674  1.00  0.00    -0.219 C  
HETATM    9  C   UNL     1      -7.873   5.405  68.933  1.00  0.00    -0.083 A  
HETATM   10  C   UNL     1      -7.657   5.339  70.314  1.00  0.00    -0.072 A  
HETATM   11  C   UNL     1      -8.868   2.713  66.392  1.00  0.00    -0.136 C  
HETATM   12  C   UNL     1      -8.938   4.060  63.757  1.00  0.00    -0.125 C  
HETATM   13  C   UNL     1      -7.833   3.062  64.085  1.00  0.00    -0.081 C  
HETATM   14  C   UNL     1      -8.693   4.968  71.165  1.00  0.00    -0.141 A  
HETATM   15  C   UNL     1     -10.155   4.720  69.250  1.00  0.00    -0.217 A  
HETATM   16  C   UNL     1      -9.940   4.652  70.634  1.00  0.00    -0.293 A  
ENDROOT
BRANCH   6  17
HETATM   17  C   UNL     1     -10.257   7.715  67.218  1.00  0.00    -0.272 C  
BRANCH  17  18
HETATM   18  N   UNL     1      -9.068   8.326  66.597  1.00  0.00    -0.156 NA 
HETATM   19  C   UNL     1      -9.395   9.249  65.505  1.00  0.00    -0.238 C  
HETATM   20  C   UNL     1      -8.128  10.061  65.354  1.00  0.00    -0.143 C  
HETATM   21  C   UNL     1      -7.669  10.258  66.786  1.00  0.00    -0.111 C  
HETATM   22  C   UNL     1      -8.260   9.083  67.562  1.00  0.00    -0.109 C  
ENDBRANCH  17  18
ENDBRANCH   6  17
TORSDOF 2
ENDMDL
MODEL      156
REMARK 921   NORMALIZED FREE ENERGY PREDICTED BY IDOCK:   -2.80 KCAL/MOL
REMARK 922        TOTAL FREE ENERGY PREDICTED BY IDOCK:   -3.81 KCAL/MOL
REMARK 923 INTER-LIGAND FREE ENERGY PREDICTED BY IDOCK:   -3.40 KCAL/MOL
REMARK 924 INTRA-LIGAND FREE ENERGY PREDICTED BY IDOCK:   -0.41 KCAL/MOL
REMARK 927      BINDING AFFINITY PREDICTED BY RF-SCORE:    0.00 PKD
ROOT
HETATM    1  O   UNL     1      -8.336  16.892  66.616  1.00  0.00    -0.206 OA 
HETATM    2  C   UNL     1      -8.143  16.295  67.901  1.00  0.00    -0.146 C  
HETATM    3  H   UNL     1      -8.675  17.769  66.745  1.00  0.00     0.000 HD 
HETATM    4  C   UNL     1      -9.511  16.222  68.614  1.00  0.00    -0.228 A  
HETATM    5  C   UNL     1      -7.082  17.130  68.733  1.00  0.00    -0.229 C  
HETATM    6  C   UNL     1      -7.589  14.858  67.688  1.00  0.00    -0.201 C  
HETATM    7  C   UNL     1      -7.495  19.529  67.920  1.00  0.00    -0.310 C  
HETATM    8  C   UNL     1      -5.665  17.228  68.119  1.00  0.00    -0.121 C  
HETATM    9  C   UNL     1     -10.680  16.709  68.002  1.00  0.00    -0.350 A  
HETATM   10  C   UNL     1     -11.932  16.578  68.612  1.00  0.00     0.466 A  
HETATM   11  C   UNL     1      -7.509  18.563  69.098  1.00  0.00    -0.149 C  
HETATM   12  C   UNL     1      -5.538  18.170  66.926  1.00  0.00    -0.166 C  
HETATM   13  C   UNL     1      -6.177  19.537  67.150  1.00  0.00    -0.194 C  
HETATM   14  C   UNL     1     -12.042  15.959  69.853  1.00  0.00    -0.245 A  
HETATM   15  C   UNL     1      -9.645  15.615  69.876  1.00  0.00    -0.086 A  
HETATM   16  C   UNL     1     -10.899  15.483  70.488  1.00  0.00    -0.353 A  
ENDROOT
BRANCH   6  17
HETATM   17  C   UNL     1      -8.490  13.885  66.912  1.00  0.00    -0.069 C  
BRANCH  17  18
HETATM   18  N   UNL     1      -8.391  12.534  67.493  1.00  0.00    -0.164 NA 
HETATM   19  C   UNL     1      -9.551  12.170  68.312  1.00  0.00    -0.210 C  
HETATM   20  C   UNL     1      -9.445  10.663  68.401  1.00  0.00    -0.165 C  
HETATM   21  C   UNL     1      -8.980  10.266  67.014  1.00  0.00    -0.147 C  
HETATM   22  C   UNL     1      -8.253  11.492  66.467  1.00  0.00    -0.129 C  
ENDBRANCH  17  18
ENDBRANCH   6  17
TORSDOF 2
ENDMDL
MODEL      157
REMARK 921   NORMALIZED FREE ENERGY PREDICTED BY IDOCK:   -2.77 KCAL/MOL
REMARK 922        TOTAL FREE ENERGY PREDICTED BY IDOCK:   -3.77 KCAL/MOL
REMARK 923 INTER-LIGAND FREE ENERGY PREDICTED BY IDOCK:   -3.15 KCAL/MOL
REMARK 924 INTRA-LIGAND FREE ENERGY PREDICTED BY IDOCK:   -0.62 KCAL/MOL
REMARK 927      BINDING AFFINITY PREDICTED BY RF-SCORE:    0.00 PKD
ROOT
HETATM    1  O   UNL     1      -7.564  10.691  65.393  1.00  0.00    -0.261 OA 
HETATM    2  C   UNL     1      -8.168   9.446  65.033  1.00  0.00    -0.138 C  
HETATM    3  H   UNL     1      -6.621  10.591  65.327  1.00  0.00     0.000 HD 
HETATM    4  C   UNL     1      -7.690   8.367  66.029  1.00  0.00    -0.090 A  
HETATM    5  C   UNL     1      -7.801   9.077  63.535  1.00  0.00    -0.140 C  
HETATM    6  C   UNL     1      -9.710   9.608  65.142  1.00  0.00    -0.287 C  
HETATM    7  C   UNL     1      -5.444  10.060  63.277  1.00  0.00    -0.106 C  
HETATM    8  C   UNL     1      -8.274  10.080  62.455  1.00  0.00    -0.154 C  
HETATM    9  C   UNL     1      -6.794   8.678  67.069  1.00  0.00    -0.067 A  
HETATM   10  C   UNL     1      -6.416   7.722  68.017  1.00  0.00    -0.055 A  
HETATM   11  C   UNL     1      -6.310   8.806  63.268  1.00  0.00    -0.089 C  
HETATM   12  C   UNL     1      -7.476  11.377  62.380  1.00  0.00     0.279 C  
HETATM   13  C   UNL     1      -5.965  11.169  62.367  1.00  0.00     0.014 C  
HETATM   14  C   UNL     1      -6.924   6.428  67.944  1.00  0.00    -0.076 A  
HETATM   15  C   UNL     1      -8.176   7.048  65.966  1.00  0.00    -0.129 A  
HETATM   16  C   UNL     1      -7.798   6.089  66.916  1.00  0.00    -0.101 A  
ENDROOT
BRANCH   6  17
HETATM   17  C   UNL     1     -10.266   9.951  66.533  1.00  0.00    -0.222 C  
BRANCH  17  18
HETATM   18  N   UNL     1     -10.353  11.413  66.694  1.00  0.00    -0.225 NA 
HETATM   19  C   UNL     1     -10.924  12.091  65.527  1.00  0.00    -0.298 C  
HETATM   20  C   UNL     1     -11.328  13.440  66.080  1.00  0.00    -0.324 C  
HETATM   21  C   UNL     1     -11.863  13.104  67.458  1.00  0.00    -0.409 C  
HETATM   22  C   UNL     1     -11.171  11.801  67.851  1.00  0.00    -0.267 C  
ENDBRANCH  17  18
ENDBRANCH   6  17
TORSDOF 2
ENDMDL
MODEL      158
REMARK 921   NORMALIZED FREE ENERGY PREDICTED BY IDOCK:   -2.76 KCAL/MOL
REMARK 922        TOTAL FREE ENERGY PREDICTED BY IDOCK:   -3.76 KCAL/MOL
REMARK 923 INTER-LIGAND FREE ENERGY PREDICTED BY IDOCK:   -3.24 KCAL/MOL
REMARK 924 INTRA-LIGAND FREE ENERGY PREDICTED BY IDOCK:   -0.52 KCAL/MOL
REMARK 927      BINDING AFFINITY PREDICTED BY RF-SCORE:    0.00 PKD
ROOT
HETATM    1  O   UNL     1      -9.358  14.404  67.603  1.00  0.00    -0.192 OA 
HETATM    2  C   UNL     1     -10.319  13.346  67.657  1.00  0.00    -0.238 C  
HETATM    3  H   UNL     1      -9.803  15.193  67.318  1.00  0.00     0.000 HD 
HETATM    4  C   UNL     1     -10.890  13.135  66.238  1.00  0.00    -0.292 A  
HETATM    5  C   UNL     1     -11.452  13.696  68.709  1.00  0.00    -0.346 C  
HETATM    6  C   UNL     1      -9.589  12.054  68.122  1.00  0.00    -0.200 C  
HETATM    7  C   UNL     1     -11.615  16.251  68.528  1.00  0.00    -0.188 C  
HETATM    8  C   UNL     1     -10.983  13.887  70.172  1.00  0.00     0.308 C  
HETATM    9  C   UNL     1     -10.466  13.926  65.155  1.00  0.00    -0.409 A  
HETATM   10  C   UNL     1     -10.926  13.691  63.855  1.00  0.00     0.091 A  
HETATM   11  C   UNL     1     -12.326  14.914  68.358  1.00  0.00     0.096 C  
HETATM   12  C   UNL     1     -10.255  15.197  70.453  1.00  0.00     0.064 C  
HETATM   13  C   UNL     1     -10.964  16.428  69.898  1.00  0.00    -0.339 C  
HETATM   14  C   UNL     1     -11.825  12.658  63.609  1.00  0.00    -0.606 A  
HETATM   15  C   UNL     1     -11.812  12.108  65.968  1.00  0.00    -0.328 A  
HETATM   16  C   UNL     1     -12.273  11.870  64.665  1.00  0.00    -0.176 A  
ENDROOT
BRANCH   6  17
HETATM   17  C   UNL     1      -8.460  11.541  67.215  1.00  0.00    -0.152 C  
BRANCH  17  18
HETATM   18  N   UNL     1      -7.155  11.753  67.867  1.00  0.00    -0.081 NA 
HETATM   19  C   UNL     1      -6.467  12.962  67.405  1.00  0.00    -0.120 C  
HETATM   20  C   UNL     1      -5.441  13.206  68.490  1.00  0.00    -0.068 C  
HETATM   21  C   UNL     1      -6.189  12.851  69.760  1.00  0.00    -0.105 C  
HETATM   22  C   UNL     1      -7.270  11.864  69.326  1.00  0.00     0.039 C  
ENDBRANCH  17  18
ENDBRANCH   6  17
TORSDOF 2
ENDMDL
MODEL      159
REMARK 921   NORMALIZED FREE ENERGY PREDICTED BY IDOCK:   -2.74 KCAL/MOL
REMARK 922        TOTAL FREE ENERGY PREDICTED BY IDOCK:   -3.73 KCAL/MOL
REMARK 923 INTER-LIGAND FREE ENERGY PREDICTED BY IDOCK:   -3.57 KCAL/MOL
REMARK 924 INTRA-LIGAND FREE ENERGY PREDICTED BY IDOCK:   -0.17 KCAL/MOL
REMARK 927      BINDING AFFINITY PREDICTED BY RF-SCORE:    0.00 PKD
ROOT
HETATM    1  O   UNL     1      -8.083  17.801  68.674  1.00  0.00    -0.290 OA 
HETATM    2  C   UNL     1      -7.350  16.854  67.894  1.00  0.00    -0.167 C  
HETATM    3  H   UNL     1      -7.950  17.594  69.591  1.00  0.00     0.000 HD 
HETATM    4  C   UNL     1      -7.905  15.444  68.192  1.00  0.00    -0.125 A  
HETATM    5  C   UNL     1      -5.802  16.964  68.218  1.00  0.00    -0.129 C  
HETATM    6  C   UNL     1      -7.568  17.193  66.392  1.00  0.00    -0.347 C  
HETATM    7  C   UNL     1      -5.796  17.622  70.700  1.00  0.00     0.173 C  
HETATM    8  C   UNL     1      -5.141  18.331  67.915  1.00  0.00    -0.157 C  
HETATM    9  C   UNL     1      -8.952  15.251  69.111  1.00  0.00    -0.233 A  
HETATM   10  C   UNL     1      -9.508  13.986  69.329  1.00  0.00     0.353 A  
HETATM   11  C   UNL     1      -5.400  16.585  69.655  1.00  0.00    -0.146 C  
HETATM   12  C   UNL     1      -5.475  19.446  68.901  1.00  0.00    -0.214 C  
HETATM   13  C   UNL     1      -5.333  19.037  70.363  1.00  0.00    -0.233 C  
HETATM   14  C   UNL     1      -9.025  12.882  68.634  1.00  0.00     0.048 A  
HETATM   15  C   UNL     1      -7.422  14.310  67.513  1.00  0.00    -0.201 A  
HETATM   16  C   UNL     1      -7.978  13.042  67.731  1.00  0.00    -0.164 A  
ENDROOT
BRANCH   6  17
HETATM   17  C   UNL     1      -9.014  17.121  65.877  1.00  0.00     0.016 C  
BRANCH  17  18
HETATM   18  N   UNL     1      -9.665  18.436  66.022  1.00  0.00    -0.515 NA 
HETATM   19  C   UNL     1     -10.379  18.591  67.293  1.00  0.00    -0.398 C  
HETATM   20  C   UNL     1     -10.548  20.090  67.407  1.00  0.00    -0.441 C  
HETATM   21  C   UNL     1      -9.235  20.630  66.874  1.00  0.00    -0.331 C  
HETATM   22  C   UNL     1      -8.709  19.547  65.935  1.00  0.00    -0.063 C  
ENDBRANCH  17  18
ENDBRANCH   6  17
TORSDOF 2
ENDMDL
MODEL      160
REMARK 921   NORMALIZED FREE ENERGY PREDICTED BY IDOCK:   -2.68 KCAL/MOL
REMARK 922        TOTAL FREE ENERGY PREDICTED BY IDOCK:   -3.67 KCAL/MOL
REMARK 923 INTER-LIGAND FREE ENERGY PREDICTED BY IDOCK:   -3.24 KCAL/MOL
REMARK 924 INTRA-LIGAND FREE ENERGY PREDICTED BY IDOCK:   -0.43 KCAL/MOL
REMARK 927      BINDING AFFINITY PREDICTED BY RF-SCORE:    0.00 PKD
ROOT
HETATM    1  O   UNL     1      -7.671   8.051  70.601  1.00  0.00    -0.084 OA 
HETATM    2  C   UNL     1      -8.566   7.226  69.852  1.00  0.00    -0.141 C  
HETATM    3  H   UNL     1      -8.169   8.775  70.961  1.00  0.00     0.000 HD 
HETATM    4  C   UNL     1      -9.160   8.069  68.703  1.00  0.00    -0.140 A  
HETATM    5  C   UNL     1      -9.691   6.642  70.804  1.00  0.00    -0.190 C  
HETATM    6  C   UNL     1      -7.751   6.041  69.261  1.00  0.00    -0.095 C  
HETATM    7  C   UNL     1     -10.009   8.528  72.517  1.00  0.00    -0.322 C  
HETATM    8  C   UNL     1      -9.198   5.748  71.967  1.00  0.00    -0.156 C  
HETATM    9  C   UNL     1      -8.811   9.422  68.533  1.00  0.00    -0.128 A  
HETATM   10  C   UNL     1      -9.288  10.169  67.451  1.00  0.00    -0.167 A  
HETATM   11  C   UNL     1     -10.644   7.685  71.417  1.00  0.00    -0.236 C  
HETATM   12  C   UNL     1      -8.541   6.492  73.124  1.00  0.00    -0.126 C  
HETATM   13  C   UNL     1      -9.335   7.701  73.609  1.00  0.00    -0.344 C  
HETATM   14  C   UNL     1     -10.131   9.579  66.514  1.00  0.00    -0.326 A  
HETATM   15  C   UNL     1     -10.027   7.500  67.752  1.00  0.00    -0.214 A  
HETATM   16  C   UNL     1     -10.506   8.248  66.667  1.00  0.00    -0.217 A  
ENDROOT
BRANCH   6  17
HETATM   17  C   UNL     1      -6.617   6.407  68.291  1.00  0.00    -0.066 C  
BRANCH  17  18
HETATM   18  N   UNL     1      -6.607   5.471  67.152  1.00  0.00    -0.055 NA 
HETATM   19  C   UNL     1      -5.697   4.338  67.343  1.00  0.00    -0.022 C  
HETATM   20  C   UNL     1      -6.186   3.334  66.322  1.00  0.00    -0.028 C  
HETATM   21  C   UNL     1      -7.693   3.483  66.382  1.00  0.00    -0.084 C  
HETATM   22  C   UNL     1      -7.935   4.906  66.881  1.00  0.00    -0.103 C  
ENDBRANCH  17  18
ENDBRANCH   6  17
TORSDOF 2
ENDMDL
MODEL      161
REMARK 921   NORMALIZED FREE ENERGY PREDICTED BY IDOCK:   -2.60 KCAL/MOL
REMARK 922        TOTAL FREE ENERGY PREDICTED BY IDOCK:   -3.58 KCAL/MOL
REMARK 923 INTER-LIGAND FREE ENERGY PREDICTED BY IDOCK:   -3.21 KCAL/MOL
REMARK 924 INTRA-LIGAND FREE ENERGY PREDICTED BY IDOCK:   -0.37 KCAL/MOL
REMARK 927      BINDING AFFINITY PREDICTED BY RF-SCORE:    0.00 PKD
ROOT
HETATM    1  O   UNL     1      -9.482   9.689  67.987  1.00  0.00    -0.132 OA 
HETATM    2  C   UNL     1      -8.300   9.374  67.248  1.00  0.00    -0.125 C  
HETATM    3  H   UNL     1     -10.211   9.227  67.589  1.00  0.00     0.000 HD 
HETATM    4  C   UNL     1      -8.489   9.860  65.795  1.00  0.00    -0.142 A  
HETATM    5  C   UNL     1      -8.013   7.816  67.321  1.00  0.00    -0.118 C  
HETATM    6  C   UNL     1      -7.108  10.130  67.900  1.00  0.00    -0.085 C  
HETATM    7  C   UNL     1     -10.375   6.816  67.425  1.00  0.00    -0.286 C  
HETATM    8  C   UNL     1      -7.769   7.238  68.736  1.00  0.00    -0.119 C  
HETATM    9  C   UNL     1      -9.681  10.484  65.383  1.00  0.00    -0.315 A  
HETATM   10  C   UNL     1      -9.829  10.993  64.089  1.00  0.00    -0.360 A  
HETATM   11  C   UNL     1      -9.067   6.918  66.649  1.00  0.00    -0.172 C  
HETATM   12  C   UNL     1      -9.016   7.095  69.603  1.00  0.00    -0.141 C  
HETATM   13  C   UNL     1     -10.188   6.428  68.890  1.00  0.00    -0.215 C  
HETATM   14  C   UNL     1      -8.787  10.885  63.173  1.00  0.00    -0.186 A  
HETATM   15  C   UNL     1      -7.456   9.749  64.847  1.00  0.00    -0.129 A  
HETATM   16  C   UNL     1      -7.604  10.258  63.549  1.00  0.00    -0.104 A  
ENDROOT
BRANCH   6  17
HETATM   17  C   UNL     1      -7.193  11.665  67.908  1.00  0.00    -0.083 C  
BRANCH  17  18
HETATM   18  N   UNL     1      -6.110  12.224  68.736  1.00  0.00    -0.064 NA 
HETATM   19  C   UNL     1      -6.532  13.374  69.541  1.00  0.00    -0.083 C  
HETATM   20  C   UNL     1      -5.450  13.469  70.594  1.00  0.00    -0.155 C  
HETATM   21  C   UNL     1      -5.155  12.018  70.921  1.00  0.00    -0.135 C  
HETATM   22  C   UNL     1      -5.552  11.237  69.670  1.00  0.00    -0.061 C  
ENDBRANCH  17  18
ENDBRANCH   6  17
TORSDOF 2
ENDMDL
MODEL      162
REMARK 921   NORMALIZED FREE ENERGY PREDICTED BY IDOCK:   -2.48 KCAL/MOL
REMARK 922        TOTAL FREE ENERGY PREDICTED BY IDOCK:   -3.45 KCAL/MOL
REMARK 923 INTER-LIGAND FREE ENERGY PREDICTED BY IDOCK:   -2.79 KCAL/MOL
REMARK 924 INTRA-LIGAND FREE ENERGY PREDICTED BY IDOCK:   -0.65 KCAL/MOL
REMARK 927      BINDING AFFINITY PREDICTED BY RF-SCORE:    0.00 PKD
ROOT
HETATM    1  O   UNL     1      -8.740  10.203  67.705  1.00  0.00    -0.122 OA 
HETATM    2  C   UNL     1      -7.443  10.540  67.207  1.00  0.00    -0.095 C  
HETATM    3  H   UNL     1      -8.845   9.261  67.642  1.00  0.00     0.000 HD 
HETATM    4  C   UNL     1      -7.362  10.108  65.727  1.00  0.00    -0.128 A  
HETATM    5  C   UNL     1      -6.325   9.846  68.091  1.00  0.00    -0.055 C  
HETATM    6  C   UNL     1      -7.271  12.082  67.310  1.00  0.00    -0.150 C  
HETATM    7  C   UNL     1      -7.452   7.651  68.798  1.00  0.00    -0.100 C  
HETATM    8  C   UNL     1      -6.297  10.246  69.586  1.00  0.00    -0.062 C  
HETATM    9  C   UNL     1      -8.448   9.482  65.088  1.00  0.00    -0.160 A  
HETATM   10  C   UNL     1      -8.407   9.156  63.729  1.00  0.00    -0.183 A  
HETATM   11  C   UNL     1      -6.304   8.307  68.041  1.00  0.00    -0.056 C  
HETATM   12  C   UNL     1      -7.409   9.645  70.439  1.00  0.00    -0.156 C  
HETATM   13  C   UNL     1      -7.599   8.145  70.236  1.00  0.00    -0.080 C  
HETATM   14  C   UNL     1      -7.274   9.446  62.976  1.00  0.00    -0.103 A  
HETATM   15  C   UNL     1      -6.221  10.377  64.949  1.00  0.00    -0.097 A  
HETATM   16  C   UNL     1      -6.179  10.050  63.586  1.00  0.00    -0.131 A  
ENDROOT
BRANCH   6  17
HETATM   17  C   UNL     1      -8.260  12.936  66.500  1.00  0.00     0.371 C  
BRANCH  17  18
HETATM   18  N   UNL     1      -9.579  12.938  67.158  1.00  0.00    -0.219 NA 
HETATM   19  C   UNL     1      -9.929  14.234  67.748  1.00  0.00    -0.227 C  
HETATM   20  C   UNL     1     -11.427  14.130  67.932  1.00  0.00    -0.340 C  
HETATM   21  C   UNL     1     -11.880  13.394  66.687  1.00  0.00    -0.443 C  
HETATM   22  C   UNL     1     -10.665  12.587  66.234  1.00  0.00    -0.260 C  
ENDBRANCH  17  18
ENDBRANCH   6  17
TORSDOF 2
ENDMDL
MODEL      163
REMARK 921   NORMALIZED FREE ENERGY PREDICTED BY IDOCK:   -2.27 KCAL/MOL
REMARK 922        TOTAL FREE ENERGY PREDICTED BY IDOCK:   -3.21 KCAL/MOL
REMARK 923 INTER-LIGAND FREE ENERGY PREDICTED BY IDOCK:   -2.68 KCAL/MOL
REMARK 924 INTRA-LIGAND FREE ENERGY PREDICTED BY IDOCK:   -0.54 KCAL/MOL
REMARK 927      BINDING AFFINITY PREDICTED BY RF-SCORE:    0.00 PKD
ROOT
HETATM    1  O   UNL     1      -9.312   6.320  68.471  1.00  0.00    -0.123 OA 
HETATM    2  C   UNL     1      -8.092   6.472  69.201  1.00  0.00    -0.112 C  
HETATM    3  H   UNL     1      -9.999   6.768  68.949  1.00  0.00     0.000 HD 
HETATM    4  C   UNL     1      -8.270   5.817  70.588  1.00  0.00    -0.119 A  
HETATM    5  C   UNL     1      -7.713   8.007  69.312  1.00  0.00    -0.102 C  
HETATM    6  C   UNL     1      -6.966   5.738  68.418  1.00  0.00    -0.068 C  
HETATM    7  C   UNL     1     -10.012   9.145  69.417  1.00  0.00    -0.192 C  
HETATM    8  C   UNL     1      -7.474   8.746  67.972  1.00  0.00    -0.093 C  
HETATM    9  C   UNL     1      -9.485   5.214  70.960  1.00  0.00    -0.214 A  
HETATM   10  C   UNL     1      -9.628   4.555  72.186  1.00  0.00    -0.206 A  
HETATM   11  C   UNL     1      -8.692   8.871  70.128  1.00  0.00    -0.168 C  
HETATM   12  C   UNL     1      -8.734   9.067  67.175  1.00  0.00    -0.123 C  
HETATM   13  C   UNL     1      -9.843   9.703  68.006  1.00  0.00    -0.175 C  
HETATM   14  C   UNL     1      -8.556   4.488  73.070  1.00  0.00    -0.105 A  
HETATM   15  C   UNL     1      -7.206   5.749  71.505  1.00  0.00    -0.082 A  
HETATM   16  C   UNL     1      -7.347   5.089  72.734  1.00  0.00    -0.090 A  
ENDROOT
BRANCH   6  17
HETATM   17  C   UNL     1      -7.145   4.224  68.222  1.00  0.00    -0.059 C  
BRANCH  17  18
HETATM   18  N   UNL     1      -7.648   3.949  66.863  1.00  0.00    -0.080 NA 
HETATM   19  C   UNL     1      -9.076   3.619  66.831  1.00  0.00    -0.166 C  
HETATM   20  C   UNL     1      -9.441   3.833  65.378  1.00  0.00    -0.168 C  
HETATM   21  C   UNL     1      -8.646   5.066  64.999  1.00  0.00    -0.149 C  
HETATM   22  C   UNL     1      -7.456   5.087  65.955  1.00  0.00    -0.082 C  
ENDBRANCH  17  18
ENDBRANCH   6  17
TORSDOF 2
ENDMDL
MODEL      164
REMARK 921   NORMALIZED FREE ENERGY PREDICTED BY IDOCK:   -2.20 KCAL/MOL
REMARK 922        TOTAL FREE ENERGY PREDICTED BY IDOCK:   -3.14 KCAL/MOL
REMARK 923 INTER-LIGAND FREE ENERGY PREDICTED BY IDOCK:   -2.65 KCAL/MOL
REMARK 924 INTRA-LIGAND FREE ENERGY PREDICTED BY IDOCK:   -0.48 KCAL/MOL
REMARK 927      BINDING AFFINITY PREDICTED BY RF-SCORE:    0.00 PKD
ROOT
HETATM    1  O   UNL     1      -9.624   5.118  67.399  1.00  0.00    -0.126 OA 
HETATM    2  C   UNL     1      -8.416   5.788  67.030  1.00  0.00    -0.107 C  
HETATM    3  H   UNL     1     -10.213   5.142  66.654  1.00  0.00     0.000 HD 
HETATM    4  C   UNL     1      -8.757   7.254  66.687  1.00  0.00    -0.136 A  
HETATM    5  C   UNL     1      -7.727   5.037  65.815  1.00  0.00    -0.091 C  
HETATM    6  C   UNL     1      -7.451   5.749  68.249  1.00  0.00    -0.081 C  
HETATM    7  C   UNL     1      -9.739   4.132  64.504  1.00  0.00    -0.168 C  
HETATM    8  C   UNL     1      -7.310   3.569  66.074  1.00  0.00    -0.072 C  
HETATM    9  C   UNL     1     -10.080   7.730  66.750  1.00  0.00    -0.341 A  
HETATM   10  C   UNL     1     -10.384   9.075  66.512  1.00  0.00    -0.263 A  
HETATM   11  C   UNL     1      -8.522   5.048  64.497  1.00  0.00    -0.142 C  
HETATM   12  C   UNL     1      -8.457   2.564  66.105  1.00  0.00    -0.099 C  
HETATM   13  C   UNL     1      -9.427   2.701  64.936  1.00  0.00    -0.094 C  
HETATM   14  C   UNL     1      -9.369   9.975  66.201  1.00  0.00    -0.220 A  
HETATM   15  C   UNL     1      -7.751   8.180  66.355  1.00  0.00    -0.092 A  
HETATM   16  C   UNL     1      -8.055   9.528  66.116  1.00  0.00    -0.111 A  
ENDROOT
BRANCH   6  17
HETATM   17  C   UNL     1      -7.938   6.447  69.529  1.00  0.00    -0.113 C  
BRANCH  17  18
HETATM   18  N   UNL     1      -7.151   7.672  69.764  1.00  0.00    -0.065 NA 
HETATM   19  C   UNL     1      -7.977   8.879  69.868  1.00  0.00    -0.108 C  
HETATM   20  C   UNL     1      -7.051   9.868  70.541  1.00  0.00    -0.110 C  
HETATM   21  C   UNL     1      -6.314   9.017  71.557  1.00  0.00    -0.079 C  
HETATM   22  C   UNL     1      -6.355   7.597  70.996  1.00  0.00    -0.035 C  
ENDBRANCH  17  18
ENDBRANCH   6  17
TORSDOF 2
ENDMDL
MODEL      165
REMARK 921   NORMALIZED FREE ENERGY PREDICTED BY IDOCK:   -2.17 KCAL/MOL
REMARK 922        TOTAL FREE ENERGY PREDICTED BY IDOCK:   -3.10 KCAL/MOL
REMARK 923 INTER-LIGAND FREE ENERGY PREDICTED BY IDOCK:   -2.54 KCAL/MOL
REMARK 924 INTRA-LIGAND FREE ENERGY PREDICTED BY IDOCK:   -0.56 KCAL/MOL
REMARK 927      BINDING AFFINITY PREDICTED BY RF-SCORE:    0.00 PKD
ROOT
HETATM    1  O   UNL     1      -6.982  17.987  67.812  1.00  0.00    -0.202 OA 
HETATM    2  C   UNL     1      -7.512  19.163  67.197  1.00  0.00    -0.220 C  
HETATM    3  H   UNL     1      -6.054  18.123  67.959  1.00  0.00     0.000 HD 
HETATM    4  C   UNL     1      -6.799  19.369  65.843  1.00  0.00    -0.288 A  
HETATM    5  C   UNL     1      -7.329  20.409  68.161  1.00  0.00    -0.197 C  
HETATM    6  C   UNL     1      -9.032  18.940  66.957  1.00  0.00    -0.306 C  
HETATM    7  C   UNL     1      -5.135  19.861  69.374  1.00  0.00    -0.208 C  
HETATM    8  C   UNL     1      -8.042  20.317  69.532  1.00  0.00     0.728 C  
HETATM    9  C   UNL     1      -5.798  18.483  65.403  1.00  0.00    -0.267 A  
HETATM   10  C   UNL     1      -5.201  18.622  64.146  1.00  0.00    -0.156 A  
HETATM   11  C   UNL     1      -5.871  20.816  68.444  1.00  0.00    -0.377 C  
HETATM   12  C   UNL     1      -7.387  19.381  70.542  1.00  0.00     0.988 C  
HETATM   13  C   UNL     1      -5.881  19.577  70.676  1.00  0.00    -0.235 C  
HETATM   14  C   UNL     1      -5.591  19.655  63.299  1.00  0.00    -0.353 A  
HETATM   15  C   UNL     1      -7.164  20.415  64.977  1.00  0.00     0.027 A  
HETATM   16  C   UNL     1      -6.566  20.555  63.716  1.00  0.00     0.034 A  
ENDROOT
BRANCH   6  17
HETATM   17  C   UNL     1      -9.414  17.779  66.025  1.00  0.00    -0.063 C  
BRANCH  17  18
HETATM   18  N   UNL     1      -9.664  16.560  66.816  1.00  0.00    -0.247 NA 
HETATM   19  C   UNL     1     -10.840  16.666  67.685  1.00  0.00    -0.258 C  
HETATM   20  C   UNL     1     -11.149  15.222  68.015  1.00  0.00    -0.312 C  
HETATM   21  C   UNL     1     -10.877  14.501  66.709  1.00  0.00    -0.305 C  
HETATM   22  C   UNL     1      -9.866  15.377  65.972  1.00  0.00    -0.326 C  
ENDBRANCH  17  18
ENDBRANCH   6  17
TORSDOF 2
ENDMDL
MODEL      166
REMARK 921   NORMALIZED FREE ENERGY PREDICTED BY IDOCK:   -2.04 KCAL/MOL
REMARK 922        TOTAL FREE ENERGY PREDICTED BY IDOCK:   -2.96 KCAL/MOL
REMARK 923 INTER-LIGAND FREE ENERGY PREDICTED BY IDOCK:   -2.53 KCAL/MOL
REMARK 924 INTRA-LIGAND FREE ENERGY PREDICTED BY IDOCK:   -0.43 KCAL/MOL
REMARK 927      BINDING AFFINITY PREDICTED BY RF-SCORE:    0.00 PKD
ROOT
HETATM    1  O   UNL     1      -9.258   8.925  67.602  1.00  0.00    -0.136 OA 
HETATM    2  C   UNL     1      -8.073   9.590  68.045  1.00  0.00    -0.102 C  
HETATM    3  H   UNL     1      -9.001   8.112  67.184  1.00  0.00     0.000 HD 
HETATM    4  C   UNL     1      -7.196   9.897  66.812  1.00  0.00    -0.091 A  
HETATM    5  C   UNL     1      -7.311   8.693  69.107  1.00  0.00    -0.076 C  
HETATM    6  C   UNL     1      -8.493  10.921  68.730  1.00  0.00    -0.150 C  
HETATM    7  C   UNL     1      -7.827   6.311  68.301  1.00  0.00    -0.105 C  
HETATM    8  C   UNL     1      -8.093   8.362  70.401  1.00  0.00    -0.109 C  
HETATM    9  C   UNL     1      -7.600   9.521  65.517  1.00  0.00    -0.105 A  
HETATM   10  C   UNL     1      -6.846   9.862  64.389  1.00  0.00    -0.125 A  
HETATM   11  C   UNL     1      -6.756   7.361  68.569  1.00  0.00    -0.054 C  
HETATM   12  C   UNL     1      -9.196   7.320  70.244  1.00  0.00    -0.155 C  
HETATM   13  C   UNL     1      -8.760   6.071  69.486  1.00  0.00    -0.125 C  
HETATM   14  C   UNL     1      -5.666  10.586  64.532  1.00  0.00    -0.100 A  
HETATM   15  C   UNL     1      -5.992  10.614  66.931  1.00  0.00    -0.063 A  
HETATM   16  C   UNL     1      -5.235  10.957  65.802  1.00  0.00    -0.133 A  
ENDROOT
BRANCH   6  17
HETATM   17  C   UNL     1      -9.235  11.940  67.849  1.00  0.00    -0.187 C  
BRANCH  17  18
HETATM   18  N   UNL     1      -8.431  13.168  67.716  1.00  0.00    -0.171 NA 
HETATM   19  C   UNL     1      -9.228  14.394  67.819  1.00  0.00    -0.192 C  
HETATM   20  C   UNL     1      -8.187  15.453  68.112  1.00  0.00    -0.144 C  
HETATM   21  C   UNL     1      -7.230  14.747  69.052  1.00  0.00    -0.135 C  
HETATM   22  C   UNL     1      -7.377  13.261  68.734  1.00  0.00    -0.070 C  
ENDBRANCH  17  18
ENDBRANCH   6  17
TORSDOF 2
ENDMDL
MODEL      167
REMARK 921   NORMALIZED FREE ENERGY PREDICTED BY IDOCK:   -1.79 KCAL/MOL
REMARK 922        TOTAL FREE ENERGY PREDICTED BY IDOCK:   -2.68 KCAL/MOL
REMARK 923 INTER-LIGAND FREE ENERGY PREDICTED BY IDOCK:   -2.31 KCAL/MOL
REMARK 924 INTRA-LIGAND FREE ENERGY PREDICTED BY IDOCK:   -0.37 KCAL/MOL
REMARK 927      BINDING AFFINITY PREDICTED BY RF-SCORE:    0.00 PKD
ROOT
HETATM    1  O   UNL     1     -11.011  15.195  67.727  1.00  0.00    -0.286 OA 
HETATM    2  C   UNL     1      -9.842  14.955  68.514  1.00  0.00    -0.217 C  
HETATM    3  H   UNL     1     -11.550  14.413  67.754  1.00  0.00     0.000 HD 
HETATM    4  C   UNL     1      -9.070  13.771  67.892  1.00  0.00    -0.193 A  
HETATM    5  C   UNL     1     -10.249  14.674  70.020  1.00  0.00     0.254 C  
HETATM    6  C   UNL     1      -8.958  16.234  68.468  1.00  0.00    -0.219 C  
HETATM    7  C   UNL     1     -12.512  13.488  69.775  1.00  0.00    -0.155 C  
HETATM    8  C   UNL     1     -10.994  15.820  70.746  1.00  0.00    -0.311 C  
HETATM    9  C   UNL     1      -9.548  13.108  66.746  1.00  0.00    -0.249 A  
HETATM   10  C   UNL     1      -8.817  12.084  66.136  1.00  0.00    -0.018 A  
HETATM   11  C   UNL     1     -11.069  13.392  70.254  1.00  0.00     0.580 C  
HETATM   12  C   UNL     1     -12.451  16.007  70.338  1.00  0.00    -0.002 C  
HETATM   13  C   UNL     1     -13.254  14.711  70.310  1.00  0.00     0.084 C  
HETATM   14  C   UNL     1      -7.588  11.696  66.661  1.00  0.00    -0.050 A  
HETATM   15  C   UNL     1      -7.834  13.350  68.414  1.00  0.00    -0.138 A  
HETATM   16  C   UNL     1      -7.099  12.323  67.803  1.00  0.00    -0.114 A  
ENDROOT
BRANCH   6  17
HETATM   17  C   UNL     1      -8.445  16.662  67.084  1.00  0.00    -0.189 C  
BRANCH  17  18
HETATM   18  N   UNL     1      -7.102  17.258  67.208  1.00  0.00    -0.158 NA 
HETATM   19  C   UNL     1      -6.711  18.051  66.038  1.00  0.00    -0.288 C  
HETATM   20  C   UNL     1      -5.573  18.896  66.566  1.00  0.00    -0.174 C  
HETATM   21  C   UNL     1      -6.028  19.256  67.966  1.00  0.00    -0.222 C  
HETATM   22  C   UNL     1      -6.988  18.141  68.375  1.00  0.00    -0.241 C  
ENDBRANCH  17  18
ENDBRANCH   6  17
TORSDOF 2
ENDMDL
MODEL      168
REMARK 921   NORMALIZED FREE ENERGY PREDICTED BY IDOCK:   -1.71 KCAL/MOL
REMARK 922        TOTAL FREE ENERGY PREDICTED BY IDOCK:   -2.59 KCAL/MOL
REMARK 923 INTER-LIGAND FREE ENERGY PREDICTED BY IDOCK:   -2.19 KCAL/MOL
REMARK 924 INTRA-LIGAND FREE ENERGY PREDICTED BY IDOCK:   -0.41 KCAL/MOL
REMARK 927      BINDING AFFINITY PREDICTED BY RF-SCORE:    0.00 PKD
ROOT
HETATM    1  O   UNL     1      -7.119  11.636  69.122  1.00  0.00    -0.115 OA 
HETATM    2  C   UNL     1      -8.045  11.176  68.135  1.00  0.00    -0.128 C  
HETATM    3  H   UNL     1      -6.496  12.213  68.696  1.00  0.00     0.000 HD 
HETATM    4  C   UNL     1      -7.262  10.389  67.062  1.00  0.00    -0.093 A  
HETATM    5  C   UNL     1      -8.833  12.404  67.515  1.00  0.00    -0.181 C  
HETATM    6  C   UNL     1      -9.065  10.232  68.833  1.00  0.00    -0.168 C  
HETATM    7  C   UNL     1      -7.087  14.284  67.588  1.00  0.00    -0.200 C  
HETATM    8  C   UNL     1      -9.683  13.234  68.507  1.00  0.00    -0.146 C  
HETATM    9  C   UNL     1      -5.866  10.232  67.145  1.00  0.00    -0.050 A  
HETATM   10  C   UNL     1      -5.162   9.458  66.217  1.00  0.00    -0.040 A  
HETATM   11  C   UNL     1      -7.976  13.403  66.718  1.00  0.00     0.332 C  
HETATM   12  C   UNL     1      -8.890  14.152  69.431  1.00  0.00     0.503 C  
HETATM   13  C   UNL     1      -7.839  14.992  68.712  1.00  0.00    -0.151 C  
HETATM   14  C   UNL     1      -5.840   8.825  65.180  1.00  0.00    -0.048 A  
HETATM   15  C   UNL     1      -7.923   9.753  65.996  1.00  0.00    -0.111 A  
HETATM   16  C   UNL     1      -7.218   8.977  65.064  1.00  0.00    -0.092 A  
ENDROOT
BRANCH   6  17
HETATM   17  C   UNL     1      -8.490   8.964  69.484  1.00  0.00    -0.128 C  
BRANCH  17  18
HETATM   18  N   UNL     1      -9.393   8.491  70.548  1.00  0.00    -0.164 NA 
HETATM   19  C   UNL     1     -10.320   9.523  71.022  1.00  0.00    -0.283 C  
HETATM   20  C   UNL     1     -11.392   8.720  71.726  1.00  0.00    -0.409 C  
HETATM   21  C   UNL     1     -11.552   7.502  70.838  1.00  0.00    -0.309 C  
HETATM   22  C   UNL     1     -10.214   7.351  70.119  1.00  0.00    -0.205 C  
ENDBRANCH  17  18
ENDBRANCH   6  17
TORSDOF 2
ENDMDL
MODEL      169
REMARK 921   NORMALIZED FREE ENERGY PREDICTED BY IDOCK:   -1.59 KCAL/MOL
REMARK 922        TOTAL FREE ENERGY PREDICTED BY IDOCK:   -2.46 KCAL/MOL
REMARK 923 INTER-LIGAND FREE ENERGY PREDICTED BY IDOCK:   -1.80 KCAL/MOL
REMARK 924 INTRA-LIGAND FREE ENERGY PREDICTED BY IDOCK:   -0.66 KCAL/MOL
REMARK 927      BINDING AFFINITY PREDICTED BY RF-SCORE:    0.00 PKD
ROOT
HETATM    1  O   UNL     1      -8.441   8.717  68.658  1.00  0.00    -0.127 OA 
HETATM    2  C   UNL     1      -7.892   7.405  68.803  1.00  0.00    -0.121 C  
HETATM    3  H   UNL     1      -9.382   8.657  68.771  1.00  0.00     0.000 HD 
HETATM    4  C   UNL     1      -8.490   6.502  67.702  1.00  0.00    -0.117 A  
HETATM    5  C   UNL     1      -8.193   6.849  70.257  1.00  0.00    -0.129 C  
HETATM    6  C   UNL     1      -6.351   7.503  68.617  1.00  0.00    -0.040 C  
HETATM    7  C   UNL     1     -10.469   7.903  70.800  1.00  0.00    -0.218 C  
HETATM    8  C   UNL     1      -7.600   7.665  71.431  1.00  0.00    -0.080 C  
HETATM    9  C   UNL     1      -9.423   7.001  66.776  1.00  0.00    -0.205 A  
HETATM   10  C   UNL     1      -9.911   6.207  65.732  1.00  0.00     0.401 A  
HETATM   11  C   UNL     1      -9.680   6.618  70.581  1.00  0.00    -0.183 C  
HETATM   12  C   UNL     1      -8.315   8.977  71.736  1.00  0.00     0.060 C  
HETATM   13  C   UNL     1      -9.833   8.846  71.819  1.00  0.00    -0.386 C  
HETATM   14  C   UNL     1      -9.478   4.893  65.594  1.00  0.00    -0.168 A  
HETATM   15  C   UNL     1      -8.079   5.165  67.552  1.00  0.00    -0.099 A  
HETATM   16  C   UNL     1      -8.567   4.369  66.506  1.00  0.00    -0.112 A  
ENDROOT
BRANCH   6  17
HETATM   17  C   UNL     1      -5.858   8.009  67.253  1.00  0.00    -0.042 C  
BRANCH  17  18
HETATM   18  N   UNL     1      -6.065   9.465  67.151  1.00  0.00    -0.062 NA 
HETATM   19  C   UNL     1      -5.243  10.234  68.090  1.00  0.00    -0.034 C  
HETATM   20  C   UNL     1      -5.274  11.629  67.506  1.00  0.00    -0.067 C  
HETATM   21  C   UNL     1      -5.198  11.382  66.012  1.00  0.00    -0.008 C  
HETATM   22  C   UNL     1      -5.767   9.980  65.808  1.00  0.00    -0.064 C  
ENDBRANCH  17  18
ENDBRANCH   6  17
TORSDOF 2
ENDMDL
MODEL      170
REMARK 921   NORMALIZED FREE ENERGY PREDICTED BY IDOCK:   -1.04 KCAL/MOL
REMARK 922        TOTAL FREE ENERGY PREDICTED BY IDOCK:   -1.84 KCAL/MOL
REMARK 923 INTER-LIGAND FREE ENERGY PREDICTED BY IDOCK:   -1.49 KCAL/MOL
REMARK 924 INTRA-LIGAND FREE ENERGY PREDICTED BY IDOCK:   -0.36 KCAL/MOL
REMARK 927      BINDING AFFINITY PREDICTED BY RF-SCORE:    0.00 PKD
ROOT
HETATM    1  O   UNL     1      -7.364  11.309  67.249  1.00  0.00    -0.107 OA 
HETATM    2  C   UNL     1      -8.137  11.217  68.447  1.00  0.00    -0.143 C  
HETATM    3  H   UNL     1      -7.492  12.175  66.880  1.00  0.00     0.000 HD 
HETATM    4  C   UNL     1      -9.625  11.409  68.082  1.00  0.00    -0.190 A  
HETATM    5  C   UNL     1      -7.639  12.294  69.499  1.00  0.00     0.639 C  
HETATM    6  C   UNL     1      -7.927   9.799  69.050  1.00  0.00    -0.096 C  
HETATM    7  C   UNL     1      -6.893  14.238  67.999  1.00  0.00    -0.150 C  
HETATM    8  C   UNL     1      -6.167  12.161  69.960  1.00  0.00    -0.097 C  
HETATM    9  C   UNL     1     -10.028  11.644  66.755  1.00  0.00    -0.229 A  
HETATM   10  C   UNL     1     -11.379  11.744  66.408  1.00  0.00    -0.361 A  
HETATM   11  C   UNL     1      -7.846  13.763  69.088  1.00  0.00     0.195 C  
HETATM   12  C   UNL     1      -5.125  12.608  68.940  1.00  0.00    -0.059 C  
HETATM   13  C   UNL     1      -5.423  13.965  68.309  1.00  0.00    -0.111 C  
HETATM   14  C   UNL     1     -12.361  11.616  67.385  1.00  0.00     1.076 A  
HETATM   15  C   UNL     1     -10.636  11.299  69.055  1.00  0.00    -0.241 A  
HETATM   16  C   UNL     1     -11.991  11.400  68.709  1.00  0.00    -0.353 A  
ENDROOT
BRANCH   6  17
HETATM   17  C   UNL     1      -8.371   8.613  68.179  1.00  0.00    -0.127 C  
BRANCH  17  18
HETATM   18  N   UNL     1      -9.110   7.636  68.999  1.00  0.00    -0.144 NA 
HETATM   19  C   UNL     1      -9.880   8.254  70.083  1.00  0.00    -0.184 C  
HETATM   20  C   UNL     1     -10.866   7.171  70.461  1.00  0.00    -0.269 C  
HETATM   21  C   UNL     1     -11.246   6.566  69.124  1.00  0.00    -0.367 C  
HETATM   22  C   UNL     1     -10.059   6.844  68.205  1.00  0.00    -0.167 C  
ENDBRANCH  17  18
ENDBRANCH   6  17
TORSDOF 2
ENDMDL
MODEL      171
REMARK 921   NORMALIZED FREE ENERGY PREDICTED BY IDOCK:   -0.60 KCAL/MOL
REMARK 922        TOTAL FREE ENERGY PREDICTED BY IDOCK:   -1.35 KCAL/MOL
REMARK 923 INTER-LIGAND FREE ENERGY PREDICTED BY IDOCK:   -3.17 KCAL/MOL
REMARK 924 INTRA-LIGAND FREE ENERGY PREDICTED BY IDOCK:    1.83 KCAL/MOL
REMARK 927      BINDING AFFINITY PREDICTED BY RF-SCORE:    0.00 PKD
ROOT
HETATM    1  O   UNL     1     -10.836   7.523  69.580  1.00  0.00    -0.291 OA 
HETATM    2  C   UNL     1     -10.069   8.129  70.622  1.00  0.00    -0.194 C  
HETATM    3  H   UNL     1     -11.358   6.828  69.963  1.00  0.00     0.000 HD 
HETATM    4  C   UNL     1      -9.137   7.057  71.228  1.00  0.00    -0.152 A  
HETATM    5  C   UNL     1     -11.034   8.762  71.709  1.00  0.00    -0.415 C  
HETATM    6  C   UNL     1      -9.214   9.267  69.994  1.00  0.00    -0.231 C  
HETATM    7  C   UNL     1     -13.045   7.168  71.667  1.00  0.00    -0.410 C  
HETATM    8  C   UNL     1     -11.982   9.878  71.207  1.00  0.00    -0.489 C  
HETATM    9  C   UNL     1      -9.145   5.732  70.756  1.00  0.00    -0.161 A  
HETATM   10  C   UNL     1      -8.252   4.776  71.250  1.00  0.00    -0.102 A  
HETATM   11  C   UNL     1     -11.903   7.756  72.486  1.00  0.00    -0.354 C  
HETATM   12  C   UNL     1     -13.163   9.398  70.371  1.00  0.00     0.541 C  
HETATM   13  C   UNL     1     -13.915   8.222  70.985  1.00  0.00     0.005 C  
HETATM   14  C   UNL     1      -7.331   5.124  72.233  1.00  0.00    -0.092 A  
HETATM   15  C   UNL     1      -8.208   7.381  72.234  1.00  0.00    -0.115 A  
HETATM   16  C   UNL     1      -7.313   6.423  72.730  1.00  0.00    -0.090 A  
ENDROOT
BRANCH   6  17
HETATM   17  C   UNL     1      -8.196   8.846  68.922  1.00  0.00    -0.117 C  
BRANCH  17  18
HETATM   18  N   UNL     1      -8.280   7.392  68.692  1.00  0.00    -0.124 NA 
HETATM   19  C   UNL     1      -9.160   7.032  67.576  1.00  0.00    -0.122 C  
HETATM   20  C   UNL     1      -8.736   5.616  67.252  1.00  0.00    -0.107 C  
HETATM   21  C   UNL     1      -7.231   5.656  67.423  1.00  0.00    -0.076 C  
HETATM   22  C   UNL     1      -6.969   6.795  68.407  1.00  0.00    -0.077 C  
ENDBRANCH  17  18
ENDBRANCH   6  17
TORSDOF 2
ENDMDL
MODEL      172
REMARK 921   NORMALIZED FREE ENERGY PREDICTED BY IDOCK:   -0.35 KCAL/MOL
REMARK 922        TOTAL FREE ENERGY PREDICTED BY IDOCK:   -1.07 KCAL/MOL
REMARK 923 INTER-LIGAND FREE ENERGY PREDICTED BY IDOCK:   -0.74 KCAL/MOL
REMARK 924 INTRA-LIGAND FREE ENERGY PREDICTED BY IDOCK:   -0.33 KCAL/MOL
REMARK 927      BINDING AFFINITY PREDICTED BY RF-SCORE:    0.00 PKD
ROOT
HETATM    1  O   UNL     1      -7.364  11.309  67.249  1.00  0.00    -0.107 OA 
HETATM    2  C   UNL     1      -8.143  11.213  68.443  1.00  0.00    -0.141 C  
HETATM    3  H   UNL     1      -7.491  12.176  66.882  1.00  0.00     0.000 HD 
HETATM    4  C   UNL     1      -9.629  11.405  68.072  1.00  0.00    -0.184 A  
HETATM    5  C   UNL     1      -7.650  12.287  69.501  1.00  0.00     0.639 C  
HETATM    6  C   UNL     1      -7.935   9.794  69.043  1.00  0.00    -0.096 C  
HETATM    7  C   UNL     1      -6.898  14.236  68.010  1.00  0.00    -0.150 C  
HETATM    8  C   UNL     1      -6.180  12.154  69.968  1.00  0.00    -0.097 C  
HETATM    9  C   UNL     1     -10.025  11.644  66.744  1.00  0.00    -0.229 A  
HETATM   10  C   UNL     1     -11.375  11.745  66.391  1.00  0.00    -0.361 A  
HETATM   11  C   UNL     1      -7.856  13.757  69.093  1.00  0.00     0.195 C  
HETATM   12  C   UNL     1      -5.134  12.604  68.953  1.00  0.00    -0.059 C  
HETATM   13  C   UNL     1      -5.429  13.963  68.326  1.00  0.00    -0.111 C  
HETATM   14  C   UNL     1     -12.362  11.613  67.364  1.00  0.00     1.076 A  
HETATM   15  C   UNL     1     -10.644  11.292  69.040  1.00  0.00    -0.241 A  
HETATM   16  C   UNL     1     -11.997  11.393  68.688  1.00  0.00    -0.317 A  
ENDROOT
BRANCH   6  17
HETATM   17  C   UNL     1      -8.374   8.610  68.167  1.00  0.00    -0.127 C  
BRANCH  17  18
HETATM   18  N   UNL     1      -7.484   8.491  66.998  1.00  0.00    -0.084 NA 
HETATM   19  C   UNL     1      -6.906   7.153  66.844  1.00  0.00    -0.072 C  
HETATM   20  C   UNL     1      -6.441   7.146  65.404  1.00  0.00    -0.047 C  
HETATM   21  C   UNL     1      -7.541   7.898  64.681  1.00  0.00    -0.109 C  
HETATM   22  C   UNL     1      -8.170   8.803  65.738  1.00  0.00    -0.121 C  
ENDBRANCH  17  18
ENDBRANCH   6  17
TORSDOF 2
ENDMDL
MODEL      173
REMARK 921   NORMALIZED FREE ENERGY PREDICTED BY IDOCK:    0.23 KCAL/MOL
REMARK 922        TOTAL FREE ENERGY PREDICTED BY IDOCK:   -0.42 KCAL/MOL
REMARK 923 INTER-LIGAND FREE ENERGY PREDICTED BY IDOCK:   -0.11 KCAL/MOL
REMARK 924 INTRA-LIGAND FREE ENERGY PREDICTED BY IDOCK:   -0.31 KCAL/MOL
REMARK 927      BINDING AFFINITY PREDICTED BY RF-SCORE:    0.00 PKD
ROOT
HETATM    1  O   UNL     1      -6.936  17.917  67.478  1.00  0.00    -0.188 OA 
HETATM    2  C   UNL     1      -8.070  17.793  68.339  1.00  0.00    -0.297 C  
HETATM    3  H   UNL     1      -7.234  18.270  66.647  1.00  0.00     0.000 HD 
HETATM    4  C   UNL     1      -9.071  16.812  67.689  1.00  0.00    -0.218 A  
HETATM    5  C   UNL     1      -8.716  19.218  68.596  1.00  0.00    -0.402 C  
HETATM    6  C   UNL     1      -7.583  17.215  69.698  1.00  0.00     0.536 C  
HETATM    7  C   UNL     1      -8.281  20.437  66.380  1.00  0.00    -0.144 C  
HETATM    8  C   UNL     1      -7.802  20.262  69.283  1.00  0.00     0.427 C  
HETATM    9  C   UNL     1      -8.803  16.215  66.444  1.00  0.00    -0.355 A  
HETATM   10  C   UNL     1      -9.671  15.270  65.886  1.00  0.00    -0.390 A  
HETATM   11  C   UNL     1      -9.321  19.902  67.357  1.00  0.00    -0.468 C  
HETATM   12  C   UNL     1      -6.720  20.862  68.392  1.00  0.00    -0.062 C  
HETATM   13  C   UNL     1      -7.230  21.332  67.034  1.00  0.00    -0.100 C  
HETATM   14  C   UNL     1     -10.831  14.904  66.562  1.00  0.00    -0.322 A  
HETATM   15  C   UNL     1     -10.257  16.438  68.345  1.00  0.00    -0.259 A  
HETATM   16  C   UNL     1     -11.128  15.491  67.787  1.00  0.00    -0.315 A  
ENDROOT
BRANCH   6  17
HETATM   17  C   UNL     1      -6.940  15.820  69.658  1.00  0.00    -0.157 C  
BRANCH  17  18
HETATM   18  N   UNL     1      -6.814  15.284  71.025  1.00  0.00     0.781 NA 
HETATM   19  C   UNL     1      -6.526  13.847  71.059  1.00  0.00     0.416 C  
HETATM   20  C   UNL     1      -6.002  13.638  72.463  1.00  0.00     0.701 C  
HETATM   21  C   UNL     1      -5.162  14.876  72.707  1.00  0.00    -0.061 C  
HETATM   22  C   UNL     1      -5.749  15.946  71.790  1.00  0.00     0.768 C  
ENDBRANCH  17  18
ENDBRANCH   6  17
TORSDOF 2
ENDMDL
MODEL      174
REMARK 921   NORMALIZED FREE ENERGY PREDICTED BY IDOCK:    1.31 KCAL/MOL
REMARK 922        TOTAL FREE ENERGY PREDICTED BY IDOCK:    0.79 KCAL/MOL
REMARK 923 INTER-LIGAND FREE ENERGY PREDICTED BY IDOCK:    0.69 KCAL/MOL
REMARK 924 INTRA-LIGAND FREE ENERGY PREDICTED BY IDOCK:    0.10 KCAL/MOL
REMARK 927      BINDING AFFINITY PREDICTED BY RF-SCORE:    0.00 PKD
ROOT
HETATM    1  O   UNL     1      -8.845  17.080  69.658  1.00  0.00     0.338 OA 
HETATM    2  C   UNL     1      -8.093  16.585  68.547  1.00  0.00    -0.218 C  
HETATM    3  H   UNL     1      -8.232  17.386  70.316  1.00  0.00     0.000 HD 
HETATM    4  C   UNL     1      -7.224  15.405  69.034  1.00  0.00    -0.153 A  
HETATM    5  C   UNL     1      -7.218  17.750  67.922  1.00  0.00    -0.210 C  
HETATM    6  C   UNL     1      -9.096  16.084  67.470  1.00  0.00    -0.203 C  
HETATM    7  C   UNL     1      -6.642  19.181  69.974  1.00  0.00    -0.035 C  
HETATM    8  C   UNL     1      -8.002  18.964  67.368  1.00  0.00    -0.264 C  
HETATM    9  C   UNL     1      -7.245  14.988  70.378  1.00  0.00     0.390 A  
HETATM   10  C   UNL     1      -6.517  13.874  70.807  1.00  0.00     0.197 A  
HETATM   11  C   UNL     1      -6.115  18.312  68.838  1.00  0.00    -0.217 C  
HETATM   12  C   UNL     1      -8.577  19.902  68.424  1.00  0.00    -0.219 C  
HETATM   13  C   UNL     1      -7.580  20.293  69.510  1.00  0.00     0.406 C  
HETATM   14  C   UNL     1      -5.747  13.152  69.901  1.00  0.00    -0.121 A  
HETATM   15  C   UNL     1      -6.425  14.669  68.140  1.00  0.00    -0.142 A  
HETATM   16  C   UNL     1      -5.695  13.552  68.570  1.00  0.00    -0.088 A  
ENDROOT
BRANCH   6  17
HETATM   17  C   UNL     1     -10.027  14.934  67.884  1.00  0.00    -0.219 C  
BRANCH  17  18
HETATM   18  N   UNL     1      -9.663  13.705  67.156  1.00  0.00    -0.238 NA 
HETATM   19  C   UNL     1      -8.573  13.902  66.196  1.00  0.00     0.760 C  
HETATM   20  C   UNL     1      -8.089  12.493  65.937  1.00  0.00     1.297 C  
HETATM   21  C   UNL     1      -8.171  11.841  67.303  1.00  0.00    -0.163 C  
HETATM   22  C   UNL     1      -9.242  12.625  68.058  1.00  0.00    -0.208 C  
ENDBRANCH  17  18
ENDBRANCH   6  17
TORSDOF 2
ENDMDL
MODEL      175
REMARK 921   NORMALIZED FREE ENERGY PREDICTED BY IDOCK:    1.80 KCAL/MOL
REMARK 922        TOTAL FREE ENERGY PREDICTED BY IDOCK:    1.33 KCAL/MOL
REMARK 923 INTER-LIGAND FREE ENERGY PREDICTED BY IDOCK:    0.86 KCAL/MOL
REMARK 924 INTRA-LIGAND FREE ENERGY PREDICTED BY IDOCK:    0.47 KCAL/MOL
REMARK 927      BINDING AFFINITY PREDICTED BY RF-SCORE:    0.00 PKD
ROOT
HETATM    1  O   UNL     1      -9.239   9.909  68.855  1.00  0.00    -0.146 OA 
HETATM    2  C   UNL     1      -9.285  11.200  68.242  1.00  0.00    -0.169 C  
HETATM    3  H   UNL     1     -10.098   9.513  68.773  1.00  0.00     0.000 HD 
HETATM    4  C   UNL     1     -10.325  12.059  68.993  1.00  0.00    -0.042 A  
HETATM    5  C   UNL     1      -9.631  11.058  66.702  1.00  0.00    -0.216 C  
HETATM    6  C   UNL     1      -7.878  11.848  68.378  1.00  0.00    -0.141 C  
HETATM    7  C   UNL     1     -11.172   9.006  66.662  1.00  0.00     1.216 C  
HETATM    8  C   UNL     1      -8.624  10.245  65.852  1.00  0.00    -0.160 C  
HETATM    9  C   UNL     1     -11.055  11.540  70.078  1.00  0.00     0.021 A  
HETATM   10  C   UNL     1     -11.944  12.336  70.808  1.00  0.00    -0.101 A  
HETATM   11  C   UNL     1     -11.031  10.498  66.389  1.00  0.00    -0.019 C  
HETATM   12  C   UNL     1      -8.678   8.734  66.051  1.00  0.00    -0.193 C  
HETATM   13  C   UNL     1     -10.089   8.157  66.000  1.00  0.00     0.301 C  
HETATM   14  C   UNL     1     -12.126  13.672  70.465  1.00  0.00    -0.411 A  
HETATM   15  C   UNL     1     -10.538  13.408  68.656  1.00  0.00    -0.257 A  
HETATM   16  C   UNL     1     -11.429  14.207  69.387  1.00  0.00    -0.337 A  
ENDROOT
BRANCH   6  17
HETATM   17  C   UNL     1      -7.369  12.087  69.808  1.00  0.00     0.705 C  
BRANCH  17  18
HETATM   18  N   UNL     1      -6.378  11.057  70.169  1.00  0.00    -0.148 NA 
HETATM   19  C   UNL     1      -6.133  10.970  71.611  1.00  0.00     1.113 C  
HETATM   20  C   UNL     1      -5.483   9.613  71.765  1.00  0.00    -0.062 C  
HETATM   21  C   UNL     1      -6.249   8.749  70.782  1.00  0.00    -0.039 C  
HETATM   22  C   UNL     1      -6.780   9.716  69.726  1.00  0.00    -0.062 C  
ENDBRANCH  17  18
ENDBRANCH   6  17
TORSDOF 2
ENDMDL
MODEL      176
REMARK 921   NORMALIZED FREE ENERGY PREDICTED BY IDOCK:    1.87 KCAL/MOL
REMARK 922        TOTAL FREE ENERGY PREDICTED BY IDOCK:    1.41 KCAL/MOL
REMARK 923 INTER-LIGAND FREE ENERGY PREDICTED BY IDOCK:    1.77 KCAL/MOL
REMARK 924 INTRA-LIGAND FREE ENERGY PREDICTED BY IDOCK:   -0.36 KCAL/MOL
REMARK 927      BINDING AFFINITY PREDICTED BY RF-SCORE:    0.00 PKD
ROOT
HETATM    1  O   UNL     1      -6.730  17.439  69.942  1.00  0.00    -0.031 OA 
HETATM    2  C   UNL     1      -7.445  18.231  68.991  1.00  0.00    -0.172 C  
HETATM    3  H   UNL     1      -5.829  17.738  69.957  1.00  0.00     0.000 HD 
HETATM    4  C   UNL     1      -6.807  18.018  67.601  1.00  0.00    -0.196 A  
HETATM    5  C   UNL     1      -7.425  19.754  69.428  1.00  0.00    -0.139 C  
HETATM    6  C   UNL     1      -8.921  17.741  68.966  1.00  0.00    -0.012 C  
HETATM    7  C   UNL     1      -5.142  19.975  70.581  1.00  0.00    -0.245 C  
HETATM    8  C   UNL     1      -8.080  20.077  70.793  1.00  0.00     1.641 C  
HETATM    9  C   UNL     1      -5.697  17.170  67.429  1.00  0.00    -0.166 A  
HETATM   10  C   UNL     1      -5.161  16.917  66.162  1.00  0.00     0.370 A  
HETATM   11  C   UNL     1      -6.037  20.422  69.431  1.00  0.00    -0.361 C  
HETATM   12  C   UNL     1      -7.266  19.667  72.016  1.00  0.00     2.049 C  
HETATM   13  C   UNL     1      -5.803  20.092  71.952  1.00  0.00    -0.300 C  
HETATM   14  C   UNL     1      -5.722  17.510  65.036  1.00  0.00     0.958 A  
HETATM   15  C   UNL     1      -7.346  18.619  66.449  1.00  0.00    -0.272 A  
HETATM   16  C   UNL     1      -6.810  18.366  65.179  1.00  0.00     0.229 A  
ENDROOT
BRANCH   6  17
HETATM   17  C   UNL     1      -9.150  16.281  68.544  1.00  0.00    -0.216 C  
BRANCH  17  18
HETATM   18  N   UNL     1     -10.532  15.876  68.862  1.00  0.00    -0.221 NA 
HETATM   19  C   UNL     1     -10.658  14.450  69.179  1.00  0.00    -0.218 C  
HETATM   20  C   UNL     1     -11.992  14.377  69.890  1.00  0.00    -0.391 C  
HETATM   21  C   UNL     1     -12.007  15.639  70.730  1.00  0.00    -0.438 C  
HETATM   22  C   UNL     1     -11.082  16.614  70.006  1.00  0.00    -0.094 C  
ENDBRANCH  17  18
ENDBRANCH   6  17
TORSDOF 2
ENDMDL
MODEL      177
REMARK 921   NORMALIZED FREE ENERGY PREDICTED BY IDOCK:    2.31 KCAL/MOL
REMARK 922        TOTAL FREE ENERGY PREDICTED BY IDOCK:    1.90 KCAL/MOL
REMARK 923 INTER-LIGAND FREE ENERGY PREDICTED BY IDOCK:    2.31 KCAL/MOL
REMARK 924 INTRA-LIGAND FREE ENERGY PREDICTED BY IDOCK:   -0.41 KCAL/MOL
REMARK 927      BINDING AFFINITY PREDICTED BY RF-SCORE:    0.00 PKD
ROOT
HETATM    1  O   UNL     1      -8.471   9.200  63.032  1.00  0.00    -0.191 OA 
HETATM    2  C   UNL     1      -8.414   9.530  64.422  1.00  0.00    -0.181 C  
HETATM    3  H   UNL     1      -8.259   9.981  62.534  1.00  0.00     0.000 HD 
HETATM    4  C   UNL     1      -9.464  10.625  64.706  1.00  0.00    -0.306 A  
HETATM    5  C   UNL     1      -6.949   9.995  64.810  1.00  0.00    -0.137 C  
HETATM    6  C   UNL     1      -8.761   8.251  65.236  1.00  0.00    -0.121 C  
HETATM    7  C   UNL     1      -6.143  11.152  62.665  1.00  0.00     0.217 C  
HETATM    8  C   UNL     1      -5.827   8.950  64.598  1.00  0.00    -0.064 C  
HETATM    9  C   UNL     1     -10.275  11.144  63.680  1.00  0.00    -0.444 A  
HETATM   10  C   UNL     1     -11.278  12.082  63.945  1.00  0.00    -0.490 A  
HETATM   11  C   UNL     1      -6.473  11.300  64.145  1.00  0.00     1.511 C  
HETATM   12  C   UNL     1      -5.419   8.721  63.147  1.00  0.00    -0.069 C  
HETATM   13  C   UNL     1      -5.178  10.008  62.365  1.00  0.00    -0.089 C  
HETATM   14  C   UNL     1     -11.491  12.526  65.247  1.00  0.00    -0.374 A  
HETATM   15  C   UNL     1      -9.688  11.102  66.011  1.00  0.00    -0.263 A  
HETATM   16  C   UNL     1     -10.693  12.042  66.278  1.00  0.00    -0.302 A  
ENDROOT
BRANCH   6  17
HETATM   17  C   UNL     1     -10.159   7.654  65.009  1.00  0.00     3.289 C  
BRANCH  17  18
HETATM   18  N   UNL     1     -10.426   6.605  66.009  1.00  0.00     0.553 NA 
HETATM   19  C   UNL     1     -10.198   5.249  65.500  1.00  0.00     0.212 C  
HETATM   20  C   UNL     1     -10.083   4.426  66.764  1.00  0.00    -0.177 C  
HETATM   21  C   UNL     1      -9.310   5.333  67.701  1.00  0.00    -0.128 C  
HETATM   22  C   UNL     1      -9.594   6.751  67.210  1.00  0.00    -0.137 C  
ENDBRANCH  17  18
ENDBRANCH   6  17
TORSDOF 2
ENDMDL
MODEL      178
REMARK 921   NORMALIZED FREE ENERGY PREDICTED BY IDOCK:    4.47 KCAL/MOL
REMARK 922        TOTAL FREE ENERGY PREDICTED BY IDOCK:    4.32 KCAL/MOL
REMARK 923 INTER-LIGAND FREE ENERGY PREDICTED BY IDOCK:    4.02 KCAL/MOL
REMARK 924 INTRA-LIGAND FREE ENERGY PREDICTED BY IDOCK:    0.30 KCAL/MOL
REMARK 927      BINDING AFFINITY PREDICTED BY RF-SCORE:    0.00 PKD
ROOT
HETATM    1  O   UNL     1      -8.492  15.140  68.279  1.00  0.00    -0.144 OA 
HETATM    2  C   UNL     1      -7.744  16.108  69.018  1.00  0.00    -0.222 C  
HETATM    3  H   UNL     1      -8.076  15.028  67.433  1.00  0.00     0.000 HD 
HETATM    4  C   UNL     1      -7.776  17.444  68.244  1.00  0.00    -0.241 A  
HETATM    5  C   UNL     1      -6.263  15.590  69.248  1.00  0.00    -0.123 C  
HETATM    6  C   UNL     1      -8.426  16.292  70.403  1.00  0.00     2.247 C  
HETATM    7  C   UNL     1      -5.812  14.226  67.121  1.00  0.00     0.859 C  
HETATM    8  C   UNL     1      -6.122  14.275  70.051  1.00  0.00    -0.150 C  
HETATM    9  C   UNL     1      -8.453  17.560  67.016  1.00  0.00    -0.252 A  
HETATM   10  C   UNL     1      -8.549  18.785  66.348  1.00  0.00    -0.294 A  
HETATM   11  C   UNL     1      -5.416  15.426  67.972  1.00  0.00    -0.135 C  
HETATM   12  C   UNL     1      -6.497  13.007  69.291  1.00  0.00    -0.103 C  
HETATM   13  C   UNL     1      -5.875  12.915  67.902  1.00  0.00    -0.123 C  
HETATM   14  C   UNL     1      -7.964  19.924  66.892  1.00  0.00    -0.339 A  
HETATM   15  C   UNL     1      -7.180  18.606  68.766  1.00  0.00    -0.330 A  
HETATM   16  C   UNL     1      -7.274  19.834  68.097  1.00  0.00    -0.329 A  
ENDROOT
BRANCH   6  17
HETATM   17  C   UNL     1      -9.873  16.811  70.390  1.00  0.00     1.564 C  
BRANCH  17  18
HETATM   18  N   UNL     1     -10.634  16.150  69.314  1.00  0.00    -0.258 NA 
HETATM   19  C   UNL     1     -11.760  15.353  69.808  1.00  0.00    -0.333 C  
HETATM   20  C   UNL     1     -12.618  15.175  68.574  1.00  0.00     0.575 C  
HETATM   21  C   UNL     1     -12.516  16.520  67.883  1.00  0.00     2.120 C  
HETATM   22  C   UNL     1     -11.187  17.110  68.349  1.00  0.00     0.036 C  
ENDBRANCH  17  18
ENDBRANCH   6  17
TORSDOF 2
ENDMDL
MODEL      179
REMARK 921   NORMALIZED FREE ENERGY PREDICTED BY IDOCK:   17.39 KCAL/MOL
REMARK 922        TOTAL FREE ENERGY PREDICTED BY IDOCK:   18.74 KCAL/MOL
REMARK 923 INTER-LIGAND FREE ENERGY PREDICTED BY IDOCK:   19.12 KCAL/MOL
REMARK 924 INTRA-LIGAND FREE ENERGY PREDICTED BY IDOCK:   -0.38 KCAL/MOL
REMARK 927      BINDING AFFINITY PREDICTED BY RF-SCORE:    0.00 PKD
ROOT
HETATM    1  O   UNL     1     -10.314  14.731  69.658  1.00  0.00    -0.378 OA 
HETATM    2  C   UNL     1     -10.607  16.127  69.565  1.00  0.00    -0.306 C  
HETATM    3  H   UNL     1      -9.845  14.581  70.470  1.00  0.00     0.000 HD 
HETATM    4  C   UNL     1      -9.273  16.905  69.544  1.00  0.00     0.319 A  
HETATM    5  C   UNL     1     -11.533  16.568  70.774  1.00  0.00    -0.045 C  
HETATM    6  C   UNL     1     -11.375  16.372  68.236  1.00  0.00    -0.241 C  
HETATM    7  C   UNL     1     -10.748  15.030  72.672  1.00  0.00     1.636 C  
HETATM    8  C   UNL     1     -12.914  15.873  70.860  1.00  0.00    -0.064 C  
HETATM    9  C   UNL     1      -8.037  16.237  69.623  1.00  0.00     0.288 A  
HETATM   10  C   UNL     1      -6.826  16.930  69.529  1.00  0.00    -0.125 A  
HETATM   11  C   UNL     1     -10.893  16.461  72.170  1.00  0.00     1.619 C  
HETATM   12  C   UNL     1     -12.883  14.429  71.350  1.00  0.00    -0.410 C  
HETATM   13  C   UNL     1     -12.043  14.223  72.607  1.00  0.00     0.090 C  
HETATM   14  C   UNL     1      -6.824  18.311  69.358  1.00  0.00    -0.138 A  
HETATM   15  C   UNL     1      -9.245  18.302  69.387  1.00  0.00     0.346 A  
HETATM   16  C   UNL     1      -8.032  18.998  69.293  1.00  0.00    -0.049 A  
ENDROOT
BRANCH   6  17
HETATM   17  C   UNL     1     -10.628  16.020  66.939  1.00  0.00    -0.300 C  
BRANCH  17  18
HETATM   18  N   UNL     1     -10.711  17.144  65.989  1.00  0.00    -0.189 NA 
HETATM   19  C   UNL     1      -9.431  17.451  65.343  1.00  0.00     0.952 C  
HETATM   20  C   UNL     1      -9.845  18.270  64.140  1.00  0.00     8.629 C  
HETATM   21  C   UNL     1     -11.113  17.582  63.672  1.00  0.00     6.389 C  
HETATM   22  C   UNL     1     -11.679  16.897  64.913  1.00  0.00     1.094 C  
ENDBRANCH  17  18
ENDBRANCH   6  17
TORSDOF 2
ENDMDL
MODEL      180
REMARK 921   NORMALIZED FREE ENERGY PREDICTED BY IDOCK:   21.41 KCAL/MOL
REMARK 922        TOTAL FREE ENERGY PREDICTED BY IDOCK:   23.23 KCAL/MOL
REMARK 923 INTER-LIGAND FREE ENERGY PREDICTED BY IDOCK:   22.98 KCAL/MOL
REMARK 924 INTRA-LIGAND FREE ENERGY PREDICTED BY IDOCK:    0.25 KCAL/MOL
REMARK 927      BINDING AFFINITY PREDICTED BY RF-SCORE:    0.00 PKD
ROOT
HETATM    1  O   UNL     1      -8.789  15.974  68.811  1.00  0.00    -0.200 OA 
HETATM    2  C   UNL     1      -8.752  17.110  69.678  1.00  0.00     0.851 C  
HETATM    3  H   UNL     1      -7.894  15.711  68.631  1.00  0.00     0.000 HD 
HETATM    4  C   UNL     1      -8.012  18.254  68.950  1.00  0.00    -0.198 A  
HETATM    5  C   UNL     1      -8.052  16.726  71.047  1.00  0.00     5.816 C  
HETATM    6  C   UNL     1     -10.217  17.541  69.971  1.00  0.00     0.681 C  
HETATM    7  C   UNL     1      -6.321  14.977  70.320  1.00  0.00    -0.116 C  
HETATM    8  C   UNL     1      -8.743  15.613  71.873  1.00  0.00     6.703 C  
HETATM    9  C   UNL     1      -7.492  18.080  67.655  1.00  0.00    -0.215 A  
HETATM   10  C   UNL     1      -6.887  19.135  66.963  1.00  0.00    -0.206 A  
HETATM   11  C   UNL     1      -6.564  16.345  70.944  1.00  0.00     1.716 C  
HETATM   12  C   UNL     1      -8.565  14.199  71.332  1.00  0.00     6.307 C  
HETATM   13  C   UNL     1      -7.123  13.854  70.973  1.00  0.00     1.921 C  
HETATM   14  C   UNL     1      -6.785  20.389  67.555  1.00  0.00    -0.320 A  
HETATM   15  C   UNL     1      -7.882  19.527  69.534  1.00  0.00     0.078 A  
HETATM   16  C   UNL     1      -7.276  20.585  68.842  1.00  0.00     0.181 A  
ENDROOT
BRANCH   6  17
HETATM   17  C   UNL     1     -11.060  17.972  68.761  1.00  0.00     0.835 C  
BRANCH  17  18
HETATM   18  N   UNL     1     -11.677  16.791  68.131  1.00  0.00     0.275 NA 
HETATM   19  C   UNL     1     -10.789  16.110  67.183  1.00  0.00    -0.216 C  
HETATM   20  C   UNL     1     -11.428  14.747  67.037  1.00  0.00    -0.362 C  
HETATM   21  C   UNL     1     -11.894  14.429  68.444  1.00  0.00    -0.354 C  
HETATM   22  C   UNL     1     -12.094  15.785  69.116  1.00  0.00    -0.198 C  
ENDBRANCH  17  18
ENDBRANCH   6  17
TORSDOF 2
ENDMDL
MODEL      181
REMARK 921   NORMALIZED FREE ENERGY PREDICTED BY IDOCK:   31.12 KCAL/MOL
REMARK 922        TOTAL FREE ENERGY PREDICTED BY IDOCK:   34.08 KCAL/MOL
REMARK 923 INTER-LIGAND FREE ENERGY PREDICTED BY IDOCK:   32.37 KCAL/MOL
REMARK 924 INTRA-LIGAND FREE ENERGY PREDICTED BY IDOCK:    1.71 KCAL/MOL
REMARK 927      BINDING AFFINITY PREDICTED BY RF-SCORE:    0.00 PKD
ROOT
HETATM    1  O   UNL     1      -8.149  15.715  68.803  1.00  0.00    -0.144 OA 
HETATM    2  C   UNL     1      -7.193  16.417  69.601  1.00  0.00     0.046 C  
HETATM    3  H   UNL     1      -8.331  16.238  68.031  1.00  0.00     0.000 HD 
HETATM    4  C   UNL     1      -7.811  17.768  70.024  1.00  0.00     1.801 A  
HETATM    5  C   UNL     1      -5.845  16.609  68.790  1.00  0.00    -0.136 C  
HETATM    6  C   UNL     1      -6.896  15.561  70.865  1.00  0.00     1.094 C  
HETATM    7  C   UNL     1      -6.674  16.846  66.372  1.00  0.00    -0.151 C  
HETATM    8  C   UNL     1      -5.125  15.309  68.354  1.00  0.00    -0.103 C  
HETATM    9  C   UNL     1      -9.106  18.139  69.616  1.00  0.00     0.851 A  
HETATM   10  C   UNL     1      -9.698  19.327  70.057  1.00  0.00     0.620 A  
HETATM   11  C   UNL     1      -5.947  17.502  67.540  1.00  0.00    -0.158 C  
HETATM   12  C   UNL     1      -5.774  14.568  67.189  1.00  0.00     0.855 C  
HETATM   13  C   UNL     1      -6.130  15.467  66.009  1.00  0.00     4.847 C  
HETATM   14  C   UNL     1      -9.005  20.174  70.916  1.00  0.00     1.913 A  
HETATM   15  C   UNL     1      -7.125  18.649  70.879  1.00  0.00     2.550 A  
HETATM   16  C   UNL     1      -7.717  19.840  71.322  1.00  0.00     2.005 A  
ENDROOT
BRANCH   6  17
HETATM   17  C   UNL     1      -8.086  15.281  71.796  1.00  0.00     5.143 C  
BRANCH  17  18
HETATM   18  N   UNL     1      -8.980  14.282  71.183  1.00  0.00     4.218 NA 
HETATM   19  C   UNL     1      -9.836  14.840  70.131  1.00  0.00     0.471 C  
HETATM   20  C   UNL     1     -10.290  13.610  69.375  1.00  0.00     0.266 C  
HETATM   21  C   UNL     1      -9.053  12.735  69.359  1.00  0.00     1.269 C  
HETATM   22  C   UNL     1      -8.242  13.165  70.580  1.00  0.00     5.116 C  
ENDBRANCH  17  18
ENDBRANCH   6  17
TORSDOF 2
ENDMDL
MODEL      182
REMARK 921   NORMALIZED FREE ENERGY PREDICTED BY IDOCK:   32.88 KCAL/MOL
REMARK 922        TOTAL FREE ENERGY PREDICTED BY IDOCK:   36.04 KCAL/MOL
REMARK 923 INTER-LIGAND FREE ENERGY PREDICTED BY IDOCK:   36.42 KCAL/MOL
REMARK 924 INTRA-LIGAND FREE ENERGY PREDICTED BY IDOCK:   -0.38 KCAL/MOL
REMARK 927      BINDING AFFINITY PREDICTED BY RF-SCORE:    0.00 PKD
ROOT
HETATM    1  O   UNL     1      -9.284  14.044  69.457  1.00  0.00    -0.126 OA 
HETATM    2  C   UNL     1      -9.282  15.326  70.089  1.00  0.00     0.424 C  
HETATM    3  H   UNL     1      -8.885  13.421  70.052  1.00  0.00     0.000 HD 
HETATM    4  C   UNL     1      -7.818  15.734  70.361  1.00  0.00     1.309 A  
HETATM    5  C   UNL     1     -10.142  15.276  71.420  1.00  0.00     1.430 C  
HETATM    6  C   UNL     1      -9.934  16.347  69.114  1.00  0.00    -0.273 C  
HETATM    7  C   UNL     1      -9.758  12.876  72.245  1.00  0.00    17.558 C  
HETATM    8  C   UNL     1     -11.638  14.915  71.248  1.00  0.00    -0.359 C  
HETATM    9  C   UNL     1      -6.748  14.890  70.011  1.00  0.00    -0.154 A  
HETATM   10  C   UNL     1      -5.418  15.285  70.187  1.00  0.00    -0.129 A  
HETATM   11  C   UNL     1      -9.589  14.364  72.530  1.00  0.00     7.331 C  
HETATM   12  C   UNL     1     -11.920  13.446  70.955  1.00  0.00    -0.129 C  
HETATM   13  C   UNL     1     -11.187  12.481  71.881  1.00  0.00     5.479 C  
HETATM   14  C   UNL     1      -5.127  16.536  70.722  1.00  0.00    -0.207 A  
HETATM   15  C   UNL     1      -7.499  16.987  70.916  1.00  0.00     4.449 A  
HETATM   16  C   UNL     1      -6.166  17.384  71.093  1.00  0.00     1.708 A  
ENDROOT
BRANCH   6  17
HETATM   17  C   UNL     1      -9.228  16.551  67.764  1.00  0.00    -0.202 C  
BRANCH  17  18
HETATM   18  N   UNL     1      -9.047  17.991  67.504  1.00  0.00    -0.252 NA 
HETATM   19  C   UNL     1      -8.465  18.271  66.188  1.00  0.00    -0.115 C  
HETATM   20  C   UNL     1      -8.798  19.732  65.973  1.00  0.00    -0.295 C  
HETATM   21  C   UNL     1     -10.197  19.856  66.544  1.00  0.00    -0.611 C  
HETATM   22  C   UNL     1     -10.310  18.736  67.575  1.00  0.00    -0.416 C  
ENDBRANCH  17  18
ENDBRANCH   6  17
TORSDOF 2
ENDMDL
